MODEL 1
REMARK VINA RESULT:     -12.9      0.000      0.000
REMARK SMILES COC(=O)c1c(NC(=O)[C@@H]2C[C@@H]2C(=O)NCCCCCCNC(=O)c2ccc(-c3c4nc(c(-c5c(F)c(F)c(F)c(F)c5F)c5ccc([nH]5)c(-c5c(F)c(F)c(F)c(F)c5F)c5nc(c(-c6c(F)c(F)c(F)c(F)c6F)c6ccc3[nH]6)C=C5)C=C4)cc2)sc2c1CC[N@@H+](Cc1ccccc1)C2
REMARK SMILES IDX 17 1 16 2 15 3 13 4 14 5 12 7 10 8 11 9 8 10 7 11 9 13 6 14
REMARK SMILES IDX 5 15 90 16 88 17 89 18 91 19 101 20 92 21 93 22 3 24 4 25
REMARK SMILES IDX 2 26 1 27 94 28 95 29 96 30 100 31 97 32 99 33 98 34 18 35
REMARK SMILES IDX 19 36 20 37 21 38 22 39 23 40 24 42 25 43 26 44 87 45 27 46
REMARK SMILES IDX 86 47 28 48 29 49 30 50 80 51 31 52 85 53 79 54 81 55 32 56
REMARK SMILES IDX 84 57 78 58 77 59 33 61 65 62 45 63 64 64 46 65 49 66 63 67
REMARK SMILES IDX 82 68 47 69 48 70 62 72 83 73 50 74 34 75 35 76 43 77 36 78
REMARK SMILES IDX 37 79 41 80 44 81 38 82 39 83 42 84 40 85 66 86 67 87 75 88
REMARK SMILES IDX 68 89 69 90 73 91 76 92 70 93 71 94 74 95 72 96 51 97 52 98
REMARK SMILES IDX 60 99 53 100 54 101 58 102 61 103 55 104 56 105 59 106
REMARK SMILES IDX 57 107
REMARK H PARENT 15 6 7 12 93 23 22 41 81 60 49 71
REMARK Flexibility Score: inf
ROOT
ATOM      1  C   UNL A   1      40.499  22.209  26.663  1.00  0.00     0.021 C 
ENDROOT
BRANCH   1   2
ATOM      2  C   UNL A   1      39.281  21.346  26.335  1.00  0.00     0.116 C 
BRANCH   2   3
ATOM      3  N   UNL A   1      38.619  21.832  25.146  1.00  0.00    -0.356 N 
ATOM      4  C   UNL A   1      37.323  22.203  24.912  1.00  0.00     0.223 C 
ATOM      5  O   UNL A   1      36.967  22.316  23.739  1.00  0.00    -0.275 OA
ATOM      6  H   UNL A   1      39.209  21.914  24.361  1.00  0.00     0.163 HD
BRANCH   4   7
ATOM      7  C   UNL A   1      36.439  22.765  25.959  1.00  0.00     0.091 C 
ATOM      8  C   UNL A   1      34.966  22.799  26.218  1.00  0.00     0.092 C 
ATOM      9  C   UNL A   1      35.621  24.025  25.729  1.00  0.00     0.028 C 
BRANCH   8  10
ATOM     10  C   UNL A   1      33.858  22.088  25.561  1.00  0.00     0.228 C 
ATOM     11  N   UNL A   1      32.694  22.523  24.994  1.00  0.00    -0.317 N 
ATOM     12  H   UNL A   1      32.145  21.738  24.764  1.00  0.00     0.170 HD
ATOM     13  O   UNL A   1      34.034  20.869  25.442  1.00  0.00    -0.274 OA
BRANCH  11  14
ATOM     14  C   UNL A   1      32.010  23.658  24.627  1.00  0.00     0.110 A 
ATOM     15  C   UNL A   1      31.148  24.663  25.042  1.00  0.00     0.098 A 
ATOM     16  C   UNL A   1      31.044  25.700  24.039  1.00  0.00    -0.006 A 
ATOM     17  S   UNL A   1      32.394  23.909  22.939  1.00  0.00    -0.116 S 
ATOM     18  C   UNL A   1      32.005  25.552  23.076  1.00  0.00     0.065 A 
ATOM     19  C   UNL A   1      30.151  26.901  24.017  1.00  0.00     0.099 C 
ATOM     20  C   UNL A   1      32.454  26.613  22.136  1.00  0.00     0.310 C 
ATOM     21  C   UNL A   1      30.379  27.754  22.739  1.00  0.00     0.267 C 
ATOM     22  N   UNL A   1      31.774  27.898  22.300  1.00  0.00    -0.326 N 
ATOM     23  H   UNL A   1      31.696  28.273  21.354  1.00  0.00     0.348 HD
BRANCH  15  24
ATOM     24  C   UNL A   1      30.365  24.757  26.253  1.00  0.00     0.341 C 
ATOM     25  O   UNL A   1      29.591  25.670  26.480  1.00  0.00    -0.246 OA
BRANCH  24  26
ATOM     26  O   UNL A   1      30.637  23.718  27.092  1.00  0.00    -0.465 OA
ATOM     27  C   UNL A   1      29.593  22.755  27.252  1.00  0.00     0.282 C 
ENDBRANCH  24  26
ENDBRANCH  15  24
BRANCH  22  28
ATOM     28  C   UNL A   1      32.556  28.987  22.894  1.00  0.00     0.299 C 
BRANCH  28  29
ATOM     29  C   UNL A   1      32.790  28.933  24.383  1.00  0.00     0.006 A 
ATOM     30  C   UNL A   1      31.984  29.668  25.267  1.00  0.00     0.009 A 
ATOM     31  C   UNL A   1      33.798  28.129  24.920  1.00  0.00     0.009 A 
ATOM     32  C   UNL A   1      32.093  29.491  26.647  1.00  0.00     0.001 A 
ATOM     33  C   UNL A   1      33.915  27.963  26.299  1.00  0.00     0.001 A 
ATOM     34  C   UNL A   1      33.038  28.612  27.162  1.00  0.00     0.000 A 
ENDBRANCH  28  29
ENDBRANCH  22  28
ENDBRANCH  11  14
ENDBRANCH   8  10
ENDBRANCH   4   7
ENDBRANCH   2   3
ENDBRANCH   1   2
BRANCH   1  35
ATOM     35  C   UNL A   1      41.623  21.547  27.460  1.00  0.00     0.002 C 
BRANCH  35  36
ATOM     36  C   UNL A   1      41.506  20.019  27.571  1.00  0.00     0.002 C 
BRANCH  36  37
ATOM     37  C   UNL A   1      42.608  19.182  26.897  1.00  0.00     0.021 C 
BRANCH  37  38
ATOM     38  C   UNL A   1      42.833  19.477  25.417  1.00  0.00     0.116 C 
BRANCH  38  39
ATOM     39  N   UNL A   1      44.239  19.547  25.039  1.00  0.00    -0.352 N 
ATOM     40  C   UNL A   1      45.067  20.643  24.893  1.00  0.00     0.251 C 
ATOM     41  H   UNL A   1      44.665  18.678  24.860  1.00  0.00     0.163 HD
ATOM     42  O   UNL A   1      46.135  20.517  24.299  1.00  0.00    -0.269 OA
BRANCH  40  43
ATOM     43  C   UNL A   1      44.716  21.966  25.470  1.00  0.00     0.039 A 
ATOM     44  C   UNL A   1      43.842  22.838  24.807  1.00  0.00     0.014 A 
ATOM     45  C   UNL A   1      45.329  22.395  26.638  1.00  0.00     0.014 A 
ATOM     46  C   UNL A   1      43.598  24.113  25.333  1.00  0.00     0.010 A 
ATOM     47  C   UNL A   1      45.008  23.602  27.213  1.00  0.00     0.010 A 
ATOM     48  C   UNL A   1      44.204  24.494  26.535  1.00  0.00    -0.014 A 
BRANCH  48  49
ATOM     49  C   UNL A   1      43.871  25.731  27.234  1.00  0.00     0.031 A 
ATOM     50  C   UNL A   1      44.770  26.846  26.848  1.00  0.00     0.074 A 
ATOM     51  C   UNL A   1      42.732  25.940  27.936  1.00  0.00     0.049 A 
ATOM     52  N   UNL A   1      45.657  27.418  27.590  1.00  0.00    -0.248 NA
ATOM     53  C   UNL A   1      44.822  27.255  25.433  1.00  0.00     0.031 C 
ATOM     54  C   UNL A   1      41.581  25.043  28.093  1.00  0.00     0.029 A 
ATOM     55  N   UNL A   1      42.322  27.058  28.606  1.00  0.00    -0.354 N 
ATOM     56  C   UNL A   1      46.236  28.404  26.799  1.00  0.00     0.074 A 
ATOM     57  C   UNL A   1      45.841  28.118  25.447  1.00  0.00     0.031 C 
ATOM     58  C   UNL A   1      40.540  25.721  28.632  1.00  0.00     0.029 A 
ATOM     59  C   UNL A   1      40.980  27.057  28.992  1.00  0.00     0.049 A 
ATOM     60  H   UNL A   1      42.927  27.809  28.801  1.00  0.00     0.167 HD
ATOM     61  C   UNL A   1      46.757  29.520  27.378  1.00  0.00     0.037 A 
ATOM     62  C   UNL A   1      40.289  28.091  29.544  1.00  0.00     0.037 A 
ATOM     63  C   UNL A   1      46.961  29.301  28.793  1.00  0.00     0.049 A 
ATOM     64  C   UNL A   1      41.290  29.045  30.082  1.00  0.00     0.074 A 
ATOM     65  C   UNL A   1      47.709  28.418  29.548  1.00  0.00     0.029 A 
ATOM     66  N   UNL A   1      46.017  29.816  29.646  1.00  0.00    -0.354 N 
ATOM     67  N   UNL A   1      42.052  28.798  31.107  1.00  0.00    -0.248 NA
ATOM     68  C   UNL A   1      41.748  30.104  29.199  1.00  0.00     0.031 C 
ATOM     69  C   UNL A   1      46.891  28.107  30.675  1.00  0.00     0.029 A 
ATOM     70  C   UNL A   1      45.728  28.873  30.594  1.00  0.00     0.049 A 
ATOM     71  H   UNL A   1      45.617  30.713  29.586  1.00  0.00     0.167 HD
ATOM     72  C   UNL A   1      43.285  29.320  30.754  1.00  0.00     0.074 A 
ATOM     73  C   UNL A   1      43.013  30.198  29.616  1.00  0.00     0.031 C 
ATOM     74  C   UNL A   1      44.435  28.758  31.227  1.00  0.00     0.037 A 
BRANCH  61  75
ATOM     75  C   UNL A   1      46.660  30.914  26.793  1.00  0.00     0.064 A 
ATOM     76  C   UNL A   1      47.815  31.727  26.808  1.00  0.00     0.173 A 
ATOM     77  C   UNL A   1      45.453  31.595  26.521  1.00  0.00     0.173 A 
ATOM     78  F   UNL A   1      49.023  31.195  27.052  1.00  0.00    -0.203 F 
ATOM     79  C   UNL A   1      47.746  33.117  26.685  1.00  0.00     0.198 A 
ATOM     80  C   UNL A   1      45.395  32.978  26.348  1.00  0.00     0.198 A 
ATOM     81  F   UNL A   1      44.263  30.987  26.518  1.00  0.00    -0.203 F 
ATOM     82  F   UNL A   1      48.851  33.853  26.859  1.00  0.00    -0.200 F 
ATOM     83  C   UNL A   1      46.535  33.743  26.468  1.00  0.00     0.200 A 
ATOM     84  F   UNL A   1      44.208  33.566  26.151  1.00  0.00    -0.200 F 
ATOM     85  F   UNL A   1      46.454  35.078  26.423  1.00  0.00    -0.200 F 
ENDBRANCH  61  75
BRANCH  62  86
ATOM     86  C   UNL A   1      38.858  28.479  29.419  1.00  0.00     0.064 A 
ATOM     87  C   UNL A   1      38.068  28.710  30.564  1.00  0.00     0.173 A 
ATOM     88  C   UNL A   1      38.328  28.940  28.201  1.00  0.00     0.173 A 
ATOM     89  F   UNL A   1      38.507  28.335  31.776  1.00  0.00    -0.203 F 
ATOM     90  C   UNL A   1      36.853  29.403  30.499  1.00  0.00     0.198 A 
ATOM     91  C   UNL A   1      37.113  29.628  28.136  1.00  0.00     0.198 A 
ATOM     92  F   UNL A   1      39.024  28.825  27.062  1.00  0.00    -0.203 F 
ATOM     93  F   UNL A   1      36.172  29.668  31.623  1.00  0.00    -0.200 F 
ATOM     94  C   UNL A   1      36.385  29.875  29.286  1.00  0.00     0.200 A 
ATOM     95  F   UNL A   1      36.684  30.108  26.959  1.00  0.00    -0.200 F 
ATOM     96  F   UNL A   1      35.260  30.603  29.230  1.00  0.00    -0.200 F 
ENDBRANCH  62  86
BRANCH  74  97
ATOM     97  C   UNL A   1      44.318  27.788  32.372  1.00  0.00     0.064 A 
ATOM     98  C   UNL A   1      44.149  28.155  33.719  1.00  0.00     0.173 A 
ATOM     99  C   UNL A   1      44.261  26.421  32.066  1.00  0.00     0.173 A 
ATOM    100  F   UNL A   1      44.096  29.442  34.085  1.00  0.00    -0.203 F 
ATOM    101  C   UNL A   1      43.979  27.193  34.714  1.00  0.00     0.198 A 
ATOM    102  C   UNL A   1      44.050  25.467  33.056  1.00  0.00     0.198 A 
ATOM    103  F   UNL A   1      44.369  26.013  30.792  1.00  0.00    -0.203 F 
ATOM    104  F   UNL A   1      43.841  27.567  35.995  1.00  0.00    -0.200 F 
ATOM    105  C   UNL A   1      43.921  25.851  34.380  1.00  0.00     0.200 A 
ATOM    106  F   UNL A   1      43.948  24.173  32.719  1.00  0.00    -0.200 F 
ATOM    107  F   UNL A   1      43.719  24.927  35.330  1.00  0.00    -0.200 F 
ENDBRANCH  74  97
ENDBRANCH  48  49
ENDBRANCH  40  43
ENDBRANCH  38  39
ENDBRANCH  37  38
ENDBRANCH  36  37
ENDBRANCH  35  36
ENDBRANCH   1  35
TORSDOF 19
ENDMDL
MODEL 2
REMARK VINA RESULT:     -12.8      1.556      2.487
REMARK SMILES COC(=O)c1c(NC(=O)[C@@H]2C[C@@H]2C(=O)NCCCCCCNC(=O)c2ccc(-c3c4nc(c(-c5c(F)c(F)c(F)c(F)c5F)c5ccc([nH]5)c(-c5c(F)c(F)c(F)c(F)c5F)c5nc(c(-c6c(F)c(F)c(F)c(F)c6F)c6ccc3[nH]6)C=C5)C=C4)cc2)sc2c1CC[N@@H+](Cc1ccccc1)C2
REMARK SMILES IDX 17 1 16 2 15 3 13 4 14 5 12 7 10 8 11 9 8 10 7 11 9 13 6 14
REMARK SMILES IDX 5 15 90 16 88 17 89 18 91 19 101 20 92 21 93 22 3 24 4 25
REMARK SMILES IDX 2 26 1 27 94 28 95 29 96 30 100 31 97 32 99 33 98 34 18 35
REMARK SMILES IDX 19 36 20 37 21 38 22 39 23 40 24 42 25 43 26 44 87 45 27 46
REMARK SMILES IDX 86 47 28 48 29 49 30 50 80 51 31 52 85 53 79 54 81 55 32 56
REMARK SMILES IDX 84 57 78 58 77 59 33 61 65 62 45 63 64 64 46 65 49 66 63 67
REMARK SMILES IDX 82 68 47 69 48 70 62 72 83 73 50 74 34 75 35 76 43 77 36 78
REMARK SMILES IDX 37 79 41 80 44 81 38 82 39 83 42 84 40 85 66 86 67 87 75 88
REMARK SMILES IDX 68 89 69 90 73 91 76 92 70 93 71 94 74 95 72 96 51 97 52 98
REMARK SMILES IDX 60 99 53 100 54 101 58 102 61 103 55 104 56 105 59 106
REMARK SMILES IDX 57 107
REMARK H PARENT 15 6 7 12 93 23 22 41 81 60 49 71
REMARK Flexibility Score: inf
ROOT
ATOM      1  C   UNL A   1      38.969  21.680  26.045  1.00  0.00     0.021 C 
ENDROOT
BRANCH   1   2
ATOM      2  C   UNL A   1      38.004  22.866  26.083  1.00  0.00     0.116 C 
BRANCH   2   3
ATOM      3  N   UNL A   1      37.563  23.204  24.749  1.00  0.00    -0.356 N 
ATOM      4  C   UNL A   1      36.662  22.609  23.909  1.00  0.00     0.223 C 
ATOM      5  O   UNL A   1      36.680  22.945  22.726  1.00  0.00    -0.275 OA
ATOM      6  H   UNL A   1      37.987  24.011  24.377  1.00  0.00     0.163 HD
BRANCH   4   7
ATOM      7  C   UNL A   1      35.493  21.838  24.391  1.00  0.00     0.091 C 
ATOM      8  C   UNL A   1      34.502  21.972  25.505  1.00  0.00     0.092 C 
ATOM      9  C   UNL A   1      35.564  20.959  25.630  1.00  0.00     0.028 C 
BRANCH   8  10
ATOM     10  C   UNL A   1      34.248  23.081  26.438  1.00  0.00     0.228 C 
ATOM     11  N   UNL A   1      33.940  24.397  26.239  1.00  0.00    -0.317 N 
ATOM     12  H   UNL A   1      33.963  24.859  27.108  1.00  0.00     0.170 HD
ATOM     13  O   UNL A   1      34.253  22.755  27.631  1.00  0.00    -0.274 OA
BRANCH  11  14
ATOM     14  C   UNL A   1      33.609  25.311  25.266  1.00  0.00     0.110 A 
ATOM     15  C   UNL A   1      33.214  25.493  23.949  1.00  0.00     0.098 A 
ATOM     16  C   UNL A   1      32.838  26.869  23.708  1.00  0.00    -0.006 A 
ATOM     17  S   UNL A   1      33.771  26.879  26.026  1.00  0.00    -0.116 S 
ATOM     18  C   UNL A   1      32.721  27.560  24.884  1.00  0.00     0.065 A 
ATOM     19  C   UNL A   1      32.462  27.529  22.419  1.00  0.00     0.099 C 
ATOM     20  C   UNL A   1      31.989  28.842  25.061  1.00  0.00     0.310 C 
ATOM     21  C   UNL A   1      32.124  29.032  22.629  1.00  0.00     0.267 C 
ATOM     22  N   UNL A   1      31.364  29.359  23.843  1.00  0.00    -0.326 N 
ATOM     23  H   UNL A   1      31.448  30.373  23.919  1.00  0.00     0.348 HD
BRANCH  15  24
ATOM     24  C   UNL A   1      33.185  24.543  22.861  1.00  0.00     0.341 C 
ATOM     25  O   UNL A   1      33.813  24.690  21.827  1.00  0.00    -0.246 OA
BRANCH  24  26
ATOM     26  O   UNL A   1      32.352  23.502  23.145  1.00  0.00    -0.465 OA
ATOM     27  C   UNL A   1      32.546  22.317  22.367  1.00  0.00     0.282 C 
ENDBRANCH  24  26
ENDBRANCH  15  24
BRANCH  22  28
ATOM     28  C   UNL A   1      29.903  29.273  23.764  1.00  0.00     0.299 C 
BRANCH  28  29
ATOM     29  C   UNL A   1      29.187  30.376  23.024  1.00  0.00     0.006 A 
ATOM     30  C   UNL A   1      29.050  31.653  23.590  1.00  0.00     0.009 A 
ATOM     31  C   UNL A   1      28.669  30.160  21.746  1.00  0.00     0.009 A 
ATOM     32  C   UNL A   1      28.537  32.714  22.842  1.00  0.00     0.001 A 
ATOM     33  C   UNL A   1      28.145  31.218  21.004  1.00  0.00     0.001 A 
ATOM     34  C   UNL A   1      28.114  32.502  21.535  1.00  0.00     0.000 A 
ENDBRANCH  28  29
ENDBRANCH  22  28
ENDBRANCH  11  14
ENDBRANCH   8  10
ENDBRANCH   4   7
ENDBRANCH   2   3
ENDBRANCH   1   2
BRANCH   1  35
ATOM     35  C   UNL A   1      40.439  21.972  26.343  1.00  0.00     0.002 C 
BRANCH  35  36
ATOM     36  C   UNL A   1      41.014  21.183  27.529  1.00  0.00     0.002 C 
BRANCH  36  37
ATOM     37  C   UNL A   1      41.912  19.977  27.198  1.00  0.00     0.021 C 
BRANCH  37  38
ATOM     38  C   UNL A   1      42.054  19.662  25.712  1.00  0.00     0.116 C 
BRANCH  38  39
ATOM     39  N   UNL A   1      43.434  19.656  25.242  1.00  0.00    -0.352 N 
ATOM     40  C   UNL A   1      44.304  20.706  25.021  1.00  0.00     0.251 C 
ATOM     41  H   UNL A   1      43.804  18.763  25.053  1.00  0.00     0.163 HD
ATOM     42  O   UNL A   1      45.322  20.516  24.361  1.00  0.00    -0.269 OA
BRANCH  40  43
ATOM     43  C   UNL A   1      44.057  22.054  25.594  1.00  0.00     0.039 A 
ATOM     44  C   UNL A   1      43.388  23.043  24.859  1.00  0.00     0.014 A 
ATOM     45  C   UNL A   1      44.574  22.381  26.838  1.00  0.00     0.014 A 
ATOM     46  C   UNL A   1      43.247  24.330  25.393  1.00  0.00     0.010 A 
ATOM     47  C   UNL A   1      44.343  23.611  27.408  1.00  0.00     0.010 A 
ATOM     48  C   UNL A   1      43.747  24.610  26.669  1.00  0.00    -0.014 A 
BRANCH  48  49
ATOM     49  C   UNL A   1      43.493  25.869  27.361  1.00  0.00     0.031 A 
ATOM     50  C   UNL A   1      44.448  26.929  26.956  1.00  0.00     0.074 A 
ATOM     51  C   UNL A   1      42.377  26.147  28.076  1.00  0.00     0.049 A 
ATOM     52  N   UNL A   1      45.375  27.455  27.682  1.00  0.00    -0.248 NA
ATOM     53  C   UNL A   1      44.505  27.324  25.537  1.00  0.00     0.031 C 
ATOM     54  C   UNL A   1      41.179  25.317  28.254  1.00  0.00     0.029 A 
ATOM     55  N   UNL A   1      42.038  27.291  28.742  1.00  0.00    -0.354 N 
ATOM     56  C   UNL A   1      45.998  28.402  26.876  1.00  0.00     0.074 A 
ATOM     57  C   UNL A   1      45.570  28.128  25.531  1.00  0.00     0.031 C 
ATOM     58  C   UNL A   1      40.185  26.056  28.801  1.00  0.00     0.029 A 
ATOM     59  C   UNL A   1      40.704  27.368  29.144  1.00  0.00     0.049 A 
ATOM     60  H   UNL A   1      42.687  28.008  28.923  1.00  0.00     0.167 HD
ATOM     61  C   UNL A   1      46.588  29.491  27.439  1.00  0.00     0.037 A 
ATOM     62  C   UNL A   1      40.079  28.444  29.696  1.00  0.00     0.037 A 
ATOM     63  C   UNL A   1      46.798  29.271  28.853  1.00  0.00     0.049 A 
ATOM     64  C   UNL A   1      41.138  29.343  30.215  1.00  0.00     0.074 A 
ATOM     65  C   UNL A   1      47.505  28.354  29.606  1.00  0.00     0.029 A 
ATOM     66  N   UNL A   1      45.895  29.844  29.714  1.00  0.00    -0.354 N 
ATOM     67  N   UNL A   1      41.898  29.061  31.232  1.00  0.00    -0.248 NA
ATOM     68  C   UNL A   1      41.643  30.369  29.317  1.00  0.00     0.031 C 
ATOM     69  C   UNL A   1      46.685  28.097  30.746  1.00  0.00     0.029 A 
ATOM     70  C   UNL A   1      45.565  28.926  30.673  1.00  0.00     0.049 A 
ATOM     71  H   UNL A   1      45.545  30.762  29.652  1.00  0.00     0.167 HD
ATOM     72  C   UNL A   1      43.154  29.511  30.860  1.00  0.00     0.074 A 
ATOM     73  C   UNL A   1      42.917  30.394  29.718  1.00  0.00     0.031 C 
ATOM     74  C   UNL A   1      44.276  28.889  31.322  1.00  0.00     0.037 A 
BRANCH  61  75
ATOM     75  C   UNL A   1      46.562  30.884  26.844  1.00  0.00     0.064 A 
ATOM     76  C   UNL A   1      47.759  31.633  26.844  1.00  0.00     0.173 A 
ATOM     77  C   UNL A   1      45.391  31.628  26.577  1.00  0.00     0.173 A 
ATOM     78  F   UNL A   1      48.938  31.039  27.082  1.00  0.00    -0.203 F 
ATOM     79  C   UNL A   1      47.765  33.024  26.711  1.00  0.00     0.198 A 
ATOM     80  C   UNL A   1      45.407  33.010  26.394  1.00  0.00     0.198 A 
ATOM     81  F   UNL A   1      44.170  31.085  26.589  1.00  0.00    -0.203 F 
ATOM     82  F   UNL A   1      48.910  33.700  26.869  1.00  0.00    -0.200 F 
ATOM     83  C   UNL A   1      46.588  33.713  26.499  1.00  0.00     0.200 A 
ATOM     84  F   UNL A   1      44.252  33.660  26.202  1.00  0.00    -0.200 F 
ATOM     85  F   UNL A   1      46.579  35.050  26.443  1.00  0.00    -0.200 F 
ENDBRANCH  61  75
BRANCH  62  86
ATOM     86  C   UNL A   1      38.670  28.910  29.586  1.00  0.00     0.064 A 
ATOM     87  C   UNL A   1      37.888  29.128  30.739  1.00  0.00     0.173 A 
ATOM     88  C   UNL A   1      38.171  29.454  28.389  1.00  0.00     0.173 A 
ATOM     89  F   UNL A   1      38.300  28.674  31.933  1.00  0.00    -0.203 F 
ATOM     90  C   UNL A   1      36.710  29.884  30.703  1.00  0.00     0.198 A 
ATOM     91  C   UNL A   1      36.993  30.206  28.354  1.00  0.00     0.198 A 
ATOM     92  F   UNL A   1      38.866  29.356  27.248  1.00  0.00    -0.203 F 
ATOM     93  F   UNL A   1      36.038  30.132  31.836  1.00  0.00    -0.200 F 
ATOM     94  C   UNL A   1      36.273  30.437  29.513  1.00  0.00     0.200 A 
ATOM     95  F   UNL A   1      36.595  30.762  27.200  1.00  0.00    -0.200 F 
ATOM     96  F   UNL A   1      35.188  31.224  29.487  1.00  0.00    -0.200 F 
ENDBRANCH  62  86
BRANCH  74  97
ATOM     97  C   UNL A   1      44.121  27.936  32.477  1.00  0.00     0.064 A 
ATOM     98  C   UNL A   1      43.992  26.541  32.354  1.00  0.00     0.173 A 
ATOM     99  C   UNL A   1      44.223  28.460  33.773  1.00  0.00     0.173 A 
ATOM    100  F   UNL A   1      43.982  25.949  31.152  1.00  0.00    -0.203 F 
ATOM    101  C   UNL A   1      43.922  25.720  33.479  1.00  0.00     0.198 A 
ATOM    102  C   UNL A   1      44.194  27.634  34.892  1.00  0.00     0.198 A 
ATOM    103  F   UNL A   1      44.394  29.779  33.953  1.00  0.00    -0.203 F 
ATOM    104  F   UNL A   1      43.778  24.393  33.336  1.00  0.00    -0.200 F 
ATOM    105  C   UNL A   1      44.031  26.266  34.746  1.00  0.00     0.200 A 
ATOM    106  F   UNL A   1      44.348  28.165  36.113  1.00  0.00    -0.200 F 
ATOM    107  F   UNL A   1      44.003  25.474  35.827  1.00  0.00    -0.200 F 
ENDBRANCH  74  97
ENDBRANCH  48  49
ENDBRANCH  40  43
ENDBRANCH  38  39
ENDBRANCH  37  38
ENDBRANCH  36  37
ENDBRANCH  35  36
ENDBRANCH   1  35
TORSDOF 19
ENDMDL
MODEL 3
REMARK VINA RESULT:     -12.0      2.824      8.690
REMARK SMILES COC(=O)c1c(NC(=O)[C@@H]2C[C@@H]2C(=O)NCCCCCCNC(=O)c2ccc(-c3c4nc(c(-c5c(F)c(F)c(F)c(F)c5F)c5ccc([nH]5)c(-c5c(F)c(F)c(F)c(F)c5F)c5nc(c(-c6c(F)c(F)c(F)c(F)c6F)c6ccc3[nH]6)C=C5)C=C4)cc2)sc2c1CC[N@@H+](Cc1ccccc1)C2
REMARK SMILES IDX 17 1 16 2 15 3 13 4 14 5 12 7 10 8 11 9 8 10 7 11 9 13 6 14
REMARK SMILES IDX 5 15 90 16 88 17 89 18 91 19 101 20 92 21 93 22 3 24 4 25
REMARK SMILES IDX 2 26 1 27 94 28 95 29 96 30 100 31 97 32 99 33 98 34 18 35
REMARK SMILES IDX 19 36 20 37 21 38 22 39 23 40 24 42 25 43 26 44 87 45 27 46
REMARK SMILES IDX 86 47 28 48 29 49 30 50 80 51 31 52 85 53 79 54 81 55 32 56
REMARK SMILES IDX 84 57 78 58 77 59 33 61 65 62 45 63 64 64 46 65 49 66 63 67
REMARK SMILES IDX 82 68 47 69 48 70 62 72 83 73 50 74 34 75 35 76 43 77 36 78
REMARK SMILES IDX 37 79 41 80 44 81 38 82 39 83 42 84 40 85 66 86 67 87 75 88
REMARK SMILES IDX 68 89 69 90 73 91 76 92 70 93 71 94 74 95 72 96 51 97 52 98
REMARK SMILES IDX 60 99 53 100 54 101 58 102 61 103 55 104 56 105 59 106
REMARK SMILES IDX 57 107
REMARK H PARENT 15 6 7 12 93 23 22 41 81 60 49 71
REMARK Flexibility Score: inf
ROOT
ATOM      1  C   UNL A   1      32.765  28.927  24.308  1.00  0.00     0.021 C 
ENDROOT
BRANCH   1   2
ATOM      2  C   UNL A   1      32.583  27.542  23.685  1.00  0.00     0.116 C 
BRANCH   2   3
ATOM      3  N   UNL A   1      33.063  26.515  24.581  1.00  0.00    -0.356 N 
ATOM      4  C   UNL A   1      32.520  25.965  25.710  1.00  0.00     0.223 C 
ATOM      5  O   UNL A   1      33.264  25.304  26.435  1.00  0.00    -0.275 OA
ATOM      6  H   UNL A   1      33.940  26.142  24.333  1.00  0.00     0.163 HD
BRANCH   4   7
ATOM      7  C   UNL A   1      31.061  25.859  25.939  1.00  0.00     0.091 C 
ATOM      8  C   UNL A   1      30.104  24.762  26.283  1.00  0.00     0.092 C 
ATOM      9  C   UNL A   1      30.125  25.263  24.898  1.00  0.00     0.028 C 
BRANCH   8  10
ATOM     10  C   UNL A   1      30.345  23.374  26.706  1.00  0.00     0.228 C 
ATOM     11  N   UNL A   1      31.318  22.471  26.386  1.00  0.00    -0.317 N 
ATOM     12  H   UNL A   1      31.078  21.599  26.776  1.00  0.00     0.170 HD
ATOM     13  O   UNL A   1      29.554  22.957  27.562  1.00  0.00    -0.274 OA
BRANCH  11  14
ATOM     14  C   UNL A   1      32.512  22.336  25.717  1.00  0.00     0.110 A 
ATOM     15  C   UNL A   1      33.206  22.597  24.544  1.00  0.00     0.098 A 
ATOM     16  C   UNL A   1      34.612  22.291  24.697  1.00  0.00    -0.006 A 
ATOM     17  S   UNL A   1      33.565  21.468  26.811  1.00  0.00    -0.116 S 
ATOM     18  C   UNL A   1      34.929  22.077  26.012  1.00  0.00     0.065 A 
ATOM     19  C   UNL A   1      35.696  22.313  23.667  1.00  0.00     0.099 C 
ATOM     20  C   UNL A   1      36.298  22.132  26.588  1.00  0.00     0.310 C 
ATOM     21  C   UNL A   1      37.068  21.915  24.279  1.00  0.00     0.267 C 
ATOM     22  N   UNL A   1      37.352  22.441  25.621  1.00  0.00    -0.326 N 
ATOM     23  H   UNL A   1      38.157  21.896  25.933  1.00  0.00     0.348 HD
BRANCH  15  24
ATOM     24  C   UNL A   1      32.709  23.060  23.269  1.00  0.00     0.341 C 
ATOM     25  O   UNL A   1      33.089  24.088  22.736  1.00  0.00    -0.246 OA
BRANCH  24  26
ATOM     26  O   UNL A   1      31.759  22.214  22.779  1.00  0.00    -0.465 OA
ATOM     27  C   UNL A   1      32.154  20.848  22.633  1.00  0.00     0.282 C 
ENDBRANCH  24  26
ENDBRANCH  15  24
BRANCH  22  28
ATOM     28  C   UNL A   1      37.955  23.775  25.706  1.00  0.00     0.299 C 
BRANCH  28  29
ATOM     29  C   UNL A   1      39.014  23.987  26.760  1.00  0.00     0.006 A 
ATOM     30  C   UNL A   1      39.934  22.974  27.071  1.00  0.00     0.009 A 
ATOM     31  C   UNL A   1      39.121  25.207  27.430  1.00  0.00     0.009 A 
ATOM     32  C   UNL A   1      41.011  23.225  27.922  1.00  0.00     0.001 A 
ATOM     33  C   UNL A   1      40.190  25.453  28.290  1.00  0.00     0.001 A 
ATOM     34  C   UNL A   1      41.157  24.478  28.507  1.00  0.00     0.000 A 
ENDBRANCH  28  29
ENDBRANCH  22  28
ENDBRANCH  11  14
ENDBRANCH   8  10
ENDBRANCH   4   7
ENDBRANCH   2   3
ENDBRANCH   1   2
BRANCH   1  35
ATOM     35  C   UNL A   1      31.581  29.498  25.086  1.00  0.00     0.002 C 
BRANCH  35  36
ATOM     36  C   UNL A   1      31.832  29.661  26.593  1.00  0.00     0.002 C 
BRANCH  36  37
ATOM     37  C   UNL A   1      33.047  28.923  27.184  1.00  0.00     0.021 C 
BRANCH  37  38
ATOM     38  C   UNL A   1      34.342  29.728  27.217  1.00  0.00     0.116 C 
BRANCH  38  39
ATOM     39  N   UNL A   1      34.278  30.909  28.070  1.00  0.00    -0.352 N 
ATOM     40  C   UNL A   1      35.178  31.380  29.006  1.00  0.00     0.251 C 
ATOM     41  H   UNL A   1      33.467  31.457  27.961  1.00  0.00     0.163 HD
ATOM     42  O   UNL A   1      34.816  32.231  29.815  1.00  0.00    -0.269 OA
BRANCH  40  43
ATOM     43  C   UNL A   1      36.587  30.911  29.034  1.00  0.00     0.039 A 
ATOM     44  C   UNL A   1      37.646  31.806  29.245  1.00  0.00     0.014 A 
ATOM     45  C   UNL A   1      36.880  29.584  28.756  1.00  0.00     0.014 A 
ATOM     46  C   UNL A   1      38.967  31.348  29.181  1.00  0.00     0.010 A 
ATOM     47  C   UNL A   1      38.170  29.112  28.800  1.00  0.00     0.010 A 
ATOM     48  C   UNL A   1      39.221  29.994  28.938  1.00  0.00    -0.014 A 
BRANCH  48  49
ATOM     49  C   UNL A   1      40.555  29.409  29.024  1.00  0.00     0.031 A 
ATOM     50  C   UNL A   1      40.923  29.068  30.420  1.00  0.00     0.074 A 
ATOM     51  C   UNL A   1      41.276  28.968  27.966  1.00  0.00     0.049 A 
ATOM     52  N   UNL A   1      41.824  29.640  31.144  1.00  0.00    -0.248 NA
ATOM     53  C   UNL A   1      40.081  28.111  31.159  1.00  0.00     0.031 C 
ATOM     54  C   UNL A   1      40.878  28.906  26.554  1.00  0.00     0.029 A 
ATOM     55  N   UNL A   1      42.515  28.394  27.942  1.00  0.00    -0.354 N 
ATOM     56  C   UNL A   1      41.809  28.974  32.365  1.00  0.00     0.074 A 
ATOM     57  C   UNL A   1      40.595  28.204  32.388  1.00  0.00     0.031 C 
ATOM     58  C   UNL A   1      41.763  28.153  25.859  1.00  0.00     0.029 A 
ATOM     59  C   UNL A   1      42.866  27.794  26.732  1.00  0.00     0.049 A 
ATOM     60  H   UNL A   1      43.116  28.402  28.722  1.00  0.00     0.167 HD
ATOM     61  C   UNL A   1      42.941  28.910  33.118  1.00  0.00     0.037 A 
ATOM     62  C   UNL A   1      43.973  27.041  26.485  1.00  0.00     0.037 A 
ATOM     63  C   UNL A   1      43.892  29.905  32.676  1.00  0.00     0.049 A 
ATOM     64  C   UNL A   1      44.952  27.342  27.557  1.00  0.00     0.074 A 
ATOM     65  C   UNL A   1      43.893  31.283  32.580  1.00  0.00     0.029 A 
ATOM     66  N   UNL A   1      44.915  29.474  31.869  1.00  0.00    -0.354 N 
ATOM     67  N   UNL A   1      45.562  28.484  27.686  1.00  0.00    -0.248 NA
ATOM     68  C   UNL A   1      44.916  26.511  28.749  1.00  0.00     0.031 C 
ATOM     69  C   UNL A   1      44.604  31.573  31.377  1.00  0.00     0.029 A 
ATOM     70  C   UNL A   1      45.068  30.369  30.845  1.00  0.00     0.049 A 
ATOM     71  H   UNL A   1      45.450  28.659  32.004  1.00  0.00     0.167 HD
ATOM     72  C   UNL A   1      45.569  28.720  29.050  1.00  0.00     0.074 A 
ATOM     73  C   UNL A   1      45.249  27.429  29.660  1.00  0.00     0.031 C 
ATOM     74  C   UNL A   1      45.537  29.996  29.531  1.00  0.00     0.037 A 
BRANCH  61  75
ATOM     75  C   UNL A   1      43.369  27.700  33.923  1.00  0.00     0.064 A 
ATOM     76  C   UNL A   1      43.703  27.885  35.282  1.00  0.00     0.173 A 
ATOM     77  C   UNL A   1      43.770  26.463  33.372  1.00  0.00     0.173 A 
ATOM     78  F   UNL A   1      43.373  29.019  35.920  1.00  0.00    -0.203 F 
ATOM     79  C   UNL A   1      44.480  26.964  35.988  1.00  0.00     0.198 A 
ATOM     80  C   UNL A   1      44.501  25.522  34.096  1.00  0.00     0.198 A 
ATOM     81  F   UNL A   1      43.577  26.146  32.088  1.00  0.00    -0.203 F 
ATOM     82  F   UNL A   1      44.896  27.258  37.226  1.00  0.00    -0.200 F 
ATOM     83  C   UNL A   1      44.889  25.788  35.391  1.00  0.00     0.200 A 
ATOM     84  F   UNL A   1      44.899  24.394  33.492  1.00  0.00    -0.200 F 
ATOM     85  F   UNL A   1      45.693  24.936  36.038  1.00  0.00    -0.200 F 
ENDBRANCH  61  75
BRANCH  62  86
ATOM     86  C   UNL A   1      44.176  25.884  25.572  1.00  0.00     0.064 A 
ATOM     87  C   UNL A   1      45.472  25.491  25.178  1.00  0.00     0.173 A 
ATOM     88  C   UNL A   1      43.149  24.955  25.327  1.00  0.00     0.173 A 
ATOM     89  F   UNL A   1      46.521  26.298  25.401  1.00  0.00    -0.203 F 
ATOM     90  C   UNL A   1      45.728  24.231  24.624  1.00  0.00     0.198 A 
ATOM     91  C   UNL A   1      43.405  23.699  24.770  1.00  0.00     0.198 A 
ATOM     92  F   UNL A   1      41.891  25.204  25.715  1.00  0.00    -0.203 F 
ATOM     93  F   UNL A   1      46.987  23.868  24.337  1.00  0.00    -0.200 F 
ATOM     94  C   UNL A   1      44.696  23.330  24.437  1.00  0.00     0.200 A 
ATOM     95  F   UNL A   1      42.401  22.822  24.621  1.00  0.00    -0.200 F 
ATOM     96  F   UNL A   1      44.948  22.096  23.977  1.00  0.00    -0.200 F 
ENDBRANCH  62  86
BRANCH  74  97
ATOM     97  C   UNL A   1      45.819  31.114  28.564  1.00  0.00     0.064 A 
ATOM     98  C   UNL A   1      47.104  31.535  28.179  1.00  0.00     0.173 A 
ATOM     99  C   UNL A   1      44.728  31.705  27.913  1.00  0.00     0.173 A 
ATOM    100  F   UNL A   1      48.203  30.958  28.682  1.00  0.00    -0.203 F 
ATOM    101  C   UNL A   1      47.281  32.534  27.222  1.00  0.00     0.198 A 
ATOM    102  C   UNL A   1      44.908  32.671  26.929  1.00  0.00     0.198 A 
ATOM    103  F   UNL A   1      43.478  31.311  28.205  1.00  0.00    -0.203 F 
ATOM    104  F   UNL A   1      48.517  32.935  26.887  1.00  0.00    -0.200 F 
ATOM    105  C   UNL A   1      46.183  33.096  26.592  1.00  0.00     0.200 A 
ATOM    106  F   UNL A   1      43.843  33.176  26.291  1.00  0.00    -0.200 F 
ATOM    107  F   UNL A   1      46.352  34.028  25.645  1.00  0.00    -0.200 F 
ENDBRANCH  74  97
ENDBRANCH  48  49
ENDBRANCH  40  43
ENDBRANCH  38  39
ENDBRANCH  37  38
ENDBRANCH  36  37
ENDBRANCH  35  36
ENDBRANCH   1  35
TORSDOF 19
ENDMDL
