MODEL 1
REMARK VINA RESULT:     -10.7      0.000      0.000
REMARK SMILES CCOC(=O)c1sc(NC(=O)CCC(=O)NCCCCCCNC(=O)c2ccc(-c3c4nc(c(-c5c(F)c(F)c(F)c(F)c5F)c5ccc([nH]5)c(-c5c(F)c(F)c(F)c(F)c5F)c5nc(c(-c6c(F)c(F)c(F)c(F)c6F)c6ccc3[nH]6)C=C5)C=C4)cc2)c(C#N)c1C
REMARK SMILES IDX 17 1 16 2 14 3 15 4 13 6 12 7 10 8 9 9 11 11 8 12 6 13 7 14
REMARK SMILES IDX 92 15 89 16 93 17 4 18 5 19 3 20 2 21 1 22 90 23 91 24 18 25
REMARK SMILES IDX 19 26 20 27 21 28 22 29 23 30 24 31 25 33 26 34 27 35 88 36
REMARK SMILES IDX 28 37 87 38 29 39 30 40 31 41 81 42 32 43 86 44 80 45 82 46
REMARK SMILES IDX 33 47 85 48 79 49 78 50 34 52 66 53 46 54 65 55 47 56 50 57
REMARK SMILES IDX 64 58 83 59 48 60 49 61 63 63 84 64 51 65 35 66 36 67 44 68
REMARK SMILES IDX 37 69 38 70 42 71 45 72 39 73 40 74 43 75 41 76 67 77 68 78
REMARK SMILES IDX 76 79 69 80 70 81 74 82 77 83 71 84 72 85 75 86 73 87 52 88
REMARK SMILES IDX 53 89 61 90 54 91 55 92 59 93 62 94 56 95 57 96 60 97 58 98
REMARK H PARENT 16 5 9 10 23 32 82 51 50 62
REMARK Flexibility Score: inf
ROOT
ATOM      1  C   UNL A   1      33.542  31.217  27.475  1.00  0.00     0.116 C 
ENDROOT
BRANCH   1   2
ATOM      2  N   UNL A   1      33.793  29.789  27.441  1.00  0.00    -0.356 N 
ATOM      3  C   UNL A   1      33.621  28.893  26.436  1.00  0.00     0.220 C 
ATOM      4  O   UNL A   1      34.096  27.767  26.587  1.00  0.00    -0.275 OA
ATOM      5  H   UNL A   1      34.142  29.409  28.279  1.00  0.00     0.163 HD
BRANCH   3   6
ATOM      6  C   UNL A   1      32.885  29.276  25.175  1.00  0.00     0.110 C 
BRANCH   6   7
ATOM      7  C   UNL A   1      31.362  29.165  25.179  1.00  0.00     0.110 C 
BRANCH   7   8
ATOM      8  C   UNL A   1      30.672  28.695  23.914  1.00  0.00     0.225 C 
ATOM      9  N   UNL A   1      30.631  27.405  23.464  1.00  0.00    -0.317 N 
ATOM     10  H   UNL A   1      30.233  27.297  22.569  1.00  0.00     0.170 HD
ATOM     11  O   UNL A   1      30.043  29.527  23.243  1.00  0.00    -0.275 OA
BRANCH   9  12
ATOM     12  C   UNL A   1      31.052  26.228  24.049  1.00  0.00     0.114 A 
ATOM     13  C   UNL A   1      31.159  24.218  25.439  1.00  0.00     0.118 A 
ATOM     14  S   UNL A   1      30.500  25.778  25.584  1.00  0.00    -0.109 S 
ATOM     15  C   UNL A   1      31.929  24.074  24.296  1.00  0.00    -0.006 A 
ATOM     16  C   UNL A   1      31.996  25.326  23.586  1.00  0.00     0.091 A 
ATOM     17  C   UNL A   1      32.574  22.801  23.843  1.00  0.00     0.048 C 
BRANCH  13  18
ATOM     18  C   UNL A   1      30.910  23.288  26.507  1.00  0.00     0.348 C 
ATOM     19  O   UNL A   1      29.963  22.520  26.608  1.00  0.00    -0.245 OA
BRANCH  18  20
ATOM     20  O   UNL A   1      31.870  23.482  27.452  1.00  0.00    -0.462 OA
BRANCH  20  21
ATOM     21  C   UNL A   1      32.830  22.429  27.585  1.00  0.00     0.230 C 
ATOM     22  C   UNL A   1      34.222  22.910  27.209  1.00  0.00     0.049 C 
ENDBRANCH  20  21
ENDBRANCH  18  20
ENDBRANCH  13  18
BRANCH  16  23
ATOM     23  C   UNL A   1      32.840  25.545  22.445  1.00  0.00     0.103 C 
ATOM     24  N   UNL A   1      33.506  25.709  21.514  1.00  0.00    -0.192 NA
ENDBRANCH  16  23
ENDBRANCH   9  12
ENDBRANCH   7   8
ENDBRANCH   6   7
ENDBRANCH   3   6
ENDBRANCH   1   2
BRANCH   1  25
ATOM     25  C   UNL A   1      34.356  31.936  28.547  1.00  0.00     0.021 C 
BRANCH  25  26
ATOM     26  C   UNL A   1      35.139  33.154  28.056  1.00  0.00     0.002 C 
BRANCH  26  27
ATOM     27  C   UNL A   1      34.325  34.435  27.885  1.00  0.00     0.002 C 
BRANCH  27  28
ATOM     28  C   UNL A   1      33.308  34.708  28.999  1.00  0.00     0.021 C 
BRANCH  28  29
ATOM     29  C   UNL A   1      33.628  35.942  29.829  1.00  0.00     0.116 C 
BRANCH  29  30
ATOM     30  N   UNL A   1      32.961  35.928  31.129  1.00  0.00    -0.352 N 
ATOM     31  C   UNL A   1      33.124  34.992  32.130  1.00  0.00     0.251 C 
ATOM     32  H   UNL A   1      32.330  36.662  31.309  1.00  0.00     0.163 HD
ATOM     33  O   UNL A   1      32.273  34.805  32.989  1.00  0.00    -0.269 OA
BRANCH  31  34
ATOM     34  C   UNL A   1      34.398  34.259  32.165  1.00  0.00     0.039 A 
ATOM     35  C   UNL A   1      34.477  32.877  31.976  1.00  0.00     0.014 A 
ATOM     36  C   UNL A   1      35.542  35.028  32.376  1.00  0.00     0.014 A 
ATOM     37  C   UNL A   1      35.736  32.281  31.983  1.00  0.00     0.010 A 
ATOM     38  C   UNL A   1      36.774  34.475  32.191  1.00  0.00     0.010 A 
ATOM     39  C   UNL A   1      36.875  33.095  32.098  1.00  0.00    -0.014 A 
BRANCH  39  40
ATOM     40  C   UNL A   1      38.223  32.564  31.992  1.00  0.00     0.031 A 
ATOM     41  C   UNL A   1      38.935  32.532  33.293  1.00  0.00     0.074 A 
ATOM     42  C   UNL A   1      38.659  31.939  30.874  1.00  0.00     0.049 A 
ATOM     43  N   UNL A   1      39.952  33.246  33.639  1.00  0.00    -0.248 NA
ATOM     44  C   UNL A   1      38.347  31.763  34.404  1.00  0.00     0.031 C 
ATOM     45  C   UNL A   1      37.924  31.655  29.634  1.00  0.00     0.029 A 
ATOM     46  N   UNL A   1      39.856  31.329  30.650  1.00  0.00    -0.354 N 
ATOM     47  C   UNL A   1      40.275  32.849  34.931  1.00  0.00     0.074 A 
ATOM     48  C   UNL A   1      39.141  32.112  35.419  1.00  0.00     0.031 C 
ATOM     49  C   UNL A   1      38.600  30.743  28.898  1.00  0.00     0.029 A 
ATOM     50  C   UNL A   1      39.882  30.495  29.528  1.00  0.00     0.049 A 
ATOM     51  H   UNL A   1      40.638  31.465  31.231  1.00  0.00     0.167 HD
ATOM     52  C   UNL A   1      41.563  32.923  35.367  1.00  0.00     0.037 A 
ATOM     53  C   UNL A   1      40.890  29.644  29.195  1.00  0.00     0.037 A 
ATOM     54  C   UNL A   1      42.340  33.782  34.502  1.00  0.00     0.049 A 
ATOM     55  C   UNL A   1      42.103  30.117  29.921  1.00  0.00     0.074 A 
ATOM     56  C   UNL A   1      42.243  35.108  34.122  1.00  0.00     0.029 A 
ATOM     57  N   UNL A   1      43.132  33.179  33.553  1.00  0.00    -0.354 N 
ATOM     58  N   UNL A   1      42.691  31.253  29.657  1.00  0.00    -0.248 NA
ATOM     59  C   UNL A   1      42.311  29.596  31.265  1.00  0.00     0.031 C 
ATOM     60  C   UNL A   1      42.539  35.109  32.726  1.00  0.00     0.029 A 
ATOM     61  C   UNL A   1      42.907  33.815  32.359  1.00  0.00     0.049 A 
ATOM     62  H   UNL A   1      43.751  32.428  33.705  1.00  0.00     0.167 HD
ATOM     63  C   UNL A   1      42.959  31.802  30.902  1.00  0.00     0.074 A 
ATOM     64  C   UNL A   1      42.736  30.717  31.857  1.00  0.00     0.031 C 
ATOM     65  C   UNL A   1      43.022  33.155  31.080  1.00  0.00     0.037 A 
BRANCH  52  66
ATOM     66  C   UNL A   1      42.220  31.917  36.284  1.00  0.00     0.064 A 
ATOM     67  C   UNL A   1      42.976  32.394  37.374  1.00  0.00     0.173 A 
ATOM     68  C   UNL A   1      42.407  30.553  35.968  1.00  0.00     0.173 A 
ATOM     69  F   UNL A   1      42.880  33.675  37.765  1.00  0.00    -0.203 F 
ATOM     70  C   UNL A   1      43.923  31.599  38.023  1.00  0.00     0.198 A 
ATOM     71  C   UNL A   1      43.317  29.748  36.652  1.00  0.00     0.198 A 
ATOM     72  F   UNL A   1      41.813  29.965  34.926  1.00  0.00    -0.203 F 
ATOM     73  F   UNL A   1      44.716  32.138  38.957  1.00  0.00    -0.200 F 
ATOM     74  C   UNL A   1      44.101  30.280  37.653  1.00  0.00     0.200 A 
ATOM     75  F   UNL A   1      43.485  28.475  36.268  1.00  0.00    -0.200 F 
ATOM     76  F   UNL A   1      45.056  29.534  38.223  1.00  0.00    -0.200 F 
ENDBRANCH  52  66
BRANCH  53  77
ATOM     77  C   UNL A   1      40.806  28.287  28.594  1.00  0.00     0.064 A 
ATOM     78  C   UNL A   1      40.034  27.268  29.182  1.00  0.00     0.173 A 
ATOM     79  C   UNL A   1      41.246  28.047  27.277  1.00  0.00     0.173 A 
ATOM     80  F   UNL A   1      39.532  27.429  30.415  1.00  0.00    -0.203 F 
ATOM     81  C   UNL A   1      39.703  26.097  28.488  1.00  0.00     0.198 A 
ATOM     82  C   UNL A   1      40.916  26.877  26.586  1.00  0.00     0.198 A 
ATOM     83  F   UNL A   1      41.925  28.982  26.599  1.00  0.00    -0.203 F 
ATOM     84  F   UNL A   1      38.917  25.175  29.062  1.00  0.00    -0.200 F 
ATOM     85  C   UNL A   1      40.135  25.908  27.186  1.00  0.00     0.200 A 
ATOM     86  F   UNL A   1      41.309  26.726  25.312  1.00  0.00    -0.200 F 
ATOM     87  F   UNL A   1      39.766  24.819  26.497  1.00  0.00    -0.200 F 
ENDBRANCH  53  77
BRANCH  65  88
ATOM     88  C   UNL A   1      43.007  34.039  29.861  1.00  0.00     0.064 A 
ATOM     89  C   UNL A   1      41.846  34.594  29.295  1.00  0.00     0.173 A 
ATOM     90  C   UNL A   1      44.238  34.472  29.353  1.00  0.00     0.173 A 
ATOM     91  F   UNL A   1      40.634  34.311  29.786  1.00  0.00    -0.203 F 
ATOM     92  C   UNL A   1      41.918  35.510  28.244  1.00  0.00     0.198 A 
ATOM     93  C   UNL A   1      44.309  35.413  28.330  1.00  0.00     0.198 A 
ATOM     94  F   UNL A   1      45.382  34.021  29.890  1.00  0.00    -0.203 F 
ATOM     95  F   UNL A   1      40.794  36.021  27.718  1.00  0.00    -0.200 F 
ATOM     96  C   UNL A   1      43.150  35.924  27.769  1.00  0.00     0.200 A 
ATOM     97  F   UNL A   1      45.505  35.849  27.910  1.00  0.00    -0.200 F 
ATOM     98  F   UNL A   1      43.223  36.835  26.788  1.00  0.00    -0.200 F 
ENDBRANCH  65  88
ENDBRANCH  39  40
ENDBRANCH  31  34
ENDBRANCH  29  30
ENDBRANCH  28  29
ENDBRANCH  27  28
ENDBRANCH  26  27
ENDBRANCH  25  26
ENDBRANCH   1  25
TORSDOF 20
ENDMDL
MODEL 2
REMARK VINA RESULT:     -10.7      3.110      4.771
REMARK SMILES CCOC(=O)c1sc(NC(=O)CCC(=O)NCCCCCCNC(=O)c2ccc(-c3c4nc(c(-c5c(F)c(F)c(F)c(F)c5F)c5ccc([nH]5)c(-c5c(F)c(F)c(F)c(F)c5F)c5nc(c(-c6c(F)c(F)c(F)c(F)c6F)c6ccc3[nH]6)C=C5)C=C4)cc2)c(C#N)c1C
REMARK SMILES IDX 17 1 16 2 14 3 15 4 13 6 12 7 10 8 9 9 11 11 8 12 6 13 7 14
REMARK SMILES IDX 92 15 89 16 93 17 4 18 5 19 3 20 2 21 1 22 90 23 91 24 18 25
REMARK SMILES IDX 19 26 20 27 21 28 22 29 23 30 24 31 25 33 26 34 27 35 88 36
REMARK SMILES IDX 28 37 87 38 29 39 30 40 31 41 81 42 32 43 86 44 80 45 82 46
REMARK SMILES IDX 33 47 85 48 79 49 78 50 34 52 66 53 46 54 65 55 47 56 50 57
REMARK SMILES IDX 64 58 83 59 48 60 49 61 63 63 84 64 51 65 35 66 36 67 44 68
REMARK SMILES IDX 37 69 38 70 42 71 45 72 39 73 40 74 43 75 41 76 67 77 68 78
REMARK SMILES IDX 76 79 69 80 70 81 74 82 77 83 71 84 72 85 75 86 73 87 52 88
REMARK SMILES IDX 53 89 61 90 54 91 55 92 59 93 62 94 56 95 57 96 60 97 58 98
REMARK H PARENT 16 5 9 10 23 32 82 51 50 62
REMARK Flexibility Score: inf
ROOT
ATOM      1  C   UNL A   1      32.347  29.302  24.500  1.00  0.00     0.116 C 
ENDROOT
BRANCH   1   2
ATOM      2  N   UNL A   1      31.536  29.336  23.297  1.00  0.00    -0.356 N 
ATOM      3  C   UNL A   1      30.755  28.376  22.740  1.00  0.00     0.220 C 
ATOM      4  O   UNL A   1      30.004  28.711  21.824  1.00  0.00    -0.275 OA
ATOM      5  H   UNL A   1      31.555  30.190  22.809  1.00  0.00     0.163 HD
BRANCH   3   6
ATOM      6  C   UNL A   1      30.802  26.953  23.241  1.00  0.00     0.110 C 
BRANCH   6   7
ATOM      7  C   UNL A   1      31.775  25.992  22.562  1.00  0.00     0.110 C 
BRANCH   7   8
ATOM      8  C   UNL A   1      33.262  26.236  22.729  1.00  0.00     0.225 C 
ATOM      9  N   UNL A   1      34.103  25.505  23.520  1.00  0.00    -0.317 N 
ATOM     10  H   UNL A   1      35.015  25.870  23.594  1.00  0.00     0.170 HD
ATOM     11  O   UNL A   1      33.788  27.139  22.061  1.00  0.00    -0.275 OA
BRANCH   9  12
ATOM     12  C   UNL A   1      33.893  24.343  24.233  1.00  0.00     0.114 A 
ATOM     13  C   UNL A   1      34.084  22.057  25.084  1.00  0.00     0.118 A 
ATOM     14  S   UNL A   1      34.360  22.843  23.603  1.00  0.00    -0.109 S 
ATOM     15  C   UNL A   1      33.495  22.889  26.022  1.00  0.00    -0.006 A 
ATOM     16  C   UNL A   1      33.230  24.180  25.438  1.00  0.00     0.091 A 
ATOM     17  C   UNL A   1      33.203  22.521  27.443  1.00  0.00     0.048 C 
BRANCH  13  18
ATOM     18  C   UNL A   1      34.415  20.660  25.169  1.00  0.00     0.348 C 
ATOM     19  O   UNL A   1      35.513  20.152  24.990  1.00  0.00    -0.245 OA
BRANCH  18  20
ATOM     20  O   UNL A   1      33.258  19.977  25.388  1.00  0.00    -0.462 OA
BRANCH  20  21
ATOM     21  C   UNL A   1      32.364  19.901  24.274  1.00  0.00     0.230 C 
ATOM     22  C   UNL A   1      32.619  18.647  23.455  1.00  0.00     0.049 C 
ENDBRANCH  20  21
ENDBRANCH  18  20
ENDBRANCH  13  18
BRANCH  16  23
ATOM     23  C   UNL A   1      32.488  25.213  26.105  1.00  0.00     0.103 C 
ATOM     24  N   UNL A   1      31.887  26.055  26.623  1.00  0.00    -0.192 NA
ENDBRANCH  16  23
ENDBRANCH   9  12
ENDBRANCH   7   8
ENDBRANCH   6   7
ENDBRANCH   3   6
ENDBRANCH   1   2
BRANCH   1  25
ATOM     25  C   UNL A   1      31.532  29.525  25.770  1.00  0.00     0.021 C 
BRANCH  25  26
ATOM     26  C   UNL A   1      32.355  29.658  27.052  1.00  0.00     0.002 C 
BRANCH  26  27
ATOM     27  C   UNL A   1      33.181  30.937  27.174  1.00  0.00     0.002 C 
BRANCH  27  28
ATOM     28  C   UNL A   1      34.651  30.724  27.554  1.00  0.00     0.021 C 
BRANCH  28  29
ATOM     29  C   UNL A   1      35.401  32.016  27.841  1.00  0.00     0.116 C 
BRANCH  29  30
ATOM     30  N   UNL A   1      35.053  32.586  29.141  1.00  0.00    -0.352 N 
ATOM     31  C   UNL A   1      35.392  32.081  30.380  1.00  0.00     0.251 C 
ATOM     32  H   UNL A   1      34.523  33.415  29.132  1.00  0.00     0.163 HD
ATOM     33  O   UNL A   1      34.754  32.353  31.388  1.00  0.00    -0.269 OA
BRANCH  31  34
ATOM     34  C   UNL A   1      36.598  31.242  30.458  1.00  0.00     0.039 A 
ATOM     35  C   UNL A   1      36.541  29.849  30.541  1.00  0.00     0.014 A 
ATOM     36  C   UNL A   1      37.817  31.917  30.421  1.00  0.00     0.014 A 
ATOM     37  C   UNL A   1      37.740  29.141  30.566  1.00  0.00     0.010 A 
ATOM     38  C   UNL A   1      38.974  31.217  30.252  1.00  0.00     0.010 A 
ATOM     39  C   UNL A   1      38.950  29.842  30.426  1.00  0.00    -0.014 A 
BRANCH  39  40
ATOM     40  C   UNL A   1      40.231  29.166  30.322  1.00  0.00     0.031 A 
ATOM     41  C   UNL A   1      40.886  28.962  31.637  1.00  0.00     0.074 A 
ATOM     42  C   UNL A   1      40.634  28.574  29.174  1.00  0.00     0.049 A 
ATOM     43  N   UNL A   1      41.964  29.527  32.063  1.00  0.00    -0.248 NA
ATOM     44  C   UNL A   1      40.173  28.192  32.672  1.00  0.00     0.031 C 
ATOM     45  C   UNL A   1      39.919  28.462  27.896  1.00  0.00     0.029 A 
ATOM     46  N   UNL A   1      41.761  27.845  28.941  1.00  0.00    -0.354 N 
ATOM     47  C   UNL A   1      42.191  29.008  33.332  1.00  0.00     0.074 A 
ATOM     48  C   UNL A   1      40.963  28.376  33.732  1.00  0.00     0.031 C 
ATOM     49  C   UNL A   1      40.513  27.531  27.115  1.00  0.00     0.029 A 
ATOM     50  C   UNL A   1      41.735  27.093  27.763  1.00  0.00     0.049 A 
ATOM     51  H   UNL A   1      42.532  27.848  29.553  1.00  0.00     0.167 HD
ATOM     52  C   UNL A   1      43.463  28.901  33.810  1.00  0.00     0.037 A 
ATOM     53  C   UNL A   1      42.650  26.156  27.398  1.00  0.00     0.037 A 
ATOM     54  C   UNL A   1      44.363  29.721  33.032  1.00  0.00     0.049 A 
ATOM     55  C   UNL A   1      43.882  26.433  28.192  1.00  0.00     0.074 A 
ATOM     56  C   UNL A   1      44.433  31.072  32.747  1.00  0.00     0.029 A 
ATOM     57  N   UNL A   1      45.117  29.098  32.065  1.00  0.00    -0.354 N 
ATOM     58  N   UNL A   1      44.605  27.509  28.029  1.00  0.00    -0.248 NA
ATOM     59  C   UNL A   1      43.979  25.800  29.500  1.00  0.00     0.031 C 
ATOM     60  C   UNL A   1      44.778  31.136  31.364  1.00  0.00     0.029 A 
ATOM     61  C   UNL A   1      45.010  29.836  30.914  1.00  0.00     0.049 A 
ATOM     62  H   UNL A   1      45.640  28.271  32.180  1.00  0.00     0.167 HD
ATOM     63  C   UNL A   1      44.887  27.936  29.317  1.00  0.00     0.074 A 
ATOM     64  C   UNL A   1      44.506  26.820  30.184  1.00  0.00     0.031 C 
ATOM     65  C   UNL A   1      45.097  29.257  29.594  1.00  0.00     0.037 A 
BRANCH  52  66
ATOM     66  C   UNL A   1      43.966  27.765  34.670  1.00  0.00     0.064 A 
ATOM     67  C   UNL A   1      43.793  26.445  34.207  1.00  0.00     0.173 A 
ATOM     68  C   UNL A   1      44.307  27.889  36.034  1.00  0.00     0.173 A 
ATOM     69  F   UNL A   1      43.466  26.205  32.928  1.00  0.00    -0.203 F 
ATOM     70  C   UNL A   1      43.849  25.346  35.068  1.00  0.00     0.198 A 
ATOM     71  C   UNL A   1      44.413  26.785  36.879  1.00  0.00     0.198 A 
ATOM     72  F   UNL A   1      44.444  29.072  36.640  1.00  0.00    -0.203 F 
ATOM     73  F   UNL A   1      43.538  24.126  34.610  1.00  0.00    -0.200 F 
ATOM     74  C   UNL A   1      44.148  25.519  36.406  1.00  0.00     0.200 A 
ATOM     75  F   UNL A   1      44.689  26.976  38.177  1.00  0.00    -0.200 F 
ATOM     76  F   UNL A   1      44.133  24.477  37.248  1.00  0.00    -0.200 F 
ENDBRANCH  52  66
BRANCH  53  77
ATOM     77  C   UNL A   1      42.435  24.862  26.698  1.00  0.00     0.064 A 
ATOM     78  C   UNL A   1      43.131  24.541  25.517  1.00  0.00     0.173 A 
ATOM     79  C   UNL A   1      41.763  23.797  27.328  1.00  0.00     0.173 A 
ATOM     80  F   UNL A   1      43.840  25.481  24.875  1.00  0.00    -0.203 F 
ATOM     81  C   UNL A   1      43.170  23.233  25.015  1.00  0.00     0.198 A 
ATOM     82  C   UNL A   1      41.801  22.493  26.825  1.00  0.00     0.198 A 
ATOM     83  F   UNL A   1      41.132  23.979  28.496  1.00  0.00    -0.203 F 
ATOM     84  F   UNL A   1      43.891  22.955  23.919  1.00  0.00    -0.200 F 
ATOM     85  C   UNL A   1      42.515  22.208  25.677  1.00  0.00     0.200 A 
ATOM     86  F   UNL A   1      41.195  21.504  27.498  1.00  0.00    -0.200 F 
ATOM     87  F   UNL A   1      42.605  20.946  25.235  1.00  0.00    -0.200 F 
ENDBRANCH  53  77
BRANCH  65  88
ATOM     88  C   UNL A   1      45.228  30.218  28.444  1.00  0.00     0.064 A 
ATOM     89  C   UNL A   1      44.154  30.915  27.862  1.00  0.00     0.173 A 
ATOM     90  C   UNL A   1      46.518  30.570  28.029  1.00  0.00     0.173 A 
ATOM     91  F   UNL A   1      42.896  30.712  28.271  1.00  0.00    -0.203 F 
ATOM     92  C   UNL A   1      44.365  31.889  26.885  1.00  0.00     0.198 A 
ATOM     93  C   UNL A   1      46.729  31.566  27.082  1.00  0.00     0.198 A 
ATOM     94  F   UNL A   1      47.587  29.979  28.589  1.00  0.00    -0.203 F 
ATOM     95  F   UNL A   1      43.322  32.536  26.342  1.00  0.00    -0.200 F 
ATOM     96  C   UNL A   1      45.653  32.218  26.502  1.00  0.00     0.200 A 
ATOM     97  F   UNL A   1      47.981  31.918  26.754  1.00  0.00    -0.200 F 
ATOM     98  F   UNL A   1      45.862  33.183  25.595  1.00  0.00    -0.200 F 
ENDBRANCH  65  88
ENDBRANCH  39  40
ENDBRANCH  31  34
ENDBRANCH  29  30
ENDBRANCH  28  29
ENDBRANCH  27  28
ENDBRANCH  26  27
ENDBRANCH  25  26
ENDBRANCH   1  25
TORSDOF 20
ENDMDL
MODEL 3
REMARK VINA RESULT:     -10.5      3.344      4.964
REMARK SMILES CCOC(=O)c1sc(NC(=O)CCC(=O)NCCCCCCNC(=O)c2ccc(-c3c4nc(c(-c5c(F)c(F)c(F)c(F)c5F)c5ccc([nH]5)c(-c5c(F)c(F)c(F)c(F)c5F)c5nc(c(-c6c(F)c(F)c(F)c(F)c6F)c6ccc3[nH]6)C=C5)C=C4)cc2)c(C#N)c1C
REMARK SMILES IDX 17 1 16 2 14 3 15 4 13 6 12 7 10 8 9 9 11 11 8 12 6 13 7 14
REMARK SMILES IDX 92 15 89 16 93 17 4 18 5 19 3 20 2 21 1 22 90 23 91 24 18 25
REMARK SMILES IDX 19 26 20 27 21 28 22 29 23 30 24 31 25 33 26 34 27 35 88 36
REMARK SMILES IDX 28 37 87 38 29 39 30 40 31 41 81 42 32 43 86 44 80 45 82 46
REMARK SMILES IDX 33 47 85 48 79 49 78 50 34 52 66 53 46 54 65 55 47 56 50 57
REMARK SMILES IDX 64 58 83 59 48 60 49 61 63 63 84 64 51 65 35 66 36 67 44 68
REMARK SMILES IDX 37 69 38 70 42 71 45 72 39 73 40 74 43 75 41 76 67 77 68 78
REMARK SMILES IDX 76 79 69 80 70 81 74 82 77 83 71 84 72 85 75 86 73 87 52 88
REMARK SMILES IDX 53 89 61 90 54 91 55 92 59 93 62 94 56 95 57 96 60 97 58 98
REMARK H PARENT 16 5 9 10 23 32 82 51 50 62
REMARK Flexibility Score: inf
ROOT
ATOM      1  C   UNL A   1      32.799  27.408  24.881  1.00  0.00     0.116 C 
ENDROOT
BRANCH   1   2
ATOM      2  N   UNL A   1      31.491  26.789  24.981  1.00  0.00    -0.356 N 
ATOM      3  C   UNL A   1      31.068  25.754  25.750  1.00  0.00     0.220 C 
ATOM      4  O   UNL A   1      29.857  25.541  25.806  1.00  0.00    -0.275 OA
ATOM      5  H   UNL A   1      30.801  27.182  24.399  1.00  0.00     0.163 HD
BRANCH   3   6
ATOM      6  C   UNL A   1      32.054  24.907  26.519  1.00  0.00     0.110 C 
BRANCH   6   7
ATOM      7  C   UNL A   1      31.537  23.626  27.169  1.00  0.00     0.110 C 
BRANCH   7   8
ATOM      8  C   UNL A   1      30.802  22.625  26.299  1.00  0.00     0.225 C 
ATOM      9  N   UNL A   1      31.357  21.900  25.281  1.00  0.00    -0.317 N 
ATOM     10  H   UNL A   1      30.710  21.378  24.752  1.00  0.00     0.170 HD
ATOM     11  O   UNL A   1      29.611  22.391  26.549  1.00  0.00    -0.275 OA
BRANCH   9  12
ATOM     12  C   UNL A   1      32.667  21.774  24.869  1.00  0.00     0.114 A 
ATOM     13  C   UNL A   1      34.966  22.283  24.203  1.00  0.00     0.118 A 
ATOM     14  S   UNL A   1      33.454  23.049  24.081  1.00  0.00    -0.109 S 
ATOM     15  C   UNL A   1      34.866  20.995  24.703  1.00  0.00    -0.006 A 
ATOM     16  C   UNL A   1      33.483  20.656  24.920  1.00  0.00     0.091 A 
ATOM     17  C   UNL A   1      36.023  20.094  25.006  1.00  0.00     0.048 C 
BRANCH  13  18
ATOM     18  C   UNL A   1      36.117  23.003  23.729  1.00  0.00     0.348 C 
ATOM     19  O   UNL A   1      36.746  22.791  22.702  1.00  0.00    -0.245 OA
BRANCH  18  20
ATOM     20  O   UNL A   1      36.455  23.911  24.686  1.00  0.00    -0.462 OA
BRANCH  20  21
ATOM     21  C   UNL A   1      37.070  23.374  25.861  1.00  0.00     0.230 C 
ATOM     22  C   UNL A   1      38.298  24.180  26.249  1.00  0.00     0.049 C 
ENDBRANCH  20  21
ENDBRANCH  18  20
ENDBRANCH  13  18
BRANCH  16  23
ATOM     23  C   UNL A   1      33.039  19.340  25.288  1.00  0.00     0.103 C 
ATOM     24  N   UNL A   1      32.702  18.276  25.590  1.00  0.00    -0.192 NA
ENDBRANCH  16  23
ENDBRANCH   9  12
ENDBRANCH   7   8
ENDBRANCH   6   7
ENDBRANCH   3   6
ENDBRANCH   1   2
BRANCH   1  25
ATOM     25  C   UNL A   1      32.936  28.648  25.759  1.00  0.00     0.021 C 
BRANCH  25  26
ATOM     26  C   UNL A   1      33.750  28.448  27.037  1.00  0.00     0.002 C 
BRANCH  26  27
ATOM     27  C   UNL A   1      34.819  29.505  27.308  1.00  0.00     0.002 C 
BRANCH  27  28
ATOM     28  C   UNL A   1      34.282  30.915  27.578  1.00  0.00     0.021 C 
BRANCH  28  29
ATOM     29  C   UNL A   1      35.354  31.904  28.009  1.00  0.00     0.116 C 
BRANCH  29  30
ATOM     30  N   UNL A   1      35.063  32.511  29.307  1.00  0.00    -0.352 N 
ATOM     31  C   UNL A   1      35.454  32.040  30.544  1.00  0.00     0.251 C 
ATOM     32  H   UNL A   1      34.534  33.341  29.297  1.00  0.00     0.163 HD
ATOM     33  O   UNL A   1      34.860  32.341  31.570  1.00  0.00    -0.269 OA
BRANCH  31  34
ATOM     34  C   UNL A   1      36.660  31.200  30.594  1.00  0.00     0.039 A 
ATOM     35  C   UNL A   1      36.606  29.804  30.602  1.00  0.00     0.014 A 
ATOM     36  C   UNL A   1      37.878  31.878  30.610  1.00  0.00     0.014 A 
ATOM     37  C   UNL A   1      37.806  29.098  30.605  1.00  0.00     0.010 A 
ATOM     38  C   UNL A   1      39.039  31.190  30.419  1.00  0.00     0.010 A 
ATOM     39  C   UNL A   1      39.016  29.807  30.520  1.00  0.00    -0.014 A 
BRANCH  39  40
ATOM     40  C   UNL A   1      40.300  29.140  30.397  1.00  0.00     0.031 A 
ATOM     41  C   UNL A   1      40.974  28.939  31.703  1.00  0.00     0.074 A 
ATOM     42  C   UNL A   1      40.691  28.552  29.243  1.00  0.00     0.049 A 
ATOM     43  N   UNL A   1      42.054  29.511  32.115  1.00  0.00    -0.248 NA
ATOM     44  C   UNL A   1      40.280  28.164  32.747  1.00  0.00     0.031 C 
ATOM     45  C   UNL A   1      39.959  28.437  27.975  1.00  0.00     0.029 A 
ATOM     46  N   UNL A   1      41.820  27.831  28.994  1.00  0.00    -0.354 N 
ATOM     47  C   UNL A   1      42.302  28.992  33.380  1.00  0.00     0.074 A 
ATOM     48  C   UNL A   1      41.084  28.351  33.796  1.00  0.00     0.031 C 
ATOM     49  C   UNL A   1      40.550  27.510  27.185  1.00  0.00     0.029 A 
ATOM     50  C   UNL A   1      41.783  27.080  27.816  1.00  0.00     0.049 A 
ATOM     51  H   UNL A   1      42.599  27.839  29.596  1.00  0.00     0.167 HD
ATOM     52  C   UNL A   1      43.580  28.893  33.840  1.00  0.00     0.037 A 
ATOM     53  C   UNL A   1      42.699  26.149  27.438  1.00  0.00     0.037 A 
ATOM     54  C   UNL A   1      44.465  29.720  33.052  1.00  0.00     0.049 A 
ATOM     55  C   UNL A   1      43.940  26.434  28.215  1.00  0.00     0.074 A 
ATOM     56  C   UNL A   1      44.522  31.072  32.767  1.00  0.00     0.029 A 
ATOM     57  N   UNL A   1      45.210  29.103  32.074  1.00  0.00    -0.354 N 
ATOM     58  N   UNL A   1      44.653  27.514  28.043  1.00  0.00    -0.248 NA
ATOM     59  C   UNL A   1      44.058  25.800  29.520  1.00  0.00     0.031 C 
ATOM     60  C   UNL A   1      44.848  31.139  31.380  1.00  0.00     0.029 A 
ATOM     61  C   UNL A   1      45.082  29.841  30.925  1.00  0.00     0.049 A 
ATOM     62  H   UNL A   1      45.739  28.279  32.180  1.00  0.00     0.167 HD
ATOM     63  C   UNL A   1      44.950  27.942  29.328  1.00  0.00     0.074 A 
ATOM     64  C   UNL A   1      44.589  26.823  30.199  1.00  0.00     0.031 C 
ATOM     65  C   UNL A   1      45.155  29.264  29.604  1.00  0.00     0.037 A 
BRANCH  52  66
ATOM     66  C   UNL A   1      44.103  27.759  34.692  1.00  0.00     0.064 A 
ATOM     67  C   UNL A   1      44.860  28.074  35.839  1.00  0.00     0.173 A 
ATOM     68  C   UNL A   1      44.169  26.413  34.273  1.00  0.00     0.173 A 
ATOM     69  F   UNL A   1      44.874  29.324  36.328  1.00  0.00    -0.203 F 
ATOM     70  C   UNL A   1      45.702  27.141  36.448  1.00  0.00     0.198 A 
ATOM     71  C   UNL A   1      44.972  25.471  34.916  1.00  0.00     0.198 A 
ATOM     72  F   UNL A   1      43.560  25.968  33.171  1.00  0.00    -0.203 F 
ATOM     73  F   UNL A   1      46.509  27.526  37.446  1.00  0.00    -0.200 F 
ATOM     74  C   UNL A   1      45.766  25.843  35.979  1.00  0.00     0.200 A 
ATOM     75  F   UNL A   1      45.030  24.221  34.436  1.00  0.00    -0.200 F 
ATOM     76  F   UNL A   1      46.623  24.965  36.515  1.00  0.00    -0.200 F 
ENDBRANCH  52  66
BRANCH  53  77
ATOM     77  C   UNL A   1      42.483  24.855  26.739  1.00  0.00     0.064 A 
ATOM     78  C   UNL A   1      43.146  24.550  25.535  1.00  0.00     0.173 A 
ATOM     79  C   UNL A   1      41.849  23.776  27.385  1.00  0.00     0.173 A 
ATOM     80  F   UNL A   1      43.817  25.504  24.874  1.00  0.00    -0.203 F 
ATOM     81  C   UNL A   1      43.190  23.245  25.026  1.00  0.00     0.198 A 
ATOM     82  C   UNL A   1      41.894  22.475  26.876  1.00  0.00     0.198 A 
ATOM     83  F   UNL A   1      41.254  23.943  28.574  1.00  0.00    -0.203 F 
ATOM     84  F   UNL A   1      43.880  22.984  23.906  1.00  0.00    -0.200 F 
ATOM     85  C   UNL A   1      42.574  22.207  25.704  1.00  0.00     0.200 A 
ATOM     86  F   UNL A   1      41.325  21.473  27.564  1.00  0.00    -0.200 F 
ATOM     87  F   UNL A   1      42.671  20.948  25.254  1.00  0.00    -0.200 F 
ENDBRANCH  53  77
BRANCH  65  88
ATOM     88  C   UNL A   1      45.264  30.227  28.452  1.00  0.00     0.064 A 
ATOM     89  C   UNL A   1      44.183  30.945  27.909  1.00  0.00     0.173 A 
ATOM     90  C   UNL A   1      46.545  30.559  27.996  1.00  0.00     0.173 A 
ATOM     91  F   UNL A   1      42.937  30.761  28.360  1.00  0.00    -0.203 F 
ATOM     92  C   UNL A   1      44.378  31.919  26.929  1.00  0.00     0.198 A 
ATOM     93  C   UNL A   1      46.742  31.556  27.045  1.00  0.00     0.198 A 
ATOM     94  F   UNL A   1      47.622  29.948  28.518  1.00  0.00    -0.203 F 
ATOM     95  F   UNL A   1      43.328  32.585  26.423  1.00  0.00    -0.200 F 
ATOM     96  C   UNL A   1      45.658  32.228  26.504  1.00  0.00     0.200 A 
ATOM     97  F   UNL A   1      47.987  31.887  26.677  1.00  0.00    -0.200 F 
ATOM     98  F   UNL A   1      45.853  33.192  25.593  1.00  0.00    -0.200 F 
ENDBRANCH  65  88
ENDBRANCH  39  40
ENDBRANCH  31  34
ENDBRANCH  29  30
ENDBRANCH  28  29
ENDBRANCH  27  28
ENDBRANCH  26  27
ENDBRANCH  25  26
ENDBRANCH   1  25
TORSDOF 20
ENDMDL
