MODEL 1
REMARK VINA RESULT:     -12.3      0.000      0.000
REMARK SMILES N#Cc1ccc(/C=C/C(=O)N2C[C@@H](O)C[C@H]2C(=O)NCCCCCCNC(=O)c2ccc(-c3c4nc(c(-c5c(F)c(F)c(F)c(F)c5F)c5ccc([nH]5)c(-c5c(F)c(F)c(F)c(F)c5F)c5nc(c(-c6c(F)c(F)c(F)c(F)c6F)c6ccc3[nH]6)C=C5)C=C4)cc2)cc1
REMARK SMILES IDX 21 1 20 2 19 3 17 4 18 5 16 7 11 8 12 9 13 10 15 11 9 12
REMARK SMILES IDX 10 13 8 14 7 15 6 16 3 17 4 18 93 19 5 20 92 21 2 22 1 23
REMARK SMILES IDX 14 24 22 26 23 27 24 28 25 29 26 30 27 31 28 33 29 34 30 35
REMARK SMILES IDX 91 36 31 37 90 38 32 39 33 40 34 41 84 42 35 43 89 44 83 45
REMARK SMILES IDX 85 46 36 47 88 48 82 49 81 50 37 52 69 53 49 54 68 55 50 56
REMARK SMILES IDX 53 57 67 58 86 59 51 60 52 61 66 63 87 64 54 65 38 66 39 67
REMARK SMILES IDX 47 68 40 69 41 70 45 71 48 72 42 73 43 74 46 75 44 76 70 77
REMARK SMILES IDX 71 78 79 79 72 80 73 81 77 82 80 83 74 84 75 85 78 86 76 87
REMARK SMILES IDX 55 88 56 89 64 90 57 91 58 92 62 93 65 94 59 95 60 96 63 97
REMARK SMILES IDX 61 98
REMARK H PARENT 19 6 14 25 26 32 85 51 53 62
REMARK Flexibility Score: inf
ROOT
ATOM      1  C   UNL A   1      36.673  23.477  25.383  1.00  0.00     0.021 C 
ENDROOT
BRANCH   1   2
ATOM      2  C   UNL A   1      35.401  24.191  24.952  1.00  0.00     0.116 C 
BRANCH   2   3
ATOM      3  N   UNL A   1      34.332  24.002  25.899  1.00  0.00    -0.354 N 
ATOM      4  C   UNL A   1      33.000  24.267  25.782  1.00  0.00     0.242 C 
ATOM      5  O   UNL A   1      32.265  23.822  26.669  1.00  0.00    -0.273 OA
ATOM      6  H   UNL A   1      34.606  23.624  26.766  1.00  0.00     0.163 HD
BRANCH   4   7
ATOM      7  C   UNL A   1      32.400  24.895  24.504  1.00  0.00     0.177 C 
ATOM      8  N   UNL A   1      31.832  23.990  23.496  1.00  0.00    -0.324 N 
ATOM      9  C   UNL A   1      30.429  24.275  23.240  1.00  0.00     0.152 C 
ATOM     10  C   UNL A   1      30.221  25.689  23.767  1.00  0.00     0.136 C 
ATOM     11  C   UNL A   1      31.272  25.872  24.860  1.00  0.00     0.069 C 
BRANCH   8  12
ATOM     12  C   UNL A   1      32.692  23.205  22.763  1.00  0.00     0.247 C 
ATOM     13  O   UNL A   1      33.509  23.670  21.972  1.00  0.00    -0.270 OA
BRANCH  12  14
ATOM     14  C   UNL A   1      32.608  21.730  22.895  1.00  0.00     0.072 C 
ATOM     15  C   UNL A   1      32.995  21.134  24.034  1.00  0.00     0.014 C 
BRANCH  15  16
ATOM     16  C   UNL A   1      32.861  19.711  24.356  1.00  0.00    -0.025 A 
ATOM     17  C   UNL A   1      32.897  16.949  24.880  1.00  0.00     0.052 A 
ATOM     18  C   UNL A   1      32.844  17.867  25.934  1.00  0.00     0.020 A 
ATOM     19  C   UNL A   1      32.906  17.410  23.562  1.00  0.00     0.020 A 
ATOM     20  C   UNL A   1      32.828  19.241  25.673  1.00  0.00     0.009 A 
ATOM     21  C   UNL A   1      32.892  18.784  23.304  1.00  0.00     0.009 A 
BRANCH  17  22
ATOM     22  C   UNL A   1      32.975  15.541  25.150  1.00  0.00     0.099 C 
ATOM     23  N   UNL A   1      33.048  14.409  25.378  1.00  0.00    -0.192 NA
ENDBRANCH  17  22
ENDBRANCH  15  16
ENDBRANCH  12  14
ENDBRANCH   8  12
BRANCH  10  24
ATOM     24  O   UNL A   1      28.907  25.886  24.268  1.00  0.00    -0.391 OA
ATOM     25  H   UNL A   1      28.266  25.500  23.651  1.00  0.00     0.211 HD
ENDBRANCH  10  24
ENDBRANCH   4   7
ENDBRANCH   2   3
ENDBRANCH   1   2
BRANCH   1  26
ATOM     26  C   UNL A   1      37.027  22.305  24.464  1.00  0.00     0.002 C 
BRANCH  26  27
ATOM     27  C   UNL A   1      36.849  20.921  25.102  1.00  0.00     0.002 C 
BRANCH  27  28
ATOM     28  C   UNL A   1      38.035  19.975  24.907  1.00  0.00     0.021 C 
BRANCH  28  29
ATOM     29  C   UNL A   1      39.254  20.359  25.735  1.00  0.00     0.116 C 
BRANCH  29  30
ATOM     30  N   UNL A   1      40.171  19.239  25.884  1.00  0.00    -0.352 N 
ATOM     31  C   UNL A   1      41.524  19.265  26.109  1.00  0.00     0.251 C 
ATOM     32  H   UNL A   1      39.767  18.343  25.815  1.00  0.00     0.163 HD
ATOM     33  O   UNL A   1      42.207  18.257  25.977  1.00  0.00    -0.269 OA
BRANCH  31  34
ATOM     34  C   UNL A   1      42.146  20.543  26.502  1.00  0.00     0.039 A 
ATOM     35  C   UNL A   1      42.681  21.378  25.522  1.00  0.00     0.014 A 
ATOM     36  C   UNL A   1      42.146  20.926  27.846  1.00  0.00     0.014 A 
ATOM     37  C   UNL A   1      43.163  22.636  25.884  1.00  0.00     0.010 A 
ATOM     38  C   UNL A   1      42.538  22.211  28.189  1.00  0.00     0.010 A 
ATOM     39  C   UNL A   1      43.061  23.077  27.214  1.00  0.00    -0.014 A 
BRANCH  39  40
ATOM     40  C   UNL A   1      43.521  24.422  27.636  1.00  0.00     0.031 A 
ATOM     41  C   UNL A   1      42.501  25.479  27.958  1.00  0.00     0.074 A 
ATOM     42  C   UNL A   1      44.836  24.717  27.653  1.00  0.00     0.049 A 
ATOM     43  N   UNL A   1      42.673  26.755  28.190  1.00  0.00    -0.248 NA
ATOM     44  C   UNL A   1      41.093  25.047  27.994  1.00  0.00     0.031 C 
ATOM     45  C   UNL A   1      45.921  23.784  27.345  1.00  0.00     0.029 A 
ATOM     46  N   UNL A   1      45.483  25.897  27.924  1.00  0.00    -0.354 N 
ATOM     47  C   UNL A   1      41.401  27.273  28.394  1.00  0.00     0.074 A 
ATOM     48  C   UNL A   1      40.461  26.195  28.184  1.00  0.00     0.031 C 
ATOM     49  C   UNL A   1      47.097  24.422  27.460  1.00  0.00     0.029 A 
ATOM     50  C   UNL A   1      46.849  25.821  27.792  1.00  0.00     0.049 A 
ATOM     51  H   UNL A   1      45.013  26.721  28.187  1.00  0.00     0.167 HD
ATOM     52  C   UNL A   1      41.049  28.527  28.761  1.00  0.00     0.037 A 
ATOM     53  C   UNL A   1      47.789  26.781  27.904  1.00  0.00     0.037 A 
ATOM     54  C   UNL A   1      41.987  29.595  28.977  1.00  0.00     0.049 A 
ATOM     55  C   UNL A   1      47.359  28.190  28.231  1.00  0.00     0.074 A 
ATOM     56  C   UNL A   1      41.734  30.901  29.356  1.00  0.00     0.029 A 
ATOM     57  N   UNL A   1      43.362  29.477  28.838  1.00  0.00    -0.354 N 
ATOM     58  N   UNL A   1      46.156  28.660  28.459  1.00  0.00    -0.248 NA
ATOM     59  C   UNL A   1      48.420  29.204  28.320  1.00  0.00     0.031 C 
ATOM     60  C   UNL A   1      42.949  31.588  29.393  1.00  0.00     0.029 A 
ATOM     61  C   UNL A   1      43.967  30.692  29.110  1.00  0.00     0.049 A 
ATOM     62  H   UNL A   1      43.836  28.652  28.582  1.00  0.00     0.167 HD
ATOM     63  C   UNL A   1      46.324  30.004  28.774  1.00  0.00     0.074 A 
ATOM     64  C   UNL A   1      47.744  30.274  28.711  1.00  0.00     0.031 C 
ATOM     65  C   UNL A   1      45.387  30.930  29.090  1.00  0.00     0.037 A 
BRANCH  52  66
ATOM     66  C   UNL A   1      39.590  28.810  28.968  1.00  0.00     0.064 A 
ATOM     67  C   UNL A   1      38.987  28.651  30.226  1.00  0.00     0.173 A 
ATOM     68  C   UNL A   1      38.798  29.299  27.918  1.00  0.00     0.173 A 
ATOM     69  F   UNL A   1      39.697  28.176  31.261  1.00  0.00    -0.203 F 
ATOM     70  C   UNL A   1      37.641  28.947  30.418  1.00  0.00     0.198 A 
ATOM     71  C   UNL A   1      37.461  29.628  28.124  1.00  0.00     0.198 A 
ATOM     72  F   UNL A   1      39.325  29.473  26.697  1.00  0.00    -0.203 F 
ATOM     73  F   UNL A   1      37.076  28.741  31.616  1.00  0.00    -0.200 F 
ATOM     74  C   UNL A   1      36.882  29.446  29.370  1.00  0.00     0.200 A 
ATOM     75  F   UNL A   1      36.734  30.127  27.115  1.00  0.00    -0.200 F 
ATOM     76  F   UNL A   1      35.590  29.747  29.560  1.00  0.00    -0.200 F 
ENDBRANCH  52  66
BRANCH  53  77
ATOM     77  C   UNL A   1      49.231  26.466  27.700  1.00  0.00     0.064 A 
ATOM     78  C   UNL A   1      50.075  26.219  28.794  1.00  0.00     0.173 A 
ATOM     79  C   UNL A   1      49.813  26.477  26.424  1.00  0.00     0.173 A 
ATOM     80  F   UNL A   1      49.573  26.211  30.038  1.00  0.00    -0.203 F 
ATOM     81  C   UNL A   1      51.448  26.055  28.626  1.00  0.00     0.198 A 
ATOM     82  C   UNL A   1      51.180  26.271  26.252  1.00  0.00     0.198 A 
ATOM     83  F   UNL A   1      49.055  26.699  25.341  1.00  0.00    -0.203 F 
ATOM     84  F   UNL A   1      52.240  25.911  29.697  1.00  0.00    -0.200 F 
ATOM     85  C   UNL A   1      52.000  26.080  27.354  1.00  0.00     0.200 A 
ATOM     86  F   UNL A   1      51.706  26.277  25.020  1.00  0.00    -0.200 F 
ATOM     87  F   UNL A   1      53.323  25.938  27.192  1.00  0.00    -0.200 F 
ENDBRANCH  53  77
BRANCH  65  88
ATOM     88  C   UNL A   1      45.860  32.301  29.484  1.00  0.00     0.064 A 
ATOM     89  C   UNL A   1      45.989  33.343  28.555  1.00  0.00     0.173 A 
ATOM     90  C   UNL A   1      46.120  32.588  30.834  1.00  0.00     0.173 A 
ATOM     91  F   UNL A   1      45.766  33.119  27.252  1.00  0.00    -0.203 F 
ATOM     92  C   UNL A   1      46.381  34.616  28.961  1.00  0.00     0.198 A 
ATOM     93  C   UNL A   1      46.473  33.871  31.240  1.00  0.00     0.198 A 
ATOM     94  F   UNL A   1      46.003  31.629  31.764  1.00  0.00    -0.203 F 
ATOM     95  F   UNL A   1      46.542  35.587  28.050  1.00  0.00    -0.200 F 
ATOM     96  C   UNL A   1      46.610  34.882  30.303  1.00  0.00     0.200 A 
ATOM     97  F   UNL A   1      46.672  34.129  32.540  1.00  0.00    -0.200 F 
ATOM     98  F   UNL A   1      46.967  36.114  30.692  1.00  0.00    -0.200 F 
ENDBRANCH  65  88
ENDBRANCH  39  40
ENDBRANCH  31  34
ENDBRANCH  29  30
ENDBRANCH  28  29
ENDBRANCH  27  28
ENDBRANCH  26  27
ENDBRANCH   1  26
TORSDOF 18
ENDMDL
MODEL 2
REMARK VINA RESULT:     -12.2      0.245      1.577
REMARK SMILES N#Cc1ccc(/C=C/C(=O)N2C[C@@H](O)C[C@H]2C(=O)NCCCCCCNC(=O)c2ccc(-c3c4nc(c(-c5c(F)c(F)c(F)c(F)c5F)c5ccc([nH]5)c(-c5c(F)c(F)c(F)c(F)c5F)c5nc(c(-c6c(F)c(F)c(F)c(F)c6F)c6ccc3[nH]6)C=C5)C=C4)cc2)cc1
REMARK SMILES IDX 21 1 20 2 19 3 17 4 18 5 16 7 11 8 12 9 13 10 15 11 9 12
REMARK SMILES IDX 10 13 8 14 7 15 6 16 3 17 4 18 93 19 5 20 92 21 2 22 1 23
REMARK SMILES IDX 14 24 22 26 23 27 24 28 25 29 26 30 27 31 28 33 29 34 30 35
REMARK SMILES IDX 91 36 31 37 90 38 32 39 33 40 34 41 84 42 35 43 89 44 83 45
REMARK SMILES IDX 85 46 36 47 88 48 82 49 81 50 37 52 69 53 49 54 68 55 50 56
REMARK SMILES IDX 53 57 67 58 86 59 51 60 52 61 66 63 87 64 54 65 38 66 39 67
REMARK SMILES IDX 47 68 40 69 41 70 45 71 48 72 42 73 43 74 46 75 44 76 70 77
REMARK SMILES IDX 71 78 79 79 72 80 73 81 77 82 80 83 74 84 75 85 78 86 76 87
REMARK SMILES IDX 55 88 56 89 64 90 57 91 58 92 62 93 65 94 59 95 60 96 63 97
REMARK SMILES IDX 61 98
REMARK H PARENT 19 6 14 25 26 32 85 51 53 62
REMARK Flexibility Score: inf
ROOT
ATOM      1  C   UNL A   1      36.587  23.541  25.702  1.00  0.00     0.021 C 
ENDROOT
BRANCH   1   2
ATOM      2  C   UNL A   1      35.333  24.272  25.247  1.00  0.00     0.116 C 
BRANCH   2   3
ATOM      3  N   UNL A   1      34.203  23.975  26.089  1.00  0.00    -0.354 N 
ATOM      4  C   UNL A   1      32.871  24.166  25.868  1.00  0.00     0.242 C 
ATOM      5  O   UNL A   1      32.094  23.636  26.668  1.00  0.00    -0.273 OA
ATOM      6  H   UNL A   1      34.426  23.573  26.959  1.00  0.00     0.163 HD
BRANCH   4   7
ATOM      7  C   UNL A   1      32.342  24.817  24.571  1.00  0.00     0.177 C 
ATOM      8  N   UNL A   1      31.776  23.936  23.541  1.00  0.00    -0.324 N 
ATOM      9  C   UNL A   1      30.395  24.275  23.236  1.00  0.00     0.152 C 
ATOM     10  C   UNL A   1      30.223  25.696  23.758  1.00  0.00     0.136 C 
ATOM     11  C   UNL A   1      31.241  25.837  24.889  1.00  0.00     0.069 C 
BRANCH   8  12
ATOM     12  C   UNL A   1      32.631  23.119  22.837  1.00  0.00     0.247 C 
ATOM     13  O   UNL A   1      33.487  23.553  22.070  1.00  0.00    -0.270 OA
BRANCH  12  14
ATOM     14  C   UNL A   1      32.492  21.649  22.971  1.00  0.00     0.072 C 
ATOM     15  C   UNL A   1      33.076  21.010  23.997  1.00  0.00     0.014 C 
BRANCH  15  16
ATOM     16  C   UNL A   1      32.933  19.589  24.328  1.00  0.00    -0.025 A 
ATOM     17  C   UNL A   1      32.957  16.835  24.896  1.00  0.00     0.052 A 
ATOM     18  C   UNL A   1      32.797  17.767  25.926  1.00  0.00     0.020 A 
ATOM     19  C   UNL A   1      33.079  17.278  23.577  1.00  0.00     0.020 A 
ATOM     20  C   UNL A   1      32.786  19.137  25.644  1.00  0.00     0.009 A 
ATOM     21  C   UNL A   1      33.071  18.648  23.297  1.00  0.00     0.009 A 
BRANCH  17  22
ATOM     22  C   UNL A   1      33.028  15.433  25.193  1.00  0.00     0.099 C 
ATOM     23  N   UNL A   1      33.072  14.304  25.441  1.00  0.00    -0.192 NA
ENDBRANCH  17  22
ENDBRANCH  15  16
ENDBRANCH  12  14
ENDBRANCH   8  12
BRANCH  10  24
ATOM     24  O   UNL A   1      28.901  25.943  24.212  1.00  0.00    -0.391 OA
ATOM     25  H   UNL A   1      28.791  25.572  25.102  1.00  0.00     0.211 HD
ENDBRANCH  10  24
ENDBRANCH   4   7
ENDBRANCH   2   3
ENDBRANCH   1   2
BRANCH   1  26
ATOM     26  C   UNL A   1      36.399  22.023  25.741  1.00  0.00     0.002 C 
BRANCH  26  27
ATOM     27  C   UNL A   1      37.061  21.270  24.579  1.00  0.00     0.002 C 
BRANCH  27  28
ATOM     28  C   UNL A   1      37.917  20.076  25.004  1.00  0.00     0.021 C 
BRANCH  28  29
ATOM     29  C   UNL A   1      39.176  20.475  25.760  1.00  0.00     0.116 C 
BRANCH  29  30
ATOM     30  N   UNL A   1      40.111  19.364  25.863  1.00  0.00    -0.352 N 
ATOM     31  C   UNL A   1      41.470  19.403  26.052  1.00  0.00     0.251 C 
ATOM     32  H   UNL A   1      39.716  18.465  25.788  1.00  0.00     0.163 HD
ATOM     33  O   UNL A   1      42.161  18.406  25.882  1.00  0.00    -0.269 OA
BRANCH  31  34
ATOM     34  C   UNL A   1      42.086  20.682  26.451  1.00  0.00     0.039 A 
ATOM     35  C   UNL A   1      42.510  21.577  25.470  1.00  0.00     0.014 A 
ATOM     36  C   UNL A   1      42.192  21.004  27.808  1.00  0.00     0.014 A 
ATOM     37  C   UNL A   1      42.986  22.833  25.850  1.00  0.00     0.010 A 
ATOM     38  C   UNL A   1      42.575  22.284  28.177  1.00  0.00     0.010 A 
ATOM     39  C   UNL A   1      42.986  23.209  27.204  1.00  0.00    -0.014 A 
BRANCH  39  40
ATOM     40  C   UNL A   1      43.443  24.549  27.649  1.00  0.00     0.031 A 
ATOM     41  C   UNL A   1      42.419  25.600  27.980  1.00  0.00     0.074 A 
ATOM     42  C   UNL A   1      44.757  24.844  27.679  1.00  0.00     0.049 A 
ATOM     43  N   UNL A   1      42.589  26.872  28.233  1.00  0.00    -0.248 NA
ATOM     44  C   UNL A   1      41.012  25.166  28.001  1.00  0.00     0.031 C 
ATOM     45  C   UNL A   1      45.845  23.916  27.363  1.00  0.00     0.029 A 
ATOM     46  N   UNL A   1      45.401  26.021  27.972  1.00  0.00    -0.354 N 
ATOM     47  C   UNL A   1      41.315  27.386  28.437  1.00  0.00     0.074 A 
ATOM     48  C   UNL A   1      40.378  26.310  28.204  1.00  0.00     0.031 C 
ATOM     49  C   UNL A   1      47.020  24.554  27.496  1.00  0.00     0.029 A 
ATOM     50  C   UNL A   1      46.769  25.948  27.848  1.00  0.00     0.049 A 
ATOM     51  H   UNL A   1      44.929  26.840  28.245  1.00  0.00     0.167 HD
ATOM     52  C   UNL A   1      40.960  28.634  28.821  1.00  0.00     0.037 A 
ATOM     53  C   UNL A   1      47.706  26.906  27.980  1.00  0.00     0.037 A 
ATOM     54  C   UNL A   1      41.896  29.699  29.059  1.00  0.00     0.049 A 
ATOM     55  C   UNL A   1      47.274  28.310  28.326  1.00  0.00     0.074 A 
ATOM     56  C   UNL A   1      41.639  30.999  29.456  1.00  0.00     0.029 A 
ATOM     57  N   UNL A   1      43.272  29.584  28.927  1.00  0.00    -0.354 N 
ATOM     58  N   UNL A   1      46.069  28.776  28.553  1.00  0.00    -0.248 NA
ATOM     59  C   UNL A   1      48.333  29.323  28.437  1.00  0.00     0.031 C 
ATOM     60  C   UNL A   1      42.853  31.687  29.511  1.00  0.00     0.029 A 
ATOM     61  C   UNL A   1      43.874  30.796  29.221  1.00  0.00     0.049 A 
ATOM     62  H   UNL A   1      43.748  28.764  28.662  1.00  0.00     0.167 HD
ATOM     63  C   UNL A   1      46.233  30.114  28.890  1.00  0.00     0.074 A 
ATOM     64  C   UNL A   1      47.653  30.386  28.840  1.00  0.00     0.031 C 
ATOM     65  C   UNL A   1      45.293  31.035  29.213  1.00  0.00     0.037 A 
BRANCH  52  66
ATOM     66  C   UNL A   1      39.499  28.912  29.023  1.00  0.00     0.064 A 
ATOM     67  C   UNL A   1      38.898  28.776  30.283  1.00  0.00     0.173 A 
ATOM     68  C   UNL A   1      38.704  29.375  27.963  1.00  0.00     0.173 A 
ATOM     69  F   UNL A   1      39.611  28.327  31.327  1.00  0.00    -0.203 F 
ATOM     70  C   UNL A   1      37.550  29.068  30.470  1.00  0.00     0.198 A 
ATOM     71  C   UNL A   1      37.365  29.700  28.162  1.00  0.00     0.198 A 
ATOM     72  F   UNL A   1      39.229  29.527  26.738  1.00  0.00    -0.203 F 
ATOM     73  F   UNL A   1      36.987  28.883  31.672  1.00  0.00    -0.200 F 
ATOM     74  C   UNL A   1      36.787  29.541  29.413  1.00  0.00     0.200 A 
ATOM     75  F   UNL A   1      36.635  30.174  27.144  1.00  0.00    -0.200 F 
ATOM     76  F   UNL A   1      35.494  29.838  29.597  1.00  0.00    -0.200 F 
ENDBRANCH  52  66
BRANCH  53  77
ATOM     77  C   UNL A   1      49.150  26.595  27.781  1.00  0.00     0.064 A 
ATOM     78  C   UNL A   1      49.689  26.472  26.491  1.00  0.00     0.173 A 
ATOM     79  C   UNL A   1      50.004  26.342  28.865  1.00  0.00     0.173 A 
ATOM     80  F   UNL A   1      48.913  26.689  25.418  1.00  0.00    -0.203 F 
ATOM     81  C   UNL A   1      51.003  26.053  26.292  1.00  0.00     0.198 A 
ATOM     82  C   UNL A   1      51.330  25.963  28.667  1.00  0.00     0.198 A 
ATOM     83  F   UNL A   1      49.548  26.452  30.121  1.00  0.00    -0.203 F 
ATOM     84  F   UNL A   1      51.460  25.857  25.048  1.00  0.00    -0.200 F 
ATOM     85  C   UNL A   1      51.823  25.799  27.381  1.00  0.00     0.200 A 
ATOM     86  F   UNL A   1      52.125  25.738  29.721  1.00  0.00    -0.200 F 
ATOM     87  F   UNL A   1      53.082  25.380  27.191  1.00  0.00    -0.200 F 
ENDBRANCH  53  77
BRANCH  65  88
ATOM     88  C   UNL A   1      45.762  32.400  29.632  1.00  0.00     0.064 A 
ATOM     89  C   UNL A   1      46.106  32.699  30.958  1.00  0.00     0.173 A 
ATOM     90  C   UNL A   1      45.937  33.404  28.666  1.00  0.00     0.173 A 
ATOM     91  F   UNL A   1      45.945  31.780  31.921  1.00  0.00    -0.203 F 
ATOM     92  C   UNL A   1      46.586  33.959  31.304  1.00  0.00     0.198 A 
ATOM     93  C   UNL A   1      46.453  34.649  29.009  1.00  0.00     0.198 A 
ATOM     94  F   UNL A   1      45.631  33.168  27.381  1.00  0.00    -0.203 F 
ATOM     95  F   UNL A   1      46.864  34.239  32.585  1.00  0.00    -0.200 F 
ATOM     96  C   UNL A   1      46.771  34.929  30.329  1.00  0.00     0.200 A 
ATOM     97  F   UNL A   1      46.651  35.576  28.061  1.00  0.00    -0.200 F 
ATOM     98  F   UNL A   1      47.253  36.134  30.663  1.00  0.00    -0.200 F 
ENDBRANCH  65  88
ENDBRANCH  39  40
ENDBRANCH  31  34
ENDBRANCH  29  30
ENDBRANCH  28  29
ENDBRANCH  27  28
ENDBRANCH  26  27
ENDBRANCH   1  26
TORSDOF 18
ENDMDL
MODEL 3
REMARK VINA RESULT:     -12.2      5.490     10.962
REMARK SMILES N#Cc1ccc(/C=C/C(=O)N2C[C@@H](O)C[C@H]2C(=O)NCCCCCCNC(=O)c2ccc(-c3c4nc(c(-c5c(F)c(F)c(F)c(F)c5F)c5ccc([nH]5)c(-c5c(F)c(F)c(F)c(F)c5F)c5nc(c(-c6c(F)c(F)c(F)c(F)c6F)c6ccc3[nH]6)C=C5)C=C4)cc2)cc1
REMARK SMILES IDX 21 1 20 2 19 3 17 4 18 5 16 7 11 8 12 9 13 10 15 11 9 12
REMARK SMILES IDX 10 13 8 14 7 15 6 16 3 17 4 18 93 19 5 20 92 21 2 22 1 23
REMARK SMILES IDX 14 24 22 26 23 27 24 28 25 29 26 30 27 31 28 33 29 34 30 35
REMARK SMILES IDX 91 36 31 37 90 38 32 39 33 40 34 41 84 42 35 43 89 44 83 45
REMARK SMILES IDX 85 46 36 47 88 48 82 49 81 50 37 52 69 53 49 54 68 55 50 56
REMARK SMILES IDX 53 57 67 58 86 59 51 60 52 61 66 63 87 64 54 65 38 66 39 67
REMARK SMILES IDX 47 68 40 69 41 70 45 71 48 72 42 73 43 74 46 75 44 76 70 77
REMARK SMILES IDX 71 78 79 79 72 80 73 81 77 82 80 83 74 84 75 85 78 86 76 87
REMARK SMILES IDX 55 88 56 89 64 90 57 91 58 92 62 93 65 94 59 95 60 96 63 97
REMARK SMILES IDX 61 98
REMARK H PARENT 19 6 14 25 26 32 85 51 53 62
REMARK Flexibility Score: inf
ROOT
ATOM      1  C   UNL A   1      33.433  28.605  27.131  1.00  0.00     0.021 C 
ENDROOT
BRANCH   1   2
ATOM      2  C   UNL A   1      33.295  27.197  26.573  1.00  0.00     0.116 C 
BRANCH   2   3
ATOM      3  N   UNL A   1      33.617  27.140  25.170  1.00  0.00    -0.354 N 
ATOM      4  C   UNL A   1      33.337  26.180  24.245  1.00  0.00     0.242 C 
ATOM      5  O   UNL A   1      33.548  26.469  23.063  1.00  0.00    -0.273 OA
ATOM      6  H   UNL A   1      34.119  27.915  24.827  1.00  0.00     0.163 HD
BRANCH   4   7
ATOM      7  C   UNL A   1      32.589  24.880  24.615  1.00  0.00     0.177 C 
ATOM      8  N   UNL A   1      31.138  24.834  24.389  1.00  0.00    -0.324 N 
ATOM      9  C   UNL A   1      30.764  23.756  23.487  1.00  0.00     0.152 C 
ATOM     10  C   UNL A   1      31.959  22.811  23.500  1.00  0.00     0.136 C 
ATOM     11  C   UNL A   1      33.163  23.686  23.841  1.00  0.00     0.069 C 
BRANCH   8  12
ATOM     12  C   UNL A   1      30.325  25.589  25.202  1.00  0.00     0.247 C 
ATOM     13  O   UNL A   1      29.903  25.186  26.283  1.00  0.00    -0.270 OA
BRANCH  12  14
ATOM     14  C   UNL A   1      29.899  26.934  24.743  1.00  0.00     0.072 C 
ATOM     15  C   UNL A   1      29.936  27.240  23.436  1.00  0.00     0.014 C 
BRANCH  15  16
ATOM     16  C   UNL A   1      29.441  28.475  22.821  1.00  0.00    -0.025 A 
ATOM     17  C   UNL A   1      28.487  30.963  21.925  1.00  0.00     0.052 A 
ATOM     18  C   UNL A   1      29.787  30.551  21.612  1.00  0.00     0.020 A 
ATOM     19  C   UNL A   1      27.654  30.120  22.664  1.00  0.00     0.020 A 
ATOM     20  C   UNL A   1      30.261  29.313  22.059  1.00  0.00     0.009 A 
ATOM     21  C   UNL A   1      28.132  28.885  23.112  1.00  0.00     0.009 A 
BRANCH  17  22
ATOM     22  C   UNL A   1      28.021  32.258  21.517  1.00  0.00     0.099 C 
ATOM     23  N   UNL A   1      27.638  33.295  21.176  1.00  0.00    -0.192 NA
ENDBRANCH  17  22
ENDBRANCH  15  16
ENDBRANCH  12  14
ENDBRANCH   8  12
BRANCH  10  24
ATOM     24  O   UNL A   1      32.130  22.148  22.256  1.00  0.00    -0.391 OA
ATOM     25  H   UNL A   1      32.739  21.401  22.370  1.00  0.00     0.211 HD
ENDBRANCH  10  24
ENDBRANCH   4   7
ENDBRANCH   2   3
ENDBRANCH   1   2
BRANCH   1  26
ATOM     26  C   UNL A   1      32.095  29.347  27.188  1.00  0.00     0.002 C 
BRANCH  26  27
ATOM     27  C   UNL A   1      31.873  30.346  26.045  1.00  0.00     0.002 C 
BRANCH  27  28
ATOM     28  C   UNL A   1      31.543  31.768  26.501  1.00  0.00     0.021 C 
BRANCH  28  29
ATOM     29  C   UNL A   1      32.672  32.428  27.282  1.00  0.00     0.116 C 
BRANCH  29  30
ATOM     30  N   UNL A   1      32.413  33.844  27.497  1.00  0.00    -0.352 N 
ATOM     31  C   UNL A   1      32.959  34.680  28.438  1.00  0.00     0.251 C 
ATOM     32  H   UNL A   1      31.761  34.258  26.886  1.00  0.00     0.163 HD
ATOM     33  O   UNL A   1      32.478  35.785  28.659  1.00  0.00    -0.269 OA
BRANCH  31  34
ATOM     34  C   UNL A   1      34.136  34.213  29.194  1.00  0.00     0.039 A 
ATOM     35  C   UNL A   1      33.955  33.427  30.332  1.00  0.00     0.014 A 
ATOM     36  C   UNL A   1      35.419  34.518  28.733  1.00  0.00     0.014 A 
ATOM     37  C   UNL A   1      35.070  32.891  30.977  1.00  0.00     0.010 A 
ATOM     38  C   UNL A   1      36.518  33.908  29.319  1.00  0.00     0.010 A 
ATOM     39  C   UNL A   1      36.357  33.097  30.453  1.00  0.00    -0.014 A 
BRANCH  39  40
ATOM     40  C   UNL A   1      37.567  32.511  31.081  1.00  0.00     0.031 A 
ATOM     41  C   UNL A   1      38.271  31.373  30.396  1.00  0.00     0.074 A 
ATOM     42  C   UNL A   1      37.981  32.939  32.290  1.00  0.00     0.049 A 
ATOM     43  N   UNL A   1      39.240  30.611  30.835  1.00  0.00    -0.248 NA
ATOM     44  C   UNL A   1      37.801  31.025  29.044  1.00  0.00     0.031 C 
ATOM     45  C   UNL A   1      37.372  34.023  33.063  1.00  0.00     0.029 A 
ATOM     46  N   UNL A   1      39.006  32.499  33.090  1.00  0.00    -0.354 N 
ATOM     47  C   UNL A   1      39.489  29.699  29.819  1.00  0.00     0.074 A 
ATOM     48  C   UNL A   1      38.522  29.949  28.773  1.00  0.00     0.031 C 
ATOM     49  C   UNL A   1      38.043  34.173  34.216  1.00  0.00     0.029 A 
ATOM     50  C   UNL A   1      39.092  33.161  34.292  1.00  0.00     0.049 A 
ATOM     51  H   UNL A   1      39.621  31.776  32.829  1.00  0.00     0.167 HD
ATOM     52  C   UNL A   1      40.461  28.760  29.746  1.00  0.00     0.037 A 
ATOM     53  C   UNL A   1      39.911  32.955  35.342  1.00  0.00     0.037 A 
ATOM     54  C   UNL A   1      41.427  28.520  30.785  1.00  0.00     0.049 A 
ATOM     55  C   UNL A   1      40.931  31.845  35.267  1.00  0.00     0.074 A 
ATOM     56  C   UNL A   1      42.456  27.596  30.808  1.00  0.00     0.029 A 
ATOM     57  N   UNL A   1      41.483  29.215  31.984  1.00  0.00    -0.354 N 
ATOM     58  N   UNL A   1      41.181  31.012  34.286  1.00  0.00    -0.248 NA
ATOM     59  C   UNL A   1      41.785  31.647  36.447  1.00  0.00     0.031 C 
ATOM     60  C   UNL A   1      43.101  27.693  32.042  1.00  0.00     0.029 A 
ATOM     61  C   UNL A   1      42.523  28.728  32.759  1.00  0.00     0.049 A 
ATOM     62  H   UNL A   1      40.875  29.943  32.245  1.00  0.00     0.167 HD
ATOM     63  C   UNL A   1      42.255  30.236  34.707  1.00  0.00     0.074 A 
ATOM     64  C   UNL A   1      42.611  30.698  36.031  1.00  0.00     0.031 C 
ATOM     65  C   UNL A   1      42.892  29.234  34.055  1.00  0.00     0.037 A 
BRANCH  52  66
ATOM     66  C   UNL A   1      40.541  27.933  28.497  1.00  0.00     0.064 A 
ATOM     67  C   UNL A   1      41.295  28.353  27.390  1.00  0.00     0.173 A 
ATOM     68  C   UNL A   1      39.907  26.683  28.423  1.00  0.00     0.173 A 
ATOM     69  F   UNL A   1      41.912  29.544  27.405  1.00  0.00    -0.203 F 
ATOM     70  C   UNL A   1      41.391  27.564  26.247  1.00  0.00     0.198 A 
ATOM     71  C   UNL A   1      40.035  25.882  27.291  1.00  0.00     0.198 A 
ATOM     72  F   UNL A   1      39.177  26.232  29.453  1.00  0.00    -0.203 F 
ATOM     73  F   UNL A   1      42.077  28.009  25.185  1.00  0.00    -0.200 F 
ATOM     74  C   UNL A   1      40.771  26.325  26.203  1.00  0.00     0.200 A 
ATOM     75  F   UNL A   1      39.450  24.677  27.258  1.00  0.00    -0.200 F 
ATOM     76  F   UNL A   1      40.878  25.559  25.109  1.00  0.00    -0.200 F 
ENDBRANCH  52  66
BRANCH  53  77
ATOM     77  C   UNL A   1      39.812  33.800  36.565  1.00  0.00     0.064 A 
ATOM     78  C   UNL A   1      38.971  33.433  37.627  1.00  0.00     0.173 A 
ATOM     79  C   UNL A   1      40.493  35.022  36.672  1.00  0.00     0.173 A 
ATOM     80  F   UNL A   1      38.285  32.281  37.570  1.00  0.00    -0.203 F 
ATOM     81  C   UNL A   1      38.769  34.279  38.716  1.00  0.00     0.198 A 
ATOM     82  C   UNL A   1      40.324  35.848  37.781  1.00  0.00     0.198 A 
ATOM     83  F   UNL A   1      41.317  35.421  35.692  1.00  0.00    -0.203 F 
ATOM     84  F   UNL A   1      37.891  33.941  39.670  1.00  0.00    -0.200 F 
ATOM     85  C   UNL A   1      39.447  35.486  38.793  1.00  0.00     0.200 A 
ATOM     86  F   UNL A   1      40.995  37.005  37.860  1.00  0.00    -0.200 F 
ATOM     87  F   UNL A   1      39.242  36.308  39.831  1.00  0.00    -0.200 F 
ENDBRANCH  53  77
BRANCH  65  88
ATOM     88  C   UNL A   1      44.097  28.622  34.713  1.00  0.00     0.064 A 
ATOM     89  C   UNL A   1      45.376  29.184  34.601  1.00  0.00     0.173 A 
ATOM     90  C   UNL A   1      43.947  27.489  35.529  1.00  0.00     0.173 A 
ATOM     91  F   UNL A   1      45.577  30.259  33.824  1.00  0.00    -0.203 F 
ATOM     92  C   UNL A   1      46.463  28.623  35.265  1.00  0.00     0.198 A 
ATOM     93  C   UNL A   1      45.028  26.954  36.222  1.00  0.00     0.198 A 
ATOM     94  F   UNL A   1      42.743  26.916  35.677  1.00  0.00    -0.203 F 
ATOM     95  F   UNL A   1      47.686  29.149  35.108  1.00  0.00    -0.200 F 
ATOM     96  C   UNL A   1      46.287  27.517  36.083  1.00  0.00     0.200 A 
ATOM     97  F   UNL A   1      44.849  25.899  37.029  1.00  0.00    -0.200 F 
ATOM     98  F   UNL A   1      47.332  26.992  36.738  1.00  0.00    -0.200 F 
ENDBRANCH  65  88
ENDBRANCH  39  40
ENDBRANCH  31  34
ENDBRANCH  29  30
ENDBRANCH  28  29
ENDBRANCH  27  28
ENDBRANCH  26  27
ENDBRANCH   1  26
TORSDOF 18
ENDMDL
