MODEL 1
REMARK VINA RESULT:     -12.5      0.000      0.000
REMARK SMILES Cc1ccccc1[C@H](C(=O)NC[C@H]1CC[C@@H](C(=O)NCCCCCCNC(=O)c2ccc(-c3c4nc(c(-c5c(F)c(F)c(F)c(F)c5F)c5ccc([nH]5)c(-c5c(F)c(F)c(F)c(F)c5F)c5nc(c(-c6c(F)c(F)c(F)c(F)c6F)c6ccc3[nH]6)C=C5)C=C4)cc2)CC1)[NH+](C)C
REMARK SMILES IDX 21 1 20 2 19 3 17 4 18 5 16 7 13 8 14 9 93 10 15 11 92 12
REMARK SMILES IDX 12 13 11 14 9 15 10 16 8 18 7 19 1 20 2 21 3 22 4 23 6 24
REMARK SMILES IDX 5 25 94 26 95 27 96 28 22 30 23 31 24 32 25 33 26 34 27 35
REMARK SMILES IDX 28 37 29 38 30 39 91 40 31 41 90 42 32 43 33 44 34 45 84 46
REMARK SMILES IDX 35 47 89 48 83 49 85 50 36 51 88 52 82 53 81 54 37 56 69 57
REMARK SMILES IDX 49 58 68 59 50 60 53 61 67 62 86 63 51 64 52 65 66 67 87 68
REMARK SMILES IDX 54 69 38 70 39 71 47 72 40 73 41 74 45 75 48 76 42 77 43 78
REMARK SMILES IDX 46 79 44 80 70 81 71 82 79 83 72 84 73 85 77 86 80 87 74 88
REMARK SMILES IDX 75 89 78 90 76 91 55 92 56 93 64 94 57 95 58 96 62 97 65 98
REMARK SMILES IDX 59 99 60 100 63 101 61 102
REMARK H PARENT 19 6 11 17 94 29 26 36 85 55 53 66
REMARK Flexibility Score: inf
ROOT
ATOM      1  C   UNL A   1      34.628  34.148  27.992  1.00  0.00     0.021 C 
ENDROOT
BRANCH   1   2
ATOM      2  C   UNL A   1      34.916  32.642  28.002  1.00  0.00     0.116 C 
BRANCH   2   3
ATOM      3  N   UNL A   1      33.691  31.803  27.965  1.00  0.00    -0.356 N 
ATOM      4  C   UNL A   1      33.746  30.494  27.532  1.00  0.00     0.223 C 
ATOM      5  O   UNL A   1      34.807  29.870  27.629  1.00  0.00    -0.275 OA
ATOM      6  H   UNL A   1      32.830  32.186  28.253  1.00  0.00     0.163 HD
BRANCH   4   7
ATOM      7  C   UNL A   1      32.494  29.809  26.889  1.00  0.00     0.078 C 
ATOM      8  C   UNL A   1      32.687  27.448  24.841  1.00  0.00     0.008 C 
ATOM      9  C   UNL A   1      32.650  27.188  26.360  1.00  0.00     0.006 C 
ATOM     10  C   UNL A   1      32.842  28.923  24.471  1.00  0.00     0.006 C 
ATOM     11  C   UNL A   1      32.376  28.336  27.349  1.00  0.00     0.014 C 
ATOM     12  C   UNL A   1      32.168  29.935  25.401  1.00  0.00     0.014 C 
BRANCH   8  13
ATOM     13  C   UNL A   1      33.676  26.421  24.144  1.00  0.00     0.119 C 
BRANCH  13  14
ATOM     14  N   UNL A   1      33.105  25.325  23.358  1.00  0.00    -0.350 N 
ATOM     15  C   UNL A   1      32.688  24.050  23.672  1.00  0.00     0.283 C 
ATOM     16  O   UNL A   1      31.992  23.510  22.795  1.00  0.00    -0.268 OA
ATOM     17  H   UNL A   1      32.995  25.546  22.405  1.00  0.00     0.163 HD
BRANCH  15  18
ATOM     18  C   UNL A   1      33.110  23.202  24.949  1.00  0.00     0.305 C 
BRANCH  18  19
ATOM     19  C   UNL A   1      34.580  22.851  25.063  1.00  0.00     0.022 A 
ATOM     20  C   UNL A   1      33.952  20.409  24.685  1.00  0.00     0.045 C 
ATOM     21  C   UNL A   1      34.960  21.527  24.794  1.00  0.00    -0.041 A 
ATOM     22  C   UNL A   1      36.323  21.252  24.690  1.00  0.00     0.004 A 
ATOM     23  C   UNL A   1      37.312  22.165  25.027  1.00  0.00     0.000 A 
ATOM     24  C   UNL A   1      35.588  23.780  25.395  1.00  0.00     0.011 A 
ATOM     25  C   UNL A   1      36.937  23.428  25.430  1.00  0.00     0.001 A 
ENDBRANCH  18  19
BRANCH  18  26
ATOM     26  N   UNL A   1      32.361  23.583  26.175  1.00  0.00    -0.326 N 
ATOM     27  C   UNL A   1      30.910  23.717  26.039  1.00  0.00     0.333 C 
ATOM     28  C   UNL A   1      32.750  22.890  27.387  1.00  0.00     0.333 C 
ATOM     29  H   UNL A   1      32.687  24.541  26.297  1.00  0.00     0.348 HD
ENDBRANCH  18  26
ENDBRANCH  15  18
ENDBRANCH  13  14
ENDBRANCH   8  13
ENDBRANCH   4   7
ENDBRANCH   2   3
ENDBRANCH   1   2
BRANCH   1  30
ATOM     30  C   UNL A   1      33.379  34.733  28.724  1.00  0.00     0.002 C 
BRANCH  30  31
ATOM     31  C   UNL A   1      33.257  36.214  29.134  1.00  0.00     0.002 C 
BRANCH  31  32
ATOM     32  C   UNL A   1      32.900  36.599  30.589  1.00  0.00     0.021 C 
BRANCH  32  33
ATOM     33  C   UNL A   1      32.576  35.471  31.580  1.00  0.00     0.116 C 
BRANCH  33  34
ATOM     34  N   UNL A   1      33.168  35.707  32.908  1.00  0.00    -0.352 N 
ATOM     35  C   UNL A   1      34.344  35.231  33.474  1.00  0.00     0.251 C 
ATOM     36  H   UNL A   1      32.643  36.302  33.491  1.00  0.00     0.163 HD
ATOM     37  O   UNL A   1      34.785  35.697  34.500  1.00  0.00    -0.269 OA
BRANCH  35  38
ATOM     38  C   UNL A   1      35.084  34.170  32.761  1.00  0.00     0.039 A 
ATOM     39  C   UNL A   1      35.262  32.923  33.360  1.00  0.00     0.014 A 
ATOM     40  C   UNL A   1      35.718  34.476  31.565  1.00  0.00     0.014 A 
ATOM     41  C   UNL A   1      36.283  32.095  32.892  1.00  0.00     0.010 A 
ATOM     42  C   UNL A   1      36.740  33.677  31.107  1.00  0.00     0.010 A 
ATOM     43  C   UNL A   1      37.081  32.537  31.833  1.00  0.00    -0.014 A 
BRANCH  43  44
ATOM     44  C   UNL A   1      38.385  31.972  31.529  1.00  0.00     0.031 A 
ATOM     45  C   UNL A   1      38.527  30.759  30.714  1.00  0.00     0.074 A 
ATOM     46  C   UNL A   1      39.493  32.611  31.968  1.00  0.00     0.049 A 
ATOM     47  N   UNL A   1      39.506  29.929  30.847  1.00  0.00    -0.248 NA
ATOM     48  C   UNL A   1      37.561  30.372  29.698  1.00  0.00     0.031 C 
ATOM     49  C   UNL A   1      40.878  32.347  31.593  1.00  0.00     0.029 A 
ATOM     50  N   UNL A   1      39.587  33.534  33.021  1.00  0.00    -0.354 N 
ATOM     51  C   UNL A   1      39.452  29.055  29.789  1.00  0.00     0.074 A 
ATOM     52  C   UNL A   1      38.183  29.325  29.145  1.00  0.00     0.031 C 
ATOM     53  C   UNL A   1      41.683  32.819  32.555  1.00  0.00     0.029 A 
ATOM     54  C   UNL A   1      40.837  33.290  33.637  1.00  0.00     0.049 A 
ATOM     55  H   UNL A   1      38.921  34.212  33.278  1.00  0.00     0.167 HD
ATOM     56  C   UNL A   1      40.544  28.290  29.497  1.00  0.00     0.037 A 
ATOM     57  C   UNL A   1      40.906  32.883  34.939  1.00  0.00     0.037 A 
ATOM     58  C   UNL A   1      41.660  28.561  30.403  1.00  0.00     0.049 A 
ATOM     59  C   UNL A   1      41.527  31.519  35.143  1.00  0.00     0.074 A 
ATOM     60  C   UNL A   1      42.802  29.341  30.308  1.00  0.00     0.029 A 
ATOM     61  N   UNL A   1      41.547  28.219  31.739  1.00  0.00    -0.354 N 
ATOM     62  N   UNL A   1      41.942  30.745  34.181  1.00  0.00    -0.248 NA
ATOM     63  C   UNL A   1      41.608  30.874  36.454  1.00  0.00     0.031 C 
ATOM     64  C   UNL A   1      43.394  29.429  31.598  1.00  0.00     0.029 A 
ATOM     65  C   UNL A   1      42.610  28.708  32.477  1.00  0.00     0.049 A 
ATOM     66  H   UNL A   1      40.804  27.695  32.116  1.00  0.00     0.167 HD
ATOM     67  C   UNL A   1      42.262  29.515  34.696  1.00  0.00     0.074 A 
ATOM     68  C   UNL A   1      42.032  29.644  36.122  1.00  0.00     0.031 C 
ATOM     69  C   UNL A   1      42.643  28.467  33.910  1.00  0.00     0.037 A 
BRANCH  56  70
ATOM     70  C   UNL A   1      40.687  27.485  28.227  1.00  0.00     0.064 A 
ATOM     71  C   UNL A   1      40.090  26.212  28.104  1.00  0.00     0.173 A 
ATOM     72  C   UNL A   1      41.424  27.902  27.104  1.00  0.00     0.173 A 
ATOM     73  F   UNL A   1      39.254  25.734  29.034  1.00  0.00    -0.203 F 
ATOM     74  C   UNL A   1      40.330  25.373  27.012  1.00  0.00     0.198 A 
ATOM     75  C   UNL A   1      41.712  27.044  26.037  1.00  0.00     0.198 A 
ATOM     76  F   UNL A   1      41.845  29.169  26.983  1.00  0.00    -0.203 F 
ATOM     77  F   UNL A   1      39.744  24.169  26.958  1.00  0.00    -0.200 F 
ATOM     78  C   UNL A   1      41.177  25.772  26.000  1.00  0.00     0.200 A 
ATOM     79  F   UNL A   1      42.510  27.461  25.044  1.00  0.00    -0.200 F 
ATOM     80  F   UNL A   1      41.452  24.947  24.982  1.00  0.00    -0.200 F 
ENDBRANCH  56  70
BRANCH  57  81
ATOM     81  C   UNL A   1      39.793  33.436  35.756  1.00  0.00     0.064 A 
ATOM     82  C   UNL A   1      38.719  32.582  36.072  1.00  0.00     0.173 A 
ATOM     83  C   UNL A   1      39.979  34.574  36.551  1.00  0.00     0.173 A 
ATOM     84  F   UNL A   1      38.494  31.483  35.333  1.00  0.00    -0.203 F 
ATOM     85  C   UNL A   1      37.976  32.765  37.234  1.00  0.00     0.198 A 
ATOM     86  C   UNL A   1      39.207  34.773  37.694  1.00  0.00     0.198 A 
ATOM     87  F   UNL A   1      40.983  35.426  36.297  1.00  0.00    -0.203 F 
ATOM     88  F   UNL A   1      37.072  31.845  37.600  1.00  0.00    -0.200 F 
ATOM     89  C   UNL A   1      38.245  33.842  38.062  1.00  0.00     0.200 A 
ATOM     90  F   UNL A   1      39.464  35.816  38.493  1.00  0.00    -0.200 F 
ATOM     91  F   UNL A   1      37.613  33.955  39.237  1.00  0.00    -0.200 F 
ENDBRANCH  57  81
BRANCH  69  92
ATOM     92  C   UNL A   1      43.055  27.119  34.441  1.00  0.00     0.064 A 
ATOM     93  C   UNL A   1      44.397  26.712  34.516  1.00  0.00     0.173 A 
ATOM     94  C   UNL A   1      42.100  26.142  34.802  1.00  0.00     0.173 A 
ATOM     95  F   UNL A   1      45.385  27.509  34.082  1.00  0.00    -0.203 F 
ATOM     96  C   UNL A   1      44.762  25.457  35.009  1.00  0.00     0.198 A 
ATOM     97  C   UNL A   1      42.464  24.870  35.240  1.00  0.00     0.198 A 
ATOM     98  F   UNL A   1      40.784  26.393  34.759  1.00  0.00    -0.203 F 
ATOM     99  F   UNL A   1      46.059  25.142  35.129  1.00  0.00    -0.200 F 
ATOM    100  C   UNL A   1      43.796  24.536  35.368  1.00  0.00     0.200 A 
ATOM    101  F   UNL A   1      41.514  23.976  35.546  1.00  0.00    -0.200 F 
ATOM    102  F   UNL A   1      44.146  23.328  35.829  1.00  0.00    -0.200 F 
ENDBRANCH  69  92
ENDBRANCH  43  44
ENDBRANCH  35  38
ENDBRANCH  33  34
ENDBRANCH  32  33
ENDBRANCH  31  32
ENDBRANCH  30  31
ENDBRANCH   1  30
TORSDOF 18
ENDMDL
MODEL 2
REMARK VINA RESULT:     -12.1      1.323      2.143
REMARK SMILES Cc1ccccc1[C@H](C(=O)NC[C@H]1CC[C@@H](C(=O)NCCCCCCNC(=O)c2ccc(-c3c4nc(c(-c5c(F)c(F)c(F)c(F)c5F)c5ccc([nH]5)c(-c5c(F)c(F)c(F)c(F)c5F)c5nc(c(-c6c(F)c(F)c(F)c(F)c6F)c6ccc3[nH]6)C=C5)C=C4)cc2)CC1)[NH+](C)C
REMARK SMILES IDX 21 1 20 2 19 3 17 4 18 5 16 7 13 8 14 9 93 10 15 11 92 12
REMARK SMILES IDX 12 13 11 14 9 15 10 16 8 18 7 19 1 20 2 21 3 22 4 23 6 24
REMARK SMILES IDX 5 25 94 26 95 27 96 28 22 30 23 31 24 32 25 33 26 34 27 35
REMARK SMILES IDX 28 37 29 38 30 39 91 40 31 41 90 42 32 43 33 44 34 45 84 46
REMARK SMILES IDX 35 47 89 48 83 49 85 50 36 51 88 52 82 53 81 54 37 56 69 57
REMARK SMILES IDX 49 58 68 59 50 60 53 61 67 62 86 63 51 64 52 65 66 67 87 68
REMARK SMILES IDX 54 69 38 70 39 71 47 72 40 73 41 74 45 75 48 76 42 77 43 78
REMARK SMILES IDX 46 79 44 80 70 81 71 82 79 83 72 84 73 85 77 86 80 87 74 88
REMARK SMILES IDX 75 89 78 90 76 91 55 92 56 93 64 94 57 95 58 96 62 97 65 98
REMARK SMILES IDX 59 99 60 100 63 101 61 102
REMARK H PARENT 19 6 11 17 94 29 26 36 85 55 53 66
REMARK Flexibility Score: inf
ROOT
ATOM      1  C   UNL A   1      35.089  30.059  27.273  1.00  0.00     0.021 C 
ENDROOT
BRANCH   1   2
ATOM      2  C   UNL A   1      34.229  28.937  26.678  1.00  0.00     0.116 C 
BRANCH   2   3
ATOM      3  N   UNL A   1      33.726  29.236  25.312  1.00  0.00    -0.356 N 
ATOM      4  C   UNL A   1      32.382  29.446  25.087  1.00  0.00     0.223 C 
ATOM      5  O   UNL A   1      31.671  29.858  26.009  1.00  0.00    -0.275 OA
ATOM      6  H   UNL A   1      34.360  29.284  24.560  1.00  0.00     0.163 HD
BRANCH   4   7
ATOM      7  C   UNL A   1      31.744  29.134  23.692  1.00  0.00     0.078 C 
ATOM      8  C   UNL A   1      30.885  26.258  22.797  1.00  0.00     0.008 C 
ATOM      9  C   UNL A   1      29.919  27.176  23.572  1.00  0.00     0.006 C 
ATOM     10  C   UNL A   1      32.315  26.793  22.717  1.00  0.00     0.006 C 
ATOM     11  C   UNL A   1      30.283  28.647  23.851  1.00  0.00     0.014 C 
ATOM     12  C   UNL A   1      32.472  28.313  22.627  1.00  0.00     0.014 C 
BRANCH   8  13
ATOM     13  C   UNL A   1      30.703  24.757  23.278  1.00  0.00     0.119 C 
BRANCH  13  14
ATOM     14  N   UNL A   1      30.585  24.492  24.713  1.00  0.00    -0.350 N 
ATOM     15  C   UNL A   1      31.484  24.109  25.684  1.00  0.00     0.283 C 
ATOM     16  O   UNL A   1      31.076  24.263  26.848  1.00  0.00    -0.268 OA
ATOM     17  H   UNL A   1      29.671  24.614  25.057  1.00  0.00     0.163 HD
BRANCH  15  18
ATOM     18  C   UNL A   1      32.888  23.401  25.450  1.00  0.00     0.305 C 
BRANCH  18  19
ATOM     19  C   UNL A   1      32.841  21.955  24.997  1.00  0.00     0.022 A 
ATOM     20  C   UNL A   1      33.899  21.301  27.222  1.00  0.00     0.045 C 
ATOM     21  C   UNL A   1      33.204  20.967  25.925  1.00  0.00    -0.041 A 
ATOM     22  C   UNL A   1      32.960  19.636  25.585  1.00  0.00     0.004 A 
ATOM     23  C   UNL A   1      32.562  19.236  24.317  1.00  0.00     0.000 A 
ATOM     24  C   UNL A   1      32.427  21.545  23.713  1.00  0.00     0.011 A 
ATOM     25  C   UNL A   1      32.341  20.199  23.358  1.00  0.00     0.001 A 
ENDBRANCH  18  19
BRANCH  18  26
ATOM     26  N   UNL A   1      33.908  24.308  24.862  1.00  0.00    -0.326 N 
ATOM     27  C   UNL A   1      34.098  25.596  25.529  1.00  0.00     0.333 C 
ATOM     28  C   UNL A   1      35.158  23.683  24.482  1.00  0.00     0.333 C 
ATOM     29  H   UNL A   1      33.451  24.551  23.983  1.00  0.00     0.348 HD
ENDBRANCH  18  26
ENDBRANCH  15  18
ENDBRANCH  13  14
ENDBRANCH   8  13
ENDBRANCH   4   7
ENDBRANCH   2   3
ENDBRANCH   1   2
BRANCH   1  30
ATOM     30  C   UNL A   1      34.443  31.212  28.106  1.00  0.00     0.002 C 
BRANCH  30  31
ATOM     31  C   UNL A   1      34.989  32.653  28.117  1.00  0.00     0.002 C 
BRANCH  31  32
ATOM     32  C   UNL A   1      34.024  33.857  28.218  1.00  0.00     0.021 C 
BRANCH  32  33
ATOM     33  C   UNL A   1      34.322  34.941  29.265  1.00  0.00     0.116 C 
BRANCH  33  34
ATOM     34  N   UNL A   1      33.319  34.966  30.343  1.00  0.00    -0.352 N 
ATOM     35  C   UNL A   1      33.440  34.692  31.700  1.00  0.00     0.251 C 
ATOM     36  H   UNL A   1      32.413  35.220  30.054  1.00  0.00     0.163 HD
ATOM     37  O   UNL A   1      32.559  34.970  32.481  1.00  0.00    -0.269 OA
BRANCH  35  38
ATOM     38  C   UNL A   1      34.703  34.098  32.184  1.00  0.00     0.039 A 
ATOM     39  C   UNL A   1      35.790  34.920  32.481  1.00  0.00     0.014 A 
ATOM     40  C   UNL A   1      34.837  32.717  32.198  1.00  0.00     0.014 A 
ATOM     41  C   UNL A   1      37.064  34.355  32.527  1.00  0.00     0.010 A 
ATOM     42  C   UNL A   1      36.091  32.151  32.222  1.00  0.00     0.010 A 
ATOM     43  C   UNL A   1      37.206  32.985  32.288  1.00  0.00    -0.014 A 
BRANCH  43  44
ATOM     44  C   UNL A   1      38.468  32.368  31.918  1.00  0.00     0.031 A 
ATOM     45  C   UNL A   1      38.517  31.153  31.093  1.00  0.00     0.074 A 
ATOM     46  C   UNL A   1      39.623  32.957  32.302  1.00  0.00     0.049 A 
ATOM     47  N   UNL A   1      39.466  30.282  31.174  1.00  0.00    -0.248 NA
ATOM     48  C   UNL A   1      37.486  30.813  30.126  1.00  0.00     0.031 C 
ATOM     49  C   UNL A   1      40.974  32.636  31.857  1.00  0.00     0.029 A 
ATOM     50  N   UNL A   1      39.808  33.870  33.352  1.00  0.00    -0.354 N 
ATOM     51  C   UNL A   1      39.322  29.416  30.118  1.00  0.00     0.074 A 
ATOM     52  C   UNL A   1      38.035  29.743  29.539  1.00  0.00     0.031 C 
ATOM     53  C   UNL A   1      41.846  33.070  32.780  1.00  0.00     0.029 A 
ATOM     54  C   UNL A   1      41.076  33.570  33.904  1.00  0.00     0.049 A 
ATOM     55  H   UNL A   1      39.185  34.574  33.644  1.00  0.00     0.167 HD
ATOM     56  C   UNL A   1      40.365  28.607  29.769  1.00  0.00     0.037 A 
ATOM     57  C   UNL A   1      41.192  33.154  35.199  1.00  0.00     0.037 A 
ATOM     58  C   UNL A   1      41.535  28.827  30.620  1.00  0.00     0.049 A 
ATOM     59  C   UNL A   1      41.765  31.764  35.368  1.00  0.00     0.074 A 
ATOM     60  C   UNL A   1      42.703  29.558  30.469  1.00  0.00     0.029 A 
ATOM     61  N   UNL A   1      41.475  28.483  31.958  1.00  0.00    -0.354 N 
ATOM     62  N   UNL A   1      42.098  30.979  34.385  1.00  0.00    -0.248 NA
ATOM     63  C   UNL A   1      41.884  31.110  36.671  1.00  0.00     0.031 C 
ATOM     64  C   UNL A   1      43.362  29.615  31.728  1.00  0.00     0.029 A 
ATOM     65  C   UNL A   1      42.593  28.923  32.644  1.00  0.00     0.049 A 
ATOM     66  H   UNL A   1      40.730  27.989  32.370  1.00  0.00     0.167 HD
ATOM     67  C   UNL A   1      42.391  29.734  34.880  1.00  0.00     0.074 A 
ATOM     68  C   UNL A   1      42.238  29.865  36.316  1.00  0.00     0.031 C 
ATOM     69  C   UNL A   1      42.687  28.674  34.072  1.00  0.00     0.037 A 
BRANCH  56  70
ATOM     70  C   UNL A   1      40.410  27.804  28.491  1.00  0.00     0.064 A 
ATOM     71  C   UNL A   1      39.835  26.516  28.424  1.00  0.00     0.173 A 
ATOM     72  C   UNL A   1      41.031  28.236  27.306  1.00  0.00     0.173 A 
ATOM     73  F   UNL A   1      39.099  26.020  29.427  1.00  0.00    -0.203 F 
ATOM     74  C   UNL A   1      39.994  25.682  27.314  1.00  0.00     0.198 A 
ATOM     75  C   UNL A   1      41.240  27.383  26.217  1.00  0.00     0.198 A 
ATOM     76  F   UNL A   1      41.408  29.512  27.147  1.00  0.00    -0.203 F 
ATOM     77  F   UNL A   1      39.434  24.464  27.314  1.00  0.00    -0.200 F 
ATOM     78  C   UNL A   1      40.735  26.098  26.229  1.00  0.00     0.200 A 
ATOM     79  F   UNL A   1      41.934  27.816  25.155  1.00  0.00    -0.200 F 
ATOM     80  F   UNL A   1      40.935  25.278  25.190  1.00  0.00    -0.200 F 
ENDBRANCH  56  70
BRANCH  57  81
ATOM     81  C   UNL A   1      40.146  33.750  36.073  1.00  0.00     0.064 A 
ATOM     82  C   UNL A   1      39.017  32.965  36.378  1.00  0.00     0.173 A 
ATOM     83  C   UNL A   1      40.440  34.829  36.915  1.00  0.00     0.173 A 
ATOM     84  F   UNL A   1      38.690  31.925  35.595  1.00  0.00    -0.203 F 
ATOM     85  C   UNL A   1      38.319  33.147  37.568  1.00  0.00     0.198 A 
ATOM     86  C   UNL A   1      39.713  35.030  38.087  1.00  0.00     0.198 A 
ATOM     87  F   UNL A   1      41.500  35.614  36.674  1.00  0.00    -0.203 F 
ATOM     88  F   UNL A   1      37.355  32.282  37.916  1.00  0.00    -0.200 F 
ATOM     89  C   UNL A   1      38.691  34.158  38.438  1.00  0.00     0.200 A 
ATOM     90  F   UNL A   1      40.070  36.010  38.928  1.00  0.00    -0.200 F 
ATOM     91  F   UNL A   1      38.099  34.261  39.635  1.00  0.00    -0.200 F 
ENDBRANCH  57  81
BRANCH  69  92
ATOM     92  C   UNL A   1      43.068  27.308  34.578  1.00  0.00     0.064 A 
ATOM     93  C   UNL A   1      44.404  26.900  34.729  1.00  0.00     0.173 A 
ATOM     94  C   UNL A   1      42.095  26.316  34.835  1.00  0.00     0.173 A 
ATOM     95  F   UNL A   1      45.416  27.715  34.396  1.00  0.00    -0.203 F 
ATOM     96  C   UNL A   1      44.739  25.628  35.198  1.00  0.00     0.198 A 
ATOM     97  C   UNL A   1      42.434  25.028  35.247  1.00  0.00     0.198 A 
ATOM     98  F   UNL A   1      40.784  26.565  34.711  1.00  0.00    -0.203 F 
ATOM     99  F   UNL A   1      46.027  25.311  35.394  1.00  0.00    -0.200 F 
ATOM    100  C   UNL A   1      43.755  24.692  35.454  1.00  0.00     0.200 A 
ATOM    101  F   UNL A   1      41.469  24.121  35.453  1.00  0.00    -0.200 F 
ATOM    102  F   UNL A   1      44.079  23.467  35.891  1.00  0.00    -0.200 F 
ENDBRANCH  69  92
ENDBRANCH  43  44
ENDBRANCH  35  38
ENDBRANCH  33  34
ENDBRANCH  32  33
ENDBRANCH  31  32
ENDBRANCH  30  31
ENDBRANCH   1  30
TORSDOF 18
ENDMDL
MODEL 3
REMARK VINA RESULT:     -12.1      3.862     10.000
REMARK SMILES Cc1ccccc1[C@H](C(=O)NC[C@H]1CC[C@@H](C(=O)NCCCCCCNC(=O)c2ccc(-c3c4nc(c(-c5c(F)c(F)c(F)c(F)c5F)c5ccc([nH]5)c(-c5c(F)c(F)c(F)c(F)c5F)c5nc(c(-c6c(F)c(F)c(F)c(F)c6F)c6ccc3[nH]6)C=C5)C=C4)cc2)CC1)[NH+](C)C
REMARK SMILES IDX 21 1 20 2 19 3 17 4 18 5 16 7 13 8 14 9 93 10 15 11 92 12
REMARK SMILES IDX 12 13 11 14 9 15 10 16 8 18 7 19 1 20 2 21 3 22 4 23 6 24
REMARK SMILES IDX 5 25 94 26 95 27 96 28 22 30 23 31 24 32 25 33 26 34 27 35
REMARK SMILES IDX 28 37 29 38 30 39 91 40 31 41 90 42 32 43 33 44 34 45 84 46
REMARK SMILES IDX 35 47 89 48 83 49 85 50 36 51 88 52 82 53 81 54 37 56 69 57
REMARK SMILES IDX 49 58 68 59 50 60 53 61 67 62 86 63 51 64 52 65 66 67 87 68
REMARK SMILES IDX 54 69 38 70 39 71 47 72 40 73 41 74 45 75 48 76 42 77 43 78
REMARK SMILES IDX 46 79 44 80 70 81 71 82 79 83 72 84 73 85 77 86 80 87 74 88
REMARK SMILES IDX 75 89 78 90 76 91 55 92 56 93 64 94 57 95 58 96 62 97 65 98
REMARK SMILES IDX 59 99 60 100 63 101 61 102
REMARK H PARENT 19 6 11 17 94 29 26 36 85 55 53 66
REMARK Flexibility Score: inf
ROOT
ATOM      1  C   UNL A   1      38.449  23.980  26.287  1.00  0.00     0.021 C 
ENDROOT
BRANCH   1   2
ATOM      2  C   UNL A   1      37.048  23.753  25.705  1.00  0.00     0.116 C 
BRANCH   2   3
ATOM      3  N   UNL A   1      36.267  22.716  26.427  1.00  0.00    -0.356 N 
ATOM      4  C   UNL A   1      35.561  21.756  25.732  1.00  0.00     0.223 C 
ATOM      5  O   UNL A   1      35.926  21.441  24.595  1.00  0.00    -0.275 OA
ATOM      6  H   UNL A   1      36.253  22.714  27.411  1.00  0.00     0.163 HD
BRANCH   4   7
ATOM      7  C   UNL A   1      34.287  21.092  26.353  1.00  0.00     0.078 C 
ATOM      8  C   UNL A   1      31.472  22.465  26.383  1.00  0.00     0.008 C 
ATOM      9  C   UNL A   1      31.929  21.604  25.189  1.00  0.00     0.006 C 
ATOM     10  C   UNL A   1      32.579  22.747  27.399  1.00  0.00     0.006 C 
ATOM     11  C   UNL A   1      33.235  20.790  25.258  1.00  0.00     0.014 C 
ATOM     12  C   UNL A   1      33.612  21.637  27.611  1.00  0.00     0.014 C 
BRANCH   8  13
ATOM     13  C   UNL A   1      30.637  23.709  25.862  1.00  0.00     0.119 C 
BRANCH  13  14
ATOM     14  N   UNL A   1      30.865  25.014  26.483  1.00  0.00    -0.350 N 
ATOM     15  C   UNL A   1      31.025  26.288  25.983  1.00  0.00     0.283 C 
ATOM     16  O   UNL A   1      30.912  27.189  26.833  1.00  0.00    -0.268 OA
ATOM     17  H   UNL A   1      30.914  24.974  27.466  1.00  0.00     0.163 HD
BRANCH  15  18
ATOM     18  C   UNL A   1      31.448  26.679  24.502  1.00  0.00     0.305 C 
BRANCH  18  19
ATOM     19  C   UNL A   1      32.332  25.685  23.774  1.00  0.00     0.022 A 
ATOM     20  C   UNL A   1      34.181  26.214  25.447  1.00  0.00     0.045 C 
ATOM     21  C   UNL A   1      33.582  25.386  24.336  1.00  0.00    -0.041 A 
ATOM     22  C   UNL A   1      34.301  24.323  23.791  1.00  0.00     0.004 A 
ATOM     23  C   UNL A   1      33.937  23.681  22.616  1.00  0.00     0.000 A 
ATOM     24  C   UNL A   1      31.959  25.023  22.586  1.00  0.00     0.011 A 
ATOM     25  C   UNL A   1      32.778  24.069  21.981  1.00  0.00     0.001 A 
ENDBRANCH  18  19
BRANCH  18  26
ATOM     26  N   UNL A   1      30.369  27.371  23.750  1.00  0.00    -0.326 N 
ATOM     27  C   UNL A   1      29.018  26.832  23.905  1.00  0.00     0.333 C 
ATOM     28  C   UNL A   1      30.405  28.819  23.793  1.00  0.00     0.333 C 
ATOM     29  H   UNL A   1      30.625  27.125  22.795  1.00  0.00     0.348 HD
ENDBRANCH  18  26
ENDBRANCH  15  18
ENDBRANCH  13  14
ENDBRANCH   8  13
ENDBRANCH   4   7
ENDBRANCH   2   3
ENDBRANCH   1   2
BRANCH   1  30
ATOM     30  C   UNL A   1      39.272  22.797  26.889  1.00  0.00     0.002 C 
BRANCH  30  31
ATOM     31  C   UNL A   1      39.818  21.631  26.041  1.00  0.00     0.002 C 
BRANCH  31  32
ATOM     32  C   UNL A   1      41.207  21.023  26.345  1.00  0.00     0.021 C 
BRANCH  32  33
ATOM     33  C   UNL A   1      42.312  21.958  26.860  1.00  0.00     0.116 C 
BRANCH  33  34
ATOM     34  N   UNL A   1      42.965  22.704  25.770  1.00  0.00    -0.352 N 
ATOM     35  C   UNL A   1      42.993  24.064  25.492  1.00  0.00     0.251 C 
ATOM     36  H   UNL A   1      43.467  22.144  25.133  1.00  0.00     0.163 HD
ATOM     37  O   UNL A   1      43.757  24.527  24.675  1.00  0.00    -0.269 OA
BRANCH  35  38
ATOM     38  C   UNL A   1      42.099  24.954  26.261  1.00  0.00     0.039 A 
ATOM     39  C   UNL A   1      41.637  26.140  25.690  1.00  0.00     0.014 A 
ATOM     40  C   UNL A   1      41.848  24.668  27.595  1.00  0.00     0.014 A 
ATOM     41  C   UNL A   1      41.161  27.146  26.529  1.00  0.00     0.010 A 
ATOM     42  C   UNL A   1      41.398  25.661  28.436  1.00  0.00     0.010 A 
ATOM     43  C   UNL A   1      41.150  26.928  27.910  1.00  0.00    -0.014 A 
BRANCH  43  44
ATOM     44  C   UNL A   1      41.066  28.001  28.886  1.00  0.00     0.031 A 
ATOM     45  C   UNL A   1      39.944  28.949  28.891  1.00  0.00     0.074 A 
ATOM     46  C   UNL A   1      42.019  28.094  29.840  1.00  0.00     0.049 A 
ATOM     47  N   UNL A   1      40.049  30.166  29.310  1.00  0.00    -0.248 NA
ATOM     48  C   UNL A   1      38.618  28.608  28.401  1.00  0.00     0.031 C 
ATOM     49  C   UNL A   1      42.006  28.941  31.028  1.00  0.00     0.029 A 
ATOM     50  N   UNL A   1      43.313  27.553  29.811  1.00  0.00    -0.354 N 
ATOM     51  C   UNL A   1      38.780  30.684  29.393  1.00  0.00     0.074 A 
ATOM     52  C   UNL A   1      37.932  29.703  28.747  1.00  0.00     0.031 C 
ATOM     53  C   UNL A   1      43.269  29.119  31.443  1.00  0.00     0.029 A 
ATOM     54  C   UNL A   1      44.141  28.497  30.464  1.00  0.00     0.049 A 
ATOM     55  H   UNL A   1      43.589  26.693  29.417  1.00  0.00     0.167 HD
ATOM     56  C   UNL A   1      38.569  31.824  30.114  1.00  0.00     0.037 A 
ATOM     57  C   UNL A   1      45.157  29.116  29.794  1.00  0.00     0.037 A 
ATOM     58  C   UNL A   1      39.801  32.317  30.729  1.00  0.00     0.049 A 
ATOM     59  C   UNL A   1      45.021  30.618  29.685  1.00  0.00     0.074 A 
ATOM     60  C   UNL A   1      40.346  32.210  31.999  1.00  0.00     0.029 A 
ATOM     61  N   UNL A   1      40.817  32.797  29.922  1.00  0.00    -0.354 N 
ATOM     62  N   UNL A   1      44.015  31.304  30.146  1.00  0.00    -0.248 NA
ATOM     63  C   UNL A   1      45.962  31.446  28.930  1.00  0.00     0.031 C 
ATOM     64  C   UNL A   1      41.692  32.669  31.950  1.00  0.00     0.029 A 
ATOM     65  C   UNL A   1      41.966  33.049  30.651  1.00  0.00     0.049 A 
ATOM     66  H   UNL A   1      40.734  32.939  28.951  1.00  0.00     0.167 HD
ATOM     67  C   UNL A   1      44.112  32.599  29.707  1.00  0.00     0.074 A 
ATOM     68  C   UNL A   1      45.346  32.638  28.946  1.00  0.00     0.031 C 
ATOM     69  C   UNL A   1      43.147  33.533  29.958  1.00  0.00     0.037 A 
BRANCH  56  70
ATOM     70  C   UNL A   1      37.198  32.343  30.476  1.00  0.00     0.064 A 
ATOM     71  C   UNL A   1      36.461  33.137  29.572  1.00  0.00     0.173 A 
ATOM     72  C   UNL A   1      36.566  32.115  31.712  1.00  0.00     0.173 A 
ATOM     73  F   UNL A   1      36.871  33.335  28.313  1.00  0.00    -0.203 F 
ATOM     74  C   UNL A   1      35.264  33.765  29.928  1.00  0.00     0.198 A 
ATOM     75  C   UNL A   1      35.399  32.787  32.091  1.00  0.00     0.198 A 
ATOM     76  F   UNL A   1      37.032  31.196  32.570  1.00  0.00    -0.203 F 
ATOM     77  F   UNL A   1      34.617  34.519  29.029  1.00  0.00    -0.200 F 
ATOM     78  C   UNL A   1      34.757  33.626  31.202  1.00  0.00     0.200 A 
ATOM     79  F   UNL A   1      34.900  32.613  33.323  1.00  0.00    -0.200 F 
ATOM     80  F   UNL A   1      33.641  34.272  31.562  1.00  0.00    -0.200 F 
ENDBRANCH  56  70
BRANCH  57  81
ATOM     81  C   UNL A   1      45.747  28.242  28.744  1.00  0.00     0.064 A 
ATOM     82  C   UNL A   1      46.570  27.177  29.158  1.00  0.00     0.173 A 
ATOM     83  C   UNL A   1      45.183  28.173  27.464  1.00  0.00     0.173 A 
ATOM     84  F   UNL A   1      47.141  27.203  30.374  1.00  0.00    -0.203 F 
ATOM     85  C   UNL A   1      46.681  26.019  28.396  1.00  0.00     0.198 A 
ATOM     86  C   UNL A   1      45.329  27.025  26.688  1.00  0.00     0.198 A 
ATOM     87  F   UNL A   1      44.393  29.157  27.013  1.00  0.00    -0.203 F 
ATOM     88  F   UNL A   1      47.333  24.956  28.888  1.00  0.00    -0.200 F 
ATOM     89  C   UNL A   1      46.031  25.931  27.177  1.00  0.00     0.200 A 
ATOM     90  F   UNL A   1      44.702  26.940  25.506  1.00  0.00    -0.200 F 
ATOM     91  F   UNL A   1      46.039  24.778  26.496  1.00  0.00    -0.200 F 
ENDBRANCH  57  81
BRANCH  69  92
ATOM     92  C   UNL A   1      43.243  34.977  29.543  1.00  0.00     0.064 A 
ATOM     93  C   UNL A   1      43.143  35.388  28.203  1.00  0.00     0.173 A 
ATOM     94  C   UNL A   1      43.544  35.997  30.473  1.00  0.00     0.173 A 
ATOM     95  F   UNL A   1      42.984  34.494  27.216  1.00  0.00    -0.203 F 
ATOM     96  C   UNL A   1      43.237  36.733  27.834  1.00  0.00     0.198 A 
ATOM     97  C   UNL A   1      43.694  37.330  30.095  1.00  0.00     0.198 A 
ATOM     98  F   UNL A   1      43.685  35.739  31.780  1.00  0.00    -0.203 F 
ATOM     99  F   UNL A   1      43.063  37.083  26.552  1.00  0.00    -0.200 F 
ATOM    100  C   UNL A   1      43.516  37.702  28.779  1.00  0.00     0.200 A 
ATOM    101  F   UNL A   1      44.004  38.251  31.019  1.00  0.00    -0.200 F 
ATOM    102  F   UNL A   1      43.618  38.990  28.423  1.00  0.00    -0.200 F 
ENDBRANCH  69  92
ENDBRANCH  43  44
ENDBRANCH  35  38
ENDBRANCH  33  34
ENDBRANCH  32  33
ENDBRANCH  31  32
ENDBRANCH  30  31
ENDBRANCH   1  30
TORSDOF 18
ENDMDL
