MODEL 1
REMARK VINA RESULT:     -11.3      0.000      0.000
REMARK SMILES O=C(Cc1csc(NC(=O)CS[C@@H]2CCS(=O)(=O)C2)n1)NCCCCCCNC(=O)c1ccc(-c2c3nc(c(-c4c(F)c(F)c(F)c(F)c4F)c4ccc([nH]4)c(-c4c(F)c(F)c(F)c(F)c4F)c4nc(c(-c5c(F)c(F)c(F)c(F)c5F)c5ccc2[nH]5)C=C4)C=C3)cc1
REMARK SMILES IDX 23 1 22 2 21 3 1 4 2 5 3 7 4 8 5 9 20 10 6 11 7 12 8 13 9 14
REMARK SMILES IDX 10 16 11 17 12 18 13 19 14 20 19 21 15 22 16 23 17 24 18 25
REMARK SMILES IDX 24 26 25 27 26 28 27 29 28 30 29 31 30 33 31 34 32 35 93 36
REMARK SMILES IDX 33 37 92 38 34 39 35 40 36 41 86 42 37 43 91 44 85 45 87 46
REMARK SMILES IDX 38 47 90 48 84 49 83 50 39 52 71 53 51 54 70 55 52 56 55 57
REMARK SMILES IDX 69 58 88 59 53 60 54 61 68 63 89 64 56 65 40 66 41 67 49 68
REMARK SMILES IDX 42 69 43 70 47 71 50 72 44 73 45 74 48 75 46 76 72 77 73 78
REMARK SMILES IDX 81 79 74 80 75 81 79 82 82 83 76 84 77 85 80 86 78 87 57 88
REMARK SMILES IDX 58 89 66 90 59 91 60 92 64 93 67 94 61 95 62 96 65 97 63 98
REMARK H PARENT 21 6 8 15 28 32 87 51 55 62
REMARK Flexibility Score: inf
ROOT
ATOM      1  C   UNL A   1      35.729  31.972  27.724  1.00  0.00     0.021 C 
ENDROOT
BRANCH   1   2
ATOM      2  C   UNL A   1      34.644  30.949  28.043  1.00  0.00     0.116 C 
BRANCH   2   3
ATOM      3  N   UNL A   1      34.294  30.155  26.884  1.00  0.00    -0.356 N 
ATOM      4  O   UNL A   1      32.018  30.438  27.040  1.00  0.00    -0.275 OA
ATOM      5  C   UNL A   1      32.999  30.053  26.411  1.00  0.00     0.226 C 
ATOM      6  H   UNL A   1      35.008  29.667  26.413  1.00  0.00     0.163 HD
BRANCH   5   7
ATOM      7  C   UNL A   1      32.898  29.455  25.015  1.00  0.00     0.157 C 
BRANCH   7   8
ATOM      8  C   UNL A   1      31.807  28.425  24.913  1.00  0.00     0.063 A 
ATOM      9  C   UNL A   1      30.778  28.381  23.987  1.00  0.00     0.093 A 
ATOM     10  N   UNL A   1      31.791  27.363  25.816  1.00  0.00    -0.224 NA
ATOM     11  S   UNL A   1      29.978  26.881  24.084  1.00  0.00    -0.105 S 
ATOM     12  C   UNL A   1      30.761  26.583  25.570  1.00  0.00     0.189 A 
BRANCH  12  13
ATOM     13  N   UNL A   1      30.419  25.520  26.360  1.00  0.00    -0.301 N 
ATOM     14  C   UNL A   1      30.777  24.207  26.290  1.00  0.00     0.236 C 
ATOM     15  H   UNL A   1      29.815  25.741  27.105  1.00  0.00     0.172 HD
ATOM     16  O   UNL A   1      30.601  23.501  27.290  1.00  0.00    -0.274 OA
BRANCH  14  17
ATOM     17  C   UNL A   1      31.368  23.549  25.049  1.00  0.00     0.170 C 
BRANCH  17  18
ATOM     18  S   UNL A   1      31.871  21.807  25.269  1.00  0.00    -0.148 SA
BRANCH  18  19
ATOM     19  C   UNL A   1      33.683  21.744  25.002  1.00  0.00     0.063 C 
ATOM     20  C   UNL A   1      34.360  21.585  26.381  1.00  0.00     0.031 C 
ATOM     21  C   UNL A   1      34.415  22.862  24.267  1.00  0.00     0.151 C 
ATOM     22  C   UNL A   1      34.606  22.984  26.924  1.00  0.00     0.138 C 
ATOM     23  S   UNL A   1      35.139  23.919  25.511  1.00  0.00     0.151 S 
ATOM     24  O   UNL A   1      34.461  25.197  25.535  1.00  0.00    -0.229 OA
ATOM     25  O   UNL A   1      36.579  23.811  25.411  1.00  0.00    -0.229 OA
ENDBRANCH  18  19
ENDBRANCH  17  18
ENDBRANCH  14  17
ENDBRANCH  12  13
ENDBRANCH   7   8
ENDBRANCH   5   7
ENDBRANCH   2   3
ENDBRANCH   1   2
BRANCH   1  26
ATOM     26  C   UNL A   1      35.375  33.425  28.071  1.00  0.00     0.002 C 
BRANCH  26  27
ATOM     27  C   UNL A   1      34.384  33.612  29.223  1.00  0.00     0.002 C 
BRANCH  27  28
ATOM     28  C   UNL A   1      33.238  34.587  28.950  1.00  0.00     0.021 C 
BRANCH  28  29
ATOM     29  C   UNL A   1      33.438  35.992  29.508  1.00  0.00     0.116 C 
BRANCH  29  30
ATOM     30  N   UNL A   1      32.514  36.310  30.586  1.00  0.00    -0.352 N 
ATOM     31  C   UNL A   1      32.551  35.912  31.900  1.00  0.00     0.251 C 
ATOM     32  H   UNL A   1      31.758  36.891  30.339  1.00  0.00     0.163 HD
ATOM     33  O   UNL A   1      31.611  36.151  32.652  1.00  0.00    -0.269 OA
BRANCH  31  34
ATOM     34  C   UNL A   1      33.723  35.162  32.404  1.00  0.00     0.039 A 
ATOM     35  C   UNL A   1      33.544  33.859  32.876  1.00  0.00     0.014 A 
ATOM     36  C   UNL A   1      34.996  35.737  32.396  1.00  0.00     0.014 A 
ATOM     37  C   UNL A   1      34.653  33.108  33.275  1.00  0.00     0.010 A 
ATOM     38  C   UNL A   1      36.106  34.964  32.723  1.00  0.00     0.010 A 
ATOM     39  C   UNL A   1      35.947  33.641  33.168  1.00  0.00    -0.014 A 
BRANCH  39  40
ATOM     40  C   UNL A   1      37.152  32.845  33.521  1.00  0.00     0.031 A 
ATOM     41  C   UNL A   1      37.890  33.134  34.800  1.00  0.00     0.074 A 
ATOM     42  C   UNL A   1      37.627  31.923  32.660  1.00  0.00     0.049 A 
ATOM     43  N   UNL A   1      39.023  32.645  35.232  1.00  0.00    -0.248 NA
ATOM     44  C   UNL A   1      37.286  34.129  35.702  1.00  0.00     0.031 C 
ATOM     45  C   UNL A   1      37.024  31.574  31.374  1.00  0.00     0.029 A 
ATOM     46  N   UNL A   1      38.742  31.124  32.730  1.00  0.00    -0.354 N 
ATOM     47  C   UNL A   1      39.279  33.286  36.438  1.00  0.00     0.074 A 
ATOM     48  C   UNL A   1      38.206  34.233  36.650  1.00  0.00     0.031 C 
ATOM     49  C   UNL A   1      37.767  30.625  30.781  1.00  0.00     0.029 A 
ATOM     50  C   UNL A   1      38.923  30.330  31.622  1.00  0.00     0.049 A 
ATOM     51  H   UNL A   1      39.354  31.118  33.502  1.00  0.00     0.167 HD
ATOM     52  C   UNL A   1      40.305  33.089  37.297  1.00  0.00     0.037 A 
ATOM     53  C   UNL A   1      39.920  29.478  31.312  1.00  0.00     0.037 A 
ATOM     54  C   UNL A   1      41.350  32.119  37.103  1.00  0.00     0.049 A 
ATOM     55  C   UNL A   1      41.055  29.289  32.286  1.00  0.00     0.074 A 
ATOM     56  C   UNL A   1      42.395  31.799  37.951  1.00  0.00     0.029 A 
ATOM     57  N   UNL A   1      41.481  31.314  35.982  1.00  0.00    -0.354 N 
ATOM     58  N   UNL A   1      41.247  29.852  33.454  1.00  0.00    -0.248 NA
ATOM     59  C   UNL A   1      42.111  28.342  31.899  1.00  0.00     0.031 C 
ATOM     60  C   UNL A   1      43.190  30.838  37.320  1.00  0.00     0.029 A 
ATOM     61  C   UNL A   1      42.605  30.514  36.107  1.00  0.00     0.049 A 
ATOM     62  H   UNL A   1      40.868  31.311  35.212  1.00  0.00     0.167 HD
ATOM     63  C   UNL A   1      42.415  29.295  33.958  1.00  0.00     0.074 A 
ATOM     64  C   UNL A   1      42.886  28.346  32.974  1.00  0.00     0.031 C 
ATOM     65  C   UNL A   1      43.042  29.548  35.133  1.00  0.00     0.037 A 
BRANCH  52  66
ATOM     66  C   UNL A   1      40.356  33.932  38.539  1.00  0.00     0.064 A 
ATOM     67  C   UNL A   1      39.727  33.534  39.727  1.00  0.00     0.173 A 
ATOM     68  C   UNL A   1      41.112  35.115  38.561  1.00  0.00     0.173 A 
ATOM     69  F   UNL A   1      38.985  32.417  39.757  1.00  0.00    -0.203 F 
ATOM     70  C   UNL A   1      39.837  34.297  40.886  1.00  0.00     0.198 A 
ATOM     71  C   UNL A   1      41.245  35.859  39.730  1.00  0.00     0.198 A 
ATOM     72  F   UNL A   1      41.739  35.538  37.453  1.00  0.00    -0.203 F 
ATOM     73  F   UNL A   1      39.198  33.916  42.001  1.00  0.00    -0.200 F 
ATOM     74  C   UNL A   1      40.605  35.452  40.890  1.00  0.00     0.200 A 
ATOM     75  F   UNL A   1      42.000  36.966  39.735  1.00  0.00    -0.200 F 
ATOM     76  F   UNL A   1      40.726  36.175  42.013  1.00  0.00    -0.200 F 
ENDBRANCH  52  66
BRANCH  53  77
ATOM     77  C   UNL A   1      39.901  28.730  30.025  1.00  0.00     0.064 A 
ATOM     78  C   UNL A   1      39.338  27.447  29.946  1.00  0.00     0.173 A 
ATOM     79  C   UNL A   1      40.485  29.256  28.864  1.00  0.00     0.173 A 
ATOM     80  F   UNL A   1      38.786  26.889  31.034  1.00  0.00    -0.203 F 
ATOM     81  C   UNL A   1      39.397  26.705  28.767  1.00  0.00     0.198 A 
ATOM     82  C   UNL A   1      40.510  28.527  27.676  1.00  0.00     0.198 A 
ATOM     83  F   UNL A   1      41.032  30.480  28.881  1.00  0.00    -0.203 F 
ATOM     84  F   UNL A   1      38.913  25.456  28.741  1.00  0.00    -0.200 F 
ATOM     85  C   UNL A   1      39.980  27.247  27.632  1.00  0.00     0.200 A 
ATOM     86  F   UNL A   1      41.061  29.061  26.577  1.00  0.00    -0.200 F 
ATOM     87  F   UNL A   1      40.043  26.532  26.501  1.00  0.00    -0.200 F 
ENDBRANCH  53  77
BRANCH  65  88
ATOM     88  C   UNL A   1      44.265  28.741  35.458  1.00  0.00     0.064 A 
ATOM     89  C   UNL A   1      44.187  27.507  36.120  1.00  0.00     0.173 A 
ATOM     90  C   UNL A   1      45.531  29.184  35.042  1.00  0.00     0.173 A 
ATOM     91  F   UNL A   1      43.002  27.046  36.550  1.00  0.00    -0.203 F 
ATOM     92  C   UNL A   1      45.333  26.758  36.375  1.00  0.00     0.198 A 
ATOM     93  C   UNL A   1      46.670  28.417  35.268  1.00  0.00     0.198 A 
ATOM     94  F   UNL A   1      45.660  30.353  34.397  1.00  0.00    -0.203 F 
ATOM     95  F   UNL A   1      45.240  25.604  37.048  1.00  0.00    -0.200 F 
ATOM     96  C   UNL A   1      46.571  27.208  35.939  1.00  0.00     0.200 A 
ATOM     97  F   UNL A   1      47.862  28.846  34.832  1.00  0.00    -0.200 F 
ATOM     98  F   UNL A   1      47.670  26.479  36.173  1.00  0.00    -0.200 F 
ENDBRANCH  65  88
ENDBRANCH  39  40
ENDBRANCH  31  34
ENDBRANCH  29  30
ENDBRANCH  28  29
ENDBRANCH  27  28
ENDBRANCH  26  27
ENDBRANCH   1  26
TORSDOF 18
ENDMDL
MODEL 2
REMARK VINA RESULT:     -11.2      6.835     12.348
REMARK SMILES O=C(Cc1csc(NC(=O)CS[C@@H]2CCS(=O)(=O)C2)n1)NCCCCCCNC(=O)c1ccc(-c2c3nc(c(-c4c(F)c(F)c(F)c(F)c4F)c4ccc([nH]4)c(-c4c(F)c(F)c(F)c(F)c4F)c4nc(c(-c5c(F)c(F)c(F)c(F)c5F)c5ccc2[nH]5)C=C4)C=C3)cc1
REMARK SMILES IDX 23 1 22 2 21 3 1 4 2 5 3 7 4 8 5 9 20 10 6 11 7 12 8 13 9 14
REMARK SMILES IDX 10 16 11 17 12 18 13 19 14 20 19 21 15 22 16 23 17 24 18 25
REMARK SMILES IDX 24 26 25 27 26 28 27 29 28 30 29 31 30 33 31 34 32 35 93 36
REMARK SMILES IDX 33 37 92 38 34 39 35 40 36 41 86 42 37 43 91 44 85 45 87 46
REMARK SMILES IDX 38 47 90 48 84 49 83 50 39 52 71 53 51 54 70 55 52 56 55 57
REMARK SMILES IDX 69 58 88 59 53 60 54 61 68 63 89 64 56 65 40 66 41 67 49 68
REMARK SMILES IDX 42 69 43 70 47 71 50 72 44 73 45 74 48 75 46 76 72 77 73 78
REMARK SMILES IDX 81 79 74 80 75 81 79 82 82 83 76 84 77 85 80 86 78 87 57 88
REMARK SMILES IDX 58 89 66 90 59 91 60 92 64 93 67 94 61 95 62 96 65 97 63 98
REMARK H PARENT 21 6 8 15 28 32 87 51 55 62
REMARK Flexibility Score: inf
ROOT
ATOM      1  C   UNL A   1      39.980  23.274  27.447  1.00  0.00     0.021 C 
ENDROOT
BRANCH   1   2
ATOM      2  C   UNL A   1      38.815  23.563  26.504  1.00  0.00     0.116 C 
BRANCH   2   3
ATOM      3  N   UNL A   1      38.004  22.386  26.273  1.00  0.00    -0.356 N 
ATOM      4  O   UNL A   1      37.038  23.106  24.315  1.00  0.00    -0.275 OA
ATOM      5  C   UNL A   1      37.254  22.210  25.125  1.00  0.00     0.226 C 
ATOM      6  H   UNL A   1      37.986  21.682  26.961  1.00  0.00     0.163 HD
BRANCH   5   7
ATOM      7  C   UNL A   1      36.750  20.786  24.931  1.00  0.00     0.157 C 
BRANCH   7   8
ATOM      8  C   UNL A   1      35.275  20.661  25.198  1.00  0.00     0.063 A 
ATOM      9  C   UNL A   1      34.392  19.762  24.625  1.00  0.00     0.093 A 
ATOM     10  N   UNL A   1      34.682  21.509  26.131  1.00  0.00    -0.224 NA
ATOM     11  S   UNL A   1      32.906  19.804  25.455  1.00  0.00    -0.105 S 
ATOM     12  C   UNL A   1      33.395  21.252  26.213  1.00  0.00     0.189 A 
BRANCH  12  13
ATOM     13  N   UNL A   1      32.527  21.996  26.965  1.00  0.00    -0.301 N 
ATOM     14  C   UNL A   1      31.756  23.070  26.634  1.00  0.00     0.236 C 
ATOM     15  H   UNL A   1      32.446  21.707  27.903  1.00  0.00     0.172 HD
ATOM     16  O   UNL A   1      30.824  23.373  27.388  1.00  0.00    -0.274 OA
BRANCH  14  17
ATOM     17  C   UNL A   1      31.981  23.931  25.397  1.00  0.00     0.170 C 
BRANCH  17  18
ATOM     18  S   UNL A   1      30.791  25.302  25.190  1.00  0.00    -0.148 SA
BRANCH  18  19
ATOM     19  C   UNL A   1      31.675  26.636  24.295  1.00  0.00     0.063 C 
ATOM     20  C   UNL A   1      31.010  26.800  22.912  1.00  0.00     0.031 C 
ATOM     21  C   UNL A   1      33.182  26.572  24.066  1.00  0.00     0.151 C 
ATOM     22  C   UNL A   1      31.718  25.850  21.958  1.00  0.00     0.138 C 
ATOM     23  S   UNL A   1      33.432  25.974  22.402  1.00  0.00     0.151 S 
ATOM     24  O   UNL A   1      33.988  24.639  22.432  1.00  0.00    -0.229 OA
ATOM     25  O   UNL A   1      34.028  27.041  21.626  1.00  0.00    -0.229 OA
ENDBRANCH  18  19
ENDBRANCH  17  18
ENDBRANCH  14  17
ENDBRANCH  12  13
ENDBRANCH   7   8
ENDBRANCH   5   7
ENDBRANCH   2   3
ENDBRANCH   1   2
BRANCH   1  26
ATOM     26  C   UNL A   1      40.517  21.836  27.394  1.00  0.00     0.002 C 
BRANCH  26  27
ATOM     27  C   UNL A   1      41.426  21.509  26.205  1.00  0.00     0.002 C 
BRANCH  27  28
ATOM     28  C   UNL A   1      41.490  20.032  25.816  1.00  0.00     0.021 C 
BRANCH  28  29
ATOM     29  C   UNL A   1      42.701  19.274  26.349  1.00  0.00     0.116 C 
BRANCH  29  30
ATOM     30  N   UNL A   1      43.564  18.772  25.291  1.00  0.00    -0.352 N 
ATOM     31  C   UNL A   1      44.484  19.454  24.530  1.00  0.00     0.251 C 
ATOM     32  H   UNL A   1      43.477  17.812  25.092  1.00  0.00     0.163 HD
ATOM     33  O   UNL A   1      45.029  18.910  23.575  1.00  0.00    -0.269 OA
BRANCH  31  34
ATOM     34  C   UNL A   1      44.794  20.864  24.849  1.00  0.00     0.039 A 
ATOM     35  C   UNL A   1      44.454  21.860  23.929  1.00  0.00     0.014 A 
ATOM     36  C   UNL A   1      45.404  21.205  26.059  1.00  0.00     0.014 A 
ATOM     37  C   UNL A   1      44.663  23.203  24.253  1.00  0.00     0.010 A 
ATOM     38  C   UNL A   1      45.544  22.545  26.410  1.00  0.00     0.010 A 
ATOM     39  C   UNL A   1      45.176  23.558  25.511  1.00  0.00    -0.014 A 
BRANCH  39  40
ATOM     40  C   UNL A   1      45.348  24.980  25.911  1.00  0.00     0.031 A 
ATOM     41  C   UNL A   1      46.707  25.621  25.827  1.00  0.00     0.074 A 
ATOM     42  C   UNL A   1      44.307  25.667  26.423  1.00  0.00     0.049 A 
ATOM     43  N   UNL A   1      47.095  26.800  26.240  1.00  0.00    -0.248 NA
ATOM     44  C   UNL A   1      47.782  24.815  25.224  1.00  0.00     0.031 C 
ATOM     45  C   UNL A   1      42.949  25.150  26.588  1.00  0.00     0.029 A 
ATOM     46  N   UNL A   1      44.235  26.947  26.917  1.00  0.00    -0.354 N 
ATOM     47  C   UNL A   1      48.456  26.868  25.970  1.00  0.00     0.074 A 
ATOM     48  C   UNL A   1      48.838  25.596  25.397  1.00  0.00     0.031 C 
ATOM     49  C   UNL A   1      42.177  26.104  27.134  1.00  0.00     0.029 A 
ATOM     50  C   UNL A   1      42.993  27.284  27.400  1.00  0.00     0.049 A 
ATOM     51  H   UNL A   1      45.002  27.566  26.925  1.00  0.00     0.167 HD
ATOM     52  C   UNL A   1      49.303  27.905  26.164  1.00  0.00     0.037 A 
ATOM     53  C   UNL A   1      42.567  28.410  28.006  1.00  0.00     0.037 A 
ATOM     54  C   UNL A   1      48.911  29.183  26.697  1.00  0.00     0.049 A 
ATOM     55  C   UNL A   1      43.540  29.542  28.218  1.00  0.00     0.074 A 
ATOM     56  C   UNL A   1      49.685  30.318  26.867  1.00  0.00     0.029 A 
ATOM     57  N   UNL A   1      47.637  29.495  27.145  1.00  0.00    -0.354 N 
ATOM     58  N   UNL A   1      44.807  29.618  27.894  1.00  0.00    -0.248 NA
ATOM     59  C   UNL A   1      43.020  30.749  28.877  1.00  0.00     0.031 C 
ATOM     60  C   UNL A   1      48.893  31.299  27.469  1.00  0.00     0.029 A 
ATOM     61  C   UNL A   1      47.609  30.797  27.615  1.00  0.00     0.049 A 
ATOM     62  H   UNL A   1      46.867  28.881  27.133  1.00  0.00     0.167 HD
ATOM     63  C   UNL A   1      45.221  30.890  28.267  1.00  0.00     0.074 A 
ATOM     64  C   UNL A   1      44.070  31.556  28.836  1.00  0.00     0.031 C 
ATOM     65  C   UNL A   1      46.447  31.457  28.147  1.00  0.00     0.037 A 
BRANCH  52  66
ATOM     66  C   UNL A   1      50.746  27.714  25.794  1.00  0.00     0.064 A 
ATOM     67  C   UNL A   1      51.704  27.324  26.741  1.00  0.00     0.173 A 
ATOM     68  C   UNL A   1      51.158  27.847  24.459  1.00  0.00     0.173 A 
ATOM     69  F   UNL A   1      51.365  27.192  28.032  1.00  0.00    -0.203 F 
ATOM     70  C   UNL A   1      53.025  27.090  26.368  1.00  0.00     0.198 A 
ATOM     71  C   UNL A   1      52.473  27.583  24.084  1.00  0.00     0.198 A 
ATOM     72  F   UNL A   1      50.280  28.213  23.512  1.00  0.00    -0.203 F 
ATOM     73  F   UNL A   1      53.932  26.753  27.295  1.00  0.00    -0.200 F 
ATOM     74  C   UNL A   1      53.406  27.209  25.039  1.00  0.00     0.200 A 
ATOM     75  F   UNL A   1      52.834  27.684  22.798  1.00  0.00    -0.200 F 
ATOM     76  F   UNL A   1      54.674  26.964  24.679  1.00  0.00    -0.200 F 
ENDBRANCH  52  66
BRANCH  53  77
ATOM     77  C   UNL A   1      41.155  28.536  28.459  1.00  0.00     0.064 A 
ATOM     78  C   UNL A   1      40.783  28.178  29.763  1.00  0.00     0.173 A 
ATOM     79  C   UNL A   1      40.143  28.967  27.590  1.00  0.00     0.173 A 
ATOM     80  F   UNL A   1      41.709  27.739  30.627  1.00  0.00    -0.203 F 
ATOM     81  C   UNL A   1      39.449  28.208  30.166  1.00  0.00     0.198 A 
ATOM     82  C   UNL A   1      38.814  29.032  28.005  1.00  0.00     0.198 A 
ATOM     83  F   UNL A   1      40.444  29.327  26.333  1.00  0.00    -0.203 F 
ATOM     84  F   UNL A   1      39.114  27.794  31.396  1.00  0.00    -0.200 F 
ATOM     85  C   UNL A   1      38.466  28.638  29.288  1.00  0.00     0.200 A 
ATOM     86  F   UNL A   1      37.869  29.463  27.158  1.00  0.00    -0.200 F 
ATOM     87  F   UNL A   1      37.183  28.661  29.673  1.00  0.00    -0.200 F 
ENDBRANCH  53  77
BRANCH  65  88
ATOM     88  C   UNL A   1      46.596  32.889  28.574  1.00  0.00     0.064 A 
ATOM     89  C   UNL A   1      46.972  33.239  29.879  1.00  0.00     0.173 A 
ATOM     90  C   UNL A   1      46.421  33.923  27.641  1.00  0.00     0.173 A 
ATOM     91  F   UNL A   1      47.138  32.288  30.812  1.00  0.00    -0.203 F 
ATOM     92  C   UNL A   1      47.142  34.573  30.240  1.00  0.00     0.198 A 
ATOM     93  C   UNL A   1      46.626  35.253  27.996  1.00  0.00     0.198 A 
ATOM     94  F   UNL A   1      46.071  33.641  26.377  1.00  0.00    -0.203 F 
ATOM     95  F   UNL A   1      47.457  34.888  31.504  1.00  0.00    -0.200 F 
ATOM     96  C   UNL A   1      46.980  35.577  29.296  1.00  0.00     0.200 A 
ATOM     97  F   UNL A   1      46.484  36.219  27.079  1.00  0.00    -0.200 F 
ATOM     98  F   UNL A   1      47.159  36.859  29.643  1.00  0.00    -0.200 F 
ENDBRANCH  65  88
ENDBRANCH  39  40
ENDBRANCH  31  34
ENDBRANCH  29  30
ENDBRANCH  28  29
ENDBRANCH  27  28
ENDBRANCH  26  27
ENDBRANCH   1  26
TORSDOF 18
ENDMDL
MODEL 3
REMARK VINA RESULT:     -10.9      6.722     12.445
REMARK SMILES O=C(Cc1csc(NC(=O)CS[C@@H]2CCS(=O)(=O)C2)n1)NCCCCCCNC(=O)c1ccc(-c2c3nc(c(-c4c(F)c(F)c(F)c(F)c4F)c4ccc([nH]4)c(-c4c(F)c(F)c(F)c(F)c4F)c4nc(c(-c5c(F)c(F)c(F)c(F)c5F)c5ccc2[nH]5)C=C4)C=C3)cc1
REMARK SMILES IDX 23 1 22 2 21 3 1 4 2 5 3 7 4 8 5 9 20 10 6 11 7 12 8 13 9 14
REMARK SMILES IDX 10 16 11 17 12 18 13 19 14 20 19 21 15 22 16 23 17 24 18 25
REMARK SMILES IDX 24 26 25 27 26 28 27 29 28 30 29 31 30 33 31 34 32 35 93 36
REMARK SMILES IDX 33 37 92 38 34 39 35 40 36 41 86 42 37 43 91 44 85 45 87 46
REMARK SMILES IDX 38 47 90 48 84 49 83 50 39 52 71 53 51 54 70 55 52 56 55 57
REMARK SMILES IDX 69 58 88 59 53 60 54 61 68 63 89 64 56 65 40 66 41 67 49 68
REMARK SMILES IDX 42 69 43 70 47 71 50 72 44 73 45 74 48 75 46 76 72 77 73 78
REMARK SMILES IDX 81 79 74 80 75 81 79 82 82 83 76 84 77 85 80 86 78 87 57 88
REMARK SMILES IDX 58 89 66 90 59 91 60 92 64 93 67 94 61 95 62 96 65 97 63 98
REMARK H PARENT 21 6 8 15 28 32 87 51 55 62
REMARK Flexibility Score: inf
ROOT
ATOM      1  C   UNL A   1      39.403  22.023  26.498  1.00  0.00     0.021 C 
ENDROOT
BRANCH   1   2
ATOM      2  C   UNL A   1      38.465  23.154  26.087  1.00  0.00     0.116 C 
BRANCH   2   3
ATOM      3  N   UNL A   1      37.083  22.722  26.050  1.00  0.00    -0.356 N 
ATOM      4  O   UNL A   1      37.352  21.095  24.449  1.00  0.00    -0.275 OA
ATOM      5  C   UNL A   1      36.658  21.641  25.301  1.00  0.00     0.226 C 
ATOM      6  H   UNL A   1      36.419  23.219  26.581  1.00  0.00     0.163 HD
BRANCH   5   7
ATOM      7  C   UNL A   1      35.258  21.157  25.657  1.00  0.00     0.157 C 
BRANCH   7   8
ATOM      8  C   UNL A   1      34.260  21.452  24.571  1.00  0.00     0.063 A 
ATOM      9  C   UNL A   1      33.135  20.716  24.243  1.00  0.00     0.093 A 
ATOM     10  N   UNL A   1      34.428  22.593  23.789  1.00  0.00    -0.224 NA
ATOM     11  S   UNL A   1      32.163  21.598  23.159  1.00  0.00    -0.105 S 
ATOM     12  C   UNL A   1      33.465  22.668  22.896  1.00  0.00     0.189 A 
BRANCH  12  13
ATOM     13  N   UNL A   1      33.424  23.620  21.914  1.00  0.00    -0.301 N 
ATOM     14  C   UNL A   1      32.943  24.895  21.929  1.00  0.00     0.236 C 
ATOM     15  H   UNL A   1      33.808  23.337  21.053  1.00  0.00     0.172 HD
ATOM     16  O   UNL A   1      33.300  25.664  21.029  1.00  0.00    -0.274 OA
BRANCH  14  17
ATOM     17  C   UNL A   1      31.977  25.429  22.980  1.00  0.00     0.170 C 
BRANCH  17  18
ATOM     18  S   UNL A   1      32.757  25.938  24.551  1.00  0.00    -0.148 SA
BRANCH  18  19
ATOM     19  C   UNL A   1      32.567  27.758  24.668  1.00  0.00     0.063 C 
ATOM     20  C   UNL A   1      33.838  28.326  25.334  1.00  0.00     0.031 C 
ATOM     21  C   UNL A   1      31.369  28.385  25.374  1.00  0.00     0.151 C 
ATOM     22  C   UNL A   1      33.597  28.322  26.836  1.00  0.00     0.138 C 
ATOM     23  S   UNL A   1      31.908  28.838  27.015  1.00  0.00     0.151 S 
ATOM     24  O   UNL A   1      31.278  27.986  27.999  1.00  0.00    -0.229 OA
ATOM     25  O   UNL A   1      31.882  30.282  27.114  1.00  0.00    -0.229 OA
ENDBRANCH  18  19
ENDBRANCH  17  18
ENDBRANCH  14  17
ENDBRANCH  12  13
ENDBRANCH   7   8
ENDBRANCH   5   7
ENDBRANCH   2   3
ENDBRANCH   1   2
BRANCH   1  26
ATOM     26  C   UNL A   1      40.878  22.236  26.129  1.00  0.00     0.002 C 
BRANCH  26  27
ATOM     27  C   UNL A   1      41.865  21.226  26.722  1.00  0.00     0.002 C 
BRANCH  27  28
ATOM     28  C   UNL A   1      41.911  19.868  26.022  1.00  0.00     0.021 C 
BRANCH  28  29
ATOM     29  C   UNL A   1      43.162  19.039  26.299  1.00  0.00     0.116 C 
BRANCH  29  30
ATOM     30  N   UNL A   1      43.865  18.653  25.086  1.00  0.00    -0.352 N 
ATOM     31  C   UNL A   1      44.598  19.436  24.227  1.00  0.00     0.251 C 
ATOM     32  H   UNL A   1      43.808  17.700  24.847  1.00  0.00     0.163 HD
ATOM     33  O   UNL A   1      45.010  18.981  23.165  1.00  0.00    -0.269 OA
BRANCH  31  34
ATOM     34  C   UNL A   1      44.867  20.849  24.576  1.00  0.00     0.039 A 
ATOM     35  C   UNL A   1      44.379  21.859  23.742  1.00  0.00     0.014 A 
ATOM     36  C   UNL A   1      45.584  21.176  25.729  1.00  0.00     0.014 A 
ATOM     37  C   UNL A   1      44.552  23.199  24.102  1.00  0.00     0.010 A 
ATOM     38  C   UNL A   1      45.690  22.507  26.124  1.00  0.00     0.010 A 
ATOM     39  C   UNL A   1      45.176  23.532  25.314  1.00  0.00    -0.014 A 
BRANCH  39  40
ATOM     40  C   UNL A   1      45.315  24.944  25.758  1.00  0.00     0.031 A 
ATOM     41  C   UNL A   1      46.662  25.614  25.708  1.00  0.00     0.074 A 
ATOM     42  C   UNL A   1      44.256  25.596  26.277  1.00  0.00     0.049 A 
ATOM     43  N   UNL A   1      47.022  26.788  26.160  1.00  0.00    -0.248 NA
ATOM     44  C   UNL A   1      47.759  24.848  25.094  1.00  0.00     0.031 C 
ATOM     45  C   UNL A   1      42.907  25.047  26.412  1.00  0.00     0.029 A 
ATOM     46  N   UNL A   1      44.153  26.859  26.808  1.00  0.00    -0.354 N 
ATOM     47  C   UNL A   1      48.384  26.891  25.907  1.00  0.00     0.074 A 
ATOM     48  C   UNL A   1      48.798  25.644  25.302  1.00  0.00     0.031 C 
ATOM     49  C   UNL A   1      42.109  25.970  26.977  1.00  0.00     0.029 A 
ATOM     50  C   UNL A   1      42.899  27.157  27.286  1.00  0.00     0.049 A 
ATOM     51  H   UNL A   1      44.907  27.492  26.843  1.00  0.00     0.167 HD
ATOM     52  C   UNL A   1      49.209  27.938  26.141  1.00  0.00     0.037 A 
ATOM     53  C   UNL A   1      42.445  28.256  27.920  1.00  0.00     0.037 A 
ATOM     54  C   UNL A   1      48.785  29.192  26.707  1.00  0.00     0.049 A 
ATOM     55  C   UNL A   1      43.392  29.401  28.176  1.00  0.00     0.074 A 
ATOM     56  C   UNL A   1      49.535  30.336  26.919  1.00  0.00     0.029 A 
ATOM     57  N   UNL A   1      47.501  29.465  27.149  1.00  0.00    -0.354 N 
ATOM     58  N   UNL A   1      44.661  29.511  27.869  1.00  0.00    -0.248 NA
ATOM     59  C   UNL A   1      42.841  30.577  28.865  1.00  0.00     0.031 C 
ATOM     60  C   UNL A   1      48.717  31.283  27.540  1.00  0.00     0.029 A 
ATOM     61  C   UNL A   1      47.442  30.752  27.657  1.00  0.00     0.049 A 
ATOM     62  H   UNL A   1      46.743  28.837  27.110  1.00  0.00     0.167 HD
ATOM     63  C   UNL A   1      45.045  30.780  28.284  1.00  0.00     0.074 A 
ATOM     64  C   UNL A   1      43.875  31.405  28.859  1.00  0.00     0.031 C 
ATOM     65  C   UNL A   1      46.260  31.373  28.195  1.00  0.00     0.037 A 
BRANCH  52  66
ATOM     66  C   UNL A   1      50.659  27.787  25.782  1.00  0.00     0.064 A 
ATOM     67  C   UNL A   1      51.126  28.026  24.482  1.00  0.00     0.173 A 
ATOM     68  C   UNL A   1      51.604  27.475  26.772  1.00  0.00     0.173 A 
ATOM     69  F   UNL A   1      50.263  28.318  23.497  1.00  0.00    -0.203 F 
ATOM     70  C   UNL A   1      52.483  27.942  24.181  1.00  0.00     0.198 A 
ATOM     71  C   UNL A   1      52.963  27.422  26.475  1.00  0.00     0.198 A 
ATOM     72  F   UNL A   1      51.211  27.242  28.034  1.00  0.00    -0.203 F 
ATOM     73  F   UNL A   1      52.902  28.140  22.924  1.00  0.00    -0.200 F 
ATOM     74  C   UNL A   1      53.401  27.651  25.180  1.00  0.00     0.200 A 
ATOM     75  F   UNL A   1      53.849  27.156  27.444  1.00  0.00    -0.200 F 
ATOM     76  F   UNL A   1      54.709  27.591  24.893  1.00  0.00    -0.200 F 
ENDBRANCH  52  66
BRANCH  53  77
ATOM     77  C   UNL A   1      41.025  28.341  28.361  1.00  0.00     0.064 A 
ATOM     78  C   UNL A   1      40.044  28.899  27.527  1.00  0.00     0.173 A 
ATOM     79  C   UNL A   1      40.628  27.915  29.636  1.00  0.00     0.173 A 
ATOM     80  F   UNL A   1      40.377  29.341  26.305  1.00  0.00    -0.203 F 
ATOM     81  C   UNL A   1      38.732  29.063  27.967  1.00  0.00     0.198 A 
ATOM     82  C   UNL A   1      39.307  28.047  30.061  1.00  0.00     0.198 A 
ATOM     83  F   UNL A   1      41.524  27.369  30.473  1.00  0.00    -0.203 F 
ATOM     84  F   UNL A   1      37.833  29.662  27.175  1.00  0.00    -0.200 F 
ATOM     85  C   UNL A   1      38.364  28.635  29.233  1.00  0.00     0.200 A 
ATOM     86  F   UNL A   1      38.952  27.617  31.280  1.00  0.00    -0.200 F 
ATOM     87  F   UNL A   1      37.104  28.799  29.659  1.00  0.00    -0.200 F 
ENDBRANCH  53  77
BRANCH  65  88
ATOM     88  C   UNL A   1      46.377  32.795  28.665  1.00  0.00     0.064 A 
ATOM     89  C   UNL A   1      46.749  33.114  29.979  1.00  0.00     0.173 A 
ATOM     90  C   UNL A   1      46.172  33.852  27.764  1.00  0.00     0.173 A 
ATOM     91  F   UNL A   1      46.943  32.139  30.881  1.00  0.00    -0.203 F 
ATOM     92  C   UNL A   1      46.888  34.440  30.380  1.00  0.00     0.198 A 
ATOM     93  C   UNL A   1      46.346  35.175  28.160  1.00  0.00     0.198 A 
ATOM     94  F   UNL A   1      45.824  33.601  26.494  1.00  0.00    -0.203 F 
ATOM     95  F   UNL A   1      47.201  34.723  31.652  1.00  0.00    -0.200 F 
ATOM     96  C   UNL A   1      46.697  35.468  29.468  1.00  0.00     0.200 A 
ATOM     97  F   UNL A   1      46.177  36.165  27.273  1.00  0.00    -0.200 F 
ATOM     98  F   UNL A   1      46.847  36.743  29.853  1.00  0.00    -0.200 F 
ENDBRANCH  65  88
ENDBRANCH  39  40
ENDBRANCH  31  34
ENDBRANCH  29  30
ENDBRANCH  28  29
ENDBRANCH  27  28
ENDBRANCH  26  27
ENDBRANCH   1  26
TORSDOF 18
ENDMDL
