MODEL 1
REMARK VINA RESULT:     -11.3      0.000      0.000
REMARK SMILES COc1ccsc1CN(Cc1ccccc1)C(=O)/C=C/C(=O)NCCCCCCNC(=O)c1ccc(-c2c3nc(c(-c4c(F)c(F)c(F)c(F)c4F)c4ccc([nH]4)c(-c4c(F)c(F)c(F)c(F)c4F)c4nc(c(-c5c(F)c(F)c(F)c(F)c5F)c5ccc2[nH]5)C=C4)C=C3)cc1
REMARK SMILES IDX 25 1 24 2 23 3 21 4 22 5 20 7 19 8 17 9 18 10 9 11 8 12 7 13
REMARK SMILES IDX 3 14 4 15 5 16 6 17 2 18 1 19 10 20 11 21 12 22 16 23 13 24
REMARK SMILES IDX 15 25 14 26 26 27 27 28 28 29 29 30 30 31 31 32 32 34 33 35
REMARK SMILES IDX 34 36 95 37 35 38 94 39 36 40 37 41 38 42 88 43 39 44 93 45
REMARK SMILES IDX 87 46 89 47 40 48 92 49 86 50 85 51 41 53 73 54 53 55 72 56
REMARK SMILES IDX 54 57 57 58 71 59 90 60 55 61 56 62 70 64 91 65 58 66 42 67
REMARK SMILES IDX 43 68 51 69 44 70 45 71 49 72 52 73 46 74 47 75 50 76 48 77
REMARK SMILES IDX 74 78 75 79 83 80 76 81 77 82 81 83 84 84 78 85 79 86 82 87
REMARK SMILES IDX 80 88 59 89 60 90 68 91 61 92 62 93 66 94 69 95 63 96 64 97
REMARK SMILES IDX 67 98 65 99
REMARK H PARENT 23 6 30 33 89 52 57 63
REMARK Flexibility Score: inf
ROOT
ATOM      1  C   UNL A   1      37.004  23.304  24.900  1.00  0.00     0.021 C 
ENDROOT
BRANCH   1   2
ATOM      2  C   UNL A   1      36.079  23.843  25.985  1.00  0.00     0.116 C 
BRANCH   2   3
ATOM      3  N   UNL A   1      35.471  22.766  26.745  1.00  0.00    -0.353 N 
ATOM      4  C   UNL A   1      34.201  22.277  26.690  1.00  0.00     0.244 C 
ATOM      5  O   UNL A   1      33.778  21.544  27.580  1.00  0.00    -0.270 OA
ATOM      6  H   UNL A   1      36.063  22.323  27.396  1.00  0.00     0.163 HD
BRANCH   4   7
ATOM      7  C   UNL A   1      33.316  22.657  25.571  1.00  0.00     0.077 C 
ATOM      8  C   UNL A   1      32.306  23.501  25.807  1.00  0.00     0.077 C 
BRANCH   8   9
ATOM      9  C   UNL A   1      31.404  24.059  24.784  1.00  0.00     0.247 C 
ATOM     10  O   UNL A   1      30.919  23.252  23.993  1.00  0.00    -0.270 OA
BRANCH   9  11
ATOM     11  N   UNL A   1      31.041  25.395  24.883  1.00  0.00    -0.330 N 
BRANCH  11  12
ATOM     12  C   UNL A   1      30.679  26.113  23.656  1.00  0.00     0.170 C 
BRANCH  12  13
ATOM     13  C   UNL A   1      31.727  27.085  23.200  1.00  0.00     0.066 A 
ATOM     14  C   UNL A   1      32.955  26.791  22.640  1.00  0.00     0.134 A 
ATOM     15  C   UNL A   1      33.725  27.953  22.358  1.00  0.00     0.058 A 
ATOM     16  C   UNL A   1      33.057  29.105  22.708  1.00  0.00     0.069 A 
ATOM     17  S   UNL A   1      31.499  28.779  23.341  1.00  0.00    -0.143 S 
BRANCH  14  18
ATOM     18  O   UNL A   1      33.299  25.506  22.381  1.00  0.00    -0.496 OA
ATOM     19  C   UNL A   1      32.815  25.055  21.120  1.00  0.00     0.278 C 
ENDBRANCH  14  18
ENDBRANCH  12  13
ENDBRANCH  11  12
BRANCH  11  20
ATOM     20  C   UNL A   1      30.822  26.109  26.153  1.00  0.00     0.155 C 
BRANCH  20  21
ATOM     21  C   UNL A   1      31.893  27.113  26.532  1.00  0.00    -0.029 A 
ATOM     22  C   UNL A   1      31.507  28.317  27.144  1.00  0.00     0.005 A 
ATOM     23  C   UNL A   1      33.251  26.920  26.228  1.00  0.00     0.005 A 
ATOM     24  C   UNL A   1      32.434  29.338  27.354  1.00  0.00     0.000 A 
ATOM     25  C   UNL A   1      34.172  27.954  26.418  1.00  0.00     0.000 A 
ATOM     26  C   UNL A   1      33.760  29.165  26.969  1.00  0.00     0.000 A 
ENDBRANCH  20  21
ENDBRANCH  11  20
ENDBRANCH   9  11
ENDBRANCH   8   9
ENDBRANCH   4   7
ENDBRANCH   2   3
ENDBRANCH   1   2
BRANCH   1  27
ATOM     27  C   UNL A   1      37.850  22.108  25.342  1.00  0.00     0.002 C 
BRANCH  27  28
ATOM     28  C   UNL A   1      37.473  20.770  24.694  1.00  0.00     0.002 C 
BRANCH  28  29
ATOM     29  C   UNL A   1      38.432  19.612  24.981  1.00  0.00     0.021 C 
BRANCH  29  30
ATOM     30  C   UNL A   1      39.498  19.916  26.027  1.00  0.00     0.116 C 
BRANCH  30  31
ATOM     31  N   UNL A   1      40.583  18.951  25.988  1.00  0.00    -0.352 N 
ATOM     32  C   UNL A   1      41.937  19.165  25.998  1.00  0.00     0.251 C 
ATOM     33  H   UNL A   1      40.306  18.006  25.950  1.00  0.00     0.163 HD
ATOM     34  O   UNL A   1      42.712  18.252  25.736  1.00  0.00    -0.269 OA
BRANCH  32  35
ATOM     35  C   UNL A   1      42.464  20.509  26.314  1.00  0.00     0.039 A 
ATOM     36  C   UNL A   1      43.011  21.278  25.284  1.00  0.00     0.014 A 
ATOM     37  C   UNL A   1      42.431  21.002  27.621  1.00  0.00     0.014 A 
ATOM     38  C   UNL A   1      43.480  22.564  25.558  1.00  0.00     0.010 A 
ATOM     39  C   UNL A   1      42.827  22.311  27.878  1.00  0.00     0.010 A 
ATOM     40  C   UNL A   1      43.363  23.102  26.850  1.00  0.00    -0.014 A 
BRANCH  40  41
ATOM     41  C   UNL A   1      43.794  24.492  27.142  1.00  0.00     0.031 A 
ATOM     42  C   UNL A   1      42.792  25.516  27.595  1.00  0.00     0.074 A 
ATOM     43  C   UNL A   1      45.076  24.845  26.932  1.00  0.00     0.049 A 
ATOM     44  N   UNL A   1      42.966  26.789  27.845  1.00  0.00    -0.248 NA
ATOM     45  C   UNL A   1      41.406  25.055  27.761  1.00  0.00     0.031 C 
ATOM     46  C   UNL A   1      46.125  23.953  26.437  1.00  0.00     0.029 A 
ATOM     47  N   UNL A   1      45.711  26.050  27.093  1.00  0.00    -0.354 N 
ATOM     48  C   UNL A   1      41.711  27.283  28.180  1.00  0.00     0.074 A 
ATOM     49  C   UNL A   1      40.777  26.186  28.048  1.00  0.00     0.031 C 
ATOM     50  C   UNL A   1      47.278  24.636  26.353  1.00  0.00     0.029 A 
ATOM     51  C   UNL A   1      47.040  26.021  26.749  1.00  0.00     0.049 A 
ATOM     52  H   UNL A   1      45.258  26.859  27.425  1.00  0.00     0.167 HD
ATOM     53  C   UNL A   1      41.375  28.533  28.580  1.00  0.00     0.037 A 
ATOM     54  C   UNL A   1      47.961  27.002  26.743  1.00  0.00     0.037 A 
ATOM     55  C   UNL A   1      42.316  29.613  28.727  1.00  0.00     0.049 A 
ATOM     56  C   UNL A   1      47.565  28.381  27.196  1.00  0.00     0.074 A 
ATOM     57  C   UNL A   1      42.092  30.893  29.203  1.00  0.00     0.029 A 
ATOM     58  N   UNL A   1      43.660  29.541  28.391  1.00  0.00    -0.354 N 
ATOM     59  N   UNL A   1      46.395  28.816  27.595  1.00  0.00    -0.248 NA
ATOM     60  C   UNL A   1      48.620  29.403  27.206  1.00  0.00     0.031 C 
ATOM     61  C   UNL A   1      43.287  31.613  29.096  1.00  0.00     0.029 A 
ATOM     62  C   UNL A   1      44.271  30.765  28.614  1.00  0.00     0.049 A 
ATOM     63  H   UNL A   1      44.114  28.739  28.043  1.00  0.00     0.167 HD
ATOM     64  C   UNL A   1      46.575  30.152  27.925  1.00  0.00     0.074 A 
ATOM     65  C   UNL A   1      47.974  30.452  27.697  1.00  0.00     0.031 C 
ATOM     66  C   UNL A   1      45.664  31.050  28.377  1.00  0.00     0.037 A 
BRANCH  53  67
ATOM     67  C   UNL A   1      39.926  28.801  28.874  1.00  0.00     0.064 A 
ATOM     68  C   UNL A   1      39.045  29.278  27.890  1.00  0.00     0.173 A 
ATOM     69  C   UNL A   1      39.404  28.554  30.153  1.00  0.00     0.173 A 
ATOM     70  F   UNL A   1      39.493  29.540  26.651  1.00  0.00    -0.203 F 
ATOM     71  C   UNL A   1      37.709  29.535  28.185  1.00  0.00     0.198 A 
ATOM     72  C   UNL A   1      38.058  28.779  30.435  1.00  0.00     0.198 A 
ATOM     73  F   UNL A   1      40.197  28.091  31.130  1.00  0.00    -0.203 F 
ATOM     74  F   UNL A   1      36.903  30.047  27.245  1.00  0.00    -0.200 F 
ATOM     75  C   UNL A   1      37.215  29.279  29.455  1.00  0.00     0.200 A 
ATOM     76  F   UNL A   1      37.580  28.516  31.659  1.00  0.00    -0.200 F 
ATOM     77  F   UNL A   1      35.927  29.522  29.737  1.00  0.00    -0.200 F 
ENDBRANCH  53  67
BRANCH  54  78
ATOM     78  C   UNL A   1      49.351  26.704  26.308  1.00  0.00     0.064 A 
ATOM     79  C   UNL A   1      50.291  26.180  27.205  1.00  0.00     0.173 A 
ATOM     80  C   UNL A   1      49.761  26.917  24.984  1.00  0.00     0.173 A 
ATOM     81  F   UNL A   1      49.952  25.974  28.487  1.00  0.00    -0.203 F 
ATOM     82  C   UNL A   1      51.593  25.893  26.798  1.00  0.00     0.198 A 
ATOM     83  C   UNL A   1      51.053  26.603  24.571  1.00  0.00     0.198 A 
ATOM     84  F   UNL A   1      48.897  27.411  24.085  1.00  0.00    -0.203 F 
ATOM     85  F   UNL A   1      52.483  25.429  27.686  1.00  0.00    -0.200 F 
ATOM     86  C   UNL A   1      51.971  26.098  25.479  1.00  0.00     0.200 A 
ATOM     87  F   UNL A   1      51.409  26.786  23.292  1.00  0.00    -0.200 F 
ATOM     88  F   UNL A   1      53.219  25.812  25.085  1.00  0.00    -0.200 F 
ENDBRANCH  54  78
BRANCH  66  89
ATOM     89  C   UNL A   1      46.156  32.437  28.678  1.00  0.00     0.064 A 
ATOM     90  C   UNL A   1      46.125  33.456  27.714  1.00  0.00     0.173 A 
ATOM     91  C   UNL A   1      46.627  32.761  29.959  1.00  0.00     0.173 A 
ATOM     92  F   UNL A   1      45.697  33.195  26.470  1.00  0.00    -0.203 F 
ATOM     93  C   UNL A   1      46.572  34.740  28.015  1.00  0.00     0.198 A 
ATOM     94  C   UNL A   1      47.042  34.053  30.267  1.00  0.00     0.198 A 
ATOM     95  F   UNL A   1      46.672  31.825  30.920  1.00  0.00    -0.203 F 
ATOM     96  F   UNL A   1      46.581  35.685  27.064  1.00  0.00    -0.200 F 
ATOM     97  C   UNL A   1      47.022  35.039  29.292  1.00  0.00     0.200 A 
ATOM     98  F   UNL A   1      47.461  34.344  31.505  1.00  0.00    -0.200 F 
ATOM     99  F   UNL A   1      47.444  36.278  29.582  1.00  0.00    -0.200 F 
ENDBRANCH  66  89
ENDBRANCH  40  41
ENDBRANCH  32  35
ENDBRANCH  30  31
ENDBRANCH  29  30
ENDBRANCH  28  29
ENDBRANCH  27  28
ENDBRANCH   1  27
TORSDOF 20
ENDMDL
MODEL 2
REMARK VINA RESULT:     -11.1      5.620     11.150
REMARK SMILES COc1ccsc1CN(Cc1ccccc1)C(=O)/C=C/C(=O)NCCCCCCNC(=O)c1ccc(-c2c3nc(c(-c4c(F)c(F)c(F)c(F)c4F)c4ccc([nH]4)c(-c4c(F)c(F)c(F)c(F)c4F)c4nc(c(-c5c(F)c(F)c(F)c(F)c5F)c5ccc2[nH]5)C=C4)C=C3)cc1
REMARK SMILES IDX 25 1 24 2 23 3 21 4 22 5 20 7 19 8 17 9 18 10 9 11 8 12 7 13
REMARK SMILES IDX 3 14 4 15 5 16 6 17 2 18 1 19 10 20 11 21 12 22 16 23 13 24
REMARK SMILES IDX 15 25 14 26 26 27 27 28 28 29 29 30 30 31 31 32 32 34 33 35
REMARK SMILES IDX 34 36 95 37 35 38 94 39 36 40 37 41 38 42 88 43 39 44 93 45
REMARK SMILES IDX 87 46 89 47 40 48 92 49 86 50 85 51 41 53 73 54 53 55 72 56
REMARK SMILES IDX 54 57 57 58 71 59 90 60 55 61 56 62 70 64 91 65 58 66 42 67
REMARK SMILES IDX 43 68 51 69 44 70 45 71 49 72 52 73 46 74 47 75 50 76 48 77
REMARK SMILES IDX 74 78 75 79 83 80 76 81 77 82 81 83 84 84 78 85 79 86 82 87
REMARK SMILES IDX 80 88 59 89 60 90 68 91 61 92 62 93 66 94 69 95 63 96 64 97
REMARK SMILES IDX 67 98 65 99
REMARK H PARENT 23 6 30 33 89 52 57 63
REMARK Flexibility Score: inf
ROOT
ATOM      1  C   UNL A   1      32.739  28.624  26.438  1.00  0.00     0.021 C 
ENDROOT
BRANCH   1   2
ATOM      2  C   UNL A   1      31.893  27.681  27.285  1.00  0.00     0.116 C 
BRANCH   2   3
ATOM      3  N   UNL A   1      30.934  26.955  26.471  1.00  0.00    -0.353 N 
ATOM      4  C   UNL A   1      30.977  25.670  26.021  1.00  0.00     0.244 C 
ATOM      5  O   UNL A   1      30.218  25.297  25.131  1.00  0.00    -0.270 OA
ATOM      6  H   UNL A   1      30.136  27.467  26.203  1.00  0.00     0.163 HD
BRANCH   4   7
ATOM      7  C   UNL A   1      31.964  24.728  26.586  1.00  0.00     0.077 C 
ATOM      8  C   UNL A   1      31.685  23.420  26.573  1.00  0.00     0.077 C 
BRANCH   8   9
ATOM      9  C   UNL A   1      32.603  22.348  26.997  1.00  0.00     0.247 C 
ATOM     10  O   UNL A   1      32.837  22.282  28.202  1.00  0.00    -0.270 OA
BRANCH   9  11
ATOM     11  N   UNL A   1      32.999  21.409  26.056  1.00  0.00    -0.330 N 
BRANCH  11  12
ATOM     12  C   UNL A   1      34.421  21.061  25.972  1.00  0.00     0.170 C 
BRANCH  12  13
ATOM     13  C   UNL A   1      35.187  21.898  24.990  1.00  0.00     0.066 A 
ATOM     14  C   UNL A   1      36.550  22.123  24.966  1.00  0.00     0.134 A 
ATOM     15  C   UNL A   1      36.945  23.003  23.921  1.00  0.00     0.058 A 
ATOM     16  C   UNL A   1      35.868  23.421  23.172  1.00  0.00     0.069 A 
ATOM     17  S   UNL A   1      34.399  22.727  23.713  1.00  0.00    -0.143 S 
BRANCH  14  18
ATOM     18  O   UNL A   1      37.363  21.502  25.855  1.00  0.00    -0.496 OA
ATOM     19  C   UNL A   1      38.694  22.006  25.820  1.00  0.00     0.278 C 
ENDBRANCH  14  18
ENDBRANCH  12  13
ENDBRANCH  11  12
BRANCH  11  20
ATOM     20  C   UNL A   1      32.075  20.600  25.243  1.00  0.00     0.155 C 
BRANCH  20  21
ATOM     21  C   UNL A   1      32.567  19.214  24.874  1.00  0.00    -0.029 A 
ATOM     22  C   UNL A   1      32.843  18.929  23.527  1.00  0.00     0.005 A 
ATOM     23  C   UNL A   1      32.688  18.180  25.817  1.00  0.00     0.005 A 
ATOM     24  C   UNL A   1      33.133  17.627  23.120  1.00  0.00     0.000 A 
ATOM     25  C   UNL A   1      32.954  16.873  25.403  1.00  0.00     0.000 A 
ATOM     26  C   UNL A   1      33.165  16.595  24.054  1.00  0.00     0.000 A 
ENDBRANCH  20  21
ENDBRANCH  11  20
ENDBRANCH   9  11
ENDBRANCH   8   9
ENDBRANCH   4   7
ENDBRANCH   2   3
ENDBRANCH   1   2
BRANCH   1  27
ATOM     27  C   UNL A   1      32.625  30.095  26.843  1.00  0.00     0.002 C 
BRANCH  27  28
ATOM     28  C   UNL A   1      31.488  30.870  26.165  1.00  0.00     0.002 C 
BRANCH  28  29
ATOM     29  C   UNL A   1      31.371  32.342  26.566  1.00  0.00     0.021 C 
BRANCH  29  30
ATOM     30  C   UNL A   1      32.589  32.900  27.293  1.00  0.00     0.116 C 
BRANCH  30  31
ATOM     31  N   UNL A   1      32.412  34.298  27.647  1.00  0.00    -0.352 N 
ATOM     32  C   UNL A   1      33.016  35.026  28.640  1.00  0.00     0.251 C 
ATOM     33  H   UNL A   1      31.767  34.796  27.094  1.00  0.00     0.163 HD
ATOM     34  O   UNL A   1      32.590  36.134  28.944  1.00  0.00    -0.269 OA
BRANCH  32  35
ATOM     35  C   UNL A   1      34.180  34.463  29.356  1.00  0.00     0.039 A 
ATOM     36  C   UNL A   1      33.971  33.798  30.566  1.00  0.00     0.014 A 
ATOM     37  C   UNL A   1      35.473  34.604  28.843  1.00  0.00     0.014 A 
ATOM     38  C   UNL A   1      35.054  33.228  31.237  1.00  0.00     0.010 A 
ATOM     39  C   UNL A   1      36.540  33.971  29.472  1.00  0.00     0.010 A 
ATOM     40  C   UNL A   1      36.342  33.284  30.680  1.00  0.00    -0.014 A 
BRANCH  40  41
ATOM     41  C   UNL A   1      37.493  32.625  31.347  1.00  0.00     0.031 A 
ATOM     42  C   UNL A   1      38.182  31.461  30.693  1.00  0.00     0.074 A 
ATOM     43  C   UNL A   1      37.870  33.034  32.573  1.00  0.00     0.049 A 
ATOM     44  N   UNL A   1      39.166  30.723  31.142  1.00  0.00    -0.248 NA
ATOM     45  C   UNL A   1      37.681  31.054  29.372  1.00  0.00     0.031 C 
ATOM     46  C   UNL A   1      37.238  34.114  33.332  1.00  0.00     0.029 A 
ATOM     47  N   UNL A   1      38.865  32.582  33.402  1.00  0.00    -0.354 N 
ATOM     48  C   UNL A   1      39.388  29.758  30.169  1.00  0.00     0.074 A 
ATOM     49  C   UNL A   1      38.403  29.969  29.131  1.00  0.00     0.031 C 
ATOM     50  C   UNL A   1      37.872  34.253  34.507  1.00  0.00     0.029 A 
ATOM     51  C   UNL A   1      38.927  33.248  34.600  1.00  0.00     0.049 A 
ATOM     52  H   UNL A   1      39.477  31.848  33.160  1.00  0.00     0.167 HD
ATOM     53  C   UNL A   1      40.342  28.795  30.136  1.00  0.00     0.037 A 
ATOM     54  C   UNL A   1      39.736  33.063  35.660  1.00  0.00     0.037 A 
ATOM     55  C   UNL A   1      41.331  28.606  31.165  1.00  0.00     0.049 A 
ATOM     56  C   UNL A   1      40.790  31.992  35.599  1.00  0.00     0.074 A 
ATOM     57  C   UNL A   1      42.390  27.715  31.190  1.00  0.00     0.029 A 
ATOM     58  N   UNL A   1      41.378  29.315  32.356  1.00  0.00    -0.354 N 
ATOM     59  N   UNL A   1      41.049  31.141  34.637  1.00  0.00    -0.248 NA
ATOM     60  C   UNL A   1      41.670  31.861  36.768  1.00  0.00     0.031 C 
ATOM     61  C   UNL A   1      43.039  27.842  32.423  1.00  0.00     0.029 A 
ATOM     62  C   UNL A   1      42.425  28.857  33.140  1.00  0.00     0.049 A 
ATOM     63  H   UNL A   1      40.759  30.038  32.609  1.00  0.00     0.167 HD
ATOM     64  C   UNL A   1      42.133  30.390  35.070  1.00  0.00     0.074 A 
ATOM     65  C   UNL A   1      42.495  30.899  36.377  1.00  0.00     0.031 C 
ATOM     66  C   UNL A   1      42.771  29.371  34.443  1.00  0.00     0.037 A 
BRANCH  53  67
ATOM     67  C   UNL A   1      40.350  27.866  28.956  1.00  0.00     0.064 A 
ATOM     68  C   UNL A   1      41.096  28.144  27.798  1.00  0.00     0.173 A 
ATOM     69  C   UNL A   1      39.622  26.667  28.991  1.00  0.00     0.173 A 
ATOM     70  F   UNL A   1      41.804  29.281  27.708  1.00  0.00    -0.203 F 
ATOM     71  C   UNL A   1      41.080  27.278  26.708  1.00  0.00     0.198 A 
ATOM     72  C   UNL A   1      39.636  25.787  27.911  1.00  0.00     0.198 A 
ATOM     73  F   UNL A   1      38.898  26.346  30.072  1.00  0.00    -0.203 F 
ATOM     74  F   UNL A   1      41.751  27.595  25.593  1.00  0.00    -0.200 F 
ATOM     75  C   UNL A   1      40.356  26.097  26.768  1.00  0.00     0.200 A 
ATOM     76  F   UNL A   1      38.949  24.638  27.978  1.00  0.00    -0.200 F 
ATOM     77  F   UNL A   1      40.345  25.262  25.720  1.00  0.00    -0.200 F 
ENDBRANCH  53  67
BRANCH  54  78
ATOM     78  C   UNL A   1      39.586  33.929  36.859  1.00  0.00     0.064 A 
ATOM     79  C   UNL A   1      38.812  33.520  37.953  1.00  0.00     0.173 A 
ATOM     80  C   UNL A   1      40.231  35.171  36.944  1.00  0.00     0.173 A 
ATOM     81  F   UNL A   1      38.161  32.348  37.913  1.00  0.00    -0.203 F 
ATOM     82  C   UNL A   1      38.676  34.328  39.081  1.00  0.00     0.198 A 
ATOM     83  C   UNL A   1      40.119  35.965  38.083  1.00  0.00     0.198 A 
ATOM     84  F   UNL A   1      40.990  35.606  35.926  1.00  0.00    -0.203 F 
ATOM     85  F   UNL A   1      37.898  33.931  40.097  1.00  0.00    -0.200 F 
ATOM     86  C   UNL A   1      39.336  35.547  39.148  1.00  0.00     0.200 A 
ATOM     87  F   UNL A   1      40.772  37.133  38.151  1.00  0.00    -0.200 F 
ATOM     88  F   UNL A   1      39.214  36.318  40.237  1.00  0.00    -0.200 F 
ENDBRANCH  54  78
BRANCH  66  89
ATOM     89  C   UNL A   1      43.942  28.752  35.151  1.00  0.00     0.064 A 
ATOM     90  C   UNL A   1      43.794  27.635  35.986  1.00  0.00     0.173 A 
ATOM     91  C   UNL A   1      45.237  29.260  34.959  1.00  0.00     0.173 A 
ATOM     92  F   UNL A   1      42.576  27.120  36.214  1.00  0.00    -0.203 F 
ATOM     93  C   UNL A   1      44.894  27.067  36.623  1.00  0.00     0.198 A 
ATOM     94  C   UNL A   1      46.338  28.669  35.571  1.00  0.00     0.198 A 
ATOM     95  F   UNL A   1      45.435  30.324  34.165  1.00  0.00    -0.203 F 
ATOM     96  F   UNL A   1      44.721  26.031  37.457  1.00  0.00    -0.200 F 
ATOM     97  C   UNL A   1      46.165  27.578  36.409  1.00  0.00     0.200 A 
ATOM     98  F   UNL A   1      47.567  29.155  35.350  1.00  0.00    -0.200 F 
ATOM     99  F   UNL A   1      47.223  27.024  37.017  1.00  0.00    -0.200 F 
ENDBRANCH  66  89
ENDBRANCH  40  41
ENDBRANCH  32  35
ENDBRANCH  30  31
ENDBRANCH  29  30
ENDBRANCH  28  29
ENDBRANCH  27  28
ENDBRANCH   1  27
TORSDOF 20
ENDMDL
MODEL 3
REMARK VINA RESULT:     -11.0      1.196      7.325
REMARK SMILES COc1ccsc1CN(Cc1ccccc1)C(=O)/C=C/C(=O)NCCCCCCNC(=O)c1ccc(-c2c3nc(c(-c4c(F)c(F)c(F)c(F)c4F)c4ccc([nH]4)c(-c4c(F)c(F)c(F)c(F)c4F)c4nc(c(-c5c(F)c(F)c(F)c(F)c5F)c5ccc2[nH]5)C=C4)C=C3)cc1
REMARK SMILES IDX 25 1 24 2 23 3 21 4 22 5 20 7 19 8 17 9 18 10 9 11 8 12 7 13
REMARK SMILES IDX 3 14 4 15 5 16 6 17 2 18 1 19 10 20 11 21 12 22 16 23 13 24
REMARK SMILES IDX 15 25 14 26 26 27 27 28 28 29 29 30 30 31 31 32 32 34 33 35
REMARK SMILES IDX 34 36 95 37 35 38 94 39 36 40 37 41 38 42 88 43 39 44 93 45
REMARK SMILES IDX 87 46 89 47 40 48 92 49 86 50 85 51 41 53 73 54 53 55 72 56
REMARK SMILES IDX 54 57 57 58 71 59 90 60 55 61 56 62 70 64 91 65 58 66 42 67
REMARK SMILES IDX 43 68 51 69 44 70 45 71 49 72 52 73 46 74 47 75 50 76 48 77
REMARK SMILES IDX 74 78 75 79 83 80 76 81 77 82 81 83 84 84 78 85 79 86 82 87
REMARK SMILES IDX 80 88 59 89 60 90 68 91 61 92 62 93 66 94 69 95 63 96 64 97
REMARK SMILES IDX 67 98 65 99
REMARK H PARENT 23 6 30 33 89 52 57 63
REMARK Flexibility Score: inf
ROOT
ATOM      1  C   UNL A   1      36.678  22.868  25.542  1.00  0.00     0.021 C 
ENDROOT
BRANCH   1   2
ATOM      2  C   UNL A   1      35.626  23.652  26.318  1.00  0.00     0.116 C 
BRANCH   2   3
ATOM      3  N   UNL A   1      34.819  22.776  27.148  1.00  0.00    -0.353 N 
ATOM      4  C   UNL A   1      33.499  22.862  27.469  1.00  0.00     0.244 C 
ATOM      5  O   UNL A   1      33.037  22.191  28.388  1.00  0.00    -0.270 OA
ATOM      6  H   UNL A   1      35.297  22.006  27.536  1.00  0.00     0.163 HD
BRANCH   4   7
ATOM      7  C   UNL A   1      32.622  23.791  26.729  1.00  0.00     0.077 C 
ATOM      8  C   UNL A   1      31.299  23.599  26.771  1.00  0.00     0.077 C 
BRANCH   8   9
ATOM      9  C   UNL A   1      30.289  24.493  26.179  1.00  0.00     0.247 C 
ATOM     10  O   UNL A   1      29.304  24.732  26.875  1.00  0.00    -0.270 OA
BRANCH   9  11
ATOM     11  N   UNL A   1      30.586  25.122  24.978  1.00  0.00    -0.330 N 
BRANCH  11  12
ATOM     12  C   UNL A   1      30.562  24.323  23.747  1.00  0.00     0.170 C 
BRANCH  12  13
ATOM     13  C   UNL A   1      31.921  23.873  23.297  1.00  0.00     0.066 A 
ATOM     14  C   UNL A   1      32.499  22.634  23.490  1.00  0.00     0.134 A 
ATOM     15  C   UNL A   1      33.820  22.554  22.970  1.00  0.00     0.058 A 
ATOM     16  C   UNL A   1      34.211  23.739  22.388  1.00  0.00     0.069 A 
ATOM     17  S   UNL A   1      32.975  24.923  22.444  1.00  0.00    -0.143 S 
BRANCH  14  18
ATOM     18  O   UNL A   1      31.800  21.638  24.087  1.00  0.00    -0.496 OA
ATOM     19  C   UNL A   1      32.472  20.385  24.021  1.00  0.00     0.278 C 
ENDBRANCH  14  18
ENDBRANCH  12  13
ENDBRANCH  11  12
BRANCH  11  20
ATOM     20  C   UNL A   1      30.759  26.575  24.816  1.00  0.00     0.155 C 
BRANCH  20  21
ATOM     21  C   UNL A   1      31.812  27.213  25.701  1.00  0.00    -0.029 A 
ATOM     22  C   UNL A   1      31.409  27.831  26.896  1.00  0.00     0.005 A 
ATOM     23  C   UNL A   1      33.168  27.275  25.338  1.00  0.00     0.005 A 
ATOM     24  C   UNL A   1      32.314  28.575  27.653  1.00  0.00     0.000 A 
ATOM     25  C   UNL A   1      34.066  28.041  26.086  1.00  0.00     0.000 A 
ATOM     26  C   UNL A   1      33.636  28.699  27.235  1.00  0.00     0.000 A 
ENDBRANCH  20  21
ENDBRANCH  11  20
ENDBRANCH   9  11
ENDBRANCH   8   9
ENDBRANCH   4   7
ENDBRANCH   2   3
ENDBRANCH   1   2
BRANCH   1  27
ATOM     27  C   UNL A   1      36.585  21.352  25.726  1.00  0.00     0.002 C 
BRANCH  27  28
ATOM     28  C   UNL A   1      37.121  20.520  24.554  1.00  0.00     0.002 C 
BRANCH  28  29
ATOM     29  C   UNL A   1      38.167  19.466  24.925  1.00  0.00     0.021 C 
BRANCH  29  30
ATOM     30  C   UNL A   1      39.239  19.951  25.894  1.00  0.00     0.116 C 
BRANCH  30  31
ATOM     31  N   UNL A   1      40.353  19.022  25.976  1.00  0.00    -0.352 N 
ATOM     32  C   UNL A   1      41.695  19.282  26.085  1.00  0.00     0.251 C 
ATOM     33  H   UNL A   1      40.110  18.068  25.949  1.00  0.00     0.163 HD
ATOM     34  O   UNL A   1      42.516  18.388  25.917  1.00  0.00    -0.269 OA
BRANCH  32  35
ATOM     35  C   UNL A   1      42.153  20.653  26.393  1.00  0.00     0.039 A 
ATOM     36  C   UNL A   1      42.459  21.516  25.338  1.00  0.00     0.014 A 
ATOM     37  C   UNL A   1      42.293  21.080  27.717  1.00  0.00     0.014 A 
ATOM     38  C   UNL A   1      42.857  22.825  25.611  1.00  0.00     0.010 A 
ATOM     39  C   UNL A   1      42.616  22.406  27.986  1.00  0.00     0.010 A 
ATOM     40  C   UNL A   1      42.909  23.290  26.935  1.00  0.00    -0.014 A 
BRANCH  40  41
ATOM     41  C   UNL A   1      43.264  24.698  27.239  1.00  0.00     0.031 A 
ATOM     42  C   UNL A   1      44.672  25.183  27.043  1.00  0.00     0.074 A 
ATOM     43  C   UNL A   1      42.331  25.520  27.756  1.00  0.00     0.049 A 
ATOM     44  N   UNL A   1      45.187  26.359  27.303  1.00  0.00    -0.248 NA
ATOM     45  C   UNL A   1      45.638  24.210  26.512  1.00  0.00     0.031 C 
ATOM     46  C   UNL A   1      40.946  25.145  28.045  1.00  0.00     0.029 A 
ATOM     47  N   UNL A   1      42.409  26.833  28.143  1.00  0.00    -0.354 N 
ATOM     48  C   UNL A   1      46.535  26.260  26.984  1.00  0.00     0.074 A 
ATOM     49  C   UNL A   1      46.771  24.896  26.564  1.00  0.00     0.031 C 
ATOM     50  C   UNL A   1      40.299  26.209  28.546  1.00  0.00     0.029 A 
ATOM     51  C   UNL A   1      41.232  27.327  28.651  1.00  0.00     0.049 A 
ATOM     52  H   UNL A   1      43.230  27.372  28.064  1.00  0.00     0.167 HD
ATOM     53  C   UNL A   1      47.485  27.226  27.021  1.00  0.00     0.037 A 
ATOM     54  C   UNL A   1      40.941  28.541  29.154  1.00  0.00     0.037 A 
ATOM     55  C   UNL A   1      47.235  28.586  27.421  1.00  0.00     0.049 A 
ATOM     56  C   UNL A   1      42.010  29.599  29.179  1.00  0.00     0.074 A 
ATOM     57  C   UNL A   1      48.108  29.661  27.416  1.00  0.00     0.029 A 
ATOM     58  N   UNL A   1      46.025  29.057  27.909  1.00  0.00    -0.354 N 
ATOM     59  N   UNL A   1      43.260  29.521  28.793  1.00  0.00    -0.248 NA
ATOM     60  C   UNL A   1      41.626  30.917  29.702  1.00  0.00     0.031 C 
ATOM     61  C   UNL A   1      47.443  30.766  27.959  1.00  0.00     0.029 A 
ATOM     62  C   UNL A   1      46.137  30.398  28.243  1.00  0.00     0.049 A 
ATOM     63  H   UNL A   1      45.206  28.519  28.006  1.00  0.00     0.167 HD
ATOM     64  C   UNL A   1      43.806  30.780  29.003  1.00  0.00     0.074 A 
ATOM     65  C   UNL A   1      42.744  31.610  29.535  1.00  0.00     0.031 C 
ATOM     66  C   UNL A   1      45.072  31.210  28.777  1.00  0.00     0.037 A 
BRANCH  53  67
ATOM     67  C   UNL A   1      48.882  26.841  26.628  1.00  0.00     0.064 A 
ATOM     68  C   UNL A   1      49.803  26.336  27.560  1.00  0.00     0.173 A 
ATOM     69  C   UNL A   1      49.301  26.954  25.293  1.00  0.00     0.173 A 
ATOM     70  F   UNL A   1      49.458  26.214  28.852  1.00  0.00    -0.203 F 
ATOM     71  C   UNL A   1      51.099  25.998  27.180  1.00  0.00     0.198 A 
ATOM     72  C   UNL A   1      50.588  26.582  24.910  1.00  0.00     0.198 A 
ATOM     73  F   UNL A   1      48.463  27.423  24.358  1.00  0.00    -0.203 F 
ATOM     74  F   UNL A   1      51.977  25.575  28.100  1.00  0.00    -0.200 F 
ATOM     75  C   UNL A   1      51.488  26.115  25.854  1.00  0.00     0.200 A 
ATOM     76  F   UNL A   1      50.957  26.681  23.625  1.00  0.00    -0.200 F 
ATOM     77  F   UNL A   1      52.735  25.785  25.489  1.00  0.00    -0.200 F 
ENDBRANCH  53  67
BRANCH  54  78
ATOM     78  C   UNL A   1      39.570  28.819  29.656  1.00  0.00     0.064 A 
ATOM     79  C   UNL A   1      39.223  28.562  30.989  1.00  0.00     0.173 A 
ATOM     80  C   UNL A   1      38.587  29.367  28.820  1.00  0.00     0.173 A 
ATOM     81  F   UNL A   1      40.124  28.022  31.824  1.00  0.00    -0.203 F 
ATOM     82  C   UNL A   1      37.940  28.829  31.463  1.00  0.00     0.198 A 
ATOM     83  C   UNL A   1      37.313  29.661  29.302  1.00  0.00     0.198 A 
ATOM     84  F   UNL A   1      38.871  29.639  27.537  1.00  0.00    -0.203 F 
ATOM     85  F   UNL A   1      37.623  28.537  32.732  1.00  0.00    -0.200 F 
ATOM     86  C   UNL A   1      36.988  29.385  30.621  1.00  0.00     0.200 A 
ATOM     87  F   UNL A   1      36.402  30.214  28.489  1.00  0.00    -0.200 F 
ATOM     88  F   UNL A   1      35.758  29.651  31.080  1.00  0.00    -0.200 F 
ENDBRANCH  54  78
BRANCH  66  89
ATOM     89  C   UNL A   1      45.374  32.650  29.080  1.00  0.00     0.064 A 
ATOM     90  C   UNL A   1      45.906  33.048  30.315  1.00  0.00     0.173 A 
ATOM     91  C   UNL A   1      45.166  33.639  28.107  1.00  0.00     0.173 A 
ATOM     92  F   UNL A   1      46.110  32.143  31.285  1.00  0.00    -0.203 F 
ATOM     93  C   UNL A   1      46.193  34.386  30.574  1.00  0.00     0.198 A 
ATOM     94  C   UNL A   1      45.485  34.971  28.356  1.00  0.00     0.198 A 
ATOM     95  F   UNL A   1      44.665  33.312  26.906  1.00  0.00    -0.203 F 
ATOM     96  F   UNL A   1      46.653  34.749  31.780  1.00  0.00    -0.200 F 
ATOM     97  C   UNL A   1      45.990  35.344  29.593  1.00  0.00     0.200 A 
ATOM     98  F   UNL A   1      45.303  35.893  27.401  1.00  0.00    -0.200 F 
ATOM     99  F   UNL A   1      46.275  36.630  29.841  1.00  0.00    -0.200 F 
ENDBRANCH  66  89
ENDBRANCH  40  41
ENDBRANCH  32  35
ENDBRANCH  30  31
ENDBRANCH  29  30
ENDBRANCH  28  29
ENDBRANCH  27  28
ENDBRANCH   1  27
TORSDOF 20
ENDMDL
