MODEL 1
REMARK VINA RESULT:     -11.6      0.000      0.000
REMARK SMILES O=C(C[NH+]1CC2(CCCC2)C1)NCCCCCCNC(=O)c1ccc(-c2c3nc(c(-c4c(F)c(F)c(F)c(F)c4F)c4ccc([nH]4)c(-c4c(F)c(F)c(F)c(F)c4F)c4nc(c(-c5c(F)c(F)c(F)c(F)c5F)c5ccc2[nH]5)C=C4)C=C3)cc1
REMARK SMILES IDX 16 1 15 2 14 3 13 4 12 5 1 6 2 7 3 9 4 10 5 11 11 12 6 14
REMARK SMILES IDX 7 15 10 16 8 17 9 18 17 19 18 20 19 21 20 22 21 24 22 25
REMARK SMILES IDX 23 26 84 27 24 28 83 29 25 30 26 31 27 32 77 33 28 34 82 35
REMARK SMILES IDX 76 36 78 37 29 38 81 39 75 40 74 41 30 43 62 44 42 45 61 46
REMARK SMILES IDX 43 47 46 48 60 49 79 50 44 51 45 52 59 54 80 55 47 56 31 57
REMARK SMILES IDX 32 58 40 59 33 60 34 61 38 62 41 63 35 64 36 65 39 66 37 67
REMARK SMILES IDX 63 68 64 69 72 70 65 71 66 72 70 73 73 74 67 75 68 76 71 77
REMARK SMILES IDX 69 78 48 79 49 80 57 81 50 82 51 83 55 84 58 85 52 86 53 87
REMARK SMILES IDX 56 88 54 89
REMARK H PARENT 12 8 4 13 19 23 78 42 46 53
REMARK Flexibility Score: inf
ROOT
ATOM      1  C   UNL A   1      31.812  30.646  26.125  1.00  0.00     0.002 C 
ENDROOT
BRANCH   1   2
ATOM      2  C   UNL A   1      31.969  29.467  27.090  1.00  0.00     0.002 C 
BRANCH   2   3
ATOM      3  C   UNL A   1      32.487  28.171  26.453  1.00  0.00     0.021 C 
BRANCH   3   4
ATOM      4  C   UNL A   1      31.657  26.934  26.797  1.00  0.00     0.116 C 
BRANCH   4   5
ATOM      5  N   UNL A   1      31.910  25.870  25.858  1.00  0.00    -0.351 N 
ATOM      6  O   UNL A   1      31.083  24.183  27.176  1.00  0.00    -0.269 OA
ATOM      7  C   UNL A   1      31.656  24.552  26.154  1.00  0.00     0.275 C 
ATOM      8  H   UNL A   1      32.279  26.095  24.974  1.00  0.00     0.163 HD
BRANCH   7   9
ATOM      9  C   UNL A   1      32.212  23.569  25.131  1.00  0.00     0.363 C 
BRANCH   9  10
ATOM     10  N   UNL A   1      32.871  22.411  25.772  1.00  0.00    -0.326 N 
ATOM     11  C   UNL A   1      34.189  22.761  26.346  1.00  0.00     0.275 C 
ATOM     12  C   UNL A   1      33.554  21.582  24.745  1.00  0.00     0.275 C 
ATOM     13  H   UNL A   1      32.137  22.034  26.372  1.00  0.00     0.348 HD
ATOM     14  C   UNL A   1      34.895  22.321  25.038  1.00  0.00     0.068 C 
ATOM     15  C   UNL A   1      36.142  21.443  25.230  1.00  0.00     0.019 C 
ATOM     16  C   UNL A   1      35.288  23.426  24.044  1.00  0.00     0.019 C 
ATOM     17  C   UNL A   1      37.243  22.144  24.435  1.00  0.00     0.001 C 
ATOM     18  C   UNL A   1      36.497  22.851  23.322  1.00  0.00     0.001 C 
ENDBRANCH   9  10
ENDBRANCH   7   9
ENDBRANCH   4   5
ENDBRANCH   3   4
ENDBRANCH   2   3
ENDBRANCH   1   2
BRANCH   1  19
ATOM     19  C   UNL A   1      31.501  31.986  26.792  1.00  0.00     0.021 C 
BRANCH  19  20
ATOM     20  C   UNL A   1      32.726  32.744  27.287  1.00  0.00     0.116 C 
BRANCH  20  21
ATOM     21  N   UNL A   1      32.429  34.135  27.589  1.00  0.00    -0.352 N 
ATOM     22  C   UNL A   1      32.976  34.952  28.550  1.00  0.00     0.251 C 
ATOM     23  H   UNL A   1      31.739  34.551  27.025  1.00  0.00     0.163 HD
ATOM     24  O   UNL A   1      32.484  36.046  28.790  1.00  0.00    -0.269 OA
BRANCH  22  25
ATOM     25  C   UNL A   1      34.150  34.484  29.317  1.00  0.00     0.039 A 
ATOM     26  C   UNL A   1      33.945  33.864  30.551  1.00  0.00     0.014 A 
ATOM     27  C   UNL A   1      35.443  34.639  28.811  1.00  0.00     0.014 A 
ATOM     28  C   UNL A   1      35.035  33.331  31.244  1.00  0.00     0.010 A 
ATOM     29  C   UNL A   1      36.515  34.040  29.463  1.00  0.00     0.010 A 
ATOM     30  C   UNL A   1      36.322  33.376  30.684  1.00  0.00    -0.014 A 
BRANCH  30  31
ATOM     31  C   UNL A   1      37.474  32.714  31.348  1.00  0.00     0.031 A 
ATOM     32  C   UNL A   1      38.150  31.539  30.701  1.00  0.00     0.074 A 
ATOM     33  C   UNL A   1      37.860  33.126  32.570  1.00  0.00     0.049 A 
ATOM     34  N   UNL A   1      39.116  30.784  31.159  1.00  0.00    -0.248 NA
ATOM     35  C   UNL A   1      37.654  31.141  29.375  1.00  0.00     0.031 C 
ATOM     36  C   UNL A   1      37.249  34.222  33.325  1.00  0.00     0.029 A 
ATOM     37  N   UNL A   1      38.849  32.662  33.402  1.00  0.00    -0.354 N 
ATOM     38  C   UNL A   1      39.337  29.820  30.184  1.00  0.00     0.074 A 
ATOM     39  C   UNL A   1      38.364  30.049  29.138  1.00  0.00     0.031 C 
ATOM     40  C   UNL A   1      37.882  34.353  34.500  1.00  0.00     0.029 A 
ATOM     41  C   UNL A   1      38.913  33.325  34.603  1.00  0.00     0.049 A 
ATOM     42  H   UNL A   1      39.453  31.923  33.161  1.00  0.00     0.167 HD
ATOM     43  C   UNL A   1      40.281  28.849  30.155  1.00  0.00     0.037 A 
ATOM     44  C   UNL A   1      39.702  33.117  35.675  1.00  0.00     0.037 A 
ATOM     45  C   UNL A   1      41.251  28.632  31.198  1.00  0.00     0.049 A 
ATOM     46  C   UNL A   1      40.728  32.018  35.629  1.00  0.00     0.074 A 
ATOM     47  C   UNL A   1      42.286  27.715  31.235  1.00  0.00     0.029 A 
ATOM     48  N   UNL A   1      41.296  29.335  32.394  1.00  0.00    -0.354 N 
ATOM     49  N   UNL A   1      40.983  31.164  34.668  1.00  0.00    -0.248 NA
ATOM     50  C   UNL A   1      41.581  31.858  36.814  1.00  0.00     0.031 C 
ATOM     51  C   UNL A   1      42.918  27.820  32.479  1.00  0.00     0.029 A 
ATOM     52  C   UNL A   1      42.320  28.847  33.191  1.00  0.00     0.049 A 
ATOM     53  H   UNL A   1      40.689  30.071  32.639  1.00  0.00     0.167 HD
ATOM     54  C   UNL A   1      42.035  30.381  35.120  1.00  0.00     0.074 A 
ATOM     55  C   UNL A   1      42.385  30.875  36.437  1.00  0.00     0.031 C 
ATOM     56  C   UNL A   1      42.656  29.346  34.502  1.00  0.00     0.037 A 
BRANCH  43  57
ATOM     57  C   UNL A   1      40.302  27.941  28.957  1.00  0.00     0.064 A 
ATOM     58  C   UNL A   1      41.039  28.256  27.804  1.00  0.00     0.173 A 
ATOM     59  C   UNL A   1      39.594  26.729  28.970  1.00  0.00     0.173 A 
ATOM     60  F   UNL A   1      41.728  29.405  27.735  1.00  0.00    -0.203 F 
ATOM     61  C   UNL A   1      41.032  27.413  26.695  1.00  0.00     0.198 A 
ATOM     62  C   UNL A   1      39.618  25.872  27.872  1.00  0.00     0.198 A 
ATOM     63  F   UNL A   1      38.879  26.373  30.047  1.00  0.00    -0.203 F 
ATOM     64  F   UNL A   1      41.693  27.767  25.584  1.00  0.00    -0.200 F 
ATOM     65  C   UNL A   1      40.328  26.220  26.732  1.00  0.00     0.200 A 
ATOM     66  F   UNL A   1      38.950  24.711  27.916  1.00  0.00    -0.200 F 
ATOM     67  F   UNL A   1      40.325  25.408  25.666  1.00  0.00    -0.200 F 
ENDBRANCH  43  57
BRANCH  44  68
ATOM     68  C   UNL A   1      39.549  33.976  36.879  1.00  0.00     0.064 A 
ATOM     69  C   UNL A   1      40.136  35.248  36.942  1.00  0.00     0.173 A 
ATOM     70  C   UNL A   1      38.805  33.546  37.989  1.00  0.00     0.173 A 
ATOM     71  F   UNL A   1      40.873  35.696  35.916  1.00  0.00    -0.203 F 
ATOM     72  C   UNL A   1      39.999  36.049  38.073  1.00  0.00     0.198 A 
ATOM     73  C   UNL A   1      38.642  34.361  39.107  1.00  0.00     0.198 A 
ATOM     74  F   UNL A   1      38.217  32.341  37.978  1.00  0.00    -0.203 F 
ATOM     75  F   UNL A   1      40.606  37.242  38.124  1.00  0.00    -0.200 F 
ATOM     76  C   UNL A   1      39.246  35.608  39.152  1.00  0.00     0.200 A 
ATOM     77  F   UNL A   1      37.899  33.938  40.139  1.00  0.00    -0.200 F 
ATOM     78  F   UNL A   1      39.106  36.384  40.236  1.00  0.00    -0.200 F 
ENDBRANCH  44  68
BRANCH  56  79
ATOM     79  C   UNL A   1      43.795  28.689  35.229  1.00  0.00     0.064 A 
ATOM     80  C   UNL A   1      43.588  27.618  36.111  1.00  0.00     0.173 A 
ATOM     81  C   UNL A   1      45.115  29.108  35.004  1.00  0.00     0.173 A 
ATOM     82  F   UNL A   1      42.344  27.190  36.373  1.00  0.00    -0.203 F 
ATOM     83  C   UNL A   1      44.658  27.007  36.759  1.00  0.00     0.198 A 
ATOM     84  C   UNL A   1      46.186  28.472  35.628  1.00  0.00     0.198 A 
ATOM     85  F   UNL A   1      45.370  30.124  34.165  1.00  0.00    -0.203 F 
ATOM     86  F   UNL A   1      44.433  26.018  37.634  1.00  0.00    -0.200 F 
ATOM     87  C   UNL A   1      45.956  27.429  36.510  1.00  0.00     0.200 A 
ATOM     88  F   UNL A   1      47.441  28.871  35.373  1.00  0.00    -0.200 F 
ATOM     89  F   UNL A   1      46.986  26.831  37.125  1.00  0.00    -0.200 F 
ENDBRANCH  56  79
ENDBRANCH  30  31
ENDBRANCH  22  25
ENDBRANCH  20  21
ENDBRANCH  19  20
ENDBRANCH   1  19
TORSDOF 14
ENDMDL
MODEL 2
REMARK VINA RESULT:     -11.6      6.032     11.369
REMARK SMILES O=C(C[NH+]1CC2(CCCC2)C1)NCCCCCCNC(=O)c1ccc(-c2c3nc(c(-c4c(F)c(F)c(F)c(F)c4F)c4ccc([nH]4)c(-c4c(F)c(F)c(F)c(F)c4F)c4nc(c(-c5c(F)c(F)c(F)c(F)c5F)c5ccc2[nH]5)C=C4)C=C3)cc1
REMARK SMILES IDX 16 1 15 2 14 3 13 4 12 5 1 6 2 7 3 9 4 10 5 11 11 12 6 14
REMARK SMILES IDX 7 15 10 16 8 17 9 18 17 19 18 20 19 21 20 22 21 24 22 25
REMARK SMILES IDX 23 26 84 27 24 28 83 29 25 30 26 31 27 32 77 33 28 34 82 35
REMARK SMILES IDX 76 36 78 37 29 38 81 39 75 40 74 41 30 43 62 44 42 45 61 46
REMARK SMILES IDX 43 47 46 48 60 49 79 50 44 51 45 52 59 54 80 55 47 56 31 57
REMARK SMILES IDX 32 58 40 59 33 60 34 61 38 62 41 63 35 64 36 65 39 66 37 67
REMARK SMILES IDX 63 68 64 69 72 70 65 71 66 72 70 73 73 74 67 75 68 76 71 77
REMARK SMILES IDX 69 78 48 79 49 80 57 81 50 82 51 83 55 84 58 85 52 86 53 87
REMARK SMILES IDX 56 88 54 89
REMARK H PARENT 12 8 4 13 19 23 78 42 46 53
REMARK Flexibility Score: inf
ROOT
ATOM      1  C   UNL A   1      37.139  21.109  24.759  1.00  0.00     0.002 C 
ENDROOT
BRANCH   1   2
ATOM      2  C   UNL A   1      37.501  22.398  25.505  1.00  0.00     0.002 C 
BRANCH   2   3
ATOM      3  C   UNL A   1      36.579  23.592  25.224  1.00  0.00     0.021 C 
BRANCH   3   4
ATOM      4  C   UNL A   1      35.391  23.699  26.181  1.00  0.00     0.116 C 
BRANCH   4   5
ATOM      5  N   UNL A   1      34.276  22.920  25.702  1.00  0.00    -0.351 N 
ATOM      6  O   UNL A   1      34.211  21.473  27.482  1.00  0.00    -0.269 OA
ATOM      7  C   UNL A   1      33.810  21.815  26.372  1.00  0.00     0.275 C 
ATOM      8  H   UNL A   1      33.834  23.190  24.865  1.00  0.00     0.163 HD
BRANCH   7   9
ATOM      9  C   UNL A   1      32.790  20.998  25.586  1.00  0.00     0.363 C 
BRANCH   9  10
ATOM     10  N   UNL A   1      33.350  20.480  24.319  1.00  0.00    -0.326 N 
ATOM     11  C   UNL A   1      32.484  19.452  23.701  1.00  0.00     0.275 C 
ATOM     12  C   UNL A   1      34.366  19.434  24.604  1.00  0.00     0.275 C 
ATOM     13  H   UNL A   1      33.578  21.331  23.806  1.00  0.00     0.348 HD
ATOM     14  C   UNL A   1      33.284  18.328  24.407  1.00  0.00     0.068 C 
ATOM     15  C   UNL A   1      33.666  17.137  23.515  1.00  0.00     0.019 C 
ATOM     16  C   UNL A   1      32.683  17.736  25.692  1.00  0.00     0.019 C 
ATOM     17  C   UNL A   1      33.160  15.905  24.266  1.00  0.00     0.001 C 
ATOM     18  C   UNL A   1      33.221  16.314  25.722  1.00  0.00     0.001 C 
ENDBRANCH   9  10
ENDBRANCH   7   9
ENDBRANCH   4   5
ENDBRANCH   3   4
ENDBRANCH   2   3
ENDBRANCH   1   2
BRANCH   1  19
ATOM     19  C   UNL A   1      38.176  19.991  24.868  1.00  0.00     0.021 C 
BRANCH  19  20
ATOM     20  C   UNL A   1      39.285  20.255  25.879  1.00  0.00     0.116 C 
BRANCH  20  21
ATOM     21  N   UNL A   1      40.250  19.169  25.935  1.00  0.00    -0.352 N 
ATOM     22  C   UNL A   1      41.615  19.225  26.093  1.00  0.00     0.251 C 
ATOM     23  H   UNL A   1      39.873  18.264  25.847  1.00  0.00     0.163 HD
ATOM     24  O   UNL A   1      42.301  18.226  25.937  1.00  0.00    -0.269 OA
BRANCH  22  25
ATOM     25  C   UNL A   1      42.253  20.517  26.427  1.00  0.00     0.039 A 
ATOM     26  C   UNL A   1      42.786  21.291  25.394  1.00  0.00     0.014 A 
ATOM     27  C   UNL A   1      42.306  20.969  27.748  1.00  0.00     0.014 A 
ATOM     28  C   UNL A   1      43.307  22.555  25.679  1.00  0.00     0.010 A 
ATOM     29  C   UNL A   1      42.753  22.258  28.018  1.00  0.00     0.010 A 
ATOM     30  C   UNL A   1      43.254  23.066  26.985  1.00  0.00    -0.014 A 
BRANCH  30  31
ATOM     31  C   UNL A   1      43.694  24.452  27.289  1.00  0.00     0.031 A 
ATOM     32  C   UNL A   1      42.707  25.473  27.778  1.00  0.00     0.074 A 
ATOM     33  C   UNL A   1      44.971  24.808  27.050  1.00  0.00     0.049 A 
ATOM     34  N   UNL A   1      42.884  26.747  28.021  1.00  0.00    -0.248 NA
ATOM     35  C   UNL A   1      41.329  25.006  27.994  1.00  0.00     0.031 C 
ATOM     36  C   UNL A   1      46.011  23.922  26.526  1.00  0.00     0.029 A 
ATOM     37  N   UNL A   1      45.608  26.015  27.201  1.00  0.00    -0.354 N 
ATOM     38  C   UNL A   1      41.643  27.233  28.409  1.00  0.00     0.074 A 
ATOM     39  C   UNL A   1      40.709  26.133  28.311  1.00  0.00     0.031 C 
ATOM     40  C   UNL A   1      47.157  24.609  26.410  1.00  0.00     0.029 A 
ATOM     41  C   UNL A   1      46.924  25.994  26.809  1.00  0.00     0.049 A 
ATOM     42  H   UNL A   1      45.164  26.819  27.555  1.00  0.00     0.167 HD
ATOM     43  C   UNL A   1      41.318  28.479  28.832  1.00  0.00     0.037 A 
ATOM     44  C   UNL A   1      47.837  26.983  26.758  1.00  0.00     0.037 A 
ATOM     45  C   UNL A   1      42.255  29.568  28.933  1.00  0.00     0.049 A 
ATOM     46  C   UNL A   1      47.448  28.364  27.211  1.00  0.00     0.074 A 
ATOM     47  C   UNL A   1      42.039  30.850  29.407  1.00  0.00     0.029 A 
ATOM     48  N   UNL A   1      43.586  29.506  28.542  1.00  0.00    -0.354 N 
ATOM     49  N   UNL A   1      46.291  28.794  27.654  1.00  0.00    -0.248 NA
ATOM     50  C   UNL A   1      48.492  29.396  27.164  1.00  0.00     0.031 C 
ATOM     51  C   UNL A   1      43.222  31.581  29.245  1.00  0.00     0.029 A 
ATOM     52  C   UNL A   1      44.193  30.737  28.731  1.00  0.00     0.049 A 
ATOM     53  H   UNL A   1      44.031  28.704  28.183  1.00  0.00     0.167 HD
ATOM     54  C   UNL A   1      46.473  30.137  27.957  1.00  0.00     0.074 A 
ATOM     55  C   UNL A   1      47.858  30.445  27.666  1.00  0.00     0.031 C 
ATOM     56  C   UNL A   1      45.573  31.033  28.433  1.00  0.00     0.037 A 
BRANCH  43  57
ATOM     57  C   UNL A   1      39.885  28.730  29.207  1.00  0.00     0.064 A 
ATOM     58  C   UNL A   1      39.413  28.511  30.511  1.00  0.00     0.173 A 
ATOM     59  C   UNL A   1      38.974  29.216  28.256  1.00  0.00     0.173 A 
ATOM     60  F   UNL A   1      40.238  28.040  31.458  1.00  0.00    -0.203 F 
ATOM     61  C   UNL A   1      38.077  28.730  30.838  1.00  0.00     0.198 A 
ATOM     62  C   UNL A   1      37.647  29.468  28.596  1.00  0.00     0.198 A 
ATOM     63  F   UNL A   1      39.370  29.451  26.996  1.00  0.00    -0.203 F 
ATOM     64  F   UNL A   1      37.638  28.454  32.074  1.00  0.00    -0.200 F 
ATOM     65  C   UNL A   1      37.197  29.214  29.883  1.00  0.00     0.200 A 
ATOM     66  F   UNL A   1      36.802  29.951  27.675  1.00  0.00    -0.200 F 
ATOM     67  F   UNL A   1      35.913  29.428  30.199  1.00  0.00    -0.200 F 
ENDBRANCH  43  57
BRANCH  44  68
ATOM     68  C   UNL A   1      49.208  26.696  26.262  1.00  0.00     0.064 A 
ATOM     69  C   UNL A   1      50.195  26.180  27.115  1.00  0.00     0.173 A 
ATOM     70  C   UNL A   1      49.559  26.921  24.922  1.00  0.00     0.173 A 
ATOM     71  F   UNL A   1      49.915  25.966  28.409  1.00  0.00    -0.203 F 
ATOM     72  C   UNL A   1      51.482  25.917  26.651  1.00  0.00     0.198 A 
ATOM     73  C   UNL A   1      50.837  26.629  24.452  1.00  0.00     0.198 A 
ATOM     74  F   UNL A   1      48.651  27.408  24.063  1.00  0.00    -0.203 F 
ATOM     75  F   UNL A   1      52.417  25.466  27.497  1.00  0.00    -0.200 F 
ATOM     76  C   UNL A   1      51.800  26.135  25.318  1.00  0.00     0.200 A 
ATOM     77  F   UNL A   1      51.134  26.823  23.160  1.00  0.00    -0.200 F 
ATOM     78  F   UNL A   1      53.036  25.872  24.871  1.00  0.00    -0.200 F 
ENDBRANCH  44  68
BRANCH  56  79
ATOM     79  C   UNL A   1      46.061  32.430  28.695  1.00  0.00     0.064 A 
ATOM     80  C   UNL A   1      46.611  32.799  29.931  1.00  0.00     0.173 A 
ATOM     81  C   UNL A   1      46.018  33.397  27.680  1.00  0.00     0.173 A 
ATOM     82  F   UNL A   1      46.660  31.917  30.940  1.00  0.00    -0.203 F 
ATOM     83  C   UNL A   1      47.078  34.093  30.148  1.00  0.00     0.198 A 
ATOM     84  C   UNL A   1      46.517  34.681  27.890  1.00  0.00     0.198 A 
ATOM     85  F   UNL A   1      45.508  33.095  26.476  1.00  0.00    -0.203 F 
ATOM     86  F   UNL A   1      47.555  34.438  31.352  1.00  0.00    -0.200 F 
ATOM     87  C   UNL A   1      47.039  35.029  29.125  1.00  0.00     0.200 A 
ATOM     88  F   UNL A   1      46.494  35.578  26.895  1.00  0.00    -0.200 F 
ATOM     89  F   UNL A   1      47.500  36.270  29.332  1.00  0.00    -0.200 F 
ENDBRANCH  56  79
ENDBRANCH  30  31
ENDBRANCH  22  25
ENDBRANCH  20  21
ENDBRANCH  19  20
ENDBRANCH   1  19
TORSDOF 14
ENDMDL
MODEL 3
REMARK VINA RESULT:     -11.5      1.942      3.774
REMARK SMILES O=C(C[NH+]1CC2(CCCC2)C1)NCCCCCCNC(=O)c1ccc(-c2c3nc(c(-c4c(F)c(F)c(F)c(F)c4F)c4ccc([nH]4)c(-c4c(F)c(F)c(F)c(F)c4F)c4nc(c(-c5c(F)c(F)c(F)c(F)c5F)c5ccc2[nH]5)C=C4)C=C3)cc1
REMARK SMILES IDX 16 1 15 2 14 3 13 4 12 5 1 6 2 7 3 9 4 10 5 11 11 12 6 14
REMARK SMILES IDX 7 15 10 16 8 17 9 18 17 19 18 20 19 21 20 22 21 24 22 25
REMARK SMILES IDX 23 26 84 27 24 28 83 29 25 30 26 31 27 32 77 33 28 34 82 35
REMARK SMILES IDX 76 36 78 37 29 38 81 39 75 40 74 41 30 43 62 44 42 45 61 46
REMARK SMILES IDX 43 47 46 48 60 49 79 50 44 51 45 52 59 54 80 55 47 56 31 57
REMARK SMILES IDX 32 58 40 59 33 60 34 61 38 62 41 63 35 64 36 65 39 66 37 67
REMARK SMILES IDX 63 68 64 69 72 70 65 71 66 72 70 73 73 74 67 75 68 76 71 77
REMARK SMILES IDX 69 78 48 79 49 80 57 81 50 82 51 83 55 84 58 85 52 86 53 87
REMARK SMILES IDX 56 88 54 89
REMARK H PARENT 12 8 4 13 19 23 78 42 46 53
REMARK Flexibility Score: inf
ROOT
ATOM      1  C   UNL A   1      31.878  30.663  26.310  1.00  0.00     0.002 C 
ENDROOT
BRANCH   1   2
ATOM      2  C   UNL A   1      32.658  29.746  27.258  1.00  0.00     0.002 C 
BRANCH   2   3
ATOM      3  C   UNL A   1      33.763  28.914  26.594  1.00  0.00     0.021 C 
BRANCH   3   4
ATOM      4  C   UNL A   1      33.283  27.572  26.040  1.00  0.00     0.116 C 
BRANCH   4   5
ATOM      5  N   UNL A   1      31.902  27.651  25.632  1.00  0.00    -0.351 N 
ATOM      6  O   UNL A   1      32.247  26.940  23.478  1.00  0.00    -0.269 OA
ATOM      7  C   UNL A   1      31.500  27.384  24.346  1.00  0.00     0.275 C 
ATOM      8  H   UNL A   1      31.224  27.905  26.299  1.00  0.00     0.163 HD
BRANCH   7   9
ATOM      9  C   UNL A   1      30.048  27.754  24.062  1.00  0.00     0.363 C 
BRANCH   9  10
ATOM     10  N   UNL A   1      29.812  28.018  22.626  1.00  0.00    -0.326 N 
ATOM     11  C   UNL A   1      30.448  29.276  22.174  1.00  0.00     0.275 C 
ATOM     12  C   UNL A   1      28.477  28.642  22.439  1.00  0.00     0.275 C 
ATOM     13  H   UNL A   1      30.063  27.133  22.187  1.00  0.00     0.348 HD
ATOM     14  C   UNL A   1      29.135  30.056  22.439  1.00  0.00     0.068 C 
ATOM     15  C   UNL A   1      28.708  31.019  21.321  1.00  0.00     0.019 C 
ATOM     16  C   UNL A   1      29.038  30.844  23.755  1.00  0.00     0.019 C 
ATOM     17  C   UNL A   1      28.498  32.363  22.018  1.00  0.00     0.001 C 
ATOM     18  C   UNL A   1      28.087  31.984  23.426  1.00  0.00     0.001 C 
ENDBRANCH   9  10
ENDBRANCH   7   9
ENDBRANCH   4   5
ENDBRANCH   3   4
ENDBRANCH   2   3
ENDBRANCH   1   2
BRANCH   1  19
ATOM     19  C   UNL A   1      31.567  32.051  26.869  1.00  0.00     0.021 C 
BRANCH  19  20
ATOM     20  C   UNL A   1      32.793  32.848  27.297  1.00  0.00     0.116 C 
BRANCH  20  21
ATOM     21  N   UNL A   1      32.465  34.222  27.642  1.00  0.00    -0.352 N 
ATOM     22  C   UNL A   1      32.989  35.019  28.633  1.00  0.00     0.251 C 
ATOM     23  H   UNL A   1      31.769  34.642  27.088  1.00  0.00     0.163 HD
ATOM     24  O   UNL A   1      32.473  36.093  28.905  1.00  0.00    -0.269 OA
BRANCH  22  25
ATOM     25  C   UNL A   1      34.170  34.551  29.391  1.00  0.00     0.039 A 
ATOM     26  C   UNL A   1      33.980  34.005  30.662  1.00  0.00     0.014 A 
ATOM     27  C   UNL A   1      35.451  34.633  28.841  1.00  0.00     0.014 A 
ATOM     28  C   UNL A   1      35.071  33.471  31.352  1.00  0.00     0.010 A 
ATOM     29  C   UNL A   1      36.522  34.032  29.495  1.00  0.00     0.010 A 
ATOM     30  C   UNL A   1      36.342  33.441  30.755  1.00  0.00    -0.014 A 
BRANCH  30  31
ATOM     31  C   UNL A   1      37.490  32.775  31.422  1.00  0.00     0.031 A 
ATOM     32  C   UNL A   1      38.166  31.600  30.775  1.00  0.00     0.074 A 
ATOM     33  C   UNL A   1      37.873  33.183  32.647  1.00  0.00     0.049 A 
ATOM     34  N   UNL A   1      39.129  30.842  31.234  1.00  0.00    -0.248 NA
ATOM     35  C   UNL A   1      37.675  31.207  29.446  1.00  0.00     0.031 C 
ATOM     36  C   UNL A   1      37.261  34.278  33.401  1.00  0.00     0.029 A 
ATOM     37  N   UNL A   1      38.857  32.715  33.481  1.00  0.00    -0.354 N 
ATOM     38  C   UNL A   1      39.351  29.880  30.258  1.00  0.00     0.074 A 
ATOM     39  C   UNL A   1      38.383  30.113  29.209  1.00  0.00     0.031 C 
ATOM     40  C   UNL A   1      37.889  34.405  34.580  1.00  0.00     0.029 A 
ATOM     41  C   UNL A   1      38.918  33.375  34.684  1.00  0.00     0.049 A 
ATOM     42  H   UNL A   1      39.461  31.975  33.241  1.00  0.00     0.167 HD
ATOM     43  C   UNL A   1      40.294  28.907  30.229  1.00  0.00     0.037 A 
ATOM     44  C   UNL A   1      39.702  33.163  35.758  1.00  0.00     0.037 A 
ATOM     45  C   UNL A   1      41.259  28.686  31.276  1.00  0.00     0.049 A 
ATOM     46  C   UNL A   1      40.726  32.061  35.714  1.00  0.00     0.074 A 
ATOM     47  C   UNL A   1      42.292  27.766  31.314  1.00  0.00     0.029 A 
ATOM     48  N   UNL A   1      41.301  29.385  32.474  1.00  0.00    -0.354 N 
ATOM     49  N   UNL A   1      40.983  31.209  34.751  1.00  0.00    -0.248 NA
ATOM     50  C   UNL A   1      41.575  31.896  36.901  1.00  0.00     0.031 C 
ATOM     51  C   UNL A   1      42.920  27.867  32.561  1.00  0.00     0.029 A 
ATOM     52  C   UNL A   1      42.321  28.893  33.274  1.00  0.00     0.049 A 
ATOM     53  H   UNL A   1      40.695  30.122  32.719  1.00  0.00     0.167 HD
ATOM     54  C   UNL A   1      42.032  30.423  35.205  1.00  0.00     0.074 A 
ATOM     55  C   UNL A   1      42.378  30.913  36.524  1.00  0.00     0.031 C 
ATOM     56  C   UNL A   1      42.653  29.388  34.587  1.00  0.00     0.037 A 
BRANCH  43  57
ATOM     57  C   UNL A   1      40.318  28.002  29.030  1.00  0.00     0.064 A 
ATOM     58  C   UNL A   1      39.597  26.797  29.000  1.00  0.00     0.173 A 
ATOM     59  C   UNL A   1      41.053  28.352  27.887  1.00  0.00     0.173 A 
ATOM     60  F   UNL A   1      38.883  26.409  30.067  1.00  0.00    -0.203 F 
ATOM     61  C   UNL A   1      39.645  25.959  27.888  1.00  0.00     0.198 A 
ATOM     62  C   UNL A   1      41.070  27.529  26.764  1.00  0.00     0.198 A 
ATOM     63  F   UNL A   1      41.755  29.495  27.856  1.00  0.00    -0.203 F 
ATOM     64  F   UNL A   1      38.999  24.786  27.908  1.00  0.00    -0.200 F 
ATOM     65  C   UNL A   1      40.375  26.328  26.769  1.00  0.00     0.200 A 
ATOM     66  F   UNL A   1      41.764  27.895  25.677  1.00  0.00    -0.200 F 
ATOM     67  F   UNL A   1      40.418  25.523  25.699  1.00  0.00    -0.200 F 
ENDBRANCH  43  57
BRANCH  44  68
ATOM     68  C   UNL A   1      39.547  34.018  36.964  1.00  0.00     0.064 A 
ATOM     69  C   UNL A   1      40.160  35.277  37.044  1.00  0.00     0.173 A 
ATOM     70  C   UNL A   1      38.774  33.600  38.058  1.00  0.00     0.173 A 
ATOM     71  F   UNL A   1      40.924  35.714  36.033  1.00  0.00    -0.203 F 
ATOM     72  C   UNL A   1      40.020  36.075  38.177  1.00  0.00     0.198 A 
ATOM     73  C   UNL A   1      38.609  34.412  39.178  1.00  0.00     0.198 A 
ATOM     74  F   UNL A   1      38.161  32.407  38.030  1.00  0.00    -0.203 F 
ATOM     75  F   UNL A   1      40.651  37.255  38.245  1.00  0.00    -0.200 F 
ATOM     76  C   UNL A   1      39.239  35.646  39.240  1.00  0.00     0.200 A 
ATOM     77  F   UNL A   1      37.839  34.001  40.194  1.00  0.00    -0.200 F 
ATOM     78  F   UNL A   1      39.096  36.419  40.325  1.00  0.00    -0.200 F 
ENDBRANCH  44  68
BRANCH  56  79
ATOM     79  C   UNL A   1      43.788  28.727  35.316  1.00  0.00     0.064 A 
ATOM     80  C   UNL A   1      45.113  29.162  35.167  1.00  0.00     0.173 A 
ATOM     81  C   UNL A   1      43.540  27.675  36.211  1.00  0.00     0.173 A 
ATOM     82  F   UNL A   1      45.406  30.153  34.312  1.00  0.00    -0.203 F 
ATOM     83  C   UNL A   1      46.150  28.552  35.867  1.00  0.00     0.198 A 
ATOM     84  C   UNL A   1      44.576  27.089  36.935  1.00  0.00     0.198 A 
ATOM     85  F   UNL A   1      42.290  27.224  36.396  1.00  0.00    -0.203 F 
ATOM     86  F   UNL A   1      47.415  28.952  35.672  1.00  0.00    -0.200 F 
ATOM     87  C   UNL A   1      45.880  27.523  36.757  1.00  0.00     0.200 A 
ATOM     88  F   UNL A   1      44.309  26.106  37.807  1.00  0.00    -0.200 F 
ATOM     89  F   UNL A   1      46.878  26.945  37.440  1.00  0.00    -0.200 F 
ENDBRANCH  56  79
ENDBRANCH  30  31
ENDBRANCH  22  25
ENDBRANCH  20  21
ENDBRANCH  19  20
ENDBRANCH   1  19
TORSDOF 14
ENDMDL
