MODEL 1
REMARK VINA RESULT:     -12.0      0.000      0.000
REMARK SMILES C[C@@H](c1ccccc1)[C@@H]1[NH2+][C@@H](C(=O)NCCCCCCNC(=O)c2ccc(-c3c4nc(c(-c5c(F)c(F)c(F)c(F)c5F)c5ccc([nH]5)c(-c5c(F)c(F)c(F)c(F)c5F)c5nc(c(-c6c(F)c(F)c(F)c(F)c6F)c6ccc3[nH]6)C=C5)C=C4)cc2)CS1
REMARK SMILES IDX 17 1 16 2 15 3 14 4 12 5 13 6 11 8 9 9 10 10 88 11 87 14
REMARK SMILES IDX 2 15 1 16 3 17 4 18 8 19 5 20 7 21 6 22 18 23 19 24 20 25
REMARK SMILES IDX 21 26 22 27 23 29 24 30 25 31 86 32 26 33 85 34 27 35 28 36
REMARK SMILES IDX 29 37 79 38 30 39 84 40 78 41 80 42 31 43 83 44 77 45 76 46
REMARK SMILES IDX 32 48 64 49 44 50 63 51 45 52 48 53 62 54 81 55 46 56 47 57
REMARK SMILES IDX 61 59 82 60 49 61 33 62 34 63 42 64 35 65 36 66 40 67 43 68
REMARK SMILES IDX 37 69 38 70 41 71 39 72 65 73 66 74 74 75 67 76 68 77 72 78
REMARK SMILES IDX 75 79 69 80 70 81 73 82 71 83 50 84 51 85 59 86 52 87 53 88
REMARK SMILES IDX 57 89 60 90 54 91 55 92 58 93 56 94
REMARK H PARENT 14 7 10 12 10 13 21 28 80 47 48 58
REMARK Flexibility Score: inf
ROOT
ATOM      1  C   UNL A   1      32.204  29.899  27.266  1.00  0.00     0.002 C 
ENDROOT
BRANCH   1   2
ATOM      2  C   UNL A   1      32.723  28.543  26.775  1.00  0.00     0.021 C 
BRANCH   2   3
ATOM      3  C   UNL A   1      34.104  28.607  26.128  1.00  0.00     0.116 C 
BRANCH   3   4
ATOM      4  N   UNL A   1      34.023  29.116  24.769  1.00  0.00    -0.351 N 
ATOM      5  C   UNL A   1      33.718  28.454  23.613  1.00  0.00     0.279 C 
ATOM      6  O   UNL A   1      33.747  29.074  22.548  1.00  0.00    -0.268 OA
ATOM      7  H   UNL A   1      34.217  30.075  24.666  1.00  0.00     0.163 HD
BRANCH   5   8
ATOM      8  C   UNL A   1      33.278  26.991  23.700  1.00  0.00     0.283 C 
ATOM      9  C   UNL A   1      33.171  24.959  22.482  1.00  0.00     0.249 C 
ATOM     10  N   UNL A   1      33.981  26.167  22.689  1.00  0.00    -0.324 N 
ATOM     11  S   UNL A   1      31.465  25.575  22.348  1.00  0.00    -0.092 SA
ATOM     12  H   UNL A   1      34.067  26.685  21.815  1.00  0.00     0.347 HD
ATOM     13  H   UNL A   1      34.919  25.926  23.006  1.00  0.00     0.347 HD
ATOM     14  C   UNL A   1      31.761  26.933  23.509  1.00  0.00     0.151 C 
BRANCH   9  15
ATOM     15  C   UNL A   1      33.389  23.782  23.512  1.00  0.00     0.085 C 
ATOM     16  C   UNL A   1      32.781  22.463  23.010  1.00  0.00     0.020 C 
BRANCH  15  17
ATOM     17  C   UNL A   1      34.798  23.594  24.081  1.00  0.00    -0.038 A 
ATOM     18  C   UNL A   1      35.200  24.095  25.327  1.00  0.00     0.004 A 
ATOM     19  C   UNL A   1      35.731  22.842  23.343  1.00  0.00     0.004 A 
ATOM     20  C   UNL A   1      36.454  23.776  25.860  1.00  0.00     0.000 A 
ATOM     21  C   UNL A   1      36.994  22.548  23.861  1.00  0.00     0.000 A 
ATOM     22  C   UNL A   1      37.346  22.996  25.130  1.00  0.00     0.000 A 
ENDBRANCH  15  17
ENDBRANCH   9  15
ENDBRANCH   5   8
ENDBRANCH   3   4
ENDBRANCH   2   3
ENDBRANCH   1   2
BRANCH   1  23
ATOM     23  C   UNL A   1      31.563  30.770  26.182  1.00  0.00     0.002 C 
BRANCH  23  24
ATOM     24  C   UNL A   1      31.385  32.241  26.564  1.00  0.00     0.021 C 
BRANCH  24  25
ATOM     25  C   UNL A   1      32.556  32.837  27.338  1.00  0.00     0.116 C 
BRANCH  25  26
ATOM     26  N   UNL A   1      32.347  34.242  27.655  1.00  0.00    -0.352 N 
ATOM     27  C   UNL A   1      32.952  35.019  28.610  1.00  0.00     0.251 C 
ATOM     28  H   UNL A   1      31.672  34.700  27.105  1.00  0.00     0.163 HD
ATOM     29  O   UNL A   1      32.516  36.135  28.868  1.00  0.00    -0.269 OA
BRANCH  27  30
ATOM     30  C   UNL A   1      34.123  34.498  29.345  1.00  0.00     0.039 A 
ATOM     31  C   UNL A   1      33.926  33.912  30.598  1.00  0.00     0.014 A 
ATOM     32  C   UNL A   1      35.407  34.588  28.802  1.00  0.00     0.014 A 
ATOM     33  C   UNL A   1      35.012  33.359  31.279  1.00  0.00     0.010 A 
ATOM     34  C   UNL A   1      36.475  33.967  29.444  1.00  0.00     0.010 A 
ATOM     35  C   UNL A   1      36.288  33.349  30.690  1.00  0.00    -0.014 A 
BRANCH  35  36
ATOM     36  C   UNL A   1      37.436  32.689  31.359  1.00  0.00     0.031 A 
ATOM     37  C   UNL A   1      38.108  31.506  30.722  1.00  0.00     0.074 A 
ATOM     38  C   UNL A   1      37.825  33.110  32.577  1.00  0.00     0.049 A 
ATOM     39  N   UNL A   1      39.077  30.756  31.182  1.00  0.00    -0.248 NA
ATOM     40  C   UNL A   1      37.602  31.093  29.404  1.00  0.00     0.031 C 
ATOM     41  C   UNL A   1      37.215  34.211  33.323  1.00  0.00     0.029 A 
ATOM     42  N   UNL A   1      38.815  32.650  33.409  1.00  0.00    -0.354 N 
ATOM     43  C   UNL A   1      39.289  29.781  30.217  1.00  0.00     0.074 A 
ATOM     44  C   UNL A   1      38.306  29.995  29.178  1.00  0.00     0.031 C 
ATOM     45  C   UNL A   1      37.853  34.353  34.495  1.00  0.00     0.029 A 
ATOM     46  C   UNL A   1      38.887  33.327  34.602  1.00  0.00     0.049 A 
ATOM     47  H   UNL A   1      39.415  31.906  33.174  1.00  0.00     0.167 HD
ATOM     48  C   UNL A   1      40.235  28.810  30.188  1.00  0.00     0.037 A 
ATOM     49  C   UNL A   1      39.687  33.136  35.667  1.00  0.00     0.037 A 
ATOM     50  C   UNL A   1      41.214  28.606  31.225  1.00  0.00     0.049 A 
ATOM     51  C   UNL A   1      40.719  32.043  35.624  1.00  0.00     0.074 A 
ATOM     52  C   UNL A   1      42.252  27.693  31.265  1.00  0.00     0.029 A 
ATOM     53  N   UNL A   1      41.266  29.321  32.414  1.00  0.00    -0.354 N 
ATOM     54  N   UNL A   1      40.964  31.174  34.672  1.00  0.00    -0.248 NA
ATOM     55  C   UNL A   1      41.589  31.907  36.799  1.00  0.00     0.031 C 
ATOM     56  C   UNL A   1      42.894  27.812  32.503  1.00  0.00     0.029 A 
ATOM     57  C   UNL A   1      42.298  28.844  33.209  1.00  0.00     0.049 A 
ATOM     58  H   UNL A   1      40.661  30.058  32.657  1.00  0.00     0.167 HD
ATOM     59  C   UNL A   1      42.026  30.402  35.124  1.00  0.00     0.074 A 
ATOM     60  C   UNL A   1      42.390  30.918  36.427  1.00  0.00     0.031 C 
ATOM     61  C   UNL A   1      42.641  29.359  34.513  1.00  0.00     0.037 A 
BRANCH  48  62
ATOM     62  C   UNL A   1      40.240  27.890  28.999  1.00  0.00     0.064 A 
ATOM     63  C   UNL A   1      39.540  26.673  29.002  1.00  0.00     0.173 A 
ATOM     64  C   UNL A   1      40.954  28.228  27.840  1.00  0.00     0.173 A 
ATOM     65  F   UNL A   1      38.847  26.295  30.087  1.00  0.00    -0.203 F 
ATOM     66  C   UNL A   1      39.598  25.808  27.912  1.00  0.00     0.198 A 
ATOM     67  C   UNL A   1      40.978  27.378  26.737  1.00  0.00     0.198 A 
ATOM     68  F   UNL A   1      41.634  29.383  27.775  1.00  0.00    -0.203 F 
ATOM     69  F   UNL A   1      38.981  24.619  27.971  1.00  0.00    -0.200 F 
ATOM     70  C   UNL A   1      40.313  26.162  26.779  1.00  0.00     0.200 A 
ATOM     71  F   UNL A   1      41.657  27.730  25.636  1.00  0.00    -0.200 F 
ATOM     72  F   UNL A   1      40.371  25.328  25.733  1.00  0.00    -0.200 F 
ENDBRANCH  48  62
BRANCH  49  73
ATOM     73  C   UNL A   1      39.544  34.016  36.855  1.00  0.00     0.064 A 
ATOM     74  C   UNL A   1      38.787  33.617  37.964  1.00  0.00     0.173 A 
ATOM     75  C   UNL A   1      40.190  35.260  36.919  1.00  0.00     0.173 A 
ATOM     76  F   UNL A   1      38.136  32.445  37.943  1.00  0.00    -0.203 F 
ATOM     77  C   UNL A   1      38.675  34.432  39.089  1.00  0.00     0.198 A 
ATOM     78  C   UNL A   1      40.100  36.061  38.055  1.00  0.00     0.198 A 
ATOM     79  F   UNL A   1      40.933  35.685  35.886  1.00  0.00    -0.203 F 
ATOM     80  F   UNL A   1      37.918  34.041  40.124  1.00  0.00    -0.200 F 
ATOM     81  C   UNL A   1      39.338  35.649  39.137  1.00  0.00     0.200 A 
ATOM     82  F   UNL A   1      40.759  37.228  38.104  1.00  0.00    -0.200 F 
ATOM     83  F   UNL A   1      39.243  36.425  40.225  1.00  0.00    -0.200 F 
ENDBRANCH  49  73
BRANCH  61  84
ATOM     84  C   UNL A   1      43.785  28.713  35.243  1.00  0.00     0.064 A 
ATOM     85  C   UNL A   1      43.581  27.665  36.154  1.00  0.00     0.173 A 
ATOM     86  C   UNL A   1      45.106  29.121  35.001  1.00  0.00     0.173 A 
ATOM     87  F   UNL A   1      42.337  27.246  36.434  1.00  0.00    -0.203 F 
ATOM     88  C   UNL A   1      44.654  27.071  36.814  1.00  0.00     0.198 A 
ATOM     89  C   UNL A   1      46.178  28.502  35.637  1.00  0.00     0.198 A 
ATOM     90  F   UNL A   1      45.359  30.115  34.134  1.00  0.00    -0.203 F 
ATOM     91  F   UNL A   1      44.429  26.106  37.718  1.00  0.00    -0.200 F 
ATOM     92  C   UNL A   1      45.951  27.482  36.548  1.00  0.00     0.200 A 
ATOM     93  F   UNL A   1      47.432  28.891  35.368  1.00  0.00    -0.200 F 
ATOM     94  F   UNL A   1      46.982  26.904  37.179  1.00  0.00    -0.200 F 
ENDBRANCH  61  84
ENDBRANCH  35  36
ENDBRANCH  27  30
ENDBRANCH  25  26
ENDBRANCH  24  25
ENDBRANCH  23  24
ENDBRANCH   1  23
TORSDOF 15
ENDMDL
MODEL 2
REMARK VINA RESULT:     -11.8      2.682      4.211
REMARK SMILES C[C@@H](c1ccccc1)[C@@H]1[NH2+][C@@H](C(=O)NCCCCCCNC(=O)c2ccc(-c3c4nc(c(-c5c(F)c(F)c(F)c(F)c5F)c5ccc([nH]5)c(-c5c(F)c(F)c(F)c(F)c5F)c5nc(c(-c6c(F)c(F)c(F)c(F)c6F)c6ccc3[nH]6)C=C5)C=C4)cc2)CS1
REMARK SMILES IDX 17 1 16 2 15 3 14 4 12 5 13 6 11 8 9 9 10 10 88 11 87 14
REMARK SMILES IDX 2 15 1 16 3 17 4 18 8 19 5 20 7 21 6 22 18 23 19 24 20 25
REMARK SMILES IDX 21 26 22 27 23 29 24 30 25 31 86 32 26 33 85 34 27 35 28 36
REMARK SMILES IDX 29 37 79 38 30 39 84 40 78 41 80 42 31 43 83 44 77 45 76 46
REMARK SMILES IDX 32 48 64 49 44 50 63 51 45 52 48 53 62 54 81 55 46 56 47 57
REMARK SMILES IDX 61 59 82 60 49 61 33 62 34 63 42 64 35 65 36 66 40 67 43 68
REMARK SMILES IDX 37 69 38 70 41 71 39 72 65 73 66 74 74 75 67 76 68 77 72 78
REMARK SMILES IDX 75 79 69 80 70 81 73 82 71 83 50 84 51 85 59 86 52 87 53 88
REMARK SMILES IDX 57 89 60 90 54 91 55 92 58 93 56 94
REMARK H PARENT 14 7 10 12 10 13 21 28 80 47 48 58
REMARK Flexibility Score: inf
ROOT
ATOM      1  C   UNL A   1      30.513  27.362  24.082  1.00  0.00     0.002 C 
ENDROOT
BRANCH   1   2
ATOM      2  C   UNL A   1      31.361  26.167  23.633  1.00  0.00     0.021 C 
BRANCH   2   3
ATOM      3  C   UNL A   1      30.648  24.823  23.752  1.00  0.00     0.116 C 
BRANCH   3   4
ATOM      4  N   UNL A   1      30.170  24.601  25.106  1.00  0.00    -0.351 N 
ATOM      5  C   UNL A   1      30.680  23.794  26.084  1.00  0.00     0.279 C 
ATOM      6  O   UNL A   1      30.087  23.719  27.161  1.00  0.00    -0.268 OA
ATOM      7  H   UNL A   1      29.362  25.104  25.355  1.00  0.00     0.163 HD
BRANCH   5   8
ATOM      8  C   UNL A   1      32.006  23.077  25.824  1.00  0.00     0.283 C 
ATOM      9  C   UNL A   1      33.246  21.121  26.337  1.00  0.00     0.249 C 
ATOM     10  N   UNL A   1      31.887  21.627  26.104  1.00  0.00    -0.324 N 
ATOM     11  S   UNL A   1      34.006  22.354  27.437  1.00  0.00    -0.092 SA
ATOM     12  H   UNL A   1      31.310  21.477  26.932  1.00  0.00     0.347 HD
ATOM     13  H   UNL A   1      31.447  21.141  25.323  1.00  0.00     0.347 HD
ATOM     14  C   UNL A   1      33.083  23.725  26.697  1.00  0.00     0.151 C 
BRANCH   9  15
ATOM     15  C   UNL A   1      34.086  20.747  25.053  1.00  0.00     0.085 C 
ATOM     16  C   UNL A   1      35.589  20.985  25.265  1.00  0.00     0.020 C 
BRANCH  15  17
ATOM     17  C   UNL A   1      33.798  19.399  24.389  1.00  0.00    -0.038 A 
ATOM     18  C   UNL A   1      32.695  19.169  23.554  1.00  0.00     0.004 A 
ATOM     19  C   UNL A   1      34.704  18.341  24.584  1.00  0.00     0.004 A 
ATOM     20  C   UNL A   1      32.555  17.961  22.863  1.00  0.00     0.000 A 
ATOM     21  C   UNL A   1      34.549  17.123  23.918  1.00  0.00     0.000 A 
ATOM     22  C   UNL A   1      33.487  16.942  23.039  1.00  0.00     0.000 A 
ENDBRANCH  15  17
ENDBRANCH   9  15
ENDBRANCH   5   8
ENDBRANCH   3   4
ENDBRANCH   2   3
ENDBRANCH   1   2
BRANCH   1  23
ATOM     23  C   UNL A   1      31.145  28.219  25.183  1.00  0.00     0.002 C 
BRANCH  23  24
ATOM     24  C   UNL A   1      32.635  27.960  25.419  1.00  0.00     0.021 C 
BRANCH  24  25
ATOM     25  C   UNL A   1      33.527  29.180  25.216  1.00  0.00     0.116 C 
BRANCH  25  26
ATOM     26  N   UNL A   1      32.953  30.384  25.796  1.00  0.00    -0.352 N 
ATOM     27  C   UNL A   1      33.344  31.089  26.907  1.00  0.00     0.251 C 
ATOM     28  H   UNL A   1      32.169  30.745  25.324  1.00  0.00     0.163 HD
ATOM     29  O   UNL A   1      32.628  31.972  27.363  1.00  0.00    -0.269 OA
BRANCH  27  30
ATOM     30  C   UNL A   1      34.626  30.765  27.566  1.00  0.00     0.039 A 
ATOM     31  C   UNL A   1      35.592  31.767  27.690  1.00  0.00     0.014 A 
ATOM     32  C   UNL A   1      34.874  29.481  28.058  1.00  0.00     0.014 A 
ATOM     33  C   UNL A   1      36.783  31.497  28.365  1.00  0.00     0.010 A 
ATOM     34  C   UNL A   1      36.027  29.235  28.798  1.00  0.00     0.010 A 
ATOM     35  C   UNL A   1      36.994  30.240  28.956  1.00  0.00    -0.014 A 
BRANCH  35  36
ATOM     36  C   UNL A   1      38.215  29.962  29.751  1.00  0.00     0.031 A 
ATOM     37  C   UNL A   1      39.262  29.020  29.229  1.00  0.00     0.074 A 
ATOM     38  C   UNL A   1      38.345  30.501  30.978  1.00  0.00     0.049 A 
ATOM     39  N   UNL A   1      40.360  28.600  29.805  1.00  0.00    -0.248 NA
ATOM     40  C   UNL A   1      39.029  28.452  27.893  1.00  0.00     0.031 C 
ATOM     41  C   UNL A   1      37.371  31.385  31.617  1.00  0.00     0.029 A 
ATOM     42  N   UNL A   1      39.342  30.371  31.912  1.00  0.00    -0.354 N 
ATOM     43  C   UNL A   1      40.941  27.714  28.907  1.00  0.00     0.074 A 
ATOM     44  C   UNL A   1      40.042  27.608  27.779  1.00  0.00     0.031 C 
ATOM     45  C   UNL A   1      37.823  31.731  32.832  1.00  0.00     0.029 A 
ATOM     46  C   UNL A   1      39.098  31.061  33.074  1.00  0.00     0.049 A 
ATOM     47  H   UNL A   1      40.153  29.834  31.764  1.00  0.00     0.167 HD
ATOM     48  C   UNL A   1      42.128  27.067  29.004  1.00  0.00     0.037 A 
ATOM     49  C   UNL A   1      39.813  31.134  34.212  1.00  0.00     0.037 A 
ATOM     50  C   UNL A   1      43.020  27.181  30.129  1.00  0.00     0.049 A 
ATOM     51  C   UNL A   1      41.119  30.396  34.308  1.00  0.00     0.074 A 
ATOM     52  C   UNL A   1      44.272  26.618  30.301  1.00  0.00     0.029 A 
ATOM     53  N   UNL A   1      42.746  27.901  31.284  1.00  0.00    -0.354 N 
ATOM     54  N   UNL A   1      41.698  29.622  33.422  1.00  0.00    -0.248 NA
ATOM     55  C   UNL A   1      41.873  30.545  35.559  1.00  0.00     0.031 C 
ATOM     56  C   UNL A   1      44.729  26.945  31.582  1.00  0.00     0.029 A 
ATOM     57  C   UNL A   1      43.791  27.766  32.187  1.00  0.00     0.049 A 
ATOM     58  H   UNL A   1      41.931  28.430  31.441  1.00  0.00     0.167 HD
ATOM     59  C   UNL A   1      42.892  29.208  33.998  1.00  0.00     0.074 A 
ATOM     60  C   UNL A   1      42.962  29.832  35.302  1.00  0.00     0.031 C 
ATOM     61  C   UNL A   1      43.841  28.383  33.490  1.00  0.00     0.037 A 
BRANCH  48  62
ATOM     62  C   UNL A   1      42.517  26.169  27.863  1.00  0.00     0.064 A 
ATOM     63  C   UNL A   1      43.400  26.591  26.857  1.00  0.00     0.173 A 
ATOM     64  C   UNL A   1      41.998  24.868  27.771  1.00  0.00     0.173 A 
ATOM     65  F   UNL A   1      43.919  27.828  26.889  1.00  0.00    -0.203 F 
ATOM     66  C   UNL A   1      43.709  25.766  25.778  1.00  0.00     0.198 A 
ATOM     67  C   UNL A   1      42.340  24.032  26.711  1.00  0.00     0.198 A 
ATOM     68  F   UNL A   1      41.157  24.406  28.708  1.00  0.00    -0.203 F 
ATOM     69  F   UNL A   1      44.497  26.222  24.793  1.00  0.00    -0.200 F 
ATOM     70  C   UNL A   1      43.182  24.487  25.707  1.00  0.00     0.200 A 
ATOM     71  F   UNL A   1      41.842  22.789  26.652  1.00  0.00    -0.200 F 
ATOM     72  F   UNL A   1      43.477  23.695  24.667  1.00  0.00    -0.200 F 
ENDBRANCH  48  62
BRANCH  49  73
ATOM     73  C   UNL A   1      39.304  31.954  35.342  1.00  0.00     0.064 A 
ATOM     74  C   UNL A   1      39.564  33.329  35.412  1.00  0.00     0.173 A 
ATOM     75  C   UNL A   1      38.519  31.385  36.356  1.00  0.00     0.173 A 
ATOM     76  F   UNL A   1      40.324  33.915  34.477  1.00  0.00    -0.203 F 
ATOM     77  C   UNL A   1      39.064  34.102  36.458  1.00  0.00     0.198 A 
ATOM     78  C   UNL A   1      37.997  32.165  37.386  1.00  0.00     0.198 A 
ATOM     79  F   UNL A   1      38.236  30.074  36.331  1.00  0.00    -0.203 F 
ATOM     80  F   UNL A   1      39.354  35.410  36.519  1.00  0.00    -0.200 F 
ATOM     81  C   UNL A   1      38.275  33.522  37.439  1.00  0.00     0.200 A 
ATOM     82  F   UNL A   1      37.218  31.602  38.321  1.00  0.00    -0.200 F 
ATOM     83  F   UNL A   1      37.781  34.269  38.436  1.00  0.00    -0.200 F 
ENDBRANCH  49  73
BRANCH  61  84
ATOM     84  C   UNL A   1      45.049  28.119  34.345  1.00  0.00     0.064 A 
ATOM     85  C   UNL A   1      46.167  28.966  34.323  1.00  0.00     0.173 A 
ATOM     86  C   UNL A   1      45.074  27.025  35.225  1.00  0.00     0.173 A 
ATOM     87  F   UNL A   1      46.203  30.017  33.490  1.00  0.00    -0.203 F 
ATOM     88  C   UNL A   1      47.274  28.713  35.130  1.00  0.00     0.198 A 
ATOM     89  C   UNL A   1      46.167  26.795  36.054  1.00  0.00     0.198 A 
ATOM     90  F   UNL A   1      44.028  26.186  35.291  1.00  0.00    -0.203 F 
ATOM     91  F   UNL A   1      48.351  29.507  35.054  1.00  0.00    -0.200 F 
ATOM     92  C   UNL A   1      47.270  27.633  36.001  1.00  0.00     0.200 A 
ATOM     93  F   UNL A   1      46.155  25.760  36.906  1.00  0.00    -0.200 F 
ATOM     94  F   UNL A   1      48.332  27.396  36.782  1.00  0.00    -0.200 F 
ENDBRANCH  61  84
ENDBRANCH  35  36
ENDBRANCH  27  30
ENDBRANCH  25  26
ENDBRANCH  24  25
ENDBRANCH  23  24
ENDBRANCH   1  23
TORSDOF 15
ENDMDL
MODEL 3
REMARK VINA RESULT:     -11.6      0.794      2.232
REMARK SMILES C[C@@H](c1ccccc1)[C@@H]1[NH2+][C@@H](C(=O)NCCCCCCNC(=O)c2ccc(-c3c4nc(c(-c5c(F)c(F)c(F)c(F)c5F)c5ccc([nH]5)c(-c5c(F)c(F)c(F)c(F)c5F)c5nc(c(-c6c(F)c(F)c(F)c(F)c6F)c6ccc3[nH]6)C=C5)C=C4)cc2)CS1
REMARK SMILES IDX 17 1 16 2 15 3 14 4 12 5 13 6 11 8 9 9 10 10 88 11 87 14
REMARK SMILES IDX 2 15 1 16 3 17 4 18 8 19 5 20 7 21 6 22 18 23 19 24 20 25
REMARK SMILES IDX 21 26 22 27 23 29 24 30 25 31 86 32 26 33 85 34 27 35 28 36
REMARK SMILES IDX 29 37 79 38 30 39 84 40 78 41 80 42 31 43 83 44 77 45 76 46
REMARK SMILES IDX 32 48 64 49 44 50 63 51 45 52 48 53 62 54 81 55 46 56 47 57
REMARK SMILES IDX 61 59 82 60 49 61 33 62 34 63 42 64 35 65 36 66 40 67 43 68
REMARK SMILES IDX 37 69 38 70 41 71 39 72 65 73 66 74 74 75 67 76 68 77 72 78
REMARK SMILES IDX 75 79 69 80 70 81 73 82 71 83 50 84 51 85 59 86 52 87 53 88
REMARK SMILES IDX 57 89 60 90 54 91 55 92 58 93 56 94
REMARK H PARENT 14 7 10 12 10 13 21 28 80 47 48 58
REMARK Flexibility Score: inf
ROOT
ATOM      1  C   UNL A   1      31.619  29.920  25.361  1.00  0.00     0.002 C 
ENDROOT
BRANCH   1   2
ATOM      2  C   UNL A   1      32.970  29.341  24.928  1.00  0.00     0.021 C 
BRANCH   2   3
ATOM      3  C   UNL A   1      32.940  27.840  24.650  1.00  0.00     0.116 C 
BRANCH   3   4
ATOM      4  N   UNL A   1      33.215  27.561  23.250  1.00  0.00    -0.351 N 
ATOM      5  C   UNL A   1      33.378  26.358  22.623  1.00  0.00     0.279 C 
ATOM      6  O   UNL A   1      33.651  26.347  21.422  1.00  0.00    -0.268 OA
ATOM      7  H   UNL A   1      33.297  28.352  22.671  1.00  0.00     0.163 HD
BRANCH   5   8
ATOM      8  C   UNL A   1      33.140  25.076  23.423  1.00  0.00     0.283 C 
ATOM      9  C   UNL A   1      33.090  22.711  23.260  1.00  0.00     0.249 C 
ATOM     10  N   UNL A   1      33.769  23.912  22.756  1.00  0.00    -0.324 N 
ATOM     11  S   UNL A   1      31.322  23.133  23.208  1.00  0.00    -0.092 SA
ATOM     12  H   UNL A   1      33.652  23.983  21.746  1.00  0.00     0.347 HD
ATOM     13  H   UNL A   1      34.768  23.876  22.956  1.00  0.00     0.347 HD
ATOM     14  C   UNL A   1      31.630  24.879  23.578  1.00  0.00     0.151 C 
BRANCH   9  15
ATOM     15  C   UNL A   1      33.611  22.133  24.635  1.00  0.00     0.085 C 
ATOM     16  C   UNL A   1      33.175  20.675  24.844  1.00  0.00     0.020 C 
BRANCH  15  17
ATOM     17  C   UNL A   1      35.085  22.356  24.981  1.00  0.00    -0.038 A 
ATOM     18  C   UNL A   1      36.123  21.548  24.495  1.00  0.00     0.004 A 
ATOM     19  C   UNL A   1      35.431  23.451  25.794  1.00  0.00     0.004 A 
ATOM     20  C   UNL A   1      37.461  21.878  24.730  1.00  0.00     0.000 A 
ATOM     21  C   UNL A   1      36.767  23.764  26.055  1.00  0.00     0.000 A 
ATOM     22  C   UNL A   1      37.783  22.991  25.503  1.00  0.00     0.000 A 
ENDBRANCH  15  17
ENDBRANCH   9  15
ENDBRANCH   5   8
ENDBRANCH   3   4
ENDBRANCH   2   3
ENDBRANCH   1   2
BRANCH   1  23
ATOM     23  C   UNL A   1      31.627  30.617  26.724  1.00  0.00     0.002 C 
BRANCH  23  24
ATOM     24  C   UNL A   1      31.575  32.145  26.663  1.00  0.00     0.021 C 
BRANCH  24  25
ATOM     25  C   UNL A   1      32.788  32.843  27.267  1.00  0.00     0.116 C 
BRANCH  25  26
ATOM     26  N   UNL A   1      32.492  34.209  27.670  1.00  0.00    -0.352 N 
ATOM     27  C   UNL A   1      33.023  34.950  28.697  1.00  0.00     0.251 C 
ATOM     28  H   UNL A   1      31.812  34.668  27.128  1.00  0.00     0.163 HD
ATOM     29  O   UNL A   1      32.518  36.021  29.012  1.00  0.00    -0.269 OA
BRANCH  27  30
ATOM     30  C   UNL A   1      34.195  34.441  29.437  1.00  0.00     0.039 A 
ATOM     31  C   UNL A   1      33.995  33.829  30.677  1.00  0.00     0.014 A 
ATOM     32  C   UNL A   1      35.484  34.567  28.912  1.00  0.00     0.014 A 
ATOM     33  C   UNL A   1      35.083  33.287  31.363  1.00  0.00     0.010 A 
ATOM     34  C   UNL A   1      36.556  33.958  29.558  1.00  0.00     0.010 A 
ATOM     35  C   UNL A   1      36.367  33.314  30.790  1.00  0.00    -0.014 A 
BRANCH  35  36
ATOM     36  C   UNL A   1      37.520  32.667  31.463  1.00  0.00     0.031 A 
ATOM     37  C   UNL A   1      38.206  31.491  30.829  1.00  0.00     0.074 A 
ATOM     38  C   UNL A   1      37.902  33.093  32.681  1.00  0.00     0.049 A 
ATOM     39  N   UNL A   1      39.182  30.752  31.292  1.00  0.00    -0.248 NA
ATOM     40  C   UNL A   1      37.708  31.071  29.510  1.00  0.00     0.031 C 
ATOM     41  C   UNL A   1      37.279  34.189  33.425  1.00  0.00     0.029 A 
ATOM     42  N   UNL A   1      38.894  32.645  33.516  1.00  0.00    -0.354 N 
ATOM     43  C   UNL A   1      39.407  29.778  30.329  1.00  0.00     0.074 A 
ATOM     44  C   UNL A   1      38.423  29.980  29.287  1.00  0.00     0.031 C 
ATOM     45  C   UNL A   1      37.912  34.339  34.598  1.00  0.00     0.029 A 
ATOM     46  C   UNL A   1      38.957  33.325  34.708  1.00  0.00     0.049 A 
ATOM     47  H   UNL A   1      39.503  31.907  33.284  1.00  0.00     0.167 HD
ATOM     48  C   UNL A   1      40.362  28.817  30.303  1.00  0.00     0.037 A 
ATOM     49  C   UNL A   1      39.757  33.143  35.776  1.00  0.00     0.037 A 
ATOM     50  C   UNL A   1      41.341  28.624  31.342  1.00  0.00     0.049 A 
ATOM     51  C   UNL A   1      40.800  32.061  35.736  1.00  0.00     0.074 A 
ATOM     52  C   UNL A   1      42.389  27.722  31.385  1.00  0.00     0.029 A 
ATOM     53  N   UNL A   1      41.383  29.341  32.530  1.00  0.00    -0.354 N 
ATOM     54  N   UNL A   1      41.056  31.194  34.786  1.00  0.00    -0.248 NA
ATOM     55  C   UNL A   1      41.668  31.935  36.914  1.00  0.00     0.031 C 
ATOM     56  C   UNL A   1      43.027  27.850  32.625  1.00  0.00     0.029 A 
ATOM     57  C   UNL A   1      42.418  28.876  33.329  1.00  0.00     0.049 A 
ATOM     58  H   UNL A   1      40.770  30.072  32.771  1.00  0.00     0.167 HD
ATOM     59  C   UNL A   1      42.126  30.433  35.241  1.00  0.00     0.074 A 
ATOM     60  C   UNL A   1      42.481  30.955  36.544  1.00  0.00     0.031 C 
ATOM     61  C   UNL A   1      42.753  29.396  34.633  1.00  0.00     0.037 A 
BRANCH  48  62
ATOM     62  C   UNL A   1      40.380  27.896  29.114  1.00  0.00     0.064 A 
ATOM     63  C   UNL A   1      41.115  28.197  27.957  1.00  0.00     0.173 A 
ATOM     64  C   UNL A   1      39.651  26.697  29.131  1.00  0.00     0.173 A 
ATOM     65  F   UNL A   1      41.823  29.334  27.882  1.00  0.00    -0.203 F 
ATOM     66  C   UNL A   1      41.079  27.360  26.844  1.00  0.00     0.198 A 
ATOM     67  C   UNL A   1      39.648  25.843  28.031  1.00  0.00     0.198 A 
ATOM     68  F   UNL A   1      38.937  26.353  30.213  1.00  0.00    -0.203 F 
ATOM     69  F   UNL A   1      41.730  27.707  25.725  1.00  0.00    -0.200 F 
ATOM     70  C   UNL A   1      40.349  26.182  26.883  1.00  0.00     0.200 A 
ATOM     71  F   UNL A   1      38.954  24.698  28.076  1.00  0.00    -0.200 F 
ATOM     72  F   UNL A   1      40.311  25.379  25.811  1.00  0.00    -0.200 F 
ENDBRANCH  48  62
BRANCH  49  73
ATOM     73  C   UNL A   1      39.601  34.023  36.962  1.00  0.00     0.064 A 
ATOM     74  C   UNL A   1      40.188  35.294  37.001  1.00  0.00     0.173 A 
ATOM     75  C   UNL A   1      38.834  33.623  38.067  1.00  0.00     0.173 A 
ATOM     76  F   UNL A   1      40.946  35.714  35.978  1.00  0.00    -0.203 F 
ATOM     77  C   UNL A   1      40.020  36.130  38.104  1.00  0.00     0.198 A 
ATOM     78  C   UNL A   1      38.644  34.471  39.156  1.00  0.00     0.198 A 
ATOM     79  F   UNL A   1      38.246  32.418  38.076  1.00  0.00    -0.203 F 
ATOM     80  F   UNL A   1      40.619  37.329  38.130  1.00  0.00    -0.200 F 
ATOM     81  C   UNL A   1      39.242  35.721  39.176  1.00  0.00     0.200 A 
ATOM     82  F   UNL A   1      37.874  34.078  40.181  1.00  0.00    -0.200 F 
ATOM     83  F   UNL A   1      39.067  36.532  40.229  1.00  0.00    -0.200 F 
ENDBRANCH  49  73
BRANCH  61  84
ATOM     84  C   UNL A   1      43.902  28.763  35.366  1.00  0.00     0.064 A 
ATOM     85  C   UNL A   1      45.223  29.196  35.180  1.00  0.00     0.173 A 
ATOM     86  C   UNL A   1      43.675  27.736  36.295  1.00  0.00     0.173 A 
ATOM     87  F   UNL A   1      45.499  30.164  34.293  1.00  0.00    -0.203 F 
ATOM     88  C   UNL A   1      46.276  28.606  35.876  1.00  0.00     0.198 A 
ATOM     89  C   UNL A   1      44.725  27.171  37.014  1.00  0.00     0.198 A 
ATOM     90  F   UNL A   1      42.429  27.287  36.517  1.00  0.00    -0.203 F 
ATOM     91  F   UNL A   1      47.535  29.002  35.643  1.00  0.00    -0.200 F 
ATOM     92  C   UNL A   1      46.025  27.601  36.799  1.00  0.00     0.200 A 
ATOM     93  F   UNL A   1      44.478  26.211  37.916  1.00  0.00    -0.200 F 
ATOM     94  F   UNL A   1      47.038  27.040  37.473  1.00  0.00    -0.200 F 
ENDBRANCH  61  84
ENDBRANCH  35  36
ENDBRANCH  27  30
ENDBRANCH  25  26
ENDBRANCH  24  25
ENDBRANCH  23  24
ENDBRANCH   1  23
TORSDOF 15
ENDMDL
