MODEL 1
REMARK VINA RESULT:     -11.1      0.000      0.000
REMARK SMILES [N-]=[N+]=NC[C@@H](Nc1ccccc1Br)C(=O)NCCCCCCNC(=O)c1ccc(-c2c3nc(c(-c4c(F)c(F)c(F)c(F)c4F)c4ccc([nH]4)c(-c4c(F)c(F)c(F)c(F)c4F)c4nc(c(-c5c(F)c(F)c(F)c(F)c5F)c5ccc2[nH]5)C=C4)C=C3)cc1
REMARK SMILES IDX 19 1 18 2 17 3 16 4 14 5 15 6 5 8 4 9 3 10 1 11 2 12 6 13
REMARK SMILES IDX 7 15 8 16 12 17 9 18 11 19 13 20 10 21 20 22 21 23 22 24
REMARK SMILES IDX 23 25 24 26 25 28 26 29 27 30 88 31 28 32 87 33 29 34 30 35
REMARK SMILES IDX 31 36 81 37 32 38 86 39 80 40 82 41 33 42 85 43 79 44 78 45
REMARK SMILES IDX 34 47 66 48 46 49 65 50 47 51 50 52 64 53 83 54 48 55 49 56
REMARK SMILES IDX 63 58 84 59 51 60 35 61 36 62 44 63 37 64 38 65 42 66 45 67
REMARK SMILES IDX 39 68 40 69 43 70 41 71 67 72 68 73 76 74 69 75 70 76 74 77
REMARK SMILES IDX 77 78 71 79 72 80 75 81 73 82 52 83 53 84 61 85 54 86 55 87
REMARK SMILES IDX 59 88 62 89 56 90 57 91 60 92 58 93
REMARK H PARENT 16 7 6 14 23 27 82 46 50 57
REMARK Flexibility Score: inf
ROOT
ATOM      1  C   UNL A   1      32.726  30.102  26.760  1.00  0.00     0.002 C 
ENDROOT
BRANCH   1   2
ATOM      2  C   UNL A   1      32.663  28.577  26.915  1.00  0.00     0.021 C 
BRANCH   2   3
ATOM      3  C   UNL A   1      33.732  27.850  26.107  1.00  0.00     0.116 C 
BRANCH   3   4
ATOM      4  N   UNL A   1      33.187  27.412  24.840  1.00  0.00    -0.354 N 
ATOM      5  C   UNL A   1      33.360  26.243  24.161  1.00  0.00     0.242 C 
ATOM      6  O   UNL A   1      32.901  26.196  23.014  1.00  0.00    -0.273 OA
ATOM      7  H   UNL A   1      32.595  28.063  24.397  1.00  0.00     0.163 HD
BRANCH   5   8
ATOM      8  C   UNL A   1      34.154  25.057  24.744  1.00  0.00     0.174 C 
BRANCH   8   9
ATOM      9  C   UNL A   1      33.413  24.590  26.019  1.00  0.00     0.125 C 
BRANCH   9  10
ATOM     10  N   UNL A   1      31.950  24.753  25.893  1.00  0.00    -0.091 NA
ATOM     11  N   UNL A   1      30.646  23.327  27.286  1.00  0.00    -0.003 NA
ATOM     12  N   UNL A   1      31.260  24.001  26.602  1.00  0.00     0.001 N 
ENDBRANCH   9  10
ENDBRANCH   8   9
BRANCH   8  13
ATOM     13  N   UNL A   1      34.395  23.927  23.816  1.00  0.00    -0.373 N 
ATOM     14  H   UNL A   1      34.019  24.019  22.911  1.00  0.00     0.161 HD
BRANCH  13  15
ATOM     15  C   UNL A   1      35.088  22.756  24.073  1.00  0.00     0.049 A 
ATOM     16  C   UNL A   1      36.491  22.836  23.962  1.00  0.00     0.027 A 
ATOM     17  C   UNL A   1      34.552  21.540  24.531  1.00  0.00     0.041 A 
ATOM     18  C   UNL A   1      37.327  21.810  24.409  1.00  0.00     0.002 A 
ATOM     19  C   UNL A   1      35.389  20.514  24.994  1.00  0.00     0.018 A 
ATOM     20  Br  UNL A   1      32.701  21.116  24.408  1.00  0.00    -0.049 Br
ATOM     21  C   UNL A   1      36.775  20.659  24.956  1.00  0.00     0.001 A 
ENDBRANCH  13  15
ENDBRANCH   8  13
ENDBRANCH   5   8
ENDBRANCH   3   4
ENDBRANCH   2   3
ENDBRANCH   1   2
BRANCH   1  22
ATOM     22  C   UNL A   1      31.401  30.759  26.357  1.00  0.00     0.002 C 
BRANCH  22  23
ATOM     23  C   UNL A   1      31.363  32.280  26.531  1.00  0.00     0.021 C 
BRANCH  23  24
ATOM     24  C   UNL A   1      32.621  32.869  27.159  1.00  0.00     0.116 C 
BRANCH  24  25
ATOM     25  N   UNL A   1      32.414  34.234  27.613  1.00  0.00    -0.352 N 
ATOM     26  C   UNL A   1      33.013  34.912  28.641  1.00  0.00     0.251 C 
ATOM     27  H   UNL A   1      31.744  34.748  27.106  1.00  0.00     0.163 HD
ATOM     28  O   UNL A   1      32.564  35.989  29.017  1.00  0.00    -0.269 OA
BRANCH  26  29
ATOM     29  C   UNL A   1      34.194  34.332  29.312  1.00  0.00     0.039 A 
ATOM     30  C   UNL A   1      33.998  33.533  30.442  1.00  0.00     0.014 A 
ATOM     31  C   UNL A   1      35.487  34.579  28.840  1.00  0.00     0.014 A 
ATOM     32  C   UNL A   1      35.096  32.940  31.064  1.00  0.00     0.010 A 
ATOM     33  C   UNL A   1      36.572  33.924  29.414  1.00  0.00     0.010 A 
ATOM     34  C   UNL A   1      36.387  33.101  30.534  1.00  0.00    -0.014 A 
BRANCH  34  35
ATOM     35  C   UNL A   1      37.545  32.393  31.136  1.00  0.00     0.031 A 
ATOM     36  C   UNL A   1      38.054  32.778  32.496  1.00  0.00     0.074 A 
ATOM     37  C   UNL A   1      38.165  31.428  30.430  1.00  0.00     0.049 A 
ATOM     38  N   UNL A   1      39.057  32.280  33.175  1.00  0.00    -0.248 NA
ATOM     39  C   UNL A   1      37.363  33.885  33.175  1.00  0.00     0.031 C 
ATOM     40  C   UNL A   1      37.800  31.007  29.076  1.00  0.00     0.029 A 
ATOM     41  N   UNL A   1      39.235  30.630  30.748  1.00  0.00    -0.354 N 
ATOM     42  C   UNL A   1      39.120  33.015  34.352  1.00  0.00     0.074 A 
ATOM     43  C   UNL A   1      38.093  34.031  34.271  1.00  0.00     0.031 C 
ATOM     44  C   UNL A   1      38.610  30.010  28.692  1.00  0.00     0.029 A 
ATOM     45  C   UNL A   1      39.576  29.747  29.753  1.00  0.00     0.049 A 
ATOM     46  H   UNL A   1      39.711  30.684  31.608  1.00  0.00     0.167 HD
ATOM     47  C   UNL A   1      39.944  32.840  35.412  1.00  0.00     0.037 A 
ATOM     48  C   UNL A   1      40.563  28.832  29.699  1.00  0.00     0.037 A 
ATOM     49  C   UNL A   1      40.955  31.817  35.491  1.00  0.00     0.049 A 
ATOM     50  C   UNL A   1      41.469  28.664  30.889  1.00  0.00     0.074 A 
ATOM     51  C   UNL A   1      41.795  31.514  36.548  1.00  0.00     0.029 A 
ATOM     52  N   UNL A   1      41.271  30.936  34.466  1.00  0.00    -0.354 N 
ATOM     53  N   UNL A   1      41.463  29.306  32.031  1.00  0.00    -0.248 NA
ATOM     54  C   UNL A   1      42.515  27.637  30.783  1.00  0.00     0.031 C 
ATOM     55  C   UNL A   1      42.662  30.494  36.141  1.00  0.00     0.029 A 
ATOM     56  C   UNL A   1      42.317  30.113  34.854  1.00  0.00     0.049 A 
ATOM     57  H   UNL A   1      40.818  30.900  33.592  1.00  0.00     0.167 HD
ATOM     58  C   UNL A   1      42.484  28.748  32.789  1.00  0.00     0.074 A 
ATOM     59  C   UNL A   1      43.073  27.698  31.983  1.00  0.00     0.031 C 
ATOM     60  C   UNL A   1      42.898  29.076  34.038  1.00  0.00     0.037 A 
BRANCH  47  61
ATOM     61  C   UNL A   1      39.795  33.781  36.575  1.00  0.00     0.064 A 
ATOM     62  C   UNL A   1      38.969  33.479  37.669  1.00  0.00     0.173 A 
ATOM     63  C   UNL A   1      40.516  34.984  36.614  1.00  0.00     0.173 A 
ATOM     64  F   UNL A   1      38.248  32.348  37.680  1.00  0.00    -0.203 F 
ATOM     65  C   UNL A   1      38.846  34.360  38.741  1.00  0.00     0.198 A 
ATOM     66  C   UNL A   1      40.419  35.845  37.703  1.00  0.00     0.198 A 
ATOM     67  F   UNL A   1      41.326  35.321  35.599  1.00  0.00    -0.203 F 
ATOM     68  F   UNL A   1      38.010  34.074  39.750  1.00  0.00    -0.200 F 
ATOM     69  C   UNL A   1      39.578  35.537  38.762  1.00  0.00     0.200 A 
ATOM     70  F   UNL A   1      41.138  36.976  37.729  1.00  0.00    -0.200 F 
ATOM     71  F   UNL A   1      39.467  36.379  39.799  1.00  0.00    -0.200 F 
ENDBRANCH  47  61
BRANCH  48  72
ATOM     72  C   UNL A   1      40.731  27.995  28.483  1.00  0.00     0.064 A 
ATOM     73  C   UNL A   1      40.115  26.740  28.375  1.00  0.00     0.173 A 
ATOM     74  C   UNL A   1      41.511  28.432  27.402  1.00  0.00     0.173 A 
ATOM     75  F   UNL A   1      39.373  26.271  29.390  1.00  0.00    -0.203 F 
ATOM     76  C   UNL A   1      40.289  25.946  27.245  1.00  0.00     0.198 A 
ATOM     77  C   UNL A   1      41.658  27.651  26.257  1.00  0.00     0.198 A 
ATOM     78  F   UNL A   1      42.117  29.627  27.449  1.00  0.00    -0.203 F 
ATOM     79  F   UNL A   1      39.728  24.730  27.189  1.00  0.00    -0.200 F 
ATOM     80  C   UNL A   1      41.056  26.404  26.184  1.00  0.00     0.200 A 
ATOM     81  F   UNL A   1      42.384  28.106  25.227  1.00  0.00    -0.200 F 
ATOM     82  F   UNL A   1      41.217  25.643  25.093  1.00  0.00    -0.200 F 
ENDBRANCH  48  72
BRANCH  60  83
ATOM     83  C   UNL A   1      44.028  28.274  34.619  1.00  0.00     0.064 A 
ATOM     84  C   UNL A   1      45.363  28.697  34.518  1.00  0.00     0.173 A 
ATOM     85  C   UNL A   1      43.771  27.079  35.309  1.00  0.00     0.173 A 
ATOM     86  F   UNL A   1      45.665  29.825  33.857  1.00  0.00    -0.203 F 
ATOM     87  C   UNL A   1      46.398  27.937  35.056  1.00  0.00     0.198 A 
ATOM     88  C   UNL A   1      44.805  26.340  35.877  1.00  0.00     0.198 A 
ATOM     89  F   UNL A   1      42.513  26.632  35.442  1.00  0.00    -0.203 F 
ATOM     90  F   UNL A   1      47.669  28.331  34.894  1.00  0.00    -0.200 F 
ATOM     91  C   UNL A   1      46.118  26.763  35.741  1.00  0.00     0.200 A 
ATOM     92  F   UNL A   1      44.530  25.216  36.553  1.00  0.00    -0.200 F 
ATOM     93  F   UNL A   1      47.116  26.036  36.262  1.00  0.00    -0.200 F 
ENDBRANCH  60  83
ENDBRANCH  34  35
ENDBRANCH  26  29
ENDBRANCH  24  25
ENDBRANCH  23  24
ENDBRANCH  22  23
ENDBRANCH   1  22
TORSDOF 17
ENDMDL
MODEL 2
REMARK VINA RESULT:     -11.0      5.470      9.983
REMARK SMILES [N-]=[N+]=NC[C@@H](Nc1ccccc1Br)C(=O)NCCCCCCNC(=O)c1ccc(-c2c3nc(c(-c4c(F)c(F)c(F)c(F)c4F)c4ccc([nH]4)c(-c4c(F)c(F)c(F)c(F)c4F)c4nc(c(-c5c(F)c(F)c(F)c(F)c5F)c5ccc2[nH]5)C=C4)C=C3)cc1
REMARK SMILES IDX 19 1 18 2 17 3 16 4 14 5 15 6 5 8 4 9 3 10 1 11 2 12 6 13
REMARK SMILES IDX 7 15 8 16 12 17 9 18 11 19 13 20 10 21 20 22 21 23 22 24
REMARK SMILES IDX 23 25 24 26 25 28 26 29 27 30 88 31 28 32 87 33 29 34 30 35
REMARK SMILES IDX 31 36 81 37 32 38 86 39 80 40 82 41 33 42 85 43 79 44 78 45
REMARK SMILES IDX 34 47 66 48 46 49 65 50 47 51 50 52 64 53 83 54 48 55 49 56
REMARK SMILES IDX 63 58 84 59 51 60 35 61 36 62 44 63 37 64 38 65 42 66 45 67
REMARK SMILES IDX 39 68 40 69 43 70 41 71 67 72 68 73 76 74 69 75 70 76 74 77
REMARK SMILES IDX 77 78 71 79 72 80 75 81 73 82 52 83 53 84 61 85 54 86 55 87
REMARK SMILES IDX 59 88 62 89 56 90 57 91 60 92 58 93
REMARK H PARENT 16 7 6 14 23 27 82 46 50 57
REMARK Flexibility Score: inf
ROOT
ATOM      1  C   UNL A   1      37.370  22.047  24.671  1.00  0.00     0.002 C 
ENDROOT
BRANCH   1   2
ATOM      2  C   UNL A   1      36.655  23.057  25.577  1.00  0.00     0.021 C 
BRANCH   2   3
ATOM      3  C   UNL A   1      35.720  23.988  24.815  1.00  0.00     0.116 C 
BRANCH   3   4
ATOM      4  N   UNL A   1      34.462  23.323  24.548  1.00  0.00    -0.354 N 
ATOM      5  C   UNL A   1      33.247  23.837  24.207  1.00  0.00     0.242 C 
ATOM      6  O   UNL A   1      32.296  23.047  24.194  1.00  0.00    -0.273 OA
ATOM      7  H   UNL A   1      34.489  22.341  24.623  1.00  0.00     0.163 HD
BRANCH   5   8
ATOM      8  C   UNL A   1      33.032  25.338  23.926  1.00  0.00     0.174 C 
BRANCH   8   9
ATOM      9  C   UNL A   1      32.414  25.457  22.513  1.00  0.00     0.125 C 
BRANCH   9  10
ATOM     10  N   UNL A   1      33.378  26.008  21.539  1.00  0.00    -0.091 NA
ATOM     11  N   UNL A   1      34.122  28.226  21.991  1.00  0.00    -0.003 NA
ATOM     12  N   UNL A   1      33.759  27.171  21.755  1.00  0.00     0.001 N 
ENDBRANCH   9  10
ENDBRANCH   8   9
BRANCH   8  13
ATOM     13  N   UNL A   1      32.225  26.071  24.931  1.00  0.00    -0.373 N 
ATOM     14  H   UNL A   1      31.435  25.599  25.282  1.00  0.00     0.161 HD
BRANCH  13  15
ATOM     15  C   UNL A   1      32.453  27.341  25.434  1.00  0.00     0.049 A 
ATOM     16  C   UNL A   1      33.318  27.415  26.544  1.00  0.00     0.027 A 
ATOM     17  C   UNL A   1      32.002  28.557  24.893  1.00  0.00     0.041 A 
ATOM     18  C   UNL A   1      33.817  28.633  27.011  1.00  0.00     0.002 A 
ATOM     19  C   UNL A   1      32.512  29.781  25.350  1.00  0.00     0.018 A 
ATOM     20  Br  UNL A   1      30.569  28.663  23.645  1.00  0.00    -0.049 Br
ATOM     21  C   UNL A   1      33.438  29.817  26.391  1.00  0.00     0.001 A 
ENDBRANCH  13  15
ENDBRANCH   8  13
ENDBRANCH   5   8
ENDBRANCH   3   4
ENDBRANCH   2   3
ENDBRANCH   1   2
BRANCH   1  22
ATOM     22  C   UNL A   1      36.901  20.597  24.833  1.00  0.00     0.002 C 
BRANCH  22  23
ATOM     23  C   UNL A   1      38.030  19.575  25.000  1.00  0.00     0.021 C 
BRANCH  23  24
ATOM     24  C   UNL A   1      39.250  20.107  25.743  1.00  0.00     0.116 C 
BRANCH  24  25
ATOM     25  N   UNL A   1      40.277  19.091  25.898  1.00  0.00    -0.352 N 
ATOM     26  C   UNL A   1      41.626  19.236  26.083  1.00  0.00     0.251 C 
ATOM     27  H   UNL A   1      39.956  18.161  25.865  1.00  0.00     0.163 HD
ATOM     28  O   UNL A   1      42.373  18.269  25.981  1.00  0.00    -0.269 OA
BRANCH  26  29
ATOM     29  C   UNL A   1      42.186  20.569  26.387  1.00  0.00     0.039 A 
ATOM     30  C   UNL A   1      42.619  21.372  25.330  1.00  0.00     0.014 A 
ATOM     31  C   UNL A   1      42.292  21.022  27.706  1.00  0.00     0.014 A 
ATOM     32  C   UNL A   1      43.108  22.651  25.591  1.00  0.00     0.010 A 
ATOM     33  C   UNL A   1      42.708  22.326  27.959  1.00  0.00     0.010 A 
ATOM     34  C   UNL A   1      43.123  23.152  26.904  1.00  0.00    -0.014 A 
BRANCH  34  35
ATOM     35  C   UNL A   1      43.554  24.546  27.176  1.00  0.00     0.031 A 
ATOM     36  C   UNL A   1      42.565  25.575  27.646  1.00  0.00     0.074 A 
ATOM     37  C   UNL A   1      44.836  24.893  26.951  1.00  0.00     0.049 A 
ATOM     38  N   UNL A   1      42.757  26.841  27.922  1.00  0.00    -0.248 NA
ATOM     39  C   UNL A   1      41.171  25.133  27.803  1.00  0.00     0.031 C 
ATOM     40  C   UNL A   1      45.874  23.998  26.439  1.00  0.00     0.029 A 
ATOM     41  N   UNL A   1      45.484  26.090  27.121  1.00  0.00    -0.354 N 
ATOM     42  C   UNL A   1      41.512  27.344  28.278  1.00  0.00     0.074 A 
ATOM     43  C   UNL A   1      40.561  26.264  28.127  1.00  0.00     0.031 C 
ATOM     44  C   UNL A   1      47.035  24.666  26.364  1.00  0.00     0.029 A 
ATOM     45  C   UNL A   1      46.816  26.047  26.784  1.00  0.00     0.049 A 
ATOM     46  H   UNL A   1      45.039  26.903  27.454  1.00  0.00     0.167 HD
ATOM     47  C   UNL A   1      41.198  28.587  28.714  1.00  0.00     0.037 A 
ATOM     48  C   UNL A   1      47.753  27.013  26.805  1.00  0.00     0.037 A 
ATOM     49  C   UNL A   1      42.154  29.653  28.875  1.00  0.00     0.049 A 
ATOM     50  C   UNL A   1      47.375  28.387  27.287  1.00  0.00     0.074 A 
ATOM     51  C   UNL A   1      41.948  30.927  29.374  1.00  0.00     0.029 A 
ATOM     52  N   UNL A   1      43.496  29.572  28.529  1.00  0.00    -0.354 N 
ATOM     53  N   UNL A   1      46.214  28.828  27.705  1.00  0.00    -0.248 NA
ATOM     54  C   UNL A   1      48.442  29.397  27.309  1.00  0.00     0.031 C 
ATOM     55  C   UNL A   1      43.149  31.638  29.270  1.00  0.00     0.029 A 
ATOM     56  C   UNL A   1      44.121  30.786  28.770  1.00  0.00     0.049 A 
ATOM     57  H   UNL A   1      43.938  28.771  28.165  1.00  0.00     0.167 HD
ATOM     58  C   UNL A   1      46.413  30.155  28.060  1.00  0.00     0.074 A 
ATOM     59  C   UNL A   1      47.814  30.440  27.831  1.00  0.00     0.031 C 
ATOM     60  C   UNL A   1      45.516  31.057  28.532  1.00  0.00     0.037 A 
BRANCH  47  61
ATOM     61  C   UNL A   1      39.759  28.868  29.042  1.00  0.00     0.064 A 
ATOM     62  C   UNL A   1      38.856  29.335  28.074  1.00  0.00     0.173 A 
ATOM     63  C   UNL A   1      39.264  28.632  30.334  1.00  0.00     0.173 A 
ATOM     64  F   UNL A   1      39.277  29.589  26.825  1.00  0.00    -0.203 F 
ATOM     65  C   UNL A   1      37.524  29.585  28.394  1.00  0.00     0.198 A 
ATOM     66  C   UNL A   1      37.924  28.848  30.642  1.00  0.00     0.198 A 
ATOM     67  F   UNL A   1      40.080  28.179  31.298  1.00  0.00    -0.203 F 
ATOM     68  F   UNL A   1      36.694  30.081  27.465  1.00  0.00    -0.200 F 
ATOM     69  C   UNL A   1      37.057  29.332  29.675  1.00  0.00     0.200 A 
ATOM     70  F   UNL A   1      37.471  28.590  31.877  1.00  0.00    -0.200 F 
ATOM     71  F   UNL A   1      35.772  29.564  29.979  1.00  0.00    -0.200 F 
ENDBRANCH  47  61
BRANCH  48  72
ATOM     72  C   UNL A   1      49.142  26.707  26.373  1.00  0.00     0.064 A 
ATOM     73  C   UNL A   1      49.550  26.911  25.047  1.00  0.00     0.173 A 
ATOM     74  C   UNL A   1      50.090  26.205  27.276  1.00  0.00     0.173 A 
ATOM     75  F   UNL A   1      48.674  27.374  24.142  1.00  0.00    -0.203 F 
ATOM     76  C   UNL A   1      50.845  26.605  24.636  1.00  0.00     0.198 A 
ATOM     77  C   UNL A   1      51.395  25.930  26.872  1.00  0.00     0.198 A 
ATOM     78  F   UNL A   1      49.755  25.998  28.558  1.00  0.00    -0.203 F 
ATOM     79  F   UNL A   1      51.193  26.764  23.352  1.00  0.00    -0.200 F 
ATOM     80  C   UNL A   1      51.768  26.120  25.550  1.00  0.00     0.200 A 
ATOM     81  F   UNL A   1      52.289  25.480  27.763  1.00  0.00    -0.200 F 
ATOM     82  F   UNL A   1      53.016  25.832  25.156  1.00  0.00    -0.200 F 
ENDBRANCH  48  72
BRANCH  60  83
ATOM     83  C   UNL A   1      46.031  32.432  28.854  1.00  0.00     0.064 A 
ATOM     84  C   UNL A   1      46.015  33.468  27.907  1.00  0.00     0.173 A 
ATOM     85  C   UNL A   1      46.524  32.724  30.135  1.00  0.00     0.173 A 
ATOM     86  F   UNL A   1      45.568  33.238  26.663  1.00  0.00    -0.203 F 
ATOM     87  C   UNL A   1      46.503  34.734  28.221  1.00  0.00     0.198 A 
ATOM     88  C   UNL A   1      46.977  34.000  30.456  1.00  0.00     0.198 A 
ATOM     89  F   UNL A   1      46.555  31.773  31.081  1.00  0.00    -0.203 F 
ATOM     90  F   UNL A   1      46.533  35.689  27.282  1.00  0.00    -0.200 F 
ATOM     91  C   UNL A   1      46.977  35.001  29.497  1.00  0.00     0.200 A 
ATOM     92  F   UNL A   1      47.418  34.260  31.695  1.00  0.00    -0.200 F 
ATOM     93  F   UNL A   1      47.442  36.221  29.799  1.00  0.00    -0.200 F 
ENDBRANCH  60  83
ENDBRANCH  34  35
ENDBRANCH  26  29
ENDBRANCH  24  25
ENDBRANCH  23  24
ENDBRANCH  22  23
ENDBRANCH   1  22
TORSDOF 17
ENDMDL
MODEL 3
REMARK VINA RESULT:     -11.0      0.723      7.479
REMARK SMILES [N-]=[N+]=NC[C@@H](Nc1ccccc1Br)C(=O)NCCCCCCNC(=O)c1ccc(-c2c3nc(c(-c4c(F)c(F)c(F)c(F)c4F)c4ccc([nH]4)c(-c4c(F)c(F)c(F)c(F)c4F)c4nc(c(-c5c(F)c(F)c(F)c(F)c5F)c5ccc2[nH]5)C=C4)C=C3)cc1
REMARK SMILES IDX 19 1 18 2 17 3 16 4 14 5 15 6 5 8 4 9 3 10 1 11 2 12 6 13
REMARK SMILES IDX 7 15 8 16 12 17 9 18 11 19 13 20 10 21 20 22 21 23 22 24
REMARK SMILES IDX 23 25 24 26 25 28 26 29 27 30 88 31 28 32 87 33 29 34 30 35
REMARK SMILES IDX 31 36 81 37 32 38 86 39 80 40 82 41 33 42 85 43 79 44 78 45
REMARK SMILES IDX 34 47 66 48 46 49 65 50 47 51 50 52 64 53 83 54 48 55 49 56
REMARK SMILES IDX 63 58 84 59 51 60 35 61 36 62 44 63 37 64 38 65 42 66 45 67
REMARK SMILES IDX 39 68 40 69 43 70 41 71 67 72 68 73 76 74 69 75 70 76 74 77
REMARK SMILES IDX 77 78 71 79 72 80 75 81 73 82 52 83 53 84 61 85 54 86 55 87
REMARK SMILES IDX 59 88 62 89 56 90 57 91 60 92 58 93
REMARK H PARENT 16 7 6 14 23 27 82 46 50 57
REMARK Flexibility Score: inf
ROOT
ATOM      1  C   UNL A   1      32.092  29.591  27.120  1.00  0.00     0.002 C 
ENDROOT
BRANCH   1   2
ATOM      2  C   UNL A   1      32.104  28.112  26.716  1.00  0.00     0.021 C 
BRANCH   2   3
ATOM      3  C   UNL A   1      33.250  27.758  25.776  1.00  0.00     0.116 C 
BRANCH   3   4
ATOM      4  N   UNL A   1      32.734  27.422  24.465  1.00  0.00    -0.354 N 
ATOM      5  C   UNL A   1      32.448  26.210  23.914  1.00  0.00     0.242 C 
ATOM      6  O   UNL A   1      32.168  26.202  22.710  1.00  0.00    -0.273 OA
ATOM      7  H   UNL A   1      32.561  28.194  23.878  1.00  0.00     0.163 HD
BRANCH   5   8
ATOM      8  C   UNL A   1      32.540  24.893  24.712  1.00  0.00     0.174 C 
BRANCH   8   9
ATOM      9  C   UNL A   1      31.113  24.551  25.200  1.00  0.00     0.125 C 
BRANCH   9  10
ATOM     10  N   UNL A   1      31.048  23.202  25.799  1.00  0.00    -0.091 NA
ATOM     11  N   UNL A   1      29.535  22.974  27.625  1.00  0.00    -0.003 NA
ATOM     12  N   UNL A   1      30.275  23.076  26.764  1.00  0.00     0.001 N 
ENDBRANCH   9  10
ENDBRANCH   8   9
BRANCH   8  13
ATOM     13  N   UNL A   1      33.155  23.750  23.998  1.00  0.00    -0.373 N 
ATOM     14  H   UNL A   1      32.708  23.464  23.168  1.00  0.00     0.161 HD
BRANCH  13  15
ATOM     15  C   UNL A   1      34.284  23.035  24.360  1.00  0.00     0.049 A 
ATOM     16  C   UNL A   1      35.472  23.785  24.482  1.00  0.00     0.027 A 
ATOM     17  C   UNL A   1      34.346  21.678  24.718  1.00  0.00     0.041 A 
ATOM     18  C   UNL A   1      36.627  23.250  25.056  1.00  0.00     0.002 A 
ATOM     19  C   UNL A   1      35.500  21.141  25.308  1.00  0.00     0.018 A 
ATOM     20  Br  UNL A   1      32.972  20.433  24.290  1.00  0.00    -0.049 Br
ATOM     21  C   UNL A   1      36.631  21.933  25.500  1.00  0.00     0.001 A 
ENDBRANCH  13  15
ENDBRANCH   8  13
ENDBRANCH   5   8
ENDBRANCH   3   4
ENDBRANCH   2   3
ENDBRANCH   1   2
BRANCH   1  22
ATOM     22  C   UNL A   1      31.579  30.546  26.036  1.00  0.00     0.002 C 
BRANCH  22  23
ATOM     23  C   UNL A   1      31.393  31.994  26.496  1.00  0.00     0.021 C 
BRANCH  23  24
ATOM     24  C   UNL A   1      32.596  32.577  27.228  1.00  0.00     0.116 C 
BRANCH  24  25
ATOM     25  N   UNL A   1      32.403  33.979  27.559  1.00  0.00    -0.352 N 
ATOM     26  C   UNL A   1      33.000  34.735  28.533  1.00  0.00     0.251 C 
ATOM     27  H   UNL A   1      31.746  34.456  27.001  1.00  0.00     0.163 HD
ATOM     28  O   UNL A   1      32.562  35.848  28.809  1.00  0.00    -0.269 OA
BRANCH  26  29
ATOM     29  C   UNL A   1      34.165  34.200  29.267  1.00  0.00     0.039 A 
ATOM     30  C   UNL A   1      33.953  33.586  30.503  1.00  0.00     0.014 A 
ATOM     31  C   UNL A   1      35.458  34.309  28.746  1.00  0.00     0.014 A 
ATOM     32  C   UNL A   1      35.033  33.034  31.192  1.00  0.00     0.010 A 
ATOM     33  C   UNL A   1      36.522  33.690  29.396  1.00  0.00     0.010 A 
ATOM     34  C   UNL A   1      36.320  33.049  30.627  1.00  0.00    -0.014 A 
BRANCH  34  35
ATOM     35  C   UNL A   1      37.453  32.379  31.312  1.00  0.00     0.031 A 
ATOM     36  C   UNL A   1      38.160  31.220  30.668  1.00  0.00     0.074 A 
ATOM     37  C   UNL A   1      37.813  32.791  32.543  1.00  0.00     0.049 A 
ATOM     38  N   UNL A   1      39.160  30.507  31.120  1.00  0.00    -0.248 NA
ATOM     39  C   UNL A   1      37.663  30.788  29.352  1.00  0.00     0.031 C 
ATOM     40  C   UNL A   1      37.165  33.866  33.295  1.00  0.00     0.029 A 
ATOM     41  N   UNL A   1      38.810  32.355  33.379  1.00  0.00    -0.354 N 
ATOM     42  C   UNL A   1      39.406  29.542  30.152  1.00  0.00     0.074 A 
ATOM     43  C   UNL A   1      38.415  29.723  29.114  1.00  0.00     0.031 C 
ATOM     44  C   UNL A   1      37.797  34.027  34.467  1.00  0.00     0.029 A 
ATOM     45  C   UNL A   1      38.869  33.042  34.568  1.00  0.00     0.049 A 
ATOM     46  H   UNL A   1      39.425  31.622  33.149  1.00  0.00     0.167 HD
ATOM     47  C   UNL A   1      40.386  28.607  30.122  1.00  0.00     0.037 A 
ATOM     48  C   UNL A   1      39.690  32.889  35.623  1.00  0.00     0.037 A 
ATOM     49  C   UNL A   1      41.379  28.443  31.153  1.00  0.00     0.049 A 
ATOM     50  C   UNL A   1      40.766  31.839  35.566  1.00  0.00     0.074 A 
ATOM     51  C   UNL A   1      42.453  27.572  31.185  1.00  0.00     0.029 A 
ATOM     52  N   UNL A   1      41.412  29.159  32.341  1.00  0.00    -0.354 N 
ATOM     53  N   UNL A   1      41.044  30.990  34.608  1.00  0.00    -0.248 NA
ATOM     54  C   UNL A   1      41.646  31.730  36.738  1.00  0.00     0.031 C 
ATOM     55  C   UNL A   1      43.098  27.715  32.418  1.00  0.00     0.029 A 
ATOM     56  C   UNL A   1      42.467  28.724  33.128  1.00  0.00     0.049 A 
ATOM     57  H   UNL A   1      40.778  29.872  32.589  1.00  0.00     0.167 HD
ATOM     58  C   UNL A   1      42.143  30.264  35.046  1.00  0.00     0.074 A 
ATOM     59  C   UNL A   1      42.495  30.790  36.349  1.00  0.00     0.031 C 
ATOM     60  C   UNL A   1      42.801  29.253  34.427  1.00  0.00     0.037 A 
BRANCH  47  61
ATOM     61  C   UNL A   1      40.432  27.682  28.939  1.00  0.00     0.064 A 
ATOM     62  C   UNL A   1      39.660  26.510  28.886  1.00  0.00     0.173 A 
ATOM     63  C   UNL A   1      41.228  27.989  27.825  1.00  0.00     0.173 A 
ATOM     64  F   UNL A   1      38.889  26.161  29.927  1.00  0.00    -0.203 F 
ATOM     65  C   UNL A   1      39.710  25.667  27.778  1.00  0.00     0.198 A 
ATOM     66  C   UNL A   1      41.248  27.163  26.705  1.00  0.00     0.198 A 
ATOM     67  F   UNL A   1      41.981  29.100  27.817  1.00  0.00    -0.203 F 
ATOM     68  F   UNL A   1      39.005  24.526  27.774  1.00  0.00    -0.200 F 
ATOM     69  C   UNL A   1      40.496  25.998  26.686  1.00  0.00     0.200 A 
ATOM     70  F   UNL A   1      41.998  27.492  25.643  1.00  0.00    -0.200 F 
ATOM     71  F   UNL A   1      40.535  25.190  25.617  1.00  0.00    -0.200 F 
ENDBRANCH  47  61
BRANCH  48  72
ATOM     72  C   UNL A   1      39.537  33.766  36.814  1.00  0.00     0.064 A 
ATOM     73  C   UNL A   1      40.166  35.017  36.878  1.00  0.00     0.173 A 
ATOM     74  C   UNL A   1      38.758  33.372  37.911  1.00  0.00     0.173 A 
ATOM     75  F   UNL A   1      40.937  35.432  35.860  1.00  0.00    -0.203 F 
ATOM     76  C   UNL A   1      40.041  35.831  38.001  1.00  0.00     0.198 A 
ATOM     77  C   UNL A   1      38.606  34.201  39.021  1.00  0.00     0.198 A 
ATOM     78  F   UNL A   1      38.129  32.188  37.899  1.00  0.00    -0.203 F 
ATOM     79  F   UNL A   1      40.693  37.000  38.056  1.00  0.00    -0.200 F 
ATOM     80  C   UNL A   1      39.256  35.424  39.070  1.00  0.00     0.200 A 
ATOM     81  F   UNL A   1      37.831  33.812  40.043  1.00  0.00    -0.200 F 
ATOM     82  F   UNL A   1      39.129  36.210  40.148  1.00  0.00    -0.200 F 
ENDBRANCH  48  72
BRANCH  60  83
ATOM     83  C   UNL A   1      43.984  28.664  35.143  1.00  0.00     0.064 A 
ATOM     84  C   UNL A   1      43.854  27.561  36.001  1.00  0.00     0.173 A 
ATOM     85  C   UNL A   1      45.269  29.193  34.948  1.00  0.00     0.173 A 
ATOM     86  F   UNL A   1      42.646  27.025  36.234  1.00  0.00    -0.203 F 
ATOM     87  C   UNL A   1      44.961  27.033  36.662  1.00  0.00     0.198 A 
ATOM     88  C   UNL A   1      46.378  28.641  35.582  1.00  0.00     0.198 A 
ATOM     89  F   UNL A   1      45.452  30.243  34.132  1.00  0.00    -0.203 F 
ATOM     90  F   UNL A   1      44.802  26.019  37.524  1.00  0.00    -0.200 F 
ATOM     91  C   UNL A   1      46.222  27.569  36.447  1.00  0.00     0.200 A 
ATOM     92  F   UNL A   1      47.598  29.149  35.359  1.00  0.00    -0.200 F 
ATOM     93  F   UNL A   1      47.286  27.056  37.080  1.00  0.00    -0.200 F 
ENDBRANCH  60  83
ENDBRANCH  34  35
ENDBRANCH  26  29
ENDBRANCH  24  25
ENDBRANCH  23  24
ENDBRANCH  22  23
ENDBRANCH   1  22
TORSDOF 17
ENDMDL
