MODEL 1
REMARK VINA RESULT:     -10.6      0.000      0.000
REMARK SMILES O=C(NCCCCCCNC(=O)[C@@H]([NH2+]C[C@@H]1CCCO1)c1cncn1C1CC1)c1ccc(-c2c3nc(c(-c4c(F)c(F)c(F)c(F)c4F)c4ccc([nH]4)c(-c4c(F)c(F)c(F)c(F)c4F)c4nc(c(-c5c(F)c(F)c(F)c(F)c5F)c5ccc2[nH]5)C=C4)C=C3)cc1
REMARK SMILES IDX 7 1 6 2 5 3 4 4 3 5 1 6 2 7 29 9 30 10 91 11 31 12 90 13
REMARK SMILES IDX 32 14 33 15 34 16 84 17 35 18 89 19 83 20 85 21 36 22 88 23
REMARK SMILES IDX 82 24 81 25 37 27 69 28 49 29 68 30 50 31 53 32 67 33 86 34
REMARK SMILES IDX 51 35 52 36 66 38 87 39 54 40 38 41 39 42 47 43 40 44 41 45
REMARK SMILES IDX 45 46 48 47 42 48 43 49 46 50 44 51 70 52 71 53 79 54 72 55
REMARK SMILES IDX 73 56 77 57 80 58 74 59 75 60 78 61 76 62 55 63 56 64 64 65
REMARK SMILES IDX 57 66 58 67 62 68 65 69 59 70 60 71 63 72 61 73 8 74 9 75
REMARK SMILES IDX 10 76 11 77 12 79 13 80 14 81 15 84 16 85 17 86 20 87 18 88
REMARK SMILES IDX 19 89 21 90 22 91 25 92 23 93 24 94 26 95 27 96 28 97
REMARK H PARENT 3 8 85 26 53 37 10 78 14 82 14 83
REMARK Flexibility Score: inf
ROOT
ATOM      1  C   UNL A   1      39.192  21.818  26.142  1.00  0.00     0.002 C 
ENDROOT
BRANCH   1   2
ATOM      2  C   UNL A   1      40.475  21.230  26.735  1.00  0.00     0.002 C 
BRANCH   2   3
ATOM      3  C   UNL A   1      40.895  19.879  26.148  1.00  0.00     0.021 C 
BRANCH   3   4
ATOM      4  C   UNL A   1      42.373  19.533  26.348  1.00  0.00     0.116 C 
BRANCH   4   5
ATOM      5  N   UNL A   1      43.213  19.886  25.227  1.00  0.00    -0.352 N 
ATOM      6  O   UNL A   1      44.578  20.949  23.847  1.00  0.00    -0.269 OA
ATOM      7  C   UNL A   1      43.904  21.010  24.879  1.00  0.00     0.251 C 
ATOM      8  H   UNL A   1      43.308  19.157  24.572  1.00  0.00     0.163 HD
BRANCH   7   9
ATOM      9  C   UNL A   1      43.850  22.293  25.627  1.00  0.00     0.039 A 
ATOM     10  C   UNL A   1      44.564  22.583  26.792  1.00  0.00     0.014 A 
ATOM     11  C   UNL A   1      42.994  23.275  25.104  1.00  0.00     0.014 A 
ATOM     12  C   UNL A   1      44.365  23.774  27.475  1.00  0.00     0.010 A 
ATOM     13  C   UNL A   1      42.821  24.489  25.756  1.00  0.00     0.010 A 
ATOM     14  C   UNL A   1      43.482  24.718  26.963  1.00  0.00    -0.014 A 
BRANCH  14  15
ATOM     15  C   UNL A   1      43.358  25.981  27.683  1.00  0.00     0.031 A 
ATOM     16  C   UNL A   1      44.376  27.035  27.369  1.00  0.00     0.074 A 
ATOM     17  C   UNL A   1      42.284  26.241  28.451  1.00  0.00     0.049 A 
ATOM     18  N   UNL A   1      45.020  27.820  28.176  1.00  0.00    -0.248 NA
ATOM     19  C   UNL A   1      44.741  27.213  25.952  1.00  0.00     0.031 C 
ATOM     20  C   UNL A   1      41.078  25.423  28.607  1.00  0.00     0.029 A 
ATOM     21  N   UNL A   1      41.987  27.374  29.146  1.00  0.00    -0.354 N 
ATOM     22  C   UNL A   1      45.757  28.689  27.367  1.00  0.00     0.074 A 
ATOM     23  C   UNL A   1      45.612  28.218  26.015  1.00  0.00     0.031 C 
ATOM     24  C   UNL A   1      40.098  26.184  29.139  1.00  0.00     0.029 A 
ATOM     25  C   UNL A   1      40.645  27.489  29.464  1.00  0.00     0.049 A 
ATOM     26  H   UNL A   1      42.662  28.045  29.399  1.00  0.00     0.167 HD
ATOM     27  C   UNL A   1      46.304  29.845  27.832  1.00  0.00     0.037 A 
ATOM     28  C   UNL A   1      40.005  28.615  29.857  1.00  0.00     0.037 A 
ATOM     29  C   UNL A   1      46.540  29.803  29.246  1.00  0.00     0.049 A 
ATOM     30  C   UNL A   1      41.020  29.587  30.327  1.00  0.00     0.074 A 
ATOM     31  C   UNL A   1      47.316  29.020  30.079  1.00  0.00     0.029 A 
ATOM     32  N   UNL A   1      45.721  30.514  30.084  1.00  0.00    -0.354 N 
ATOM     33  N   UNL A   1      41.729  29.451  31.412  1.00  0.00    -0.248 NA
ATOM     34  C   UNL A   1      41.527  30.554  29.365  1.00  0.00     0.031 C 
ATOM     35  C   UNL A   1      46.583  28.933  31.299  1.00  0.00     0.029 A 
ATOM     36  C   UNL A   1      45.417  29.677  31.125  1.00  0.00     0.049 A 
ATOM     37  H   UNL A   1      45.414  31.442  29.963  1.00  0.00     0.167 HD
ATOM     38  C   UNL A   1      42.962  30.007  31.101  1.00  0.00     0.074 A 
ATOM     39  C   UNL A   1      42.743  30.762  29.874  1.00  0.00     0.031 C 
ATOM     40  C   UNL A   1      44.105  29.579  31.713  1.00  0.00     0.037 A 
BRANCH  27  41
ATOM     41  C   UNL A   1      46.351  31.132  27.040  1.00  0.00     0.064 A 
ATOM     42  C   UNL A   1      47.563  31.845  26.936  1.00  0.00     0.173 A 
ATOM     43  C   UNL A   1      45.195  31.837  26.642  1.00  0.00     0.173 A 
ATOM     44  F   UNL A   1      48.723  31.281  27.305  1.00  0.00    -0.203 F 
ATOM     45  C   UNL A   1      47.600  33.186  26.543  1.00  0.00     0.198 A 
ATOM     46  C   UNL A   1      45.243  33.160  26.199  1.00  0.00     0.198 A 
ATOM     47  F   UNL A   1      43.968  31.318  26.768  1.00  0.00    -0.203 F 
ATOM     48  F   UNL A   1      48.759  33.858  26.581  1.00  0.00    -0.200 F 
ATOM     49  C   UNL A   1      46.440  33.843  26.181  1.00  0.00     0.200 A 
ATOM     50  F   UNL A   1      44.105  33.786  25.868  1.00  0.00    -0.200 F 
ATOM     51  F   UNL A   1      46.464  35.145  25.866  1.00  0.00    -0.200 F 
ENDBRANCH  27  41
BRANCH  28  52
ATOM     52  C   UNL A   1      38.611  28.997  29.543  1.00  0.00     0.064 A 
ATOM     53  C   UNL A   1      37.706  29.343  30.556  1.00  0.00     0.173 A 
ATOM     54  C   UNL A   1      38.203  29.255  28.218  1.00  0.00     0.173 A 
ATOM     55  F   UNL A   1      38.043  29.183  31.843  1.00  0.00    -0.203 F 
ATOM     56  C   UNL A   1      36.464  29.914  30.259  1.00  0.00     0.198 A 
ATOM     57  C   UNL A   1      36.959  29.809  27.923  1.00  0.00     0.198 A 
ATOM     58  F   UNL A   1      39.040  29.059  27.188  1.00  0.00    -0.203 F 
ATOM     59  F   UNL A   1      35.644  30.281  31.254  1.00  0.00    -0.200 F 
ATOM     60  C   UNL A   1      36.092  30.148  28.945  1.00  0.00     0.200 A 
ATOM     61  F   UNL A   1      36.630  30.062  26.648  1.00  0.00    -0.200 F 
ATOM     62  F   UNL A   1      34.921  30.734  28.663  1.00  0.00    -0.200 F 
ENDBRANCH  28  52
BRANCH  40  63
ATOM     63  C   UNL A   1      43.966  28.683  32.907  1.00  0.00     0.064 A 
ATOM     64  C   UNL A   1      43.832  27.287  32.809  1.00  0.00     0.173 A 
ATOM     65  C   UNL A   1      44.132  29.229  34.186  1.00  0.00     0.173 A 
ATOM     66  F   UNL A   1      43.786  26.684  31.614  1.00  0.00    -0.203 F 
ATOM     67  C   UNL A   1      43.813  26.481  33.945  1.00  0.00     0.198 A 
ATOM     68  C   UNL A   1      44.148  28.417  35.317  1.00  0.00     0.198 A 
ATOM     69  F   UNL A   1      44.334  30.547  34.334  1.00  0.00    -0.203 F 
ATOM     70  F   UNL A   1      43.675  25.153  33.824  1.00  0.00    -0.200 F 
ATOM     71  C   UNL A   1      43.976  27.047  35.198  1.00  0.00     0.200 A 
ATOM     72  F   UNL A   1      44.361  28.960  36.524  1.00  0.00    -0.200 F 
ATOM     73  F   UNL A   1      44.002  26.268  36.288  1.00  0.00    -0.200 F 
ENDBRANCH  40  63
ENDBRANCH  14  15
ENDBRANCH   7   9
ENDBRANCH   4   5
ENDBRANCH   3   4
ENDBRANCH   2   3
ENDBRANCH   1   2
BRANCH   1  74
ATOM     74  C   UNL A   1      38.990  23.314  26.412  1.00  0.00     0.021 C 
BRANCH  74  75
ATOM     75  C   UNL A   1      37.554  23.774  26.218  1.00  0.00     0.116 C 
BRANCH  75  76
ATOM     76  N   UNL A   1      36.779  22.726  25.587  1.00  0.00    -0.351 N 
ATOM     77  C   UNL A   1      35.447  22.715  25.279  1.00  0.00     0.284 C 
ATOM     78  H   UNL A   1      37.276  21.911  25.350  1.00  0.00     0.163 HD
ATOM     79  O   UNL A   1      34.990  21.693  24.756  1.00  0.00    -0.268 OA
BRANCH  77  80
ATOM     80  C   UNL A   1      34.522  23.869  25.709  1.00  0.00     0.322 C 
BRANCH  80  81
ATOM     81  N   UNL A   1      34.719  24.910  24.652  1.00  0.00    -0.329 N 
ATOM     82  H   UNL A   1      34.628  24.441  23.752  1.00  0.00     0.347 HD
ATOM     83  H   UNL A   1      35.632  25.308  24.874  1.00  0.00     0.347 HD
BRANCH  81  84
ATOM     84  C   UNL A   1      33.831  26.076  24.619  1.00  0.00     0.293 C 
BRANCH  84  85
ATOM     85  C   UNL A   1      33.905  27.111  25.754  1.00  0.00     0.173 C 
ATOM     86  C   UNL A   1      32.677  27.180  26.648  1.00  0.00     0.040 C 
ATOM     87  O   UNL A   1      34.144  28.440  25.258  1.00  0.00    -0.372 OA
ATOM     88  C   UNL A   1      32.739  28.602  27.149  1.00  0.00     0.031 C 
ATOM     89  C   UNL A   1      33.253  29.339  25.933  1.00  0.00     0.161 C 
ENDBRANCH  84  85
ENDBRANCH  81  84
ENDBRANCH  80  81
BRANCH  80  90
ATOM     90  C   UNL A   1      33.080  23.491  25.941  1.00  0.00     0.106 A 
ATOM     91  C   UNL A   1      32.526  23.162  27.177  1.00  0.00     0.141 A 
ATOM     92  N   UNL A   1      32.003  23.294  25.083  1.00  0.00    -0.326 N 
ATOM     93  N   UNL A   1      31.175  23.012  27.138  1.00  0.00    -0.245 NA
ATOM     94  C   UNL A   1      30.884  23.136  25.871  1.00  0.00     0.200 A 
BRANCH  92  95
ATOM     95  C   UNL A   1      31.820  23.055  23.657  1.00  0.00     0.089 C 
ATOM     96  C   UNL A   1      32.730  22.973  22.464  1.00  0.00     0.027 C 
ATOM     97  C   UNL A   1      32.235  21.712  23.078  1.00  0.00     0.027 C 
ENDBRANCH  92  95
ENDBRANCH  80  90
ENDBRANCH  77  80
ENDBRANCH  75  76
ENDBRANCH  74  75
ENDBRANCH   1  74
TORSDOF 18
ENDMDL
MODEL 2
REMARK VINA RESULT:     -10.6      1.935      3.514
REMARK SMILES O=C(NCCCCCCNC(=O)[C@@H]([NH2+]C[C@@H]1CCCO1)c1cncn1C1CC1)c1ccc(-c2c3nc(c(-c4c(F)c(F)c(F)c(F)c4F)c4ccc([nH]4)c(-c4c(F)c(F)c(F)c(F)c4F)c4nc(c(-c5c(F)c(F)c(F)c(F)c5F)c5ccc2[nH]5)C=C4)C=C3)cc1
REMARK SMILES IDX 7 1 6 2 5 3 4 4 3 5 1 6 2 7 29 9 30 10 91 11 31 12 90 13
REMARK SMILES IDX 32 14 33 15 34 16 84 17 35 18 89 19 83 20 85 21 36 22 88 23
REMARK SMILES IDX 82 24 81 25 37 27 69 28 49 29 68 30 50 31 53 32 67 33 86 34
REMARK SMILES IDX 51 35 52 36 66 38 87 39 54 40 38 41 39 42 47 43 40 44 41 45
REMARK SMILES IDX 45 46 48 47 42 48 43 49 46 50 44 51 70 52 71 53 79 54 72 55
REMARK SMILES IDX 73 56 77 57 80 58 74 59 75 60 78 61 76 62 55 63 56 64 64 65
REMARK SMILES IDX 57 66 58 67 62 68 65 69 59 70 60 71 63 72 61 73 8 74 9 75
REMARK SMILES IDX 10 76 11 77 12 79 13 80 14 81 15 84 16 85 17 86 20 87 18 88
REMARK SMILES IDX 19 89 21 90 22 91 25 92 23 93 24 94 26 95 27 96 28 97
REMARK H PARENT 3 8 85 26 53 37 10 78 14 82 14 83
REMARK Flexibility Score: inf
ROOT
ATOM      1  C   UNL A   1      37.718  23.618  26.055  1.00  0.00     0.002 C 
ENDROOT
BRANCH   1   2
ATOM      2  C   UNL A   1      39.095  23.145  26.530  1.00  0.00     0.002 C 
BRANCH   2   3
ATOM      3  C   UNL A   1      39.422  21.685  26.199  1.00  0.00     0.021 C 
BRANCH   3   4
ATOM      4  C   UNL A   1      40.848  21.259  26.560  1.00  0.00     0.116 C 
BRANCH   4   5
ATOM      5  N   UNL A   1      41.832  21.602  25.559  1.00  0.00    -0.352 N 
ATOM      6  O   UNL A   1      43.428  22.617  24.410  1.00  0.00    -0.269 OA
ATOM      7  C   UNL A   1      42.654  22.675  25.370  1.00  0.00     0.251 C 
ATOM      8  H   UNL A   1      41.931  20.913  24.864  1.00  0.00     0.163 HD
BRANCH   7   9
ATOM      9  C   UNL A   1      42.635  23.904  26.205  1.00  0.00     0.039 A 
ATOM     10  C   UNL A   1      43.210  24.033  27.472  1.00  0.00     0.014 A 
ATOM     11  C   UNL A   1      41.967  25.010  25.656  1.00  0.00     0.014 A 
ATOM     12  C   UNL A   1      43.047  25.192  28.216  1.00  0.00     0.010 A 
ATOM     13  C   UNL A   1      41.837  26.192  26.375  1.00  0.00     0.010 A 
ATOM     14  C   UNL A   1      42.347  26.264  27.672  1.00  0.00    -0.014 A 
BRANCH  14  15
ATOM     15  C   UNL A   1      42.260  27.483  28.468  1.00  0.00     0.031 A 
ATOM     16  C   UNL A   1      43.348  28.495  28.266  1.00  0.00     0.074 A 
ATOM     17  C   UNL A   1      41.169  27.755  29.208  1.00  0.00     0.049 A 
ATOM     18  N   UNL A   1      43.998  29.189  29.149  1.00  0.00    -0.248 NA
ATOM     19  C   UNL A   1      43.784  28.741  26.880  1.00  0.00     0.031 C 
ATOM     20  C   UNL A   1      39.915  26.999  29.260  1.00  0.00     0.029 A 
ATOM     21  N   UNL A   1      40.905  28.856  29.963  1.00  0.00    -0.354 N 
ATOM     22  C   UNL A   1      44.816  30.063  28.429  1.00  0.00     0.074 A 
ATOM     23  C   UNL A   1      44.705  29.689  27.045  1.00  0.00     0.031 C 
ATOM     24  C   UNL A   1      38.956  27.779  29.801  1.00  0.00     0.029 A 
ATOM     25  C   UNL A   1      39.558  29.028  30.234  1.00  0.00     0.049 A 
ATOM     26  H   UNL A   1      41.604  29.470  30.287  1.00  0.00     0.167 HD
ATOM     27  C   UNL A   1      45.404  31.154  28.992  1.00  0.00     0.037 A 
ATOM     28  C   UNL A   1      38.964  30.161  30.674  1.00  0.00     0.037 A 
ATOM     29  C   UNL A   1      45.574  31.009  30.408  1.00  0.00     0.049 A 
ATOM     30  C   UNL A   1      40.009  31.041  31.248  1.00  0.00     0.074 A 
ATOM     31  C   UNL A   1      46.269  30.131  31.218  1.00  0.00     0.029 A 
ATOM     32  N   UNL A   1      44.760  31.711  31.258  1.00  0.00    -0.354 N 
ATOM     33  N   UNL A   1      40.661  30.796  32.349  1.00  0.00    -0.248 NA
ATOM     34  C   UNL A   1      40.610  32.037  30.374  1.00  0.00     0.031 C 
ATOM     35  C   UNL A   1      45.479  30.008  32.399  1.00  0.00     0.029 A 
ATOM     36  C   UNL A   1      44.364  30.827  32.228  1.00  0.00     0.049 A 
ATOM     37  H   UNL A   1      44.510  32.660  31.186  1.00  0.00     0.167 HD
ATOM     38  C   UNL A   1      41.934  31.298  32.126  1.00  0.00     0.074 A 
ATOM     39  C   UNL A   1      41.812  32.142  30.944  1.00  0.00     0.031 C 
ATOM     40  C   UNL A   1      43.025  30.767  32.754  1.00  0.00     0.037 A 
BRANCH  27  41
ATOM     41  C   UNL A   1      45.556  32.484  28.289  1.00  0.00     0.064 A 
ATOM     42  C   UNL A   1      44.408  33.221  27.932  1.00  0.00     0.173 A 
ATOM     43  C   UNL A   1      46.761  32.908  27.689  1.00  0.00     0.173 A 
ATOM     44  F   UNL A   1      43.204  32.895  28.425  1.00  0.00    -0.203 F 
ATOM     45  C   UNL A   1      44.455  34.248  26.984  1.00  0.00     0.198 A 
ATOM     46  C   UNL A   1      46.812  33.969  26.784  1.00  0.00     0.198 A 
ATOM     47  F   UNL A   1      47.913  32.249  27.868  1.00  0.00    -0.203 F 
ATOM     48  F   UNL A   1      43.318  34.834  26.583  1.00  0.00    -0.200 F 
ATOM     49  C   UNL A   1      45.655  34.616  26.407  1.00  0.00     0.200 A 
ATOM     50  F   UNL A   1      47.983  34.301  26.223  1.00  0.00    -0.200 F 
ATOM     51  F   UNL A   1      45.693  35.556  25.453  1.00  0.00    -0.200 F 
ENDBRANCH  27  41
BRANCH  28  52
ATOM     52  C   UNL A   1      37.608  30.641  30.330  1.00  0.00     0.064 A 
ATOM     53  C   UNL A   1      36.741  31.139  31.313  1.00  0.00     0.173 A 
ATOM     54  C   UNL A   1      37.220  30.839  28.989  1.00  0.00     0.173 A 
ATOM     55  F   UNL A   1      37.067  31.043  32.609  1.00  0.00    -0.203 F 
ATOM     56  C   UNL A   1      35.553  31.795  30.972  1.00  0.00     0.198 A 
ATOM     57  C   UNL A   1      36.029  31.479  28.651  1.00  0.00     0.198 A 
ATOM     58  F   UNL A   1      38.032  30.496  27.978  1.00  0.00    -0.203 F 
ATOM     59  F   UNL A   1      34.773  32.303  31.936  1.00  0.00    -0.200 F 
ATOM     60  C   UNL A   1      35.199  31.966  29.644  1.00  0.00     0.200 A 
ATOM     61  F   UNL A   1      35.719  31.668  27.361  1.00  0.00    -0.200 F 
ATOM     62  F   UNL A   1      34.084  32.632  29.317  1.00  0.00    -0.200 F 
ENDBRANCH  28  52
BRANCH  40  63
ATOM     63  C   UNL A   1      42.784  29.807  33.880  1.00  0.00     0.064 A 
ATOM     64  C   UNL A   1      42.495  28.446  33.680  1.00  0.00     0.173 A 
ATOM     65  C   UNL A   1      43.009  30.234  35.194  1.00  0.00     0.173 A 
ATOM     66  F   UNL A   1      42.383  27.942  32.444  1.00  0.00    -0.203 F 
ATOM     67  C   UNL A   1      42.383  27.565  34.753  1.00  0.00     0.198 A 
ATOM     68  C   UNL A   1      42.931  29.344  36.263  1.00  0.00     0.198 A 
ATOM     69  F   UNL A   1      43.357  31.507  35.438  1.00  0.00    -0.203 F 
ATOM     70  F   UNL A   1      42.097  26.273  34.535  1.00  0.00    -0.200 F 
ATOM     71  C   UNL A   1      42.607  28.014  36.043  1.00  0.00     0.200 A 
ATOM     72  F   UNL A   1      43.203  29.769  37.504  1.00  0.00    -0.200 F 
ATOM     73  F   UNL A   1      42.544  27.159  37.072  1.00  0.00    -0.200 F 
ENDBRANCH  40  63
ENDBRANCH  14  15
ENDBRANCH   7   9
ENDBRANCH   4   5
ENDBRANCH   3   4
ENDBRANCH   2   3
ENDBRANCH   1   2
BRANCH   1  74
ATOM     74  C   UNL A   1      37.014  22.664  25.083  1.00  0.00     0.021 C 
BRANCH  74  75
ATOM     75  C   UNL A   1      35.506  22.850  25.042  1.00  0.00     0.116 C 
BRANCH  75  76
ATOM     76  N   UNL A   1      34.954  22.729  26.375  1.00  0.00    -0.351 N 
ATOM     77  C   UNL A   1      33.646  22.604  26.751  1.00  0.00     0.284 C 
ATOM     78  H   UNL A   1      35.608  22.741  27.110  1.00  0.00     0.163 HD
ATOM     79  O   UNL A   1      33.404  22.537  27.961  1.00  0.00    -0.268 OA
BRANCH  77  80
ATOM     80  C   UNL A   1      32.509  22.699  25.717  1.00  0.00     0.322 C 
BRANCH  80  81
ATOM     81  N   UNL A   1      31.828  21.369  25.797  1.00  0.00    -0.329 N 
ATOM     82  H   UNL A   1      30.829  21.540  25.691  1.00  0.00     0.347 HD
ATOM     83  H   UNL A   1      32.139  20.993  26.693  1.00  0.00     0.347 HD
BRANCH  81  84
ATOM     84  C   UNL A   1      32.186  20.321  24.837  1.00  0.00     0.293 C 
BRANCH  84  85
ATOM     85  C   UNL A   1      33.034  19.127  25.307  1.00  0.00     0.173 C 
ATOM     86  C   UNL A   1      34.001  18.572  24.273  1.00  0.00     0.040 C 
ATOM     87  O   UNL A   1      32.220  18.031  25.758  1.00  0.00    -0.372 OA
ATOM     88  C   UNL A   1      34.146  17.140  24.723  1.00  0.00     0.031 C 
ATOM     89  C   UNL A   1      32.747  16.819  25.199  1.00  0.00     0.161 C 
ENDBRANCH  84  85
ENDBRANCH  81  84
ENDBRANCH  80  81
BRANCH  80  90
ATOM     90  C   UNL A   1      31.581  23.878  25.881  1.00  0.00     0.106 A 
ATOM     91  C   UNL A   1      30.287  23.815  26.394  1.00  0.00     0.141 A 
ATOM     92  N   UNL A   1      31.687  25.221  25.535  1.00  0.00    -0.326 N 
ATOM     93  N   UNL A   1      29.722  25.038  26.581  1.00  0.00    -0.245 NA
ATOM     94  C   UNL A   1      30.604  25.867  26.091  1.00  0.00     0.200 A 
BRANCH  92  95
ATOM     95  C   UNL A   1      32.516  26.017  24.640  1.00  0.00     0.089 C 
ATOM     96  C   UNL A   1      33.143  27.382  24.699  1.00  0.00     0.027 C 
ATOM     97  C   UNL A   1      33.991  26.189  24.964  1.00  0.00     0.027 C 
ENDBRANCH  92  95
ENDBRANCH  80  90
ENDBRANCH  77  80
ENDBRANCH  75  76
ENDBRANCH  74  75
ENDBRANCH   1  74
TORSDOF 18
ENDMDL
MODEL 3
REMARK VINA RESULT:     -10.5      2.770      8.527
REMARK SMILES O=C(NCCCCCCNC(=O)[C@@H]([NH2+]C[C@@H]1CCCO1)c1cncn1C1CC1)c1ccc(-c2c3nc(c(-c4c(F)c(F)c(F)c(F)c4F)c4ccc([nH]4)c(-c4c(F)c(F)c(F)c(F)c4F)c4nc(c(-c5c(F)c(F)c(F)c(F)c5F)c5ccc2[nH]5)C=C4)C=C3)cc1
REMARK SMILES IDX 7 1 6 2 5 3 4 4 3 5 1 6 2 7 29 9 30 10 91 11 31 12 90 13
REMARK SMILES IDX 32 14 33 15 34 16 84 17 35 18 89 19 83 20 85 21 36 22 88 23
REMARK SMILES IDX 82 24 81 25 37 27 69 28 49 29 68 30 50 31 53 32 67 33 86 34
REMARK SMILES IDX 51 35 52 36 66 38 87 39 54 40 38 41 39 42 47 43 40 44 41 45
REMARK SMILES IDX 45 46 48 47 42 48 43 49 46 50 44 51 70 52 71 53 79 54 72 55
REMARK SMILES IDX 73 56 77 57 80 58 74 59 75 60 78 61 76 62 55 63 56 64 64 65
REMARK SMILES IDX 57 66 58 67 62 68 65 69 59 70 60 71 63 72 61 73 8 74 9 75
REMARK SMILES IDX 10 76 11 77 12 79 13 80 14 81 15 84 16 85 17 86 20 87 18 88
REMARK SMILES IDX 19 89 21 90 22 91 25 92 23 93 24 94 26 95 27 96 28 97
REMARK H PARENT 3 8 85 26 53 37 10 78 14 82 14 83
REMARK Flexibility Score: inf
ROOT
ATOM      1  C   UNL A   1      32.062  27.600  26.148  1.00  0.00     0.002 C 
ENDROOT
BRANCH   1   2
ATOM      2  C   UNL A   1      32.596  28.438  27.314  1.00  0.00     0.002 C 
BRANCH   2   3
ATOM      3  C   UNL A   1      32.486  29.953  27.119  1.00  0.00     0.021 C 
BRANCH   3   4
ATOM      4  C   UNL A   1      33.810  30.708  27.269  1.00  0.00     0.116 C 
BRANCH   4   5
ATOM      5  N   UNL A   1      33.867  31.566  28.430  1.00  0.00    -0.352 N 
ATOM      6  O   UNL A   1      34.551  32.688  30.211  1.00  0.00    -0.269 OA
ATOM      7  C   UNL A   1      34.831  31.845  29.354  1.00  0.00     0.251 C 
ATOM      8  H   UNL A   1      33.028  32.055  28.590  1.00  0.00     0.163 HD
BRANCH   7   9
ATOM      9  C   UNL A   1      36.153  31.167  29.418  1.00  0.00     0.039 A 
ATOM     10  C   UNL A   1      36.355  29.786  29.463  1.00  0.00     0.014 A 
ATOM     11  C   UNL A   1      37.276  32.010  29.444  1.00  0.00     0.014 A 
ATOM     12  C   UNL A   1      37.626  29.254  29.626  1.00  0.00     0.010 A 
ATOM     13  C   UNL A   1      38.556  31.486  29.562  1.00  0.00     0.010 A 
ATOM     14  C   UNL A   1      38.722  30.106  29.691  1.00  0.00    -0.014 A 
BRANCH  14  15
ATOM     15  C   UNL A   1      40.043  29.495  29.798  1.00  0.00     0.031 A 
ATOM     16  C   UNL A   1      40.626  29.394  31.175  1.00  0.00     0.074 A 
ATOM     17  C   UNL A   1      40.621  28.899  28.739  1.00  0.00     0.049 A 
ATOM     18  N   UNL A   1      41.837  29.637  31.573  1.00  0.00    -0.248 NA
ATOM     19  C   UNL A   1      39.714  28.989  32.260  1.00  0.00     0.031 C 
ATOM     20  C   UNL A   1      40.035  28.665  27.416  1.00  0.00     0.029 A 
ATOM     21  N   UNL A   1      41.813  28.245  28.675  1.00  0.00    -0.354 N 
ATOM     22  C   UNL A   1      41.880  29.275  32.922  1.00  0.00     0.074 A 
ATOM     23  C   UNL A   1      40.532  28.962  33.311  1.00  0.00     0.031 C 
ATOM     24  C   UNL A   1      40.761  27.725  26.775  1.00  0.00     0.029 A 
ATOM     25  C   UNL A   1      41.914  27.389  27.592  1.00  0.00     0.049 A 
ATOM     26  H   UNL A   1      42.534  28.370  29.334  1.00  0.00     0.167 HD
ATOM     27  C   UNL A   1      43.047  29.087  33.598  1.00  0.00     0.037 A 
ATOM     28  C   UNL A   1      42.817  26.393  27.434  1.00  0.00     0.037 A 
ATOM     29  C   UNL A   1      44.137  29.809  33.009  1.00  0.00     0.049 A 
ATOM     30  C   UNL A   1      43.947  26.639  28.362  1.00  0.00     0.074 A 
ATOM     31  C   UNL A   1      44.406  31.145  32.779  1.00  0.00     0.029 A 
ATOM     32  N   UNL A   1      45.092  29.126  32.303  1.00  0.00    -0.354 N 
ATOM     33  N   UNL A   1      44.802  27.615  28.245  1.00  0.00    -0.248 NA
ATOM     34  C   UNL A   1      43.900  26.003  29.670  1.00  0.00     0.031 C 
ATOM     35  C   UNL A   1      45.165  31.170  31.572  1.00  0.00     0.029 A 
ATOM     36  C   UNL A   1      45.313  29.847  31.158  1.00  0.00     0.049 A 
ATOM     37  H   UNL A   1      45.532  28.285  32.565  1.00  0.00     0.167 HD
ATOM     38  C   UNL A   1      45.110  27.975  29.549  1.00  0.00     0.074 A 
ATOM     39  C   UNL A   1      44.612  26.882  30.376  1.00  0.00     0.031 C 
ATOM     40  C   UNL A   1      45.490  29.249  29.860  1.00  0.00     0.037 A 
BRANCH  27  41
ATOM     41  C   UNL A   1      43.256  28.002  34.629  1.00  0.00     0.064 A 
ATOM     42  C   UNL A   1      43.604  28.351  35.950  1.00  0.00     0.173 A 
ATOM     43  C   UNL A   1      43.425  26.641  34.296  1.00  0.00     0.173 A 
ATOM     44  F   UNL A   1      43.504  29.620  36.372  1.00  0.00    -0.203 F 
ATOM     45  C   UNL A   1      44.156  27.424  36.839  1.00  0.00     0.198 A 
ATOM     46  C   UNL A   1      43.926  25.707  35.204  1.00  0.00     0.198 A 
ATOM     47  F   UNL A   1      43.218  26.182  33.056  1.00  0.00    -0.203 F 
ATOM     48  F   UNL A   1      44.589  27.830  38.041  1.00  0.00    -0.200 F 
ATOM     49  C   UNL A   1      44.322  26.104  36.463  1.00  0.00     0.200 A 
ATOM     50  F   UNL A   1      44.095  24.435  34.815  1.00  0.00    -0.200 F 
ATOM     51  F   UNL A   1      44.908  25.228  37.289  1.00  0.00    -0.200 F 
ENDBRANCH  27  41
BRANCH  28  52
ATOM     52  C   UNL A   1      42.595  25.093  26.766  1.00  0.00     0.064 A 
ATOM     53  C   UNL A   1      43.376  24.694  25.673  1.00  0.00     0.173 A 
ATOM     54  C   UNL A   1      41.760  24.110  27.336  1.00  0.00     0.173 A 
ATOM     55  F   UNL A   1      44.238  25.554  25.112  1.00  0.00    -0.203 F 
ATOM     56  C   UNL A   1      43.323  23.387  25.177  1.00  0.00     0.198 A 
ATOM     57  C   UNL A   1      41.697  22.812  26.832  1.00  0.00     0.198 A 
ATOM     58  F   UNL A   1      41.057  24.364  28.450  1.00  0.00    -0.203 F 
ATOM     59  F   UNL A   1      44.122  23.025  24.163  1.00  0.00    -0.200 F 
ATOM     60  C   UNL A   1      42.486  22.448  25.758  1.00  0.00     0.200 A 
ATOM     61  F   UNL A   1      40.908  21.906  27.428  1.00  0.00    -0.200 F 
ATOM     62  F   UNL A   1      42.467  21.185  25.311  1.00  0.00    -0.200 F 
ENDBRANCH  28  52
BRANCH  40  63
ATOM     63  C   UNL A   1      45.818  30.177  28.729  1.00  0.00     0.064 A 
ATOM     64  C   UNL A   1      44.847  30.933  28.049  1.00  0.00     0.173 A 
ATOM     65  C   UNL A   1      47.162  30.431  28.429  1.00  0.00     0.173 A 
ATOM     66  F   UNL A   1      43.550  30.828  28.366  1.00  0.00    -0.203 F 
ATOM     67  C   UNL A   1      45.206  31.862  27.076  1.00  0.00     0.198 A 
ATOM     68  C   UNL A   1      47.519  31.386  27.480  1.00  0.00     0.198 A 
ATOM     69  F   UNL A   1      48.134  29.789  29.097  1.00  0.00    -0.203 F 
ATOM     70  F   UNL A   1      44.259  32.564  26.436  1.00  0.00    -0.200 F 
ATOM     71  C   UNL A   1      46.542  32.091  26.796  1.00  0.00     0.200 A 
ATOM     72  F   UNL A   1      48.814  31.646  27.251  1.00  0.00    -0.200 F 
ATOM     73  F   UNL A   1      46.889  33.017  25.892  1.00  0.00    -0.200 F 
ENDBRANCH  40  63
ENDBRANCH  14  15
ENDBRANCH   7   9
ENDBRANCH   4   5
ENDBRANCH   3   4
ENDBRANCH   2   3
ENDBRANCH   1   2
BRANCH   1  74
ATOM     74  C   UNL A   1      33.087  26.644  25.527  1.00  0.00     0.021 C 
BRANCH  74  75
ATOM     75  C   UNL A   1      32.490  25.714  24.483  1.00  0.00     0.116 C 
BRANCH  75  76
ATOM     76  N   UNL A   1      33.543  25.099  23.704  1.00  0.00    -0.351 N 
ATOM     77  C   UNL A   1      33.782  23.771  23.485  1.00  0.00     0.284 C 
ATOM     78  H   UNL A   1      34.174  25.721  23.275  1.00  0.00     0.163 HD
ATOM     79  O   UNL A   1      34.764  23.474  22.795  1.00  0.00    -0.268 OA
BRANCH  77  80
ATOM     80  C   UNL A   1      32.954  22.686  24.197  1.00  0.00     0.322 C 
BRANCH  80  81
ATOM     81  N   UNL A   1      33.214  21.445  23.402  1.00  0.00    -0.329 N 
ATOM     82  H   UNL A   1      34.094  21.056  23.737  1.00  0.00     0.347 HD
ATOM     83  H   UNL A   1      33.193  21.770  22.435  1.00  0.00     0.347 HD
BRANCH  81  84
ATOM     84  C   UNL A   1      32.230  20.360  23.424  1.00  0.00     0.293 C 
BRANCH  84  85
ATOM     85  C   UNL A   1      32.641  18.983  23.972  1.00  0.00     0.173 C 
ATOM     86  C   UNL A   1      34.044  18.910  24.554  1.00  0.00     0.040 C 
ATOM     87  O   UNL A   1      32.541  17.952  22.974  1.00  0.00    -0.372 OA
ATOM     88  C   UNL A   1      34.380  17.451  24.368  1.00  0.00     0.031 C 
ATOM     89  C   UNL A   1      33.727  17.147  23.038  1.00  0.00     0.161 C 
ENDBRANCH  84  85
ENDBRANCH  81  84
ENDBRANCH  80  81
BRANCH  80  90
ATOM     90  C   UNL A   1      33.216  22.538  25.675  1.00  0.00     0.106 A 
ATOM     91  C   UNL A   1      32.362  22.973  26.688  1.00  0.00     0.141 A 
ATOM     92  N   UNL A   1      34.299  22.054  26.401  1.00  0.00    -0.326 N 
ATOM     93  N   UNL A   1      32.757  22.580  27.929  1.00  0.00    -0.245 NA
ATOM     94  C   UNL A   1      33.906  21.995  27.720  1.00  0.00     0.200 A 
BRANCH  92  95
ATOM     95  C   UNL A   1      35.706  21.783  26.140  1.00  0.00     0.089 C 
ATOM     96  C   UNL A   1      36.565  21.689  24.910  1.00  0.00     0.027 C 
ATOM     97  C   UNL A   1      36.612  22.932  25.725  1.00  0.00     0.027 C 
ENDBRANCH  92  95
ENDBRANCH  80  90
ENDBRANCH  77  80
ENDBRANCH  75  76
ENDBRANCH  74  75
ENDBRANCH   1  74
TORSDOF 18
ENDMDL
