MODEL 1
REMARK VINA RESULT:     -13.4      0.000      0.000
REMARK SMILES CC1=C([C@H](NC(=O)[C@@H]2[C@H](C)c3cc(F)ccc3N2C)C(=O)NCCCCCCNC(=O)c2ccc(-c3c4nc(c(-c5c(F)c(F)c(F)c(F)c5F)c5ccc([nH]5)c(-c5c(F)c(F)c(F)c(F)c5F)c5nc(c(-c6c(F)c(F)c(F)c(F)c6F)c6ccc3[nH]6)C=C5)C=C4)cc2)[C@@H](C)N=N1
REMARK SMILES IDX 25 1 24 2 23 3 22 4 20 5 21 6 4 8 3 9 1 10 2 11 98 12 95 13
REMARK SMILES IDX 97 14 96 15 5 16 6 17 7 19 8 20 9 21 18 22 11 23 10 24 17 25
REMARK SMILES IDX 19 26 12 27 16 28 13 29 15 30 14 31 26 32 27 33 28 34 29 35
REMARK SMILES IDX 30 36 31 38 32 39 33 40 94 41 34 42 93 43 35 44 36 45 37 46
REMARK SMILES IDX 87 47 38 48 92 49 86 50 88 51 39 52 91 53 85 54 84 55 40 57
REMARK SMILES IDX 72 58 52 59 71 60 53 61 56 62 70 63 89 64 54 65 55 66 69 68
REMARK SMILES IDX 90 69 57 70 41 71 42 72 50 73 43 74 44 75 48 76 51 77 45 78
REMARK SMILES IDX 46 79 49 80 47 81 73 82 74 83 82 84 75 85 76 86 80 87 83 88
REMARK SMILES IDX 77 89 78 90 81 91 79 92 58 93 59 94 67 95 60 96 61 97 65 98
REMARK SMILES IDX 68 99 62 100 63 101 66 102 64 103
REMARK H PARENT 22 7 5 18 29 37 88 56 56 67
REMARK Flexibility Score: inf
ROOT
ATOM      1  C   UNL A   1      33.591  28.820  27.419  1.00  0.00     0.002 C 
ENDROOT
BRANCH   1   2
ATOM      2  C   UNL A   1      32.260  29.465  26.985  1.00  0.00     0.021 C 
BRANCH   2   3
ATOM      3  C   UNL A   1      31.679  29.521  25.546  1.00  0.00     0.116 C 
BRANCH   3   4
ATOM      4  N   UNL A   1      32.553  29.215  24.383  1.00  0.00    -0.354 N 
ATOM      5  C   UNL A   1      32.780  28.385  23.328  1.00  0.00     0.247 C 
ATOM      6  O   UNL A   1      33.780  28.758  22.676  1.00  0.00    -0.272 OA
ATOM      7  H   UNL A   1      33.265  29.895  24.371  1.00  0.00     0.163 HD
BRANCH   5   8
ATOM      8  C   UNL A   1      31.989  27.156  22.693  1.00  0.00     0.202 C 
BRANCH   8   9
ATOM      9  C   UNL A   1      30.573  27.282  23.224  1.00  0.00     0.011 C 
ATOM     10  C   UNL A   1      29.474  29.491  22.433  1.00  0.00     0.069 C 
ATOM     11  C   UNL A   1      29.554  28.137  23.039  1.00  0.00     0.064 C 
ATOM     12  N   UNL A   1      28.350  27.602  23.442  1.00  0.00    -0.160 NA
ATOM     13  C   UNL A   1      29.953  26.133  23.974  1.00  0.00     0.156 C 
ATOM     14  N   UNL A   1      28.504  26.429  23.866  1.00  0.00    -0.181 NA
ATOM     15  C   UNL A   1      30.271  26.122  25.469  1.00  0.00     0.040 C 
ENDBRANCH   8   9
BRANCH   8  16
ATOM     16  N   UNL A   1      32.344  25.733  22.457  1.00  0.00    -0.339 N 
ATOM     17  C   UNL A   1      33.374  25.006  23.063  1.00  0.00     0.244 C 
ATOM     18  H   UNL A   1      31.791  25.248  21.802  1.00  0.00     0.164 HD
ATOM     19  O   UNL A   1      34.337  24.716  22.341  1.00  0.00    -0.273 OA
BRANCH  17  20
ATOM     20  C   UNL A   1      33.144  24.235  24.424  1.00  0.00     0.178 C 
ATOM     21  C   UNL A   1      34.074  24.659  25.553  1.00  0.00     0.050 C 
ATOM     22  N   UNL A   1      33.263  22.746  24.351  1.00  0.00    -0.362 N 
ATOM     23  C   UNL A   1      35.189  23.629  25.315  1.00  0.00    -0.016 A 
ATOM     24  C   UNL A   1      33.965  26.198  25.689  1.00  0.00     0.015 C 
ATOM     25  C   UNL A   1      34.612  22.506  24.718  1.00  0.00     0.041 A 
ATOM     26  C   UNL A   1      32.376  21.961  25.213  1.00  0.00     0.144 C 
ATOM     27  C   UNL A   1      36.501  23.469  25.730  1.00  0.00     0.045 A 
ATOM     28  C   UNL A   1      35.267  21.266  24.654  1.00  0.00     0.029 A 
ATOM     29  C   UNL A   1      37.192  22.262  25.627  1.00  0.00     0.123 A 
ATOM     30  C   UNL A   1      36.571  21.141  25.125  1.00  0.00     0.041 A 
ATOM     31  F   UNL A   1      38.456  22.196  26.074  1.00  0.00    -0.207 F 
ENDBRANCH  17  20
ENDBRANCH   8  16
ENDBRANCH   5   8
ENDBRANCH   3   4
ENDBRANCH   2   3
ENDBRANCH   1   2
BRANCH   1  32
ATOM     32  C   UNL A   1      34.743  29.758  27.645  1.00  0.00     0.002 C 
BRANCH  32  33
ATOM     33  C   UNL A   1      34.402  31.206  27.354  1.00  0.00     0.021 C 
BRANCH  33  34
ATOM     34  C   UNL A   1      35.260  32.252  28.089  1.00  0.00     0.116 C 
BRANCH  34  35
ATOM     35  N   UNL A   1      34.896  32.538  29.468  1.00  0.00    -0.352 N 
ATOM     36  C   UNL A   1      35.514  32.304  30.667  1.00  0.00     0.251 C 
ATOM     37  H   UNL A   1      34.029  32.993  29.557  1.00  0.00     0.163 HD
ATOM     38  O   UNL A   1      34.989  32.759  31.691  1.00  0.00    -0.269 OA
BRANCH  36  39
ATOM     39  C   UNL A   1      36.707  31.440  30.800  1.00  0.00     0.039 A 
ATOM     40  C   UNL A   1      38.005  31.935  30.840  1.00  0.00     0.014 A 
ATOM     41  C   UNL A   1      36.510  30.052  30.787  1.00  0.00     0.014 A 
ATOM     42  C   UNL A   1      39.062  31.094  30.559  1.00  0.00     0.010 A 
ATOM     43  C   UNL A   1      37.591  29.185  30.660  1.00  0.00     0.010 A 
ATOM     44  C   UNL A   1      38.861  29.711  30.457  1.00  0.00    -0.014 A 
BRANCH  44  45
ATOM     45  C   UNL A   1      40.066  28.898  30.294  1.00  0.00     0.031 A 
ATOM     46  C   UNL A   1      40.802  28.687  31.577  1.00  0.00     0.074 A 
ATOM     47  C   UNL A   1      40.495  28.349  29.140  1.00  0.00     0.049 A 
ATOM     48  N   UNL A   1      41.969  29.143  31.896  1.00  0.00    -0.248 NA
ATOM     49  C   UNL A   1      40.072  28.078  32.700  1.00  0.00     0.031 C 
ATOM     50  C   UNL A   1      39.805  28.261  27.852  1.00  0.00     0.029 A 
ATOM     51  N   UNL A   1      41.657  27.671  28.909  1.00  0.00    -0.354 N 
ATOM     52  C   UNL A   1      42.190  28.754  33.216  1.00  0.00     0.074 A 
ATOM     53  C   UNL A   1      40.944  28.223  33.698  1.00  0.00     0.031 C 
ATOM     54  C   UNL A   1      40.447  27.374  27.058  1.00  0.00     0.029 A 
ATOM     55  C   UNL A   1      41.676  26.963  27.715  1.00  0.00     0.049 A 
ATOM     56  H   UNL A   1      42.417  27.683  29.535  1.00  0.00     0.167 HD
ATOM     57  C   UNL A   1      43.450  28.716  33.731  1.00  0.00     0.037 A 
ATOM     58  C   UNL A   1      42.625  26.080  27.321  1.00  0.00     0.037 A 
ATOM     59  C   UNL A   1      44.352  29.496  32.925  1.00  0.00     0.049 A 
ATOM     60  C   UNL A   1      43.858  26.403  28.072  1.00  0.00     0.074 A 
ATOM     61  C   UNL A   1      44.597  30.832  32.699  1.00  0.00     0.029 A 
ATOM     62  N   UNL A   1      44.967  28.801  31.918  1.00  0.00    -0.354 N 
ATOM     63  N   UNL A   1      44.558  27.486  27.884  1.00  0.00    -0.248 NA
ATOM     64  C   UNL A   1      44.146  25.674  29.299  1.00  0.00     0.031 C 
ATOM     65  C   UNL A   1      45.095  30.911  31.363  1.00  0.00     0.029 A 
ATOM     66  C   UNL A   1      45.169  29.618  30.843  1.00  0.00     0.049 A 
ATOM     67  H   UNL A   1      45.225  27.853  31.963  1.00  0.00     0.167 HD
ATOM     68  C   UNL A   1      45.043  27.803  29.139  1.00  0.00     0.074 A 
ATOM     69  C   UNL A   1      44.906  26.579  29.919  1.00  0.00     0.031 C 
ATOM     70  C   UNL A   1      45.229  29.107  29.493  1.00  0.00     0.037 A 
BRANCH  57  71
ATOM     71  C   UNL A   1      43.971  27.600  34.620  1.00  0.00     0.064 A 
ATOM     72  C   UNL A   1      43.913  26.272  34.140  1.00  0.00     0.173 A 
ATOM     73  C   UNL A   1      44.177  27.728  36.011  1.00  0.00     0.173 A 
ATOM     74  F   UNL A   1      43.728  26.021  32.835  1.00  0.00    -0.203 F 
ATOM     75  C   UNL A   1      43.935  25.170  35.001  1.00  0.00     0.198 A 
ATOM     76  C   UNL A   1      44.243  26.625  36.861  1.00  0.00     0.198 A 
ATOM     77  F   UNL A   1      44.214  28.914  36.625  1.00  0.00    -0.203 F 
ATOM     78  F   UNL A   1      43.733  23.939  34.513  1.00  0.00    -0.200 F 
ATOM     79  C   UNL A   1      44.083  25.349  36.363  1.00  0.00     0.200 A 
ATOM     80  F   UNL A   1      44.373  26.820  38.180  1.00  0.00    -0.200 F 
ATOM     81  F   UNL A   1      44.027  24.304  37.199  1.00  0.00    -0.200 F 
ENDBRANCH  57  71
BRANCH  58  82
ATOM     82  C   UNL A   1      42.484  24.807  26.576  1.00  0.00     0.064 A 
ATOM     83  C   UNL A   1      43.277  24.547  25.444  1.00  0.00     0.173 A 
ATOM     84  C   UNL A   1      41.824  23.703  27.147  1.00  0.00     0.173 A 
ATOM     85  F   UNL A   1      43.967  25.538  24.860  1.00  0.00    -0.203 F 
ATOM     86  C   UNL A   1      43.448  23.250  24.950  1.00  0.00     0.198 A 
ATOM     87  C   UNL A   1      41.992  22.409  26.649  1.00  0.00     0.198 A 
ATOM     88  F   UNL A   1      41.093  23.843  28.262  1.00  0.00    -0.203 F 
ATOM     89  F   UNL A   1      44.280  23.030  23.922  1.00  0.00    -0.200 F 
ATOM     90  C   UNL A   1      42.820  22.181  25.563  1.00  0.00     0.200 A 
ATOM     91  F   UNL A   1      41.409  21.377  27.273  1.00  0.00    -0.200 F 
ATOM     92  F   UNL A   1      43.047  20.928  25.143  1.00  0.00    -0.200 F 
ENDBRANCH  58  82
BRANCH  70  93
ATOM     93  C   UNL A   1      45.311  30.112  28.385  1.00  0.00     0.064 A 
ATOM     94  C   UNL A   1      44.199  30.735  27.796  1.00  0.00     0.173 A 
ATOM     95  C   UNL A   1      46.584  30.542  27.990  1.00  0.00     0.173 A 
ATOM     96  F   UNL A   1      42.952  30.434  28.183  1.00  0.00    -0.203 F 
ATOM     97  C   UNL A   1      44.362  31.726  26.828  1.00  0.00     0.198 A 
ATOM     98  C   UNL A   1      46.744  31.556  27.052  1.00  0.00     0.198 A 
ATOM     99  F   UNL A   1      47.679  30.009  28.556  1.00  0.00    -0.203 F 
ATOM    100  F   UNL A   1      43.288  32.305  26.271  1.00  0.00    -0.200 F 
ATOM    101  C   UNL A   1      45.633  32.141  26.465  1.00  0.00     0.200 A 
ATOM    102  F   UNL A   1      47.974  31.986  26.741  1.00  0.00    -0.200 F 
ATOM    103  F   UNL A   1      45.790  33.126  25.570  1.00  0.00    -0.200 F 
ENDBRANCH  70  93
ENDBRANCH  44  45
ENDBRANCH  36  39
ENDBRANCH  34  35
ENDBRANCH  33  34
ENDBRANCH  32  33
ENDBRANCH   1  32
TORSDOF 16
ENDMDL
MODEL 2
REMARK VINA RESULT:     -13.4      2.888      8.628
REMARK SMILES CC1=C([C@H](NC(=O)[C@@H]2[C@H](C)c3cc(F)ccc3N2C)C(=O)NCCCCCCNC(=O)c2ccc(-c3c4nc(c(-c5c(F)c(F)c(F)c(F)c5F)c5ccc([nH]5)c(-c5c(F)c(F)c(F)c(F)c5F)c5nc(c(-c6c(F)c(F)c(F)c(F)c6F)c6ccc3[nH]6)C=C5)C=C4)cc2)[C@@H](C)N=N1
REMARK SMILES IDX 25 1 24 2 23 3 22 4 20 5 21 6 4 8 3 9 1 10 2 11 98 12 95 13
REMARK SMILES IDX 97 14 96 15 5 16 6 17 7 19 8 20 9 21 18 22 11 23 10 24 17 25
REMARK SMILES IDX 19 26 12 27 16 28 13 29 15 30 14 31 26 32 27 33 28 34 29 35
REMARK SMILES IDX 30 36 31 38 32 39 33 40 94 41 34 42 93 43 35 44 36 45 37 46
REMARK SMILES IDX 87 47 38 48 92 49 86 50 88 51 39 52 91 53 85 54 84 55 40 57
REMARK SMILES IDX 72 58 52 59 71 60 53 61 56 62 70 63 89 64 54 65 55 66 69 68
REMARK SMILES IDX 90 69 57 70 41 71 42 72 50 73 43 74 44 75 48 76 51 77 45 78
REMARK SMILES IDX 46 79 49 80 47 81 73 82 74 83 82 84 75 85 76 86 80 87 83 88
REMARK SMILES IDX 77 89 78 90 81 91 79 92 58 93 59 94 67 95 60 96 61 97 65 98
REMARK SMILES IDX 68 99 62 100 63 101 66 102 64 103
REMARK H PARENT 22 7 5 18 29 37 88 56 56 67
REMARK Flexibility Score: inf
ROOT
ATOM      1  C   UNL A   1      39.218  21.628  26.129  1.00  0.00     0.002 C 
ENDROOT
BRANCH   1   2
ATOM      2  C   UNL A   1      38.783  23.080  26.406  1.00  0.00     0.021 C 
BRANCH   2   3
ATOM      3  C   UNL A   1      37.478  23.769  25.923  1.00  0.00     0.116 C 
BRANCH   3   4
ATOM      4  N   UNL A   1      36.953  23.487  24.560  1.00  0.00    -0.354 N 
ATOM      5  C   UNL A   1      35.844  23.332  23.786  1.00  0.00     0.247 C 
ATOM      6  O   UNL A   1      36.159  23.110  22.597  1.00  0.00    -0.272 OA
ATOM      7  H   UNL A   1      37.733  23.358  23.973  1.00  0.00     0.163 HD
BRANCH   5   8
ATOM      8  C   UNL A   1      34.280  23.499  24.043  1.00  0.00     0.202 C 
BRANCH   8   9
ATOM      9  C   UNL A   1      33.992  22.665  25.278  1.00  0.00     0.011 C 
ATOM     10  C   UNL A   1      34.110  20.133  24.740  1.00  0.00     0.069 C 
ATOM     11  C   UNL A   1      34.030  21.357  25.579  1.00  0.00     0.064 C 
ATOM     12  N   UNL A   1      34.062  21.140  26.939  1.00  0.00    -0.160 NA
ATOM     13  C   UNL A   1      33.828  23.342  26.613  1.00  0.00     0.156 C 
ATOM     14  N   UNL A   1      34.070  22.230  27.564  1.00  0.00    -0.181 NA
ATOM     15  C   UNL A   1      32.406  23.831  26.890  1.00  0.00     0.040 C 
ENDBRANCH   8   9
BRANCH   8  16
ATOM     16  N   UNL A   1      33.101  23.538  23.141  1.00  0.00    -0.339 N 
ATOM     17  C   UNL A   1      31.815  23.995  23.447  1.00  0.00     0.244 C 
ATOM     18  H   UNL A   1      33.241  23.205  22.224  1.00  0.00     0.164 HD
ATOM     19  O   UNL A   1      30.933  23.130  23.538  1.00  0.00    -0.273 OA
BRANCH  17  20
ATOM     20  C   UNL A   1      31.418  25.514  23.260  1.00  0.00     0.178 C 
ATOM     21  C   UNL A   1      32.602  26.469  23.181  1.00  0.00     0.050 C 
ATOM     22  N   UNL A   1      30.522  26.081  24.314  1.00  0.00    -0.362 N 
ATOM     23  C   UNL A   1      32.700  26.819  24.674  1.00  0.00    -0.016 A 
ATOM     24  C   UNL A   1      33.551  25.940  22.078  1.00  0.00     0.015 C 
ATOM     25  C   UNL A   1      31.427  26.678  25.230  1.00  0.00     0.041 A 
ATOM     26  C   UNL A   1      29.534  27.076  23.888  1.00  0.00     0.144 C 
ATOM     27  C   UNL A   1      33.639  27.419  25.495  1.00  0.00     0.045 A 
ATOM     28  C   UNL A   1      31.086  27.214  26.481  1.00  0.00     0.029 A 
ATOM     29  C   UNL A   1      33.339  27.913  26.765  1.00  0.00     0.123 A 
ATOM     30  C   UNL A   1      32.054  27.851  27.253  1.00  0.00     0.041 A 
ATOM     31  F   UNL A   1      34.311  28.497  27.482  1.00  0.00    -0.207 F 
ENDBRANCH  17  20
ENDBRANCH   8  16
ENDBRANCH   5   8
ENDBRANCH   3   4
ENDBRANCH   2   3
ENDBRANCH   1   2
BRANCH   1  32
ATOM     32  C   UNL A   1      40.565  21.223  26.659  1.00  0.00     0.002 C 
BRANCH  32  33
ATOM     33  C   UNL A   1      41.054  19.900  26.103  1.00  0.00     0.021 C 
BRANCH  33  34
ATOM     34  C   UNL A   1      42.485  19.499  26.504  1.00  0.00     0.116 C 
BRANCH  34  35
ATOM     35  N   UNL A   1      43.493  19.555  25.457  1.00  0.00    -0.352 N 
ATOM     36  C   UNL A   1      44.331  20.544  25.016  1.00  0.00     0.251 C 
ATOM     37  H   UNL A   1      43.593  18.709  24.965  1.00  0.00     0.163 HD
ATOM     38  O   UNL A   1      45.165  20.256  24.148  1.00  0.00    -0.269 OA
BRANCH  36  39
ATOM     39  C   UNL A   1      44.204  21.954  25.446  1.00  0.00     0.039 A 
ATOM     40  C   UNL A   1      44.952  22.505  26.478  1.00  0.00     0.014 A 
ATOM     41  C   UNL A   1      43.209  22.732  24.838  1.00  0.00     0.014 A 
ATOM     42  C   UNL A   1      44.519  23.664  27.089  1.00  0.00     0.010 A 
ATOM     43  C   UNL A   1      42.869  23.978  25.357  1.00  0.00     0.010 A 
ATOM     44  C   UNL A   1      43.465  24.405  26.537  1.00  0.00    -0.014 A 
BRANCH  44  45
ATOM     45  C   UNL A   1      43.174  25.685  27.183  1.00  0.00     0.031 A 
ATOM     46  C   UNL A   1      44.175  26.743  26.850  1.00  0.00     0.074 A 
ATOM     47  C   UNL A   1      42.116  25.944  27.977  1.00  0.00     0.049 A 
ATOM     48  N   UNL A   1      45.024  27.300  27.651  1.00  0.00    -0.248 NA
ATOM     49  C   UNL A   1      44.393  27.065  25.431  1.00  0.00     0.031 C 
ATOM     50  C   UNL A   1      40.937  25.116  28.235  1.00  0.00     0.029 A 
ATOM     51  N   UNL A   1      41.850  27.081  28.684  1.00  0.00    -0.354 N 
ATOM     52  C   UNL A   1      45.793  28.158  26.866  1.00  0.00     0.074 A 
ATOM     53  C   UNL A   1      45.452  27.873  25.499  1.00  0.00     0.031 C 
ATOM     54  C   UNL A   1      39.985  25.866  28.836  1.00  0.00     0.029 A 
ATOM     55  C   UNL A   1      40.546  27.168  29.154  1.00  0.00     0.049 A 
ATOM     56  H   UNL A   1      42.524  27.779  28.847  1.00  0.00     0.167 HD
ATOM     57  C   UNL A   1      46.496  29.178  27.431  1.00  0.00     0.037 A 
ATOM     58  C   UNL A   1      39.973  28.250  29.732  1.00  0.00     0.037 A 
ATOM     59  C   UNL A   1      46.663  28.960  28.844  1.00  0.00     0.049 A 
ATOM     60  C   UNL A   1      41.067  29.088  30.269  1.00  0.00     0.074 A 
ATOM     61  C   UNL A   1      47.414  28.134  29.650  1.00  0.00     0.029 A 
ATOM     62  N   UNL A   1      45.672  29.489  29.626  1.00  0.00    -0.354 N 
ATOM     63  N   UNL A   1      41.814  28.742  31.279  1.00  0.00    -0.248 NA
ATOM     64  C   UNL A   1      41.573  30.187  29.461  1.00  0.00     0.031 C 
ATOM     65  C   UNL A   1      46.640  27.949  30.836  1.00  0.00     0.029 A 
ATOM     66  C   UNL A   1      45.469  28.698  30.720  1.00  0.00     0.049 A 
ATOM     67  H   UNL A   1      45.177  30.316  29.428  1.00  0.00     0.167 HD
ATOM     68  C   UNL A   1      43.057  29.270  30.983  1.00  0.00     0.074 A 
ATOM     69  C   UNL A   1      42.807  30.278  29.960  1.00  0.00     0.031 C 
ATOM     70  C   UNL A   1      44.189  28.625  31.387  1.00  0.00     0.037 A 
BRANCH  57  71
ATOM     71  C   UNL A   1      46.579  30.578  26.846  1.00  0.00     0.064 A 
ATOM     72  C   UNL A   1      47.822  31.251  26.881  1.00  0.00     0.173 A 
ATOM     73  C   UNL A   1      45.459  31.399  26.596  1.00  0.00     0.173 A 
ATOM     74  F   UNL A   1      48.961  30.577  27.104  1.00  0.00    -0.203 F 
ATOM     75  C   UNL A   1      47.914  32.643  26.796  1.00  0.00     0.198 A 
ATOM     76  C   UNL A   1      45.561  32.783  26.468  1.00  0.00     0.198 A 
ATOM     77  F   UNL A   1      44.210  30.922  26.573  1.00  0.00    -0.203 F 
ATOM     78  F   UNL A   1      49.097  33.245  26.979  1.00  0.00    -0.200 F 
ATOM     79  C   UNL A   1      46.781  33.410  26.607  1.00  0.00     0.200 A 
ATOM     80  F   UNL A   1      44.448  33.510  26.298  1.00  0.00    -0.200 F 
ATOM     81  F   UNL A   1      46.853  34.747  26.602  1.00  0.00    -0.200 F 
ENDBRANCH  57  71
BRANCH  58  82
ATOM     82  C   UNL A   1      38.590  28.770  29.607  1.00  0.00     0.064 A 
ATOM     83  C   UNL A   1      37.805  29.000  30.751  1.00  0.00     0.173 A 
ATOM     84  C   UNL A   1      38.143  29.358  28.410  1.00  0.00     0.173 A 
ATOM     85  F   UNL A   1      38.180  28.504  31.940  1.00  0.00    -0.203 F 
ATOM     86  C   UNL A   1      36.674  29.822  30.712  1.00  0.00     0.198 A 
ATOM     87  C   UNL A   1      37.010  30.173  28.371  1.00  0.00     0.198 A 
ATOM     88  F   UNL A   1      38.856  29.242  27.281  1.00  0.00    -0.203 F 
ATOM     89  F   UNL A   1      36.001  30.087  31.840  1.00  0.00    -0.200 F 
ATOM     90  C   UNL A   1      36.288  30.421  29.526  1.00  0.00     0.200 A 
ATOM     91  F   UNL A   1      36.666  30.779  27.226  1.00  0.00    -0.200 F 
ATOM     92  F   UNL A   1      35.253  31.273  29.503  1.00  0.00    -0.200 F 
ENDBRANCH  58  82
BRANCH  70  93
ATOM     93  C   UNL A   1      44.049  27.618  32.487  1.00  0.00     0.064 A 
ATOM     94  C   UNL A   1      43.962  26.231  32.285  1.00  0.00     0.173 A 
ATOM     95  C   UNL A   1      44.124  28.081  33.806  1.00  0.00     0.173 A 
ATOM     96  F   UNL A   1      43.968  25.709  31.051  1.00  0.00    -0.203 F 
ATOM     97  C   UNL A   1      43.919  25.351  33.367  1.00  0.00     0.198 A 
ATOM     98  C   UNL A   1      44.120  27.200  34.881  1.00  0.00     0.198 A 
ATOM     99  F   UNL A   1      44.254  29.395  34.050  1.00  0.00    -0.203 F 
ATOM    100  F   UNL A   1      43.829  24.030  33.156  1.00  0.00    -0.200 F 
ATOM    101  C   UNL A   1      44.009  25.836  34.662  1.00  0.00     0.200 A 
ATOM    102  F   UNL A   1      44.254  27.671  36.128  1.00  0.00    -0.200 F 
ATOM    103  F   UNL A   1      44.017  24.988  35.699  1.00  0.00    -0.200 F 
ENDBRANCH  70  93
ENDBRANCH  44  45
ENDBRANCH  36  39
ENDBRANCH  34  35
ENDBRANCH  33  34
ENDBRANCH  32  33
ENDBRANCH   1  32
TORSDOF 16
ENDMDL
MODEL 3
REMARK VINA RESULT:     -13.0      3.251      8.956
REMARK SMILES CC1=C([C@H](NC(=O)[C@@H]2[C@H](C)c3cc(F)ccc3N2C)C(=O)NCCCCCCNC(=O)c2ccc(-c3c4nc(c(-c5c(F)c(F)c(F)c(F)c5F)c5ccc([nH]5)c(-c5c(F)c(F)c(F)c(F)c5F)c5nc(c(-c6c(F)c(F)c(F)c(F)c6F)c6ccc3[nH]6)C=C5)C=C4)cc2)[C@@H](C)N=N1
REMARK SMILES IDX 25 1 24 2 23 3 22 4 20 5 21 6 4 8 3 9 1 10 2 11 98 12 95 13
REMARK SMILES IDX 97 14 96 15 5 16 6 17 7 19 8 20 9 21 18 22 11 23 10 24 17 25
REMARK SMILES IDX 19 26 12 27 16 28 13 29 15 30 14 31 26 32 27 33 28 34 29 35
REMARK SMILES IDX 30 36 31 38 32 39 33 40 94 41 34 42 93 43 35 44 36 45 37 46
REMARK SMILES IDX 87 47 38 48 92 49 86 50 88 51 39 52 91 53 85 54 84 55 40 57
REMARK SMILES IDX 72 58 52 59 71 60 53 61 56 62 70 63 89 64 54 65 55 66 69 68
REMARK SMILES IDX 90 69 57 70 41 71 42 72 50 73 43 74 44 75 48 76 51 77 45 78
REMARK SMILES IDX 46 79 49 80 47 81 73 82 74 83 82 84 75 85 76 86 80 87 83 88
REMARK SMILES IDX 77 89 78 90 81 91 79 92 58 93 59 94 67 95 60 96 61 97 65 98
REMARK SMILES IDX 68 99 62 100 63 101 66 102 64 103
REMARK H PARENT 22 7 5 18 29 37 88 56 56 67
REMARK Flexibility Score: inf
ROOT
ATOM      1  C   UNL A   1      38.379  20.537  25.632  1.00  0.00     0.002 C 
ENDROOT
BRANCH   1   2
ATOM      2  C   UNL A   1      37.217  20.706  24.634  1.00  0.00     0.021 C 
BRANCH   2   3
ATOM      3  C   UNL A   1      36.009  21.672  24.767  1.00  0.00     0.116 C 
BRANCH   3   4
ATOM      4  N   UNL A   1      35.127  21.594  25.962  1.00  0.00    -0.354 N 
ATOM      5  C   UNL A   1      33.861  21.735  26.444  1.00  0.00     0.247 C 
ATOM      6  O   UNL A   1      33.817  21.465  27.664  1.00  0.00    -0.272 OA
ATOM      7  H   UNL A   1      35.696  21.332  26.722  1.00  0.00     0.163 HD
BRANCH   5   8
ATOM      8  C   UNL A   1      32.447  22.036  25.774  1.00  0.00     0.202 C 
BRANCH   8   9
ATOM      9  C   UNL A   1      32.499  21.351  24.421  1.00  0.00     0.011 C 
ATOM     10  C   UNL A   1      32.791  18.789  24.682  1.00  0.00     0.069 C 
ATOM     11  C   UNL A   1      32.526  20.078  23.992  1.00  0.00     0.064 C 
ATOM     12  N   UNL A   1      32.172  19.972  22.665  1.00  0.00    -0.160 NA
ATOM     13  C   UNL A   1      32.246  22.151  23.171  1.00  0.00     0.156 C 
ATOM     14  N   UNL A   1      31.890  21.100  22.187  1.00  0.00    -0.181 NA
ATOM     15  C   UNL A   1      33.490  22.845  22.614  1.00  0.00     0.040 C 
ENDBRANCH   8   9
BRANCH   8  16
ATOM     16  N   UNL A   1      31.581  23.241  25.728  1.00  0.00    -0.339 N 
ATOM     17  C   UNL A   1      31.962  24.567  25.962  1.00  0.00     0.244 C 
ATOM     18  H   UNL A   1      30.633  23.090  25.506  1.00  0.00     0.164 HD
ATOM     19  O   UNL A   1      31.549  25.077  27.012  1.00  0.00    -0.273 OA
BRANCH  17  20
ATOM     20  C   UNL A   1      32.501  25.485  24.794  1.00  0.00     0.178 C 
ATOM     21  C   UNL A   1      33.866  26.105  25.059  1.00  0.00     0.050 C 
ATOM     22  N   UNL A   1      31.615  26.626  24.409  1.00  0.00    -0.362 N 
ATOM     23  C   UNL A   1      33.388  27.422  25.690  1.00  0.00    -0.016 A 
ATOM     24  C   UNL A   1      34.832  24.955  25.436  1.00  0.00     0.015 C 
ATOM     25  C   UNL A   1      32.123  27.709  25.172  1.00  0.00     0.041 A 
ATOM     26  C   UNL A   1      31.585  27.001  22.993  1.00  0.00     0.144 C 
ATOM     27  C   UNL A   1      33.969  28.440  26.428  1.00  0.00     0.045 A 
ATOM     28  C   UNL A   1      31.532  28.977  25.282  1.00  0.00     0.029 A 
ATOM     29  C   UNL A   1      33.378  29.692  26.598  1.00  0.00     0.123 A 
ATOM     30  C   UNL A   1      32.175  29.985  25.996  1.00  0.00     0.041 A 
ATOM     31  F   UNL A   1      34.024  30.625  27.314  1.00  0.00    -0.207 F 
ENDBRANCH  17  20
ENDBRANCH   8  16
ENDBRANCH   5   8
ENDBRANCH   3   4
ENDBRANCH   2   3
ENDBRANCH   1   2
BRANCH   1  32
ATOM     32  C   UNL A   1      39.326  21.697  25.754  1.00  0.00     0.002 C 
BRANCH  32  33
ATOM     33  C   UNL A   1      40.081  21.717  27.068  1.00  0.00     0.021 C 
BRANCH  33  34
ATOM     34  C   UNL A   1      41.594  21.446  26.971  1.00  0.00     0.116 C 
BRANCH  34  35
ATOM     35  N   UNL A   1      42.301  22.096  25.879  1.00  0.00    -0.352 N 
ATOM     36  C   UNL A   1      42.696  23.389  25.658  1.00  0.00     0.251 C 
ATOM     37  H   UNL A   1      42.547  21.482  25.152  1.00  0.00     0.163 HD
ATOM     38  O   UNL A   1      43.381  23.624  24.655  1.00  0.00    -0.269 OA
BRANCH  36  39
ATOM     39  C   UNL A   1      42.243  24.521  26.496  1.00  0.00     0.039 A 
ATOM     40  C   UNL A   1      41.184  25.350  26.148  1.00  0.00     0.014 A 
ATOM     41  C   UNL A   1      42.988  24.818  27.646  1.00  0.00     0.014 A 
ATOM     42  C   UNL A   1      41.071  26.592  26.736  1.00  0.00     0.010 A 
ATOM     43  C   UNL A   1      42.774  26.004  28.341  1.00  0.00     0.010 A 
ATOM     44  C   UNL A   1      41.874  26.933  27.833  1.00  0.00    -0.014 A 
BRANCH  44  45
ATOM     45  C   UNL A   1      41.581  28.218  28.468  1.00  0.00     0.031 A 
ATOM     46  C   UNL A   1      42.641  29.242  28.224  1.00  0.00     0.074 A 
ATOM     47  C   UNL A   1      40.476  28.509  29.183  1.00  0.00     0.049 A 
ATOM     48  N   UNL A   1      43.446  29.762  29.092  1.00  0.00    -0.248 NA
ATOM     49  C   UNL A   1      42.977  29.567  26.828  1.00  0.00     0.031 C 
ATOM     50  C   UNL A   1      39.252  27.722  29.342  1.00  0.00     0.029 A 
ATOM     51  N   UNL A   1      40.197  29.649  29.879  1.00  0.00    -0.354 N 
ATOM     52  C   UNL A   1      44.302  30.598  28.376  1.00  0.00     0.074 A 
ATOM     53  C   UNL A   1      44.056  30.336  26.984  1.00  0.00     0.031 C 
ATOM     54  C   UNL A   1      38.284  28.501  29.878  1.00  0.00     0.029 A 
ATOM     55  C   UNL A   1      38.866  29.779  30.251  1.00  0.00     0.049 A 
ATOM     56  H   UNL A   1      40.881  30.321  30.101  1.00  0.00     0.167 HD
ATOM     57  C   UNL A   1      44.996  31.587  29.003  1.00  0.00     0.037 A 
ATOM     58  C   UNL A   1      38.288  30.877  30.795  1.00  0.00     0.037 A 
ATOM     59  C   UNL A   1      45.047  31.352  30.422  1.00  0.00     0.049 A 
ATOM     60  C   UNL A   1      39.367  31.670  31.423  1.00  0.00     0.074 A 
ATOM     61  C   UNL A   1      45.705  30.493  31.274  1.00  0.00     0.029 A 
ATOM     62  N   UNL A   1      44.019  31.910  31.132  1.00  0.00    -0.354 N 
ATOM     63  N   UNL A   1      40.023  31.290  32.483  1.00  0.00    -0.248 NA
ATOM     64  C   UNL A   1      39.972  32.757  30.666  1.00  0.00     0.031 C 
ATOM     65  C   UNL A   1      44.838  30.327  32.397  1.00  0.00     0.029 A 
ATOM     66  C   UNL A   1      43.706  31.119  32.200  1.00  0.00     0.049 A 
ATOM     67  H   UNL A   1      43.571  32.756  30.907  1.00  0.00     0.167 HD
ATOM     68  C   UNL A   1      41.303  31.775  32.287  1.00  0.00     0.074 A 
ATOM     69  C   UNL A   1      41.167  32.800  31.258  1.00  0.00     0.031 C 
ATOM     70  C   UNL A   1      42.378  31.087  32.767  1.00  0.00     0.037 A 
BRANCH  57  71
ATOM     71  C   UNL A   1      45.173  32.988  28.441  1.00  0.00     0.064 A 
ATOM     72  C   UNL A   1      44.019  33.732  28.109  1.00  0.00     0.173 A 
ATOM     73  C   UNL A   1      46.380  33.473  27.892  1.00  0.00     0.173 A 
ATOM     74  F   UNL A   1      42.812  33.374  28.575  1.00  0.00    -0.203 F 
ATOM     75  C   UNL A   1      44.058  34.797  27.203  1.00  0.00     0.198 A 
ATOM     76  C   UNL A   1      46.420  34.563  27.024  1.00  0.00     0.198 A 
ATOM     77  F   UNL A   1      47.551  32.858  28.078  1.00  0.00    -0.203 F 
ATOM     78  F   UNL A   1      42.917  35.379  26.809  1.00  0.00    -0.200 F 
ATOM     79  C   UNL A   1      45.257  35.200  26.648  1.00  0.00     0.200 A 
ATOM     80  F   UNL A   1      47.591  34.929  26.486  1.00  0.00    -0.200 F 
ATOM     81  F   UNL A   1      45.290  36.168  25.723  1.00  0.00    -0.200 F 
ENDBRANCH  57  71
BRANCH  58  82
ATOM     82  C   UNL A   1      36.939  31.447  30.572  1.00  0.00     0.064 A 
ATOM     83  C   UNL A   1      36.055  31.642  31.649  1.00  0.00     0.173 A 
ATOM     84  C   UNL A   1      36.623  32.112  29.373  1.00  0.00     0.173 A 
ATOM     85  F   UNL A   1      36.303  31.071  32.838  1.00  0.00    -0.203 F 
ATOM     86  C   UNL A   1      34.956  32.500  31.551  1.00  0.00     0.198 A 
ATOM     87  C   UNL A   1      35.521  32.965  29.275  1.00  0.00     0.198 A 
ATOM     88  F   UNL A   1      37.436  32.034  28.311  1.00  0.00    -0.203 F 
ATOM     89  F   UNL A   1      34.186  32.727  32.625  1.00  0.00    -0.200 F 
ATOM     90  C   UNL A   1      34.700  33.174  30.370  1.00  0.00     0.200 A 
ATOM     91  F   UNL A   1      35.304  33.641  28.139  1.00  0.00    -0.200 F 
ATOM     92  F   UNL A   1      33.696  34.059  30.299  1.00  0.00    -0.200 F 
ENDBRANCH  58  82
BRANCH  70  93
ATOM     93  C   UNL A   1      42.119  30.077  33.843  1.00  0.00     0.064 A 
ATOM     94  C   UNL A   1      41.686  28.761  33.608  1.00  0.00     0.173 A 
ATOM     95  C   UNL A   1      42.439  30.432  35.159  1.00  0.00     0.173 A 
ATOM     96  F   UNL A   1      41.441  28.326  32.365  1.00  0.00    -0.203 F 
ATOM     97  C   UNL A   1      41.550  27.853  34.658  1.00  0.00     0.198 A 
ATOM     98  C   UNL A   1      42.338  29.514  36.199  1.00  0.00     0.198 A 
ATOM     99  F   UNL A   1      42.900  31.664  35.429  1.00  0.00    -0.203 F 
ATOM    100  F   UNL A   1      41.129  26.604  34.416  1.00  0.00    -0.200 F 
ATOM    101  C   UNL A   1      41.886  28.228  35.949  1.00  0.00     0.200 A 
ATOM    102  F   UNL A   1      42.709  29.868  37.437  1.00  0.00    -0.200 F 
ATOM    103  F   UNL A   1      41.802  27.342  36.951  1.00  0.00    -0.200 F 
ENDBRANCH  70  93
ENDBRANCH  44  45
ENDBRANCH  36  39
ENDBRANCH  34  35
ENDBRANCH  33  34
ENDBRANCH  32  33
ENDBRANCH   1  32
TORSDOF 16
ENDMDL
