MODEL 1
REMARK VINA RESULT:     -11.5      0.000      0.000
REMARK SMILES O=C(CCCC(=O)Nc1ccccc1F)NCCCCCCNC(=O)c1ccc(-c2c3nc(c(-c4c(F)c(F)c(F)c(F)c4F)c4ccc([nH]4)c(-c4c(F)c(F)c(F)c(F)c4F)c4nc(c(-c5c(F)c(F)c(F)c(F)c5F)c5ccc2[nH]5)C=C4)C=C3)cc1
REMARK SMILES IDX 18 1 17 2 16 3 1 4 2 5 3 7 4 8 5 9 6 10 7 11 8 12 9 14 10 15
REMARK SMILES IDX 14 16 11 17 13 18 15 19 12 20 19 21 20 22 21 23 22 24 23 25
REMARK SMILES IDX 24 26 25 28 26 29 27 30 88 31 28 32 87 33 29 34 30 35 31 36
REMARK SMILES IDX 81 37 32 38 86 39 80 40 82 41 33 42 85 43 79 44 78 45 34 47
REMARK SMILES IDX 66 48 46 49 65 50 47 51 50 52 64 53 83 54 48 55 49 56 63 58
REMARK SMILES IDX 84 59 51 60 35 61 36 62 44 63 37 64 38 65 42 66 45 67 39 68
REMARK SMILES IDX 40 69 43 70 41 71 67 72 68 73 76 74 69 75 70 76 74 77 77 78
REMARK SMILES IDX 71 79 72 80 75 81 73 82 52 83 53 84 61 85 54 86 55 87 59 88
REMARK SMILES IDX 62 89 56 90 57 91 60 92 58 93
REMARK H PARENT 16 6 8 13 23 27 82 46 50 57
REMARK Flexibility Score: inf
ROOT
ATOM      1  C   UNL A   1      33.954  29.005  26.109  1.00  0.00     0.021 C 
ENDROOT
BRANCH   1   2
ATOM      2  C   UNL A   1      33.752  27.537  26.485  1.00  0.00     0.116 C 
BRANCH   2   3
ATOM      3  N   UNL A   1      32.748  26.879  25.678  1.00  0.00    -0.356 N 
ATOM      4  O   UNL A   1      31.088  27.074  27.231  1.00  0.00    -0.275 OA
ATOM      5  C   UNL A   1      31.457  26.713  26.115  1.00  0.00     0.220 C 
ATOM      6  H   UNL A   1      32.997  26.539  24.789  1.00  0.00     0.163 HD
BRANCH   5   7
ATOM      7  C   UNL A   1      30.534  25.952  25.178  1.00  0.00     0.100 C 
BRANCH   7   8
ATOM      8  C   UNL A   1      29.764  26.714  24.096  1.00  0.00     0.020 C 
BRANCH   8   9
ATOM      9  C   UNL A   1      30.415  27.063  22.762  1.00  0.00     0.101 C 
BRANCH   9  10
ATOM     10  C   UNL A   1      31.405  28.224  22.610  1.00  0.00     0.224 C 
ATOM     11  O   UNL A   1      32.616  28.022  22.743  1.00  0.00    -0.275 OA
ATOM     12  N   UNL A   1      31.013  29.391  22.011  1.00  0.00    -0.324 N 
ATOM     13  H   UNL A   1      31.615  29.718  21.305  1.00  0.00     0.170 HD
BRANCH  12  14
ATOM     14  C   UNL A   1      29.888  30.193  22.246  1.00  0.00     0.077 A 
ATOM     15  C   UNL A   1      29.193  30.692  21.143  1.00  0.00     0.029 A 
ATOM     16  C   UNL A   1      29.471  30.559  23.523  1.00  0.00     0.146 A 
ATOM     17  C   UNL A   1      27.997  31.394  21.328  1.00  0.00     0.002 A 
ATOM     18  C   UNL A   1      28.297  31.286  23.715  1.00  0.00     0.041 A 
ATOM     19  F   UNL A   1      30.194  30.206  24.596  1.00  0.00    -0.205 F 
ATOM     20  C   UNL A   1      27.534  31.668  22.615  1.00  0.00     0.003 A 
ENDBRANCH  12  14
ENDBRANCH   9  10
ENDBRANCH   8   9
ENDBRANCH   7   8
ENDBRANCH   5   7
ENDBRANCH   2   3
ENDBRANCH   1   2
BRANCH   1  21
ATOM     21  C   UNL A   1      33.388  30.024  27.108  1.00  0.00     0.002 C 
BRANCH  21  22
ATOM     22  C   UNL A   1      31.942  30.451  26.850  1.00  0.00     0.002 C 
BRANCH  22  23
ATOM     23  C   UNL A   1      31.677  31.950  26.994  1.00  0.00     0.021 C 
BRANCH  23  24
ATOM     24  C   UNL A   1      32.908  32.790  27.320  1.00  0.00     0.116 C 
BRANCH  24  25
ATOM     25  N   UNL A   1      32.568  34.164  27.656  1.00  0.00    -0.352 N 
ATOM     26  C   UNL A   1      33.078  34.965  28.650  1.00  0.00     0.251 C 
ATOM     27  H   UNL A   1      31.875  34.578  27.094  1.00  0.00     0.163 HD
ATOM     28  O   UNL A   1      32.551  36.038  28.917  1.00  0.00    -0.269 OA
BRANCH  26  29
ATOM     29  C   UNL A   1      34.258  34.512  29.419  1.00  0.00     0.039 A 
ATOM     30  C   UNL A   1      34.060  33.884  30.650  1.00  0.00     0.014 A 
ATOM     31  C   UNL A   1      35.551  34.685  28.915  1.00  0.00     0.014 A 
ATOM     32  C   UNL A   1      35.154  33.356  31.340  1.00  0.00     0.010 A 
ATOM     33  C   UNL A   1      36.631  34.097  29.568  1.00  0.00     0.010 A 
ATOM     34  C   UNL A   1      36.442  33.416  30.780  1.00  0.00    -0.014 A 
BRANCH  34  35
ATOM     35  C   UNL A   1      37.591  32.729  31.422  1.00  0.00     0.031 A 
ATOM     36  C   UNL A   1      38.281  31.585  30.738  1.00  0.00     0.074 A 
ATOM     37  C   UNL A   1      37.964  33.093  32.665  1.00  0.00     0.049 A 
ATOM     38  N   UNL A   1      39.255  30.829  31.174  1.00  0.00    -0.248 NA
ATOM     39  C   UNL A   1      37.799  31.230  29.394  1.00  0.00     0.031 C 
ATOM     40  C   UNL A   1      37.342  34.159  33.451  1.00  0.00     0.029 A 
ATOM     41  N   UNL A   1      38.946  32.601  33.489  1.00  0.00    -0.354 N 
ATOM     42  C   UNL A   1      39.495  29.904  30.168  1.00  0.00     0.074 A 
ATOM     43  C   UNL A   1      38.532  30.161  29.119  1.00  0.00     0.031 C 
ATOM     44  C   UNL A   1      37.975  34.262  34.629  1.00  0.00     0.029 A 
ATOM     45  C   UNL A   1      39.014  33.239  34.703  1.00  0.00     0.049 A 
ATOM     46  H   UNL A   1      39.545  31.863  33.233  1.00  0.00     0.167 HD
ATOM     47  C   UNL A   1      40.448  28.943  30.117  1.00  0.00     0.037 A 
ATOM     48  C   UNL A   1      39.815  33.021  35.765  1.00  0.00     0.037 A 
ATOM     49  C   UNL A   1      41.415  28.706  31.158  1.00  0.00     0.049 A 
ATOM     50  C   UNL A   1      40.845  31.929  35.699  1.00  0.00     0.074 A 
ATOM     51  C   UNL A   1      42.468  27.808  31.164  1.00  0.00     0.029 A 
ATOM     52  N   UNL A   1      41.441  29.361  32.381  1.00  0.00    -0.354 N 
ATOM     53  N   UNL A   1      41.112  31.108  34.713  1.00  0.00    -0.248 NA
ATOM     54  C   UNL A   1      41.682  31.729  36.890  1.00  0.00     0.031 C 
ATOM     55  C   UNL A   1      43.088  27.870  32.414  1.00  0.00     0.029 A 
ATOM     56  C   UNL A   1      42.466  28.854  33.166  1.00  0.00     0.049 A 
ATOM     57  H   UNL A   1      40.825  30.079  32.650  1.00  0.00     0.167 HD
ATOM     58  C   UNL A   1      42.154  30.304  35.156  1.00  0.00     0.074 A 
ATOM     59  C   UNL A   1      42.482  30.746  36.495  1.00  0.00     0.031 C 
ATOM     60  C   UNL A   1      42.778  29.292  34.504  1.00  0.00     0.037 A 
BRANCH  47  61
ATOM     61  C   UNL A   1      40.497  28.066  28.899  1.00  0.00     0.064 A 
ATOM     62  C   UNL A   1      41.237  28.457  27.771  1.00  0.00     0.173 A 
ATOM     63  C   UNL A   1      39.765  26.871  28.819  1.00  0.00     0.173 A 
ATOM     64  F   UNL A   1      41.949  29.594  27.789  1.00  0.00    -0.203 F 
ATOM     65  C   UNL A   1      41.234  27.689  26.610  1.00  0.00     0.198 A 
ATOM     66  C   UNL A   1      39.793  26.089  27.667  1.00  0.00     0.198 A 
ATOM     67  F   UNL A   1      39.048  26.446  29.870  1.00  0.00    -0.203 F 
ATOM     68  F   UNL A   1      41.923  28.100  25.536  1.00  0.00    -0.200 F 
ATOM     69  C   UNL A   1      40.520  26.503  26.560  1.00  0.00     0.200 A 
ATOM     70  F   UNL A   1      39.122  24.929  27.631  1.00  0.00    -0.200 F 
ATOM     71  F   UNL A   1      40.532  25.756  25.448  1.00  0.00    -0.200 F 
ENDBRANCH  47  61
BRANCH  48  72
ATOM     72  C   UNL A   1      39.677  33.889  36.962  1.00  0.00     0.064 A 
ATOM     73  C   UNL A   1      38.862  33.518  38.043  1.00  0.00     0.173 A 
ATOM     74  C   UNL A   1      40.300  35.142  37.014  1.00  0.00     0.173 A 
ATOM     75  F   UNL A   1      38.238  32.330  38.038  1.00  0.00    -0.203 F 
ATOM     76  C   UNL A   1      38.647  34.385  39.112  1.00  0.00     0.198 A 
ATOM     77  C   UNL A   1      40.105  35.998  38.097  1.00  0.00     0.198 A 
ATOM     78  F   UNL A   1      41.105  35.531  36.015  1.00  0.00    -0.203 F 
ATOM     79  F   UNL A   1      37.822  34.028  40.106  1.00  0.00    -0.200 F 
ATOM     80  C   UNL A   1      39.268  35.625  39.139  1.00  0.00     0.200 A 
ATOM     81  F   UNL A   1      40.723  37.187  38.129  1.00  0.00    -0.200 F 
ATOM     82  F   UNL A   1      39.058  36.460  40.164  1.00  0.00    -0.200 F 
ENDBRANCH  48  72
BRANCH  60  83
ATOM     83  C   UNL A   1      43.887  28.577  35.221  1.00  0.00     0.064 A 
ATOM     84  C   UNL A   1      45.215  29.011  35.092  1.00  0.00     0.173 A 
ATOM     85  C   UNL A   1      43.648  27.403  35.950  1.00  0.00     0.173 A 
ATOM     86  F   UNL A   1      45.499  30.124  34.398  1.00  0.00    -0.203 F 
ATOM     87  C   UNL A   1      46.266  28.282  35.643  1.00  0.00     0.198 A 
ATOM     88  C   UNL A   1      44.699  26.692  36.525  1.00  0.00     0.198 A 
ATOM     89  F   UNL A   1      42.396  26.953  36.113  1.00  0.00    -0.203 F 
ATOM     90  F   UNL A   1      47.529  28.692  35.465  1.00  0.00    -0.200 F 
ATOM     91  C   UNL A   1      46.007  27.124  36.360  1.00  0.00     0.200 A 
ATOM     92  F   UNL A   1      44.445  25.586  37.238  1.00  0.00    -0.200 F 
ATOM     93  F   UNL A   1      47.017  26.424  36.892  1.00  0.00    -0.200 F 
ENDBRANCH  60  83
ENDBRANCH  34  35
ENDBRANCH  26  29
ENDBRANCH  24  25
ENDBRANCH  23  24
ENDBRANCH  22  23
ENDBRANCH  21  22
ENDBRANCH   1  21
TORSDOF 17
ENDMDL
MODEL 2
REMARK VINA RESULT:     -11.2      1.878      3.148
REMARK SMILES O=C(CCCC(=O)Nc1ccccc1F)NCCCCCCNC(=O)c1ccc(-c2c3nc(c(-c4c(F)c(F)c(F)c(F)c4F)c4ccc([nH]4)c(-c4c(F)c(F)c(F)c(F)c4F)c4nc(c(-c5c(F)c(F)c(F)c(F)c5F)c5ccc2[nH]5)C=C4)C=C3)cc1
REMARK SMILES IDX 18 1 17 2 16 3 1 4 2 5 3 7 4 8 5 9 6 10 7 11 8 12 9 14 10 15
REMARK SMILES IDX 14 16 11 17 13 18 15 19 12 20 19 21 20 22 21 23 22 24 23 25
REMARK SMILES IDX 24 26 25 28 26 29 27 30 88 31 28 32 87 33 29 34 30 35 31 36
REMARK SMILES IDX 81 37 32 38 86 39 80 40 82 41 33 42 85 43 79 44 78 45 34 47
REMARK SMILES IDX 66 48 46 49 65 50 47 51 50 52 64 53 83 54 48 55 49 56 63 58
REMARK SMILES IDX 84 59 51 60 35 61 36 62 44 63 37 64 38 65 42 66 45 67 39 68
REMARK SMILES IDX 40 69 43 70 41 71 67 72 68 73 76 74 69 75 70 76 74 77 77 78
REMARK SMILES IDX 71 79 72 80 75 81 73 82 52 83 53 84 61 85 54 86 55 87 59 88
REMARK SMILES IDX 62 89 56 90 57 91 60 92 58 93
REMARK H PARENT 16 6 8 13 23 27 82 46 50 57
REMARK Flexibility Score: inf
ROOT
ATOM      1  C   UNL A   1      32.522  28.126  26.997  1.00  0.00     0.021 C 
ENDROOT
BRANCH   1   2
ATOM      2  C   UNL A   1      33.410  27.627  25.857  1.00  0.00     0.116 C 
BRANCH   2   3
ATOM      3  N   UNL A   1      33.848  26.260  26.038  1.00  0.00    -0.356 N 
ATOM      4  O   UNL A   1      33.913  25.777  23.809  1.00  0.00    -0.275 OA
ATOM      5  C   UNL A   1      34.092  25.427  24.974  1.00  0.00     0.220 C 
ATOM      6  H   UNL A   1      33.976  25.916  26.951  1.00  0.00     0.163 HD
BRANCH   5   7
ATOM      7  C   UNL A   1      34.492  24.004  25.326  1.00  0.00     0.100 C 
BRANCH   7   8
ATOM      8  C   UNL A   1      34.101  23.427  26.689  1.00  0.00     0.020 C 
BRANCH   8   9
ATOM      9  C   UNL A   1      33.643  21.979  26.832  1.00  0.00     0.101 C 
BRANCH   9  10
ATOM     10  C   UNL A   1      32.737  21.298  25.798  1.00  0.00     0.224 C 
ATOM     11  O   UNL A   1      33.016  20.169  25.385  1.00  0.00    -0.275 OA
ATOM     12  N   UNL A   1      31.470  21.766  25.577  1.00  0.00    -0.324 N 
ATOM     13  H   UNL A   1      30.765  21.080  25.599  1.00  0.00     0.170 HD
BRANCH  12  14
ATOM     14  C   UNL A   1      31.020  23.069  25.325  1.00  0.00     0.077 A 
ATOM     15  C   UNL A   1      30.589  23.837  26.409  1.00  0.00     0.029 A 
ATOM     16  C   UNL A   1      30.929  23.606  24.044  1.00  0.00     0.146 A 
ATOM     17  C   UNL A   1      30.246  25.181  26.221  1.00  0.00     0.002 A 
ATOM     18  C   UNL A   1      30.559  24.935  23.846  1.00  0.00     0.041 A 
ATOM     19  F   UNL A   1      31.210  22.848  22.973  1.00  0.00    -0.205 F 
ATOM     20  C   UNL A   1      30.257  25.738  24.943  1.00  0.00     0.003 A 
ENDBRANCH  12  14
ENDBRANCH   9  10
ENDBRANCH   8   9
ENDBRANCH   7   8
ENDBRANCH   5   7
ENDBRANCH   2   3
ENDBRANCH   1   2
BRANCH   1  21
ATOM     21  C   UNL A   1      32.552  29.641  27.238  1.00  0.00     0.002 C 
BRANCH  21  22
ATOM     22  C   UNL A   1      31.806  30.478  26.197  1.00  0.00     0.002 C 
BRANCH  22  23
ATOM     23  C   UNL A   1      31.523  31.922  26.614  1.00  0.00     0.021 C 
BRANCH  23  24
ATOM     24  C   UNL A   1      32.660  32.608  27.364  1.00  0.00     0.116 C 
BRANCH  24  25
ATOM     25  N   UNL A   1      32.385  34.013  27.624  1.00  0.00    -0.352 N 
ATOM     26  C   UNL A   1      32.966  34.855  28.541  1.00  0.00     0.251 C 
ATOM     27  H   UNL A   1      31.683  34.416  27.065  1.00  0.00     0.163 HD
ATOM     28  O   UNL A   1      32.490  35.962  28.759  1.00  0.00    -0.269 OA
BRANCH  26  29
ATOM     29  C   UNL A   1      34.162  34.406  29.288  1.00  0.00     0.039 A 
ATOM     30  C   UNL A   1      33.991  33.816  30.542  1.00  0.00     0.014 A 
ATOM     31  C   UNL A   1      35.441  34.547  28.743  1.00  0.00     0.014 A 
ATOM     32  C   UNL A   1      35.097  33.292  31.215  1.00  0.00     0.010 A 
ATOM     33  C   UNL A   1      36.532  33.961  29.381  1.00  0.00     0.010 A 
ATOM     34  C   UNL A   1      36.368  33.317  30.617  1.00  0.00    -0.014 A 
BRANCH  34  35
ATOM     35  C   UNL A   1      37.526  32.632  31.245  1.00  0.00     0.031 A 
ATOM     36  C   UNL A   1      38.218  31.498  30.546  1.00  0.00     0.074 A 
ATOM     37  C   UNL A   1      37.906  32.988  32.487  1.00  0.00     0.049 A 
ATOM     38  N   UNL A   1      39.200  30.743  30.970  1.00  0.00    -0.248 NA
ATOM     39  C   UNL A   1      37.727  31.150  29.204  1.00  0.00     0.031 C 
ATOM     40  C   UNL A   1      37.284  34.044  33.287  1.00  0.00     0.029 A 
ATOM     41  N   UNL A   1      38.898  32.496  33.301  1.00  0.00    -0.354 N 
ATOM     42  C   UNL A   1      39.437  29.827  29.954  1.00  0.00     0.074 A 
ATOM     43  C   UNL A   1      38.465  30.087  28.915  1.00  0.00     0.031 C 
ATOM     44  C   UNL A   1      37.925  34.142  34.460  1.00  0.00     0.029 A 
ATOM     45  C   UNL A   1      38.971  33.124  34.520  1.00  0.00     0.049 A 
ATOM     46  H   UNL A   1      39.499  31.762  33.035  1.00  0.00     0.167 HD
ATOM     47  C   UNL A   1      40.395  28.872  29.889  1.00  0.00     0.037 A 
ATOM     48  C   UNL A   1      39.781  32.903  35.573  1.00  0.00     0.037 A 
ATOM     49  C   UNL A   1      41.371  28.633  30.921  1.00  0.00     0.049 A 
ATOM     50  C   UNL A   1      40.817  31.817  35.491  1.00  0.00     0.074 A 
ATOM     51  C   UNL A   1      42.429  27.741  30.912  1.00  0.00     0.029 A 
ATOM     52  N   UNL A   1      41.403  29.278  32.149  1.00  0.00    -0.354 N 
ATOM     53  N   UNL A   1      41.081  31.006  34.497  1.00  0.00    -0.248 NA
ATOM     54  C   UNL A   1      41.664  31.613  36.674  1.00  0.00     0.031 C 
ATOM     55  C   UNL A   1      43.058  27.797  32.158  1.00  0.00     0.029 A 
ATOM     56  C   UNL A   1      42.436  28.772  32.922  1.00  0.00     0.049 A 
ATOM     57  H   UNL A   1      40.784  29.991  32.428  1.00  0.00     0.167 HD
ATOM     58  C   UNL A   1      42.131  30.204  34.925  1.00  0.00     0.074 A 
ATOM     59  C   UNL A   1      42.466  30.638  36.265  1.00  0.00     0.031 C 
ATOM     60  C   UNL A   1      42.756  29.201  34.262  1.00  0.00     0.037 A 
BRANCH  47  61
ATOM     61  C   UNL A   1      40.439  28.005  28.663  1.00  0.00     0.064 A 
ATOM     62  C   UNL A   1      39.783  26.765  28.646  1.00  0.00     0.173 A 
ATOM     63  C   UNL A   1      41.180  28.369  27.528  1.00  0.00     0.173 A 
ATOM     64  F   UNL A   1      39.066  26.363  29.707  1.00  0.00    -0.203 F 
ATOM     65  C   UNL A   1      39.874  25.920  27.543  1.00  0.00     0.198 A 
ATOM     66  C   UNL A   1      41.240  27.535  26.414  1.00  0.00     0.198 A 
ATOM     67  F   UNL A   1      41.820  29.547  27.488  1.00  0.00    -0.203 F 
ATOM     68  F   UNL A   1      39.263  24.727  27.564  1.00  0.00    -0.200 F 
ATOM     69  C   UNL A   1      40.595  26.308  26.426  1.00  0.00     0.200 A 
ATOM     70  F   UNL A   1      41.916  27.925  25.324  1.00  0.00    -0.200 F 
ATOM     71  F   UNL A   1      40.667  25.501  25.358  1.00  0.00    -0.200 F 
ENDBRANCH  47  61
BRANCH  48  72
ATOM     72  C   UNL A   1      39.648  33.760  36.778  1.00  0.00     0.064 A 
ATOM     73  C   UNL A   1      38.840  33.378  37.861  1.00  0.00     0.173 A 
ATOM     74  C   UNL A   1      40.266  35.015  36.837  1.00  0.00     0.173 A 
ATOM     75  F   UNL A   1      38.221  32.188  37.850  1.00  0.00    -0.203 F 
ATOM     76  C   UNL A   1      38.628  34.236  38.938  1.00  0.00     0.198 A 
ATOM     77  C   UNL A   1      40.075  35.862  37.928  1.00  0.00     0.198 A 
ATOM     78  F   UNL A   1      41.064  35.415  35.836  1.00  0.00    -0.203 F 
ATOM     79  F   UNL A   1      37.810  33.868  39.934  1.00  0.00    -0.200 F 
ATOM     80  C   UNL A   1      39.245  35.477  38.971  1.00  0.00     0.200 A 
ATOM     81  F   UNL A   1      40.688  37.052  37.965  1.00  0.00    -0.200 F 
ATOM     82  F   UNL A   1      39.038  36.304  40.004  1.00  0.00    -0.200 F 
ENDBRANCH  48  72
BRANCH  60  83
ATOM     83  C   UNL A   1      43.874  28.486  34.964  1.00  0.00     0.064 A 
ATOM     84  C   UNL A   1      45.207  28.879  34.765  1.00  0.00     0.173 A 
ATOM     85  C   UNL A   1      43.635  27.351  35.752  1.00  0.00     0.173 A 
ATOM     86  F   UNL A   1      45.490  29.953  34.012  1.00  0.00    -0.203 F 
ATOM     87  C   UNL A   1      46.259  28.145  35.305  1.00  0.00     0.198 A 
ATOM     88  C   UNL A   1      44.689  26.637  36.316  1.00  0.00     0.198 A 
ATOM     89  F   UNL A   1      42.379  26.943  35.984  1.00  0.00    -0.203 F 
ATOM     90  F   UNL A   1      47.525  28.512  35.059  1.00  0.00    -0.200 F 
ATOM     91  C   UNL A   1      46.000  27.025  36.081  1.00  0.00     0.200 A 
ATOM     92  F   UNL A   1      44.436  25.569  37.085  1.00  0.00    -0.200 F 
ATOM     93  F   UNL A   1      47.013  26.321  36.602  1.00  0.00    -0.200 F 
ENDBRANCH  60  83
ENDBRANCH  34  35
ENDBRANCH  26  29
ENDBRANCH  24  25
ENDBRANCH  23  24
ENDBRANCH  22  23
ENDBRANCH  21  22
ENDBRANCH   1  21
TORSDOF 17
ENDMDL
MODEL 3
REMARK VINA RESULT:     -11.2      1.880      3.814
REMARK SMILES O=C(CCCC(=O)Nc1ccccc1F)NCCCCCCNC(=O)c1ccc(-c2c3nc(c(-c4c(F)c(F)c(F)c(F)c4F)c4ccc([nH]4)c(-c4c(F)c(F)c(F)c(F)c4F)c4nc(c(-c5c(F)c(F)c(F)c(F)c5F)c5ccc2[nH]5)C=C4)C=C3)cc1
REMARK SMILES IDX 18 1 17 2 16 3 1 4 2 5 3 7 4 8 5 9 6 10 7 11 8 12 9 14 10 15
REMARK SMILES IDX 14 16 11 17 13 18 15 19 12 20 19 21 20 22 21 23 22 24 23 25
REMARK SMILES IDX 24 26 25 28 26 29 27 30 88 31 28 32 87 33 29 34 30 35 31 36
REMARK SMILES IDX 81 37 32 38 86 39 80 40 82 41 33 42 85 43 79 44 78 45 34 47
REMARK SMILES IDX 66 48 46 49 65 50 47 51 50 52 64 53 83 54 48 55 49 56 63 58
REMARK SMILES IDX 84 59 51 60 35 61 36 62 44 63 37 64 38 65 42 66 45 67 39 68
REMARK SMILES IDX 40 69 43 70 41 71 67 72 68 73 76 74 69 75 70 76 74 77 77 78
REMARK SMILES IDX 71 79 72 80 75 81 73 82 52 83 53 84 61 85 54 86 55 87 59 88
REMARK SMILES IDX 62 89 56 90 57 91 60 92 58 93
REMARK H PARENT 16 6 8 13 23 27 82 46 50 57
REMARK Flexibility Score: inf
ROOT
ATOM      1  C   UNL A   1      31.327  28.767  24.549  1.00  0.00     0.021 C 
ENDROOT
BRANCH   1   2
ATOM      2  C   UNL A   1      30.216  28.150  23.700  1.00  0.00     0.116 C 
BRANCH   2   3
ATOM      3  N   UNL A   1      30.057  26.729  23.922  1.00  0.00    -0.356 N 
ATOM      4  O   UNL A   1      31.532  26.109  22.296  1.00  0.00    -0.275 OA
ATOM      5  C   UNL A   1      30.760  25.797  23.200  1.00  0.00     0.220 C 
ATOM      6  H   UNL A   1      29.426  26.421  24.611  1.00  0.00     0.163 HD
BRANCH   5   7
ATOM      7  C   UNL A   1      30.442  24.343  23.510  1.00  0.00     0.100 C 
BRANCH   7   8
ATOM      8  C   UNL A   1      31.529  23.445  24.106  1.00  0.00     0.020 C 
BRANCH   8   9
ATOM      9  C   UNL A   1      32.472  22.646  23.212  1.00  0.00     0.101 C 
BRANCH   9  10
ATOM     10  C   UNL A   1      33.524  23.317  22.320  1.00  0.00     0.224 C 
ATOM     11  O   UNL A   1      33.278  23.524  21.128  1.00  0.00    -0.275 OA
ATOM     12  N   UNL A   1      34.581  23.982  22.882  1.00  0.00    -0.324 N 
ATOM     13  H   UNL A   1      34.735  24.888  22.530  1.00  0.00     0.170 HD
BRANCH  12  14
ATOM     14  C   UNL A   1      35.477  23.574  23.877  1.00  0.00     0.077 A 
ATOM     15  C   UNL A   1      36.404  22.578  23.561  1.00  0.00     0.029 A 
ATOM     16  C   UNL A   1      35.447  24.073  25.177  1.00  0.00     0.146 A 
ATOM     17  C   UNL A   1      37.395  22.226  24.484  1.00  0.00     0.002 A 
ATOM     18  C   UNL A   1      36.413  23.703  26.112  1.00  0.00     0.041 A 
ATOM     19  F   UNL A   1      34.486  24.932  25.548  1.00  0.00    -0.205 F 
ATOM     20  C   UNL A   1      37.417  22.809  25.751  1.00  0.00     0.003 A 
ENDBRANCH  12  14
ENDBRANCH   9  10
ENDBRANCH   8   9
ENDBRANCH   7   8
ENDBRANCH   5   7
ENDBRANCH   2   3
ENDBRANCH   1   2
BRANCH   1  21
ATOM     21  C   UNL A   1      31.087  30.217  24.993  1.00  0.00     0.002 C 
BRANCH  21  22
ATOM     22  C   UNL A   1      31.777  30.618  26.298  1.00  0.00     0.002 C 
BRANCH  22  23
ATOM     23  C   UNL A   1      31.507  32.053  26.755  1.00  0.00     0.021 C 
BRANCH  23  24
ATOM     24  C   UNL A   1      32.713  32.775  27.347  1.00  0.00     0.116 C 
BRANCH  24  25
ATOM     25  N   UNL A   1      32.438  34.175  27.627  1.00  0.00    -0.352 N 
ATOM     26  C   UNL A   1      33.006  35.000  28.570  1.00  0.00     0.251 C 
ATOM     27  H   UNL A   1      31.747  34.591  27.063  1.00  0.00     0.163 HD
ATOM     28  O   UNL A   1      32.530  36.104  28.798  1.00  0.00    -0.269 OA
BRANCH  26  29
ATOM     29  C   UNL A   1      34.187  34.533  29.329  1.00  0.00     0.039 A 
ATOM     30  C   UNL A   1      34.002  34.024  30.616  1.00  0.00     0.014 A 
ATOM     31  C   UNL A   1      35.465  34.577  28.764  1.00  0.00     0.014 A 
ATOM     32  C   UNL A   1      35.089  33.483  31.307  1.00  0.00     0.010 A 
ATOM     33  C   UNL A   1      36.532  33.974  29.424  1.00  0.00     0.010 A 
ATOM     34  C   UNL A   1      36.353  33.409  30.696  1.00  0.00    -0.014 A 
BRANCH  34  35
ATOM     35  C   UNL A   1      37.482  32.702  31.351  1.00  0.00     0.031 A 
ATOM     36  C   UNL A   1      38.145  31.533  30.684  1.00  0.00     0.074 A 
ATOM     37  C   UNL A   1      37.861  33.074  32.590  1.00  0.00     0.049 A 
ATOM     38  N   UNL A   1      39.099  30.757  31.134  1.00  0.00    -0.248 NA
ATOM     39  C   UNL A   1      37.657  31.171  29.344  1.00  0.00     0.031 C 
ATOM     40  C   UNL A   1      37.264  34.166  33.360  1.00  0.00     0.029 A 
ATOM     41  N   UNL A   1      38.828  32.569  33.423  1.00  0.00    -0.354 N 
ATOM     42  C   UNL A   1      39.318  29.813  30.141  1.00  0.00     0.074 A 
ATOM     43  C   UNL A   1      38.364  30.080  29.086  1.00  0.00     0.031 C 
ATOM     44  C   UNL A   1      37.896  34.269  34.537  1.00  0.00     0.029 A 
ATOM     45  C   UNL A   1      38.910  33.222  34.629  1.00  0.00     0.049 A 
ATOM     46  H   UNL A   1      39.409  31.812  33.180  1.00  0.00     0.167 HD
ATOM     47  C   UNL A   1      40.246  28.828  30.107  1.00  0.00     0.037 A 
ATOM     48  C   UNL A   1      39.701  32.998  35.696  1.00  0.00     0.037 A 
ATOM     49  C   UNL A   1      41.204  28.581  31.154  1.00  0.00     0.049 A 
ATOM     50  C   UNL A   1      40.704  31.879  35.649  1.00  0.00     0.074 A 
ATOM     51  C   UNL A   1      42.234  27.657  31.175  1.00  0.00     0.029 A 
ATOM     52  N   UNL A   1      41.244  29.252  32.367  1.00  0.00    -0.354 N 
ATOM     53  N   UNL A   1      40.952  31.039  34.674  1.00  0.00    -0.248 NA
ATOM     54  C   UNL A   1      41.533  31.675  36.845  1.00  0.00     0.031 C 
ATOM     55  C   UNL A   1      42.852  27.720  32.426  1.00  0.00     0.029 A 
ATOM     56  C   UNL A   1      42.253  28.730  33.162  1.00  0.00     0.049 A 
ATOM     57  H   UNL A   1      40.645  29.989  32.625  1.00  0.00     0.167 HD
ATOM     58  C   UNL A   1      41.972  30.215  35.131  1.00  0.00     0.074 A 
ATOM     59  C   UNL A   1      42.308  30.667  36.465  1.00  0.00     0.031 C 
ATOM     60  C   UNL A   1      42.573  29.178  34.496  1.00  0.00     0.037 A 
BRANCH  47  61
ATOM     61  C   UNL A   1      40.276  27.933  28.900  1.00  0.00     0.064 A 
ATOM     62  C   UNL A   1      39.612  26.696  28.916  1.00  0.00     0.173 A 
ATOM     63  C   UNL A   1      41.009  28.268  27.750  1.00  0.00     0.173 A 
ATOM     64  F   UNL A   1      38.903  26.322  29.992  1.00  0.00    -0.203 F 
ATOM     65  C   UNL A   1      39.690  25.826  27.832  1.00  0.00     0.198 A 
ATOM     66  C   UNL A   1      41.055  27.409  26.655  1.00  0.00     0.198 A 
ATOM     67  F   UNL A   1      41.654  29.441  27.679  1.00  0.00    -0.203 F 
ATOM     68  F   UNL A   1      39.073  24.637  27.884  1.00  0.00    -0.200 F 
ATOM     69  C   UNL A   1      40.404  26.186  26.700  1.00  0.00     0.200 A 
ATOM     70  F   UNL A   1      41.724  27.771  25.551  1.00  0.00    -0.200 F 
ATOM     71  F   UNL A   1      40.462  25.355  25.650  1.00  0.00    -0.200 F 
ENDBRANCH  47  61
BRANCH  48  72
ATOM     72  C   UNL A   1      39.583  33.885  36.881  1.00  0.00     0.064 A 
ATOM     73  C   UNL A   1      38.786  33.532  37.981  1.00  0.00     0.173 A 
ATOM     74  C   UNL A   1      40.205  35.140  36.902  1.00  0.00     0.173 A 
ATOM     75  F   UNL A   1      38.164  32.344  38.006  1.00  0.00    -0.203 F 
ATOM     76  C   UNL A   1      38.587  34.417  39.039  1.00  0.00     0.198 A 
ATOM     77  C   UNL A   1      40.027  36.013  37.974  1.00  0.00     0.198 A 
ATOM     78  F   UNL A   1      40.993  35.513  35.883  1.00  0.00    -0.203 F 
ATOM     79  F   UNL A   1      37.779  34.076  40.052  1.00  0.00    -0.200 F 
ATOM     80  C   UNL A   1      39.208  35.657  39.035  1.00  0.00     0.200 A 
ATOM     81  F   UNL A   1      40.644  37.203  37.975  1.00  0.00    -0.200 F 
ATOM     82  F   UNL A   1      39.014  36.509  40.050  1.00  0.00    -0.200 F 
ENDBRANCH  48  72
BRANCH  60  83
ATOM     83  C   UNL A   1      43.661  28.445  35.225  1.00  0.00     0.064 A 
ATOM     84  C   UNL A   1      43.346  27.423  36.134  1.00  0.00     0.173 A 
ATOM     85  C   UNL A   1      45.006  28.823  35.102  1.00  0.00     0.173 A 
ATOM     86  F   UNL A   1      42.074  27.029  36.295  1.00  0.00    -0.203 F 
ATOM     87  C   UNL A   1      44.334  26.825  36.912  1.00  0.00     0.198 A 
ATOM     88  C   UNL A   1      45.995  28.202  35.860  1.00  0.00     0.198 A 
ATOM     89  F   UNL A   1      45.360  29.785  34.238  1.00  0.00    -0.203 F 
ATOM     90  F   UNL A   1      44.001  25.885  37.807  1.00  0.00    -0.200 F 
ATOM     91  C   UNL A   1      45.658  27.214  36.774  1.00  0.00     0.200 A 
ATOM     92  F   UNL A   1      47.277  28.562  35.709  1.00  0.00    -0.200 F 
ATOM     93  F   UNL A   1      46.608  26.638  37.522  1.00  0.00    -0.200 F 
ENDBRANCH  60  83
ENDBRANCH  34  35
ENDBRANCH  26  29
ENDBRANCH  24  25
ENDBRANCH  23  24
ENDBRANCH  22  23
ENDBRANCH  21  22
ENDBRANCH   1  21
TORSDOF 17
ENDMDL
