MODEL 1
REMARK VINA RESULT:     -12.5      0.000      0.000
REMARK SMILES O=C(C[C@@H]1CN(c2ccc([N+](=O)[O-])cc2Cl)CCO1)NCCCCCCNC(=O)c1ccc(-c2c3nc(c(-c4c(F)c(F)c(F)c(F)c4F)c4ccc([nH]4)c(-c4c(F)c(F)c(F)c(F)c4F)c4nc(c(-c5c(F)c(F)c(F)c(F)c5F)c5ccc2[nH]5)C=C4)C=C3)cc1
REMARK SMILES IDX 23 1 22 2 21 3 20 4 1 5 2 6 3 8 4 9 5 10 19 11 6 12 18 13
REMARK SMILES IDX 17 14 7 15 8 16 15 17 9 18 14 19 16 20 10 21 11 22 12 23
REMARK SMILES IDX 13 24 24 25 25 26 26 27 27 28 28 29 29 31 30 32 31 33 92 34
REMARK SMILES IDX 32 35 91 36 33 37 34 38 35 39 85 40 36 41 90 42 84 43 86 44
REMARK SMILES IDX 37 45 89 46 83 47 82 48 38 50 70 51 50 52 69 53 51 54 54 55
REMARK SMILES IDX 68 56 87 57 52 58 53 59 67 61 88 62 55 63 39 64 40 65 48 66
REMARK SMILES IDX 41 67 42 68 46 69 49 70 43 71 44 72 47 73 45 74 71 75 72 76
REMARK SMILES IDX 80 77 73 78 74 79 78 80 81 81 75 82 76 83 79 84 77 85 56 86
REMARK SMILES IDX 57 87 65 88 58 89 59 90 63 91 66 92 60 93 61 94 64 95 62 96
REMARK H PARENT 20 7 27 30 86 49 54 60
REMARK Flexibility Score: inf
ROOT
ATOM      1  C   UNL A   1      31.798  29.501  26.915  1.00  0.00     0.002 C 
ENDROOT
BRANCH   1   2
ATOM      2  C   UNL A   1      31.900  28.179  26.142  1.00  0.00     0.021 C 
BRANCH   2   3
ATOM      3  C   UNL A   1      32.031  28.341  24.627  1.00  0.00     0.116 C 
BRANCH   3   4
ATOM      4  N   UNL A   1      32.952  27.371  24.081  1.00  0.00    -0.356 N 
ATOM      5  O   UNL A   1      31.387  25.987  23.129  1.00  0.00    -0.275 OA
ATOM      6  C   UNL A   1      32.554  26.250  23.399  1.00  0.00     0.222 C 
ATOM      7  H   UNL A   1      33.917  27.523  24.207  1.00  0.00     0.163 HD
BRANCH   6   8
ATOM      8  C   UNL A   1      33.685  25.299  23.073  1.00  0.00     0.133 C 
BRANCH   8   9
ATOM      9  C   UNL A   1      33.850  24.226  24.146  1.00  0.00     0.147 C 
ATOM     10  C   UNL A   1      33.029  22.974  23.768  1.00  0.00     0.149 C 
ATOM     11  O   UNL A   1      33.388  24.762  25.418  1.00  0.00    -0.374 OA
ATOM     12  N   UNL A   1      33.120  21.998  24.859  1.00  0.00    -0.365 N 
ATOM     13  C   UNL A   1      33.546  23.779  26.464  1.00  0.00     0.182 C 
ATOM     14  C   UNL A   1      32.737  22.501  26.178  1.00  0.00     0.145 C 
BRANCH  12  15
ATOM     15  C   UNL A   1      33.343  20.662  24.607  1.00  0.00     0.056 A 
ATOM     16  C   UNL A   1      32.294  19.855  24.135  1.00  0.00     0.034 A 
ATOM     17  C   UNL A   1      34.601  20.043  24.807  1.00  0.00     0.071 A 
ATOM     18  C   UNL A   1      32.484  18.497  23.851  1.00  0.00     0.088 A 
ATOM     19  C   UNL A   1      34.804  18.688  24.532  1.00  0.00     0.108 A 
ATOM     20  Cl  UNL A   1      35.946  20.900  25.486  1.00  0.00    -0.082 Cl
ATOM     21  C   UNL A   1      33.742  17.922  24.050  1.00  0.00     0.271 A 
BRANCH  21  22
ATOM     22  N   UNL A   1      33.952  16.498  23.759  1.00  0.00     0.062 N 
ATOM     23  O   UNL A   1      34.264  16.188  22.602  1.00  0.00    -0.258 OA
ATOM     24  O   UNL A   1      33.805  15.694  24.690  1.00  0.00    -0.258 OA
ENDBRANCH  21  22
ENDBRANCH  12  15
ENDBRANCH   8   9
ENDBRANCH   6   8
ENDBRANCH   3   4
ENDBRANCH   2   3
ENDBRANCH   1   2
BRANCH   1  25
ATOM     25  C   UNL A   1      31.674  30.758  26.050  1.00  0.00     0.002 C 
BRANCH  25  26
ATOM     26  C   UNL A   1      31.432  32.057  26.821  1.00  0.00     0.021 C 
BRANCH  26  27
ATOM     27  C   UNL A   1      32.697  32.816  27.210  1.00  0.00     0.116 C 
BRANCH  27  28
ATOM     28  N   UNL A   1      32.425  34.193  27.593  1.00  0.00    -0.352 N 
ATOM     29  C   UNL A   1      32.994  34.950  28.586  1.00  0.00     0.251 C 
ATOM     30  H   UNL A   1      31.733  34.648  27.062  1.00  0.00     0.163 HD
ATOM     31  O   UNL A   1      32.518  36.045  28.877  1.00  0.00    -0.269 OA
BRANCH  29  32
ATOM     32  C   UNL A   1      34.165  34.439  29.330  1.00  0.00     0.039 A 
ATOM     33  C   UNL A   1      33.961  33.802  30.557  1.00  0.00     0.014 A 
ATOM     34  C   UNL A   1      35.459  34.588  28.826  1.00  0.00     0.014 A 
ATOM     35  C   UNL A   1      35.047  33.255  31.244  1.00  0.00     0.010 A 
ATOM     36  C   UNL A   1      36.529  33.975  29.471  1.00  0.00     0.010 A 
ATOM     37  C   UNL A   1      36.336  33.303  30.688  1.00  0.00    -0.014 A 
BRANCH  37  38
ATOM     38  C   UNL A   1      37.489  32.650  31.360  1.00  0.00     0.031 A 
ATOM     39  C   UNL A   1      38.196  31.496  30.705  1.00  0.00     0.074 A 
ATOM     40  C   UNL A   1      37.856  33.052  32.592  1.00  0.00     0.049 A 
ATOM     41  N   UNL A   1      39.179  30.759  31.161  1.00  0.00    -0.248 NA
ATOM     42  C   UNL A   1      37.717  31.100  29.373  1.00  0.00     0.031 C 
ATOM     43  C   UNL A   1      37.218  34.126  33.355  1.00  0.00     0.029 A 
ATOM     44  N   UNL A   1      38.847  32.596  33.426  1.00  0.00    -0.354 N 
ATOM     45  C   UNL A   1      39.423  29.809  30.179  1.00  0.00     0.074 A 
ATOM     46  C   UNL A   1      38.450  30.024  29.130  1.00  0.00     0.031 C 
ATOM     47  C   UNL A   1      37.847  34.261  34.533  1.00  0.00     0.029 A 
ATOM     48  C   UNL A   1      38.903  33.257  34.628  1.00  0.00     0.049 A 
ATOM     49  H   UNL A   1      39.460  31.863  33.185  1.00  0.00     0.167 HD
ATOM     50  C   UNL A   1      40.389  28.857  30.144  1.00  0.00     0.037 A 
ATOM     51  C   UNL A   1      39.707  33.070  35.692  1.00  0.00     0.037 A 
ATOM     52  C   UNL A   1      41.363  28.655  31.185  1.00  0.00     0.049 A 
ATOM     53  C   UNL A   1      40.760  31.997  35.638  1.00  0.00     0.074 A 
ATOM     54  C   UNL A   1      42.417  27.760  31.219  1.00  0.00     0.029 A 
ATOM     55  N   UNL A   1      41.395  29.353  32.385  1.00  0.00    -0.354 N 
ATOM     56  N   UNL A   1      41.033  31.152  34.673  1.00  0.00    -0.248 NA
ATOM     57  C   UNL A   1      41.622  31.855  36.819  1.00  0.00     0.031 C 
ATOM     58  C   UNL A   1      43.049  27.873  32.460  1.00  0.00     0.029 A 
ATOM     59  C   UNL A   1      42.432  28.886  33.177  1.00  0.00     0.049 A 
ATOM     60  H   UNL A   1      40.773  30.073  32.636  1.00  0.00     0.167 HD
ATOM     61  C   UNL A   1      42.113  30.401  35.116  1.00  0.00     0.074 A 
ATOM     62  C   UNL A   1      42.455  30.899  36.432  1.00  0.00     0.031 C 
ATOM     63  C   UNL A   1      42.764  29.391  34.487  1.00  0.00     0.037 A 
BRANCH  50  64
ATOM     64  C   UNL A   1      40.429  27.958  28.941  1.00  0.00     0.064 A 
ATOM     65  C   UNL A   1      41.193  28.274  27.805  1.00  0.00     0.173 A 
ATOM     66  C   UNL A   1      39.710  26.752  28.928  1.00  0.00     0.173 A 
ATOM     67  F   UNL A   1      41.892  29.417  27.759  1.00  0.00    -0.203 F 
ATOM     68  C   UNL A   1      41.199  27.440  26.689  1.00  0.00     0.198 A 
ATOM     69  C   UNL A   1      39.748  25.903  27.825  1.00  0.00     0.198 A 
ATOM     70  F   UNL A   1      38.971  26.394  29.989  1.00  0.00    -0.203 F 
ATOM     71  F   UNL A   1      41.884  27.798  25.593  1.00  0.00    -0.200 F 
ATOM     72  C   UNL A   1      40.482  26.254  26.702  1.00  0.00     0.200 A 
ATOM     73  F   UNL A   1      39.069  24.749  27.845  1.00  0.00    -0.200 F 
ATOM     74  F   UNL A   1      40.492  25.452  25.628  1.00  0.00    -0.200 F 
ENDBRANCH  50  64
BRANCH  51  75
ATOM     75  C   UNL A   1      39.559  33.938  36.890  1.00  0.00     0.064 A 
ATOM     76  C   UNL A   1      40.180  35.193  36.952  1.00  0.00     0.173 A 
ATOM     77  C   UNL A   1      38.783  33.539  37.989  1.00  0.00     0.173 A 
ATOM     78  F   UNL A   1      40.948  35.610  35.934  1.00  0.00    -0.203 F 
ATOM     79  C   UNL A   1      40.046  36.008  38.073  1.00  0.00     0.198 A 
ATOM     80  C   UNL A   1      38.625  34.368  39.097  1.00  0.00     0.198 A 
ATOM     81  F   UNL A   1      38.163  32.350  37.977  1.00  0.00    -0.203 F 
ATOM     82  F   UNL A   1      40.685  37.185  38.123  1.00  0.00    -0.200 F 
ATOM     83  C   UNL A   1      39.262  35.599  39.142  1.00  0.00     0.200 A 
ATOM     84  F   UNL A   1      37.852  33.977  40.119  1.00  0.00    -0.200 F 
ATOM     85  F   UNL A   1      39.124  36.389  40.216  1.00  0.00    -0.200 F 
ENDBRANCH  51  75
BRANCH  63  86
ATOM     86  C   UNL A   1      43.937  28.777  35.197  1.00  0.00     0.064 A 
ATOM     87  C   UNL A   1      43.793  27.670  36.046  1.00  0.00     0.173 A 
ATOM     88  C   UNL A   1      45.232  29.281  34.992  1.00  0.00     0.173 A 
ATOM     89  F   UNL A   1      42.576  27.158  36.286  1.00  0.00    -0.203 F 
ATOM     90  C   UNL A   1      44.895  27.108  36.684  1.00  0.00     0.198 A 
ATOM     91  C   UNL A   1      46.336  28.696  35.605  1.00  0.00     0.198 A 
ATOM     92  F   UNL A   1      45.428  30.336  34.186  1.00  0.00    -0.203 F 
ATOM     93  F   UNL A   1      44.727  26.082  37.529  1.00  0.00    -0.200 F 
ATOM     94  C   UNL A   1      46.166  27.615  36.456  1.00  0.00     0.200 A 
ATOM     95  F   UNL A   1      47.565  29.177  35.371  1.00  0.00    -0.200 F 
ATOM     96  F   UNL A   1      47.227  27.066  37.064  1.00  0.00    -0.200 F 
ENDBRANCH  63  86
ENDBRANCH  37  38
ENDBRANCH  29  32
ENDBRANCH  27  28
ENDBRANCH  26  27
ENDBRANCH  25  26
ENDBRANCH   1  25
TORSDOF 16
ENDMDL
MODEL 2
REMARK VINA RESULT:     -12.2      0.945      7.365
REMARK SMILES O=C(C[C@@H]1CN(c2ccc([N+](=O)[O-])cc2Cl)CCO1)NCCCCCCNC(=O)c1ccc(-c2c3nc(c(-c4c(F)c(F)c(F)c(F)c4F)c4ccc([nH]4)c(-c4c(F)c(F)c(F)c(F)c4F)c4nc(c(-c5c(F)c(F)c(F)c(F)c5F)c5ccc2[nH]5)C=C4)C=C3)cc1
REMARK SMILES IDX 23 1 22 2 21 3 20 4 1 5 2 6 3 8 4 9 5 10 19 11 6 12 18 13
REMARK SMILES IDX 17 14 7 15 8 16 15 17 9 18 14 19 16 20 10 21 11 22 12 23
REMARK SMILES IDX 13 24 24 25 25 26 26 27 27 28 28 29 29 31 30 32 31 33 92 34
REMARK SMILES IDX 32 35 91 36 33 37 34 38 35 39 85 40 36 41 90 42 84 43 86 44
REMARK SMILES IDX 37 45 89 46 83 47 82 48 38 50 70 51 50 52 69 53 51 54 54 55
REMARK SMILES IDX 68 56 87 57 52 58 53 59 67 61 88 62 55 63 39 64 40 65 48 66
REMARK SMILES IDX 41 67 42 68 46 69 49 70 43 71 44 72 47 73 45 74 71 75 72 76
REMARK SMILES IDX 80 77 73 78 74 79 78 80 81 81 75 82 76 83 79 84 77 85 56 86
REMARK SMILES IDX 57 87 65 88 58 89 59 90 63 91 66 92 60 93 61 94 64 95 62 96
REMARK H PARENT 20 7 27 30 86 49 54 60
REMARK Flexibility Score: inf
ROOT
ATOM      1  C   UNL A   1      32.136  29.860  26.887  1.00  0.00     0.002 C 
ENDROOT
BRANCH   1   2
ATOM      2  C   UNL A   1      32.953  28.774  26.173  1.00  0.00     0.021 C 
BRANCH   2   3
ATOM      3  C   UNL A   1      32.122  27.818  25.317  1.00  0.00     0.116 C 
BRANCH   3   4
ATOM      4  N   UNL A   1      32.410  26.442  25.651  1.00  0.00    -0.356 N 
ATOM      5  O   UNL A   1      30.321  25.886  26.425  1.00  0.00    -0.275 OA
ATOM      6  C   UNL A   1      31.492  25.590  26.209  1.00  0.00     0.222 C 
ATOM      7  H   UNL A   1      33.315  26.098  25.468  1.00  0.00     0.163 HD
BRANCH   6   8
ATOM      8  C   UNL A   1      32.070  24.256  26.626  1.00  0.00     0.133 C 
BRANCH   8   9
ATOM      9  C   UNL A   1      32.078  23.256  25.473  1.00  0.00     0.147 C 
ATOM     10  C   UNL A   1      33.255  22.270  25.639  1.00  0.00     0.149 C 
ATOM     11  O   UNL A   1      32.211  23.986  24.222  1.00  0.00    -0.374 OA
ATOM     12  N   UNL A   1      33.303  21.385  24.471  1.00  0.00    -0.365 N 
ATOM     13  C   UNL A   1      32.204  23.073  23.104  1.00  0.00     0.182 C 
ATOM     14  C   UNL A   1      33.365  22.065  23.177  1.00  0.00     0.145 C 
BRANCH  12  15
ATOM     15  C   UNL A   1      33.493  20.027  24.610  1.00  0.00     0.056 A 
ATOM     16  C   UNL A   1      32.385  19.164  24.622  1.00  0.00     0.034 A 
ATOM     17  C   UNL A   1      34.775  19.443  24.750  1.00  0.00     0.071 A 
ATOM     18  C   UNL A   1      32.537  17.778  24.744  1.00  0.00     0.088 A 
ATOM     19  C   UNL A   1      34.941  18.061  24.878  1.00  0.00     0.108 A 
ATOM     20  Cl  UNL A   1      36.213  20.404  24.860  1.00  0.00    -0.082 Cl
ATOM     21  C   UNL A   1      33.818  17.234  24.870  1.00  0.00     0.271 A 
BRANCH  21  22
ATOM     22  N   UNL A   1      33.989  15.782  25.004  1.00  0.00     0.062 N 
ATOM     23  O   UNL A   1      32.973  15.076  24.945  1.00  0.00    -0.258 OA
ATOM     24  O   UNL A   1      35.139  15.351  25.167  1.00  0.00    -0.258 OA
ENDBRANCH  21  22
ENDBRANCH  12  15
ENDBRANCH   8   9
ENDBRANCH   6   8
ENDBRANCH   3   4
ENDBRANCH   2   3
ENDBRANCH   1   2
BRANCH   1  25
ATOM     25  C   UNL A   1      31.420  30.852  25.967  1.00  0.00     0.002 C 
BRANCH  25  26
ATOM     26  C   UNL A   1      31.270  32.267  26.528  1.00  0.00     0.021 C 
BRANCH  26  27
ATOM     27  C   UNL A   1      32.511  32.814  27.228  1.00  0.00     0.116 C 
BRANCH  27  28
ATOM     28  N   UNL A   1      32.360  34.206  27.624  1.00  0.00    -0.352 N 
ATOM     29  C   UNL A   1      33.025  34.912  28.593  1.00  0.00     0.251 C 
ATOM     30  H   UNL A   1      31.682  34.714  27.124  1.00  0.00     0.163 HD
ATOM     31  O   UNL A   1      32.646  36.039  28.906  1.00  0.00    -0.269 OA
BRANCH  29  32
ATOM     32  C   UNL A   1      34.185  34.311  29.286  1.00  0.00     0.039 A 
ATOM     33  C   UNL A   1      33.961  33.502  30.402  1.00  0.00     0.014 A 
ATOM     34  C   UNL A   1      35.489  34.545  28.842  1.00  0.00     0.014 A 
ATOM     35  C   UNL A   1      35.037  32.873  31.031  1.00  0.00     0.010 A 
ATOM     36  C   UNL A   1      36.552  33.856  29.419  1.00  0.00     0.010 A 
ATOM     37  C   UNL A   1      36.339  33.014  30.521  1.00  0.00    -0.014 A 
BRANCH  37  38
ATOM     38  C   UNL A   1      37.484  32.282  31.121  1.00  0.00     0.031 A 
ATOM     39  C   UNL A   1      37.993  32.656  32.486  1.00  0.00     0.074 A 
ATOM     40  C   UNL A   1      38.111  31.326  30.409  1.00  0.00     0.049 A 
ATOM     41  N   UNL A   1      39.017  32.178  33.148  1.00  0.00    -0.248 NA
ATOM     42  C   UNL A   1      37.273  33.729  33.187  1.00  0.00     0.031 C 
ATOM     43  C   UNL A   1      37.745  30.906  29.055  1.00  0.00     0.029 A 
ATOM     44  N   UNL A   1      39.195  30.543  30.718  1.00  0.00    -0.354 N 
ATOM     45  C   UNL A   1      39.069  32.899  34.333  1.00  0.00     0.074 A 
ATOM     46  C   UNL A   1      38.012  33.886  34.274  1.00  0.00     0.031 C 
ATOM     47  C   UNL A   1      38.574  29.928  28.660  1.00  0.00     0.029 A 
ATOM     48  C   UNL A   1      39.556  29.680  29.713  1.00  0.00     0.049 A 
ATOM     49  H   UNL A   1      39.668  30.594  31.580  1.00  0.00     0.167 HD
ATOM     50  C   UNL A   1      39.907  32.738  35.387  1.00  0.00     0.037 A 
ATOM     51  C   UNL A   1      40.570  28.797  29.641  1.00  0.00     0.037 A 
ATOM     52  C   UNL A   1      40.949  31.746  35.446  1.00  0.00     0.049 A 
ATOM     53  C   UNL A   1      41.498  28.646  30.815  1.00  0.00     0.074 A 
ATOM     54  C   UNL A   1      41.812  31.462  36.490  1.00  0.00     0.029 A 
ATOM     55  N   UNL A   1      41.279  30.882  34.410  1.00  0.00    -0.354 N 
ATOM     56  N   UNL A   1      41.492  29.281  31.962  1.00  0.00    -0.248 NA
ATOM     57  C   UNL A   1      42.571  27.651  30.687  1.00  0.00     0.031 C 
ATOM     58  C   UNL A   1      42.701  30.469  36.066  1.00  0.00     0.029 A 
ATOM     59  C   UNL A   1      42.352  30.086  34.781  1.00  0.00     0.049 A 
ATOM     60  H   UNL A   1      40.818  30.840  33.542  1.00  0.00     0.167 HD
ATOM     61  C   UNL A   1      42.537  28.744  32.702  1.00  0.00     0.074 A 
ATOM     62  C   UNL A   1      43.147  27.721  31.879  1.00  0.00     0.031 C 
ATOM     63  C   UNL A   1      42.950  29.068  33.952  1.00  0.00     0.037 A 
BRANCH  50  64
ATOM     64  C   UNL A   1      39.732  33.664  36.558  1.00  0.00     0.064 A 
ATOM     65  C   UNL A   1      40.422  34.884  36.646  1.00  0.00     0.173 A 
ATOM     66  C   UNL A   1      38.847  33.338  37.598  1.00  0.00     0.173 A 
ATOM     67  F   UNL A   1      41.286  35.242  35.685  1.00  0.00    -0.203 F 
ATOM     68  C   UNL A   1      40.266  35.719  37.750  1.00  0.00     0.198 A 
ATOM     69  C   UNL A   1      38.666  34.193  38.683  1.00  0.00     0.198 A 
ATOM     70  F   UNL A   1      38.154  32.190  37.562  1.00  0.00    -0.203 F 
ATOM     71  F   UNL A   1      40.986  36.846  37.841  1.00  0.00    -0.200 F 
ATOM     72  C   UNL A   1      39.385  35.376  38.764  1.00  0.00     0.200 A 
ATOM     73  F   UNL A   1      37.802  33.868  39.653  1.00  0.00    -0.200 F 
ATOM     74  F   UNL A   1      39.234  36.182  39.824  1.00  0.00    -0.200 F 
ENDBRANCH  50  64
BRANCH  51  75
ATOM     75  C   UNL A   1      40.742  27.970  28.417  1.00  0.00     0.064 A 
ATOM     76  C   UNL A   1      40.113  26.724  28.296  1.00  0.00     0.173 A 
ATOM     77  C   UNL A   1      41.525  28.414  27.340  1.00  0.00     0.173 A 
ATOM     78  F   UNL A   1      39.370  26.248  29.306  1.00  0.00    -0.203 F 
ATOM     79  C   UNL A   1      40.274  25.945  27.152  1.00  0.00     0.198 A 
ATOM     80  C   UNL A   1      41.660  27.647  26.186  1.00  0.00     0.198 A 
ATOM     81  F   UNL A   1      42.143  29.602  27.404  1.00  0.00    -0.203 F 
ATOM     82  F   UNL A   1      39.695  24.738  27.079  1.00  0.00    -0.200 F 
ATOM     83  C   UNL A   1      41.041  26.411  26.094  1.00  0.00     0.200 A 
ATOM     84  F   UNL A   1      42.387  28.110  25.159  1.00  0.00    -0.200 F 
ATOM     85  F   UNL A   1      41.186  25.665  24.989  1.00  0.00    -0.200 F 
ENDBRANCH  51  75
BRANCH  63  86
ATOM     86  C   UNL A   1      44.098  28.285  34.525  1.00  0.00     0.064 A 
ATOM     87  C   UNL A   1      45.411  28.777  34.510  1.00  0.00     0.173 A 
ATOM     88  C   UNL A   1      43.871  27.041  35.136  1.00  0.00     0.173 A 
ATOM     89  F   UNL A   1      45.684  29.954  33.926  1.00  0.00    -0.203 F 
ATOM     90  C   UNL A   1      46.458  28.041  35.058  1.00  0.00     0.198 A 
ATOM     91  C   UNL A   1      44.915  26.324  35.713  1.00  0.00     0.198 A 
ATOM     92  F   UNL A   1      42.633  26.526  35.184  1.00  0.00    -0.203 F 
ATOM     93  F   UNL A   1      47.713  28.508  34.986  1.00  0.00    -0.200 F 
ATOM     94  C   UNL A   1      46.208  26.821  35.667  1.00  0.00     0.200 A 
ATOM     95  F   UNL A   1      44.669  25.152  36.316  1.00  0.00    -0.200 F 
ATOM     96  F   UNL A   1      47.216  26.118  36.203  1.00  0.00    -0.200 F 
ENDBRANCH  63  86
ENDBRANCH  37  38
ENDBRANCH  29  32
ENDBRANCH  27  28
ENDBRANCH  26  27
ENDBRANCH  25  26
ENDBRANCH   1  25
TORSDOF 16
ENDMDL
MODEL 3
REMARK VINA RESULT:     -12.2      0.777      2.166
REMARK SMILES O=C(C[C@@H]1CN(c2ccc([N+](=O)[O-])cc2Cl)CCO1)NCCCCCCNC(=O)c1ccc(-c2c3nc(c(-c4c(F)c(F)c(F)c(F)c4F)c4ccc([nH]4)c(-c4c(F)c(F)c(F)c(F)c4F)c4nc(c(-c5c(F)c(F)c(F)c(F)c5F)c5ccc2[nH]5)C=C4)C=C3)cc1
REMARK SMILES IDX 23 1 22 2 21 3 20 4 1 5 2 6 3 8 4 9 5 10 19 11 6 12 18 13
REMARK SMILES IDX 17 14 7 15 8 16 15 17 9 18 14 19 16 20 10 21 11 22 12 23
REMARK SMILES IDX 13 24 24 25 25 26 26 27 27 28 28 29 29 31 30 32 31 33 92 34
REMARK SMILES IDX 32 35 91 36 33 37 34 38 35 39 85 40 36 41 90 42 84 43 86 44
REMARK SMILES IDX 37 45 89 46 83 47 82 48 38 50 70 51 50 52 69 53 51 54 54 55
REMARK SMILES IDX 68 56 87 57 52 58 53 59 67 61 88 62 55 63 39 64 40 65 48 66
REMARK SMILES IDX 41 67 42 68 46 69 49 70 43 71 44 72 47 73 45 74 71 75 72 76
REMARK SMILES IDX 80 77 73 78 74 79 78 80 81 81 75 82 76 83 79 84 77 85 56 86
REMARK SMILES IDX 57 87 65 88 58 89 59 90 63 91 66 92 60 93 61 94 64 95 62 96
REMARK H PARENT 20 7 27 30 86 49 54 60
REMARK Flexibility Score: inf
ROOT
ATOM      1  C   UNL A   1      31.983  29.722  27.093  1.00  0.00     0.002 C 
ENDROOT
BRANCH   1   2
ATOM      2  C   UNL A   1      32.090  28.323  26.468  1.00  0.00     0.021 C 
BRANCH   2   3
ATOM      3  C   UNL A   1      31.416  28.188  25.102  1.00  0.00     0.116 C 
BRANCH   3   4
ATOM      4  N   UNL A   1      31.092  26.809  24.819  1.00  0.00    -0.356 N 
ATOM      5  O   UNL A   1      29.852  27.184  22.923  1.00  0.00    -0.275 OA
ATOM      6  C   UNL A   1      30.307  26.417  23.765  1.00  0.00     0.222 C 
ATOM      7  H   UNL A   1      31.453  26.114  25.415  1.00  0.00     0.163 HD
BRANCH   6   8
ATOM      8  C   UNL A   1      29.967  24.943  23.771  1.00  0.00     0.133 C 
BRANCH   8   9
ATOM      9  C   UNL A   1      31.092  24.099  23.177  1.00  0.00     0.147 C 
ATOM     10  C   UNL A   1      31.606  23.093  24.229  1.00  0.00     0.149 C 
ATOM     11  O   UNL A   1      32.170  24.983  22.762  1.00  0.00    -0.374 OA
ATOM     12  N   UNL A   1      32.751  22.364  23.672  1.00  0.00    -0.365 N 
ATOM     13  C   UNL A   1      33.248  24.221  22.178  1.00  0.00     0.182 C 
ATOM     14  C   UNL A   1      33.839  23.204  23.172  1.00  0.00     0.145 C 
BRANCH  12  15
ATOM     15  C   UNL A   1      32.868  20.999  23.815  1.00  0.00     0.056 A 
ATOM     16  C   UNL A   1      32.273  20.144  22.872  1.00  0.00     0.034 A 
ATOM     17  C   UNL A   1      33.568  20.398  24.890  1.00  0.00     0.071 A 
ATOM     18  C   UNL A   1      32.383  18.752  22.973  1.00  0.00     0.088 A 
ATOM     19  C   UNL A   1      33.681  19.009  25.005  1.00  0.00     0.108 A 
ATOM     20  Cl  UNL A   1      34.253  21.336  26.176  1.00  0.00    -0.082 Cl
ATOM     21  C   UNL A   1      33.090  18.193  24.041  1.00  0.00     0.271 A 
BRANCH  21  22
ATOM     22  N   UNL A   1      33.208  16.734  24.159  1.00  0.00     0.062 N 
ATOM     23  O   UNL A   1      33.666  16.114  23.190  1.00  0.00    -0.258 OA
ATOM     24  O   UNL A   1      32.843  16.212  25.222  1.00  0.00    -0.258 OA
ENDBRANCH  21  22
ENDBRANCH  12  15
ENDBRANCH   8   9
ENDBRANCH   6   8
ENDBRANCH   3   4
ENDBRANCH   2   3
ENDBRANCH   1   2
BRANCH   1  25
ATOM     25  C   UNL A   1      31.632  30.849  26.118  1.00  0.00     0.002 C 
BRANCH  25  26
ATOM     26  C   UNL A   1      31.392  32.215  26.764  1.00  0.00     0.021 C 
BRANCH  26  27
ATOM     27  C   UNL A   1      32.652  32.923  27.252  1.00  0.00     0.116 C 
BRANCH  27  28
ATOM     28  N   UNL A   1      32.405  34.307  27.625  1.00  0.00    -0.352 N 
ATOM     29  C   UNL A   1      32.994  35.064  28.606  1.00  0.00     0.251 C 
ATOM     30  H   UNL A   1      31.713  34.768  27.098  1.00  0.00     0.163 HD
ATOM     31  O   UNL A   1      32.537  36.169  28.893  1.00  0.00    -0.269 OA
BRANCH  29  32
ATOM     32  C   UNL A   1      34.165  34.542  29.343  1.00  0.00     0.039 A 
ATOM     33  C   UNL A   1      33.974  33.992  30.613  1.00  0.00     0.014 A 
ATOM     34  C   UNL A   1      35.447  34.597  28.789  1.00  0.00     0.014 A 
ATOM     35  C   UNL A   1      35.056  33.436  31.298  1.00  0.00     0.010 A 
ATOM     36  C   UNL A   1      36.508  33.972  29.436  1.00  0.00     0.010 A 
ATOM     37  C   UNL A   1      36.327  33.386  30.699  1.00  0.00    -0.014 A 
BRANCH  37  38
ATOM     38  C   UNL A   1      37.470  32.719  31.373  1.00  0.00     0.031 A 
ATOM     39  C   UNL A   1      38.174  31.567  30.713  1.00  0.00     0.074 A 
ATOM     40  C   UNL A   1      37.831  33.107  32.612  1.00  0.00     0.049 A 
ATOM     41  N   UNL A   1      39.148  30.819  31.169  1.00  0.00    -0.248 NA
ATOM     42  C   UNL A   1      37.702  31.185  29.373  1.00  0.00     0.031 C 
ATOM     43  C   UNL A   1      37.195  34.179  33.379  1.00  0.00     0.029 A 
ATOM     44  N   UNL A   1      38.813  32.637  33.448  1.00  0.00    -0.354 N 
ATOM     45  C   UNL A   1      39.394  29.876  30.180  1.00  0.00     0.074 A 
ATOM     46  C   UNL A   1      38.430  30.106  29.127  1.00  0.00     0.031 C 
ATOM     47  C   UNL A   1      37.816  34.299  34.563  1.00  0.00     0.029 A 
ATOM     48  C   UNL A   1      38.865  33.287  34.656  1.00  0.00     0.049 A 
ATOM     49  H   UNL A   1      39.423  31.902  33.204  1.00  0.00     0.167 HD
ATOM     50  C   UNL A   1      40.353  28.918  30.143  1.00  0.00     0.037 A 
ATOM     51  C   UNL A   1      39.660  33.085  35.724  1.00  0.00     0.037 A 
ATOM     52  C   UNL A   1      41.318  28.700  31.189  1.00  0.00     0.049 A 
ATOM     53  C   UNL A   1      40.706  32.005  35.668  1.00  0.00     0.074 A 
ATOM     54  C   UNL A   1      42.366  27.797  31.222  1.00  0.00     0.029 A 
ATOM     55  N   UNL A   1      41.346  29.386  32.396  1.00  0.00    -0.354 N 
ATOM     56  N   UNL A   1      40.980  31.168  34.697  1.00  0.00    -0.248 NA
ATOM     57  C   UNL A   1      41.559  31.847  36.854  1.00  0.00     0.031 C 
ATOM     58  C   UNL A   1      42.990  27.895  32.469  1.00  0.00     0.029 A 
ATOM     59  C   UNL A   1      42.375  28.905  33.191  1.00  0.00     0.049 A 
ATOM     60  H   UNL A   1      40.727  30.109  32.649  1.00  0.00     0.167 HD
ATOM     61  C   UNL A   1      42.052  30.405  35.141  1.00  0.00     0.074 A 
ATOM     62  C   UNL A   1      42.388  30.889  36.464  1.00  0.00     0.031 C 
ATOM     63  C   UNL A   1      42.701  29.396  34.508  1.00  0.00     0.037 A 
BRANCH  50  64
ATOM     64  C   UNL A   1      40.396  28.029  28.932  1.00  0.00     0.064 A 
ATOM     65  C   UNL A   1      39.683  26.820  28.875  1.00  0.00     0.173 A 
ATOM     66  C   UNL A   1      41.145  28.398  27.803  1.00  0.00     0.173 A 
ATOM     67  F   UNL A   1      38.959  26.414  29.928  1.00  0.00    -0.203 F 
ATOM     68  C   UNL A   1      39.754  25.996  27.754  1.00  0.00     0.198 A 
ATOM     69  C   UNL A   1      41.183  27.590  26.669  1.00  0.00     0.198 A 
ATOM     70  F   UNL A   1      41.837  29.547  27.797  1.00  0.00    -0.203 F 
ATOM     71  F   UNL A   1      39.117  24.817  27.752  1.00  0.00    -0.200 F 
ATOM     72  C   UNL A   1      40.498  26.385  26.651  1.00  0.00     0.200 A 
ATOM     73  F   UNL A   1      41.888  27.975  25.598  1.00  0.00    -0.200 F 
ATOM     74  F   UNL A   1      40.562  25.593  25.572  1.00  0.00    -0.200 F 
ENDBRANCH  50  64
BRANCH  51  75
ATOM     75  C   UNL A   1      39.509  33.943  36.929  1.00  0.00     0.064 A 
ATOM     76  C   UNL A   1      38.750  33.516  38.027  1.00  0.00     0.173 A 
ATOM     77  C   UNL A   1      40.132  35.197  37.014  1.00  0.00     0.173 A 
ATOM     78  F   UNL A   1      38.120  32.333  37.985  1.00  0.00    -0.203 F 
ATOM     79  C   UNL A   1      38.605  34.318  39.157  1.00  0.00     0.198 A 
ATOM     80  C   UNL A   1      40.011  35.985  38.156  1.00  0.00     0.198 A 
ATOM     81  F   UNL A   1      40.875  35.649  35.993  1.00  0.00    -0.203 F 
ATOM     82  F   UNL A   1      37.838  33.904  40.175  1.00  0.00    -0.200 F 
ATOM     83  C   UNL A   1      39.242  35.549  39.224  1.00  0.00     0.200 A 
ATOM     84  F   UNL A   1      40.643  37.165  38.224  1.00  0.00    -0.200 F 
ATOM     85  F   UNL A   1      39.110  36.315  40.316  1.00  0.00    -0.200 F 
ENDBRANCH  51  75
BRANCH  63  86
ATOM     86  C   UNL A   1      43.865  28.768  35.220  1.00  0.00     0.064 A 
ATOM     87  C   UNL A   1      45.179  29.221  35.034  1.00  0.00     0.173 A 
ATOM     88  C   UNL A   1      43.655  27.723  36.133  1.00  0.00     0.173 A 
ATOM     89  F   UNL A   1      45.436  30.208  34.163  1.00  0.00    -0.203 F 
ATOM     90  C   UNL A   1      46.242  28.634  35.715  1.00  0.00     0.198 A 
ATOM     91  C   UNL A   1      44.716  27.160  36.837  1.00  0.00     0.198 A 
ATOM     92  F   UNL A   1      42.417  27.254  36.353  1.00  0.00    -0.203 F 
ATOM     93  F   UNL A   1      47.495  29.049  35.484  1.00  0.00    -0.200 F 
ATOM     94  C   UNL A   1      46.009  27.611  36.622  1.00  0.00     0.200 A 
ATOM     95  F   UNL A   1      44.487  26.183  37.725  1.00  0.00    -0.200 F 
ATOM     96  F   UNL A   1      47.033  27.052  37.283  1.00  0.00    -0.200 F 
ENDBRANCH  63  86
ENDBRANCH  37  38
ENDBRANCH  29  32
ENDBRANCH  27  28
ENDBRANCH  26  27
ENDBRANCH  25  26
ENDBRANCH   1  25
TORSDOF 16
ENDMDL
