MODEL 1
REMARK VINA RESULT:     -12.1      0.000      0.000
REMARK SMILES C[C@H](C(=O)NCCCCCCNC(=O)c1ccc(-c2c3nc(c(-c4c(F)c(F)c(F)c(F)c4F)c4ccc([nH]4)c(-c4c(F)c(F)c(F)c(F)c4F)c4nc(c(-c5c(F)c(F)c(F)c(F)c5F)c5ccc2[nH]5)C=C4)C=C3)cc1)c1ccc2c(c1)[nH]c1ccc(Cl)cc12
REMARK SMILES IDX 9 1 8 2 7 3 6 4 5 5 3 6 4 7 2 9 1 10 78 11 79 12 83 13 80 14
REMARK SMILES IDX 82 15 81 16 84 17 91 18 85 19 90 21 86 22 88 23 87 24 89 25
REMARK SMILES IDX 10 26 11 27 12 28 13 29 14 31 15 32 16 33 77 34 17 35 76 36
REMARK SMILES IDX 18 37 19 38 20 39 70 40 21 41 75 42 69 43 71 44 22 45 74 46
REMARK SMILES IDX 68 47 67 48 23 50 55 51 35 52 54 53 36 54 39 55 53 56 72 57
REMARK SMILES IDX 37 58 38 59 52 61 73 62 40 63 24 64 25 65 33 66 26 67 27 68
REMARK SMILES IDX 31 69 34 70 28 71 29 72 32 73 30 74 56 75 57 76 65 77 58 78
REMARK SMILES IDX 59 79 63 80 66 81 60 82 61 83 64 84 62 85 41 86 42 87 50 88
REMARK SMILES IDX 43 89 44 90 48 91 51 92 45 93 46 94 49 95 47 96
REMARK H PARENT 5 8 84 20 12 30 71 49 39 60
REMARK Flexibility Score: inf
ROOT
ATOM      1  C   UNL A   1      33.885  26.458  25.705  1.00  0.00     0.002 C 
ENDROOT
BRANCH   1   2
ATOM      2  C   UNL A   1      33.190  25.153  26.106  1.00  0.00     0.002 C 
BRANCH   2   3
ATOM      3  C   UNL A   1      34.130  24.008  26.502  1.00  0.00     0.021 C 
BRANCH   3   4
ATOM      4  C   UNL A   1      34.478  23.063  25.354  1.00  0.00     0.116 C 
BRANCH   4   5
ATOM      5  N   UNL A   1      33.592  21.918  25.346  1.00  0.00    -0.356 N 
ATOM      6  C   UNL A   1      32.688  21.518  24.408  1.00  0.00     0.227 C 
ATOM      7  O   UNL A   1      31.937  20.585  24.704  1.00  0.00    -0.274 OA
ATOM      8  H   UNL A   1      33.652  21.340  26.140  1.00  0.00     0.163 HD
BRANCH   6   9
ATOM      9  C   UNL A   1      32.643  22.203  23.040  1.00  0.00     0.105 C 
ATOM     10  C   UNL A   1      31.997  21.227  22.044  1.00  0.00     0.023 C 
BRANCH   9  11
ATOM     11  C   UNL A   1      31.932  23.549  23.121  1.00  0.00    -0.034 A 
ATOM     12  C   UNL A   1      30.653  23.647  23.692  1.00  0.00     0.005 A 
ATOM     13  C   UNL A   1      32.526  24.698  22.580  1.00  0.00     0.031 A 
ATOM     14  C   UNL A   1      29.966  24.872  23.752  1.00  0.00     0.011 A 
ATOM     15  C   UNL A   1      31.818  25.902  22.624  1.00  0.00     0.047 A 
ATOM     16  C   UNL A   1      30.559  26.027  23.203  1.00  0.00     0.007 A 
ATOM     17  N   UNL A   1      32.162  27.131  22.121  1.00  0.00    -0.355 N 
ATOM     18  C   UNL A   1      30.156  27.397  23.049  1.00  0.00     0.009 A 
ATOM     19  C   UNL A   1      31.147  28.037  22.305  1.00  0.00     0.047 A 
ATOM     20  H   UNL A   1      33.021  27.336  21.686  1.00  0.00     0.167 HD
ATOM     21  C   UNL A   1      29.025  28.145  23.439  1.00  0.00     0.031 A 
ATOM     22  C   UNL A   1      31.044  29.360  21.864  1.00  0.00     0.028 A 
ATOM     23  C   UNL A   1      28.921  29.479  23.026  1.00  0.00     0.041 A 
ATOM     24  C   UNL A   1      29.900  30.071  22.232  1.00  0.00     0.022 A 
ATOM     25  Cl  UNL A   1      27.549  30.407  23.501  1.00  0.00    -0.084 Cl
ENDBRANCH   9  11
ENDBRANCH   6   9
ENDBRANCH   4   5
ENDBRANCH   3   4
ENDBRANCH   2   3
ENDBRANCH   1   2
BRANCH   1  26
ATOM     26  C   UNL A   1      32.959  27.668  25.571  1.00  0.00     0.021 C 
BRANCH  26  27
ATOM     27  C   UNL A   1      33.653  28.942  25.109  1.00  0.00     0.116 C 
BRANCH  27  28
ATOM     28  N   UNL A   1      33.000  30.138  25.618  1.00  0.00    -0.352 N 
ATOM     29  C   UNL A   1      33.284  30.865  26.746  1.00  0.00     0.251 C 
ATOM     30  H   UNL A   1      32.248  30.472  25.077  1.00  0.00     0.163 HD
ATOM     31  O   UNL A   1      32.515  31.735  27.135  1.00  0.00    -0.269 OA
BRANCH  29  32
ATOM     32  C   UNL A   1      34.521  30.581  27.505  1.00  0.00     0.039 A 
ATOM     33  C   UNL A   1      35.485  31.584  27.626  1.00  0.00     0.014 A 
ATOM     34  C   UNL A   1      34.730  29.329  28.088  1.00  0.00     0.014 A 
ATOM     35  C   UNL A   1      36.642  31.345  28.371  1.00  0.00     0.010 A 
ATOM     36  C   UNL A   1      35.840  29.120  28.900  1.00  0.00     0.010 A 
ATOM     37  C   UNL A   1      36.816  30.118  29.035  1.00  0.00    -0.014 A 
BRANCH  37  38
ATOM     38  C   UNL A   1      38.028  29.849  29.849  1.00  0.00     0.031 A 
ATOM     39  C   UNL A   1      39.105  28.946  29.314  1.00  0.00     0.074 A 
ATOM     40  C   UNL A   1      38.134  30.367  31.087  1.00  0.00     0.049 A 
ATOM     41  N   UNL A   1      40.212  28.545  29.887  1.00  0.00    -0.248 NA
ATOM     42  C   UNL A   1      38.894  28.396  27.966  1.00  0.00     0.031 C 
ATOM     43  C   UNL A   1      37.138  31.224  31.733  1.00  0.00     0.029 A 
ATOM     44  N   UNL A   1      39.127  30.244  32.025  1.00  0.00    -0.354 N 
ATOM     45  C   UNL A   1      40.814  27.683  28.980  1.00  0.00     0.074 A 
ATOM     46  C   UNL A   1      39.921  27.570  27.847  1.00  0.00     0.031 C 
ATOM     47  C   UNL A   1      37.587  31.577  32.947  1.00  0.00     0.029 A 
ATOM     48  C   UNL A   1      38.879  30.940  33.183  1.00  0.00     0.049 A 
ATOM     49  H   UNL A   1      39.941  29.709  31.882  1.00  0.00     0.167 HD
ATOM     50  C   UNL A   1      42.015  27.061  29.070  1.00  0.00     0.037 A 
ATOM     51  C   UNL A   1      39.612  31.049  34.307  1.00  0.00     0.037 A 
ATOM     52  C   UNL A   1      42.908  27.194  30.191  1.00  0.00     0.049 A 
ATOM     53  C   UNL A   1      40.935  30.336  34.392  1.00  0.00     0.074 A 
ATOM     54  C   UNL A   1      44.172  26.658  30.357  1.00  0.00     0.029 A 
ATOM     55  N   UNL A   1      42.623  27.911  31.346  1.00  0.00    -0.354 N 
ATOM     56  N   UNL A   1      41.531  29.582  33.500  1.00  0.00    -0.248 NA
ATOM     57  C   UNL A   1      41.692  30.499  35.641  1.00  0.00     0.031 C 
ATOM     58  C   UNL A   1      44.627  26.998  31.636  1.00  0.00     0.029 A 
ATOM     59  C   UNL A   1      43.677  27.805  32.240  1.00  0.00     0.049 A 
ATOM     60  H   UNL A   1      41.795  28.418  31.506  1.00  0.00     0.167 HD
ATOM     61  C   UNL A   1      42.746  29.212  34.061  1.00  0.00     0.074 A 
ATOM     62  C   UNL A   1      42.805  29.831  35.370  1.00  0.00     0.031 C 
ATOM     63  C   UNL A   1      43.727  28.436  33.537  1.00  0.00     0.037 A 
BRANCH  50  64
ATOM     64  C   UNL A   1      42.419  26.170  27.929  1.00  0.00     0.064 A 
ATOM     65  C   UNL A   1      41.958  24.848  27.819  1.00  0.00     0.173 A 
ATOM     66  C   UNL A   1      43.280  26.645  26.926  1.00  0.00     0.173 A 
ATOM     67  F   UNL A   1      41.141  24.338  28.753  1.00  0.00    -0.203 F 
ATOM     68  C   UNL A   1      42.382  24.022  26.780  1.00  0.00     0.198 A 
ATOM     69  C   UNL A   1      43.670  25.828  25.868  1.00  0.00     0.198 A 
ATOM     70  F   UNL A   1      43.746  27.902  26.974  1.00  0.00    -0.203 F 
ATOM     71  F   UNL A   1      41.985  22.743  26.740  1.00  0.00    -0.200 F 
ATOM     72  C   UNL A   1      43.233  24.514  25.804  1.00  0.00     0.200 A 
ATOM     73  F   UNL A   1      44.480  26.311  24.916  1.00  0.00    -0.200 F 
ATOM     74  F   UNL A   1      43.641  23.719  24.805  1.00  0.00    -0.200 F 
ENDBRANCH  50  64
BRANCH  51  75
ATOM     75  C   UNL A   1      39.130  31.903  35.424  1.00  0.00     0.064 A 
ATOM     76  C   UNL A   1      39.436  33.271  35.461  1.00  0.00     0.173 A 
ATOM     77  C   UNL A   1      38.350  31.380  36.464  1.00  0.00     0.173 A 
ATOM     78  F   UNL A   1      40.195  33.813  34.498  1.00  0.00    -0.203 F 
ATOM     79  C   UNL A   1      38.993  34.080  36.506  1.00  0.00     0.198 A 
ATOM     80  C   UNL A   1      37.883  32.195  37.493  1.00  0.00     0.198 A 
ATOM     81  F   UNL A   1      38.025  30.079  36.472  1.00  0.00    -0.203 F 
ATOM     82  F   UNL A   1      39.334  35.374  36.537  1.00  0.00    -0.200 F 
ATOM     83  C   UNL A   1      38.211  33.543  37.517  1.00  0.00     0.200 A 
ATOM     84  F   UNL A   1      37.114  31.677  38.461  1.00  0.00    -0.200 F 
ATOM     85  F   UNL A   1      37.777  34.323  38.517  1.00  0.00    -0.200 F 
ENDBRANCH  51  75
BRANCH  63  86
ATOM     86  C   UNL A   1      44.975  28.254  34.354  1.00  0.00     0.064 A 
ATOM     87  C   UNL A   1      46.064  29.133  34.254  1.00  0.00     0.173 A 
ATOM     88  C   UNL A   1      45.064  27.202  35.279  1.00  0.00     0.173 A 
ATOM     89  F   UNL A   1      46.036  30.145  33.376  1.00  0.00    -0.203 F 
ATOM     90  C   UNL A   1      47.207  28.946  35.027  1.00  0.00     0.198 A 
ATOM     91  C   UNL A   1      46.194  27.040  36.077  1.00  0.00     0.198 A 
ATOM     92  F   UNL A   1      44.049  26.337  35.421  1.00  0.00    -0.203 F 
ATOM     93  F   UNL A   1      48.258  29.765  34.875  1.00  0.00    -0.200 F 
ATOM     94  C   UNL A   1      47.268  27.906  35.943  1.00  0.00     0.200 A 
ATOM     95  F   UNL A   1      46.243  26.046  36.974  1.00  0.00    -0.200 F 
ATOM     96  F   UNL A   1      48.366  27.734  36.693  1.00  0.00    -0.200 F 
ENDBRANCH  63  86
ENDBRANCH  37  38
ENDBRANCH  29  32
ENDBRANCH  27  28
ENDBRANCH  26  27
ENDBRANCH   1  26
TORSDOF 14
ENDMDL
MODEL 2
REMARK VINA RESULT:     -12.1      0.528      7.342
REMARK SMILES C[C@H](C(=O)NCCCCCCNC(=O)c1ccc(-c2c3nc(c(-c4c(F)c(F)c(F)c(F)c4F)c4ccc([nH]4)c(-c4c(F)c(F)c(F)c(F)c4F)c4nc(c(-c5c(F)c(F)c(F)c(F)c5F)c5ccc2[nH]5)C=C4)C=C3)cc1)c1ccc2c(c1)[nH]c1ccc(Cl)cc12
REMARK SMILES IDX 9 1 8 2 7 3 6 4 5 5 3 6 4 7 2 9 1 10 78 11 79 12 83 13 80 14
REMARK SMILES IDX 82 15 81 16 84 17 91 18 85 19 90 21 86 22 88 23 87 24 89 25
REMARK SMILES IDX 10 26 11 27 12 28 13 29 14 31 15 32 16 33 77 34 17 35 76 36
REMARK SMILES IDX 18 37 19 38 20 39 70 40 21 41 75 42 69 43 71 44 22 45 74 46
REMARK SMILES IDX 68 47 67 48 23 50 55 51 35 52 54 53 36 54 39 55 53 56 72 57
REMARK SMILES IDX 37 58 38 59 52 61 73 62 40 63 24 64 25 65 33 66 26 67 27 68
REMARK SMILES IDX 31 69 34 70 28 71 29 72 32 73 30 74 56 75 57 76 65 77 58 78
REMARK SMILES IDX 59 79 63 80 66 81 60 82 61 83 64 84 62 85 41 86 42 87 50 88
REMARK SMILES IDX 43 89 44 90 48 91 51 92 45 93 46 94 49 95 47 96
REMARK H PARENT 5 8 84 20 12 30 71 49 39 60
REMARK Flexibility Score: inf
ROOT
ATOM      1  C   UNL A   1      32.661  27.099  26.504  1.00  0.00     0.002 C 
ENDROOT
BRANCH   1   2
ATOM      2  C   UNL A   1      33.527  26.084  25.751  1.00  0.00     0.002 C 
BRANCH   2   3
ATOM      3  C   UNL A   1      33.402  24.634  26.236  1.00  0.00     0.021 C 
BRANCH   3   4
ATOM      4  C   UNL A   1      34.220  23.633  25.424  1.00  0.00     0.116 C 
BRANCH   4   5
ATOM      5  N   UNL A   1      33.547  22.354  25.357  1.00  0.00    -0.356 N 
ATOM      6  C   UNL A   1      32.784  21.817  24.364  1.00  0.00     0.227 C 
ATOM      7  O   UNL A   1      32.188  20.765  24.610  1.00  0.00    -0.274 OA
ATOM      8  H   UNL A   1      33.656  21.784  26.152  1.00  0.00     0.163 HD
BRANCH   6   9
ATOM      9  C   UNL A   1      32.706  22.502  22.997  1.00  0.00     0.105 C 
ATOM     10  C   UNL A   1      32.098  21.501  22.001  1.00  0.00     0.023 C 
BRANCH   9  11
ATOM     11  C   UNL A   1      31.941  23.816  23.083  1.00  0.00    -0.034 A 
ATOM     12  C   UNL A   1      30.669  23.864  23.676  1.00  0.00     0.005 A 
ATOM     13  C   UNL A   1      32.475  24.986  22.524  1.00  0.00     0.031 A 
ATOM     14  C   UNL A   1      29.932  25.060  23.742  1.00  0.00     0.011 A 
ATOM     15  C   UNL A   1      31.717  26.159  22.574  1.00  0.00     0.047 A 
ATOM     16  C   UNL A   1      30.465  26.235  23.175  1.00  0.00     0.007 A 
ATOM     17  N   UNL A   1      32.000  27.398  22.057  1.00  0.00    -0.355 N 
ATOM     18  C   UNL A   1      30.001  27.585  23.020  1.00  0.00     0.009 A 
ATOM     19  C   UNL A   1      30.951  28.262  22.255  1.00  0.00     0.047 A 
ATOM     20  H   UNL A   1      32.842  27.637  21.606  1.00  0.00     0.167 HD
ATOM     21  C   UNL A   1      28.847  28.288  23.426  1.00  0.00     0.031 A 
ATOM     22  C   UNL A   1      30.784  29.576  21.808  1.00  0.00     0.028 A 
ATOM     23  C   UNL A   1      28.679  29.613  23.007  1.00  0.00     0.041 A 
ATOM     24  C   UNL A   1      29.618  30.241  22.192  1.00  0.00     0.022 A 
ATOM     25  Cl  UNL A   1      27.278  30.485  23.502  1.00  0.00    -0.084 Cl
ENDBRANCH   9  11
ENDBRANCH   6   9
ENDBRANCH   4   5
ENDBRANCH   3   4
ENDBRANCH   2   3
ENDBRANCH   1   2
BRANCH   1  26
ATOM     26  C   UNL A   1      32.254  28.329  25.691  1.00  0.00     0.021 C 
BRANCH  26  27
ATOM     27  C   UNL A   1      33.357  29.365  25.524  1.00  0.00     0.116 C 
BRANCH  27  28
ATOM     28  N   UNL A   1      32.943  30.685  25.974  1.00  0.00    -0.352 N 
ATOM     29  C   UNL A   1      33.416  31.430  27.024  1.00  0.00     0.251 C 
ATOM     30  H   UNL A   1      32.221  31.102  25.450  1.00  0.00     0.163 HD
ATOM     31  O   UNL A   1      32.826  32.441  27.385  1.00  0.00    -0.269 OA
BRANCH  29  32
ATOM     32  C   UNL A   1      34.639  30.997  27.733  1.00  0.00     0.039 A 
ATOM     33  C   UNL A   1      35.659  31.925  27.952  1.00  0.00     0.014 A 
ATOM     34  C   UNL A   1      34.780  29.678  28.174  1.00  0.00     0.014 A 
ATOM     35  C   UNL A   1      36.804  31.541  28.654  1.00  0.00     0.010 A 
ATOM     36  C   UNL A   1      35.880  29.321  28.946  1.00  0.00     0.010 A 
ATOM     37  C   UNL A   1      36.912  30.242  29.178  1.00  0.00    -0.014 A 
BRANCH  37  38
ATOM     38  C   UNL A   1      38.111  29.818  29.944  1.00  0.00     0.031 A 
ATOM     39  C   UNL A   1      38.331  30.334  31.339  1.00  0.00     0.074 A 
ATOM     40  C   UNL A   1      39.028  29.019  29.367  1.00  0.00     0.049 A 
ATOM     41  N   UNL A   1      39.336  30.126  32.152  1.00  0.00    -0.248 NA
ATOM     42  C   UNL A   1      37.297  31.229  31.881  1.00  0.00     0.031 C 
ATOM     43  C   UNL A   1      38.948  28.486  28.006  1.00  0.00     0.029 A 
ATOM     44  N   UNL A   1      40.210  28.519  29.852  1.00  0.00    -0.354 N 
ATOM     45  C   UNL A   1      39.064  30.878  33.287  1.00  0.00     0.074 A 
ATOM     46  C   UNL A   1      37.833  31.597  33.034  1.00  0.00     0.031 C 
ATOM     47  C   UNL A   1      40.017  27.707  27.778  1.00  0.00     0.029 A 
ATOM     48  C   UNL A   1      40.876  27.718  28.957  1.00  0.00     0.049 A 
ATOM     49  H   UNL A   1      40.548  28.716  30.756  1.00  0.00     0.167 HD
ATOM     50  C   UNL A   1      39.762  30.946  34.447  1.00  0.00     0.037 A 
ATOM     51  C   UNL A   1      42.049  27.068  29.078  1.00  0.00     0.037 A 
ATOM     52  C   UNL A   1      40.975  30.214  34.700  1.00  0.00     0.049 A 
ATOM     53  C   UNL A   1      42.816  27.171  30.368  1.00  0.00     0.074 A 
ATOM     54  C   UNL A   1      41.727  30.162  35.860  1.00  0.00     0.029 A 
ATOM     55  N   UNL A   1      41.620  29.408  33.769  1.00  0.00    -0.354 N 
ATOM     56  N   UNL A   1      42.515  27.826  31.463  1.00  0.00    -0.248 NA
ATOM     57  C   UNL A   1      44.086  26.433  30.441  1.00  0.00     0.031 C 
ATOM     58  C   UNL A   1      42.859  29.377  35.613  1.00  0.00     0.029 A 
ATOM     59  C   UNL A   1      42.776  28.881  34.321  1.00  0.00     0.049 A 
ATOM     60  H   UNL A   1      41.302  29.239  32.854  1.00  0.00     0.167 HD
ATOM     61  C   UNL A   1      43.532  27.551  32.367  1.00  0.00     0.074 A 
ATOM     62  C   UNL A   1      44.458  26.663  31.693  1.00  0.00     0.031 C 
ATOM     63  C   UNL A   1      43.684  27.989  33.641  1.00  0.00     0.037 A 
BRANCH  50  64
ATOM     64  C   UNL A   1      39.233  31.858  35.519  1.00  0.00     0.064 A 
ATOM     65  C   UNL A   1      39.583  33.217  35.578  1.00  0.00     0.173 A 
ATOM     66  C   UNL A   1      38.362  31.366  36.504  1.00  0.00     0.173 A 
ATOM     67  F   UNL A   1      40.419  33.739  34.669  1.00  0.00    -0.203 F 
ATOM     68  C   UNL A   1      39.121  34.034  36.607  1.00  0.00     0.198 A 
ATOM     69  C   UNL A   1      37.871  32.196  37.509  1.00  0.00     0.198 A 
ATOM     70  F   UNL A   1      37.987  30.078  36.493  1.00  0.00    -0.203 F 
ATOM     71  F   UNL A   1      39.529  35.309  36.682  1.00  0.00    -0.200 F 
ATOM     72  C   UNL A   1      38.262  33.524  37.568  1.00  0.00     0.200 A 
ATOM     73  F   UNL A   1      37.028  31.705  38.427  1.00  0.00    -0.200 F 
ATOM     74  F   UNL A   1      37.820  34.311  38.559  1.00  0.00    -0.200 F 
ENDBRANCH  50  64
BRANCH  51  75
ATOM     75  C   UNL A   1      42.545  26.226  27.958  1.00  0.00     0.064 A 
ATOM     76  C   UNL A   1      42.136  24.889  27.832  1.00  0.00     0.173 A 
ATOM     77  C   UNL A   1      43.421  26.733  26.989  1.00  0.00     0.173 A 
ATOM     78  F   UNL A   1      41.315  24.353  28.745  1.00  0.00    -0.203 F 
ATOM     79  C   UNL A   1      42.600  24.090  26.790  1.00  0.00     0.198 A 
ATOM     80  C   UNL A   1      43.860  25.942  25.930  1.00  0.00     0.198 A 
ATOM     81  F   UNL A   1      43.836  28.007  27.059  1.00  0.00    -0.203 F 
ATOM     82  F   UNL A   1      42.225  22.806  26.717  1.00  0.00    -0.200 F 
ATOM     83  C   UNL A   1      43.455  24.619  25.835  1.00  0.00     0.200 A 
ATOM     84  F   UNL A   1      44.674  26.461  25.000  1.00  0.00    -0.200 F 
ATOM     85  F   UNL A   1      43.892  23.852  24.826  1.00  0.00    -0.200 F 
ENDBRANCH  51  75
BRANCH  63  86
ATOM     86  C   UNL A   1      44.865  27.473  34.414  1.00  0.00     0.064 A 
ATOM     87  C   UNL A   1      46.088  28.159  34.450  1.00  0.00     0.173 A 
ATOM     88  C   UNL A   1      44.755  26.290  35.162  1.00  0.00     0.173 A 
ATOM     89  F   UNL A   1      46.251  29.286  33.741  1.00  0.00    -0.203 F 
ATOM     90  C   UNL A   1      47.166  27.663  35.179  1.00  0.00     0.198 A 
ATOM     91  C   UNL A   1      45.823  25.817  35.920  1.00  0.00     0.198 A 
ATOM     92  F   UNL A   1      43.606  25.599  35.171  1.00  0.00    -0.203 F 
ATOM     93  F   UNL A   1      48.342  28.305  35.153  1.00  0.00    -0.200 F 
ATOM     94  C   UNL A   1      47.030  26.498  35.920  1.00  0.00     0.200 A 
ATOM     95  F   UNL A   1      45.683  24.701  36.649  1.00  0.00    -0.200 F 
ATOM     96  F   UNL A   1      48.066  26.028  36.628  1.00  0.00    -0.200 F 
ENDBRANCH  63  86
ENDBRANCH  37  38
ENDBRANCH  29  32
ENDBRANCH  27  28
ENDBRANCH  26  27
ENDBRANCH   1  26
TORSDOF 14
ENDMDL
MODEL 3
REMARK VINA RESULT:     -12.0      2.518      4.469
REMARK SMILES C[C@H](C(=O)NCCCCCCNC(=O)c1ccc(-c2c3nc(c(-c4c(F)c(F)c(F)c(F)c4F)c4ccc([nH]4)c(-c4c(F)c(F)c(F)c(F)c4F)c4nc(c(-c5c(F)c(F)c(F)c(F)c5F)c5ccc2[nH]5)C=C4)C=C3)cc1)c1ccc2c(c1)[nH]c1ccc(Cl)cc12
REMARK SMILES IDX 9 1 8 2 7 3 6 4 5 5 3 6 4 7 2 9 1 10 78 11 79 12 83 13 80 14
REMARK SMILES IDX 82 15 81 16 84 17 91 18 85 19 90 21 86 22 88 23 87 24 89 25
REMARK SMILES IDX 10 26 11 27 12 28 13 29 14 31 15 32 16 33 77 34 17 35 76 36
REMARK SMILES IDX 18 37 19 38 20 39 70 40 21 41 75 42 69 43 71 44 22 45 74 46
REMARK SMILES IDX 68 47 67 48 23 50 55 51 35 52 54 53 36 54 39 55 53 56 72 57
REMARK SMILES IDX 37 58 38 59 52 61 73 62 40 63 24 64 25 65 33 66 26 67 27 68
REMARK SMILES IDX 31 69 34 70 28 71 29 72 32 73 30 74 56 75 57 76 65 77 58 78
REMARK SMILES IDX 59 79 63 80 66 81 60 82 61 83 64 84 62 85 41 86 42 87 50 88
REMARK SMILES IDX 43 89 44 90 48 91 51 92 45 93 46 94 49 95 47 96
REMARK H PARENT 5 8 84 20 12 30 71 49 39 60
REMARK Flexibility Score: inf
ROOT
ATOM      1  C   UNL A   1      31.568  30.869  26.133  1.00  0.00     0.002 C 
ENDROOT
BRANCH   1   2
ATOM      2  C   UNL A   1      32.040  29.755  27.074  1.00  0.00     0.002 C 
BRANCH   2   3
ATOM      3  C   UNL A   1      33.549  29.482  27.054  1.00  0.00     0.021 C 
BRANCH   3   4
ATOM      4  C   UNL A   1      33.945  28.232  26.272  1.00  0.00     0.116 C 
BRANCH   4   5
ATOM      5  N   UNL A   1      33.811  28.453  24.848  1.00  0.00    -0.356 N 
ATOM      6  C   UNL A   1      32.920  27.928  23.960  1.00  0.00     0.227 C 
ATOM      7  O   UNL A   1      33.109  28.155  22.762  1.00  0.00    -0.274 OA
ATOM      8  H   UNL A   1      34.464  29.079  24.461  1.00  0.00     0.163 HD
BRANCH   6   9
ATOM      9  C   UNL A   1      31.727  27.109  24.459  1.00  0.00     0.105 C 
ATOM     10  C   UNL A   1      30.464  27.644  23.767  1.00  0.00     0.023 C 
BRANCH   9  11
ATOM     11  C   UNL A   1      31.954  25.617  24.243  1.00  0.00    -0.034 A 
ATOM     12  C   UNL A   1      30.982  24.834  23.602  1.00  0.00     0.005 A 
ATOM     13  C   UNL A   1      33.115  24.999  24.729  1.00  0.00     0.031 A 
ATOM     14  C   UNL A   1      31.156  23.451  23.416  1.00  0.00     0.011 A 
ATOM     15  C   UNL A   1      33.259  23.619  24.560  1.00  0.00     0.047 A 
ATOM     16  C   UNL A   1      32.320  22.826  23.909  1.00  0.00     0.007 A 
ATOM     17  N   UNL A   1      34.267  22.793  24.988  1.00  0.00    -0.355 N 
ATOM     18  C   UNL A   1      32.808  21.477  23.941  1.00  0.00     0.009 A 
ATOM     19  C   UNL A   1      33.988  21.483  24.686  1.00  0.00     0.047 A 
ATOM     20  H   UNL A   1      35.081  23.097  25.450  1.00  0.00     0.167 HD
ATOM     21  C   UNL A   1      32.342  20.243  23.440  1.00  0.00     0.031 A 
ATOM     22  C   UNL A   1      34.691  20.322  25.023  1.00  0.00     0.028 A 
ATOM     23  C   UNL A   1      33.051  19.075  23.748  1.00  0.00     0.041 A 
ATOM     24  C   UNL A   1      34.192  19.109  24.545  1.00  0.00     0.022 A 
ATOM     25  Cl  UNL A   1      32.496  17.563  23.135  1.00  0.00    -0.084 Cl
ENDBRANCH   9  11
ENDBRANCH   6   9
ENDBRANCH   4   5
ENDBRANCH   3   4
ENDBRANCH   2   3
ENDBRANCH   1   2
BRANCH   1  26
ATOM     26  C   UNL A   1      31.368  32.232  26.796  1.00  0.00     0.021 C 
BRANCH  26  27
ATOM     27  C   UNL A   1      32.661  32.950  27.159  1.00  0.00     0.116 C 
BRANCH  27  28
ATOM     28  N   UNL A   1      32.425  34.315  27.603  1.00  0.00    -0.352 N 
ATOM     29  C   UNL A   1      32.993  34.995  28.651  1.00  0.00     0.251 C 
ATOM     30  H   UNL A   1      31.764  34.821  27.078  1.00  0.00     0.163 HD
ATOM     31  O   UNL A   1      32.541  36.075  29.008  1.00  0.00    -0.269 OA
BRANCH  29  32
ATOM     32  C   UNL A   1      34.147  34.406  29.363  1.00  0.00     0.039 A 
ATOM     33  C   UNL A   1      33.917  33.652  30.516  1.00  0.00     0.014 A 
ATOM     34  C   UNL A   1      35.450  34.603  28.898  1.00  0.00     0.014 A 
ATOM     35  C   UNL A   1      34.993  33.058  31.179  1.00  0.00     0.010 A 
ATOM     36  C   UNL A   1      36.510  33.940  29.508  1.00  0.00     0.010 A 
ATOM     37  C   UNL A   1      36.296  33.177  30.665  1.00  0.00    -0.014 A 
BRANCH  37  38
ATOM     38  C   UNL A   1      37.452  32.538  31.343  1.00  0.00     0.031 A 
ATOM     39  C   UNL A   1      38.181  31.406  30.674  1.00  0.00     0.074 A 
ATOM     40  C   UNL A   1      37.809  32.935  32.578  1.00  0.00     0.049 A 
ATOM     41  N   UNL A   1      39.178  30.683  31.117  1.00  0.00    -0.248 NA
ATOM     42  C   UNL A   1      37.704  31.014  29.338  1.00  0.00     0.031 C 
ATOM     43  C   UNL A   1      37.155  33.994  33.348  1.00  0.00     0.029 A 
ATOM     44  N   UNL A   1      38.808  32.489  33.406  1.00  0.00    -0.354 N 
ATOM     45  C   UNL A   1      39.431  29.742  30.128  1.00  0.00     0.074 A 
ATOM     46  C   UNL A   1      38.444  29.945  29.089  1.00  0.00     0.031 C 
ATOM     47  C   UNL A   1      37.792  34.138  34.521  1.00  0.00     0.029 A 
ATOM     48  C   UNL A   1      38.870  33.158  34.604  1.00  0.00     0.049 A 
ATOM     49  H   UNL A   1      39.424  31.759  33.164  1.00  0.00     0.167 HD
ATOM     50  C   UNL A   1      40.413  28.809  30.076  1.00  0.00     0.037 A 
ATOM     51  C   UNL A   1      39.701  32.996  35.650  1.00  0.00     0.037 A 
ATOM     52  C   UNL A   1      41.404  28.626  31.104  1.00  0.00     0.049 A 
ATOM     53  C   UNL A   1      40.774  31.942  35.578  1.00  0.00     0.074 A 
ATOM     54  C   UNL A   1      42.478  27.754  31.123  1.00  0.00     0.029 A 
ATOM     55  N   UNL A   1      41.436  29.326  32.303  1.00  0.00    -0.354 N 
ATOM     56  N   UNL A   1      41.053  31.106  34.607  1.00  0.00    -0.248 NA
ATOM     57  C   UNL A   1      41.655  31.818  36.747  1.00  0.00     0.031 C 
ATOM     58  C   UNL A   1      43.122  27.881  32.359  1.00  0.00     0.029 A 
ATOM     59  C   UNL A   1      42.493  28.883  33.081  1.00  0.00     0.049 A 
ATOM     60  H   UNL A   1      40.800  30.031  32.562  1.00  0.00     0.167 HD
ATOM     61  C   UNL A   1      42.160  30.384  35.029  1.00  0.00     0.074 A 
ATOM     62  C   UNL A   1      42.508  30.886  36.343  1.00  0.00     0.031 C 
ATOM     63  C   UNL A   1      42.834  29.399  34.385  1.00  0.00     0.037 A 
BRANCH  50  64
ATOM     64  C   UNL A   1      40.447  27.909  28.873  1.00  0.00     0.064 A 
ATOM     65  C   UNL A   1      39.734  26.699  28.829  1.00  0.00     0.173 A 
ATOM     66  C   UNL A   1      41.204  28.259  27.744  1.00  0.00     0.173 A 
ATOM     67  F   UNL A   1      39.002  26.309  29.883  1.00  0.00    -0.203 F 
ATOM     68  C   UNL A   1      39.817  25.855  27.724  1.00  0.00     0.198 A 
ATOM     69  C   UNL A   1      41.254  27.431  26.626  1.00  0.00     0.198 A 
ATOM     70  F   UNL A   1      41.900  29.406  27.725  1.00  0.00    -0.203 F 
ATOM     71  F   UNL A   1      39.186  24.673  27.739  1.00  0.00    -0.200 F 
ATOM     72  C   UNL A   1      40.572  26.224  26.622  1.00  0.00     0.200 A 
ATOM     73  F   UNL A   1      41.971  27.797  25.555  1.00  0.00    -0.200 F 
ATOM     74  F   UNL A   1      40.652  25.410  25.560  1.00  0.00    -0.200 F 
ENDBRANCH  50  64
BRANCH  51  75
ATOM     75  C   UNL A   1      39.579  33.884  36.835  1.00  0.00     0.064 A 
ATOM     76  C   UNL A   1      38.812  33.496  37.944  1.00  0.00     0.173 A 
ATOM     77  C   UNL A   1      40.229  35.124  36.894  1.00  0.00     0.173 A 
ATOM     78  F   UNL A   1      38.156  32.327  37.927  1.00  0.00    -0.203 F 
ATOM     79  C   UNL A   1      38.687  34.323  39.058  1.00  0.00     0.198 A 
ATOM     80  C   UNL A   1      40.128  35.937  38.020  1.00  0.00     0.198 A 
ATOM     81  F   UNL A   1      40.981  35.539  35.863  1.00  0.00    -0.203 F 
ATOM     82  F   UNL A   1      37.915  33.946  40.085  1.00  0.00    -0.200 F 
ATOM     83  C   UNL A   1      39.351  35.540  39.098  1.00  0.00     0.200 A 
ATOM     84  F   UNL A   1      40.784  37.106  38.063  1.00  0.00    -0.200 F 
ATOM     85  F   UNL A   1      39.238  36.332  40.174  1.00  0.00    -0.200 F 
ENDBRANCH  51  75
BRANCH  63  86
ATOM     86  C   UNL A   1      44.049  28.833  35.064  1.00  0.00     0.064 A 
ATOM     87  C   UNL A   1      45.327  29.383  34.882  1.00  0.00     0.173 A 
ATOM     88  C   UNL A   1      43.923  27.745  35.942  1.00  0.00     0.173 A 
ATOM     89  F   UNL A   1      45.505  30.415  34.043  1.00  0.00    -0.203 F 
ATOM     90  C   UNL A   1      46.437  28.844  35.528  1.00  0.00     0.198 A 
ATOM     91  C   UNL A   1      45.029  27.232  36.615  1.00  0.00     0.198 A 
ATOM     92  F   UNL A   1      42.724  27.186  36.159  1.00  0.00    -0.203 F 
ATOM     93  F   UNL A   1      47.656  29.351  35.295  1.00  0.00    -0.200 F 
ATOM     94  C   UNL A   1      46.286  27.776  36.400  1.00  0.00     0.200 A 
ATOM     95  F   UNL A   1      44.878  26.212  37.469  1.00  0.00    -0.200 F 
ATOM     96  F   UNL A   1      47.354  27.265  37.028  1.00  0.00    -0.200 F 
ENDBRANCH  63  86
ENDBRANCH  37  38
ENDBRANCH  29  32
ENDBRANCH  27  28
ENDBRANCH  26  27
ENDBRANCH   1  26
TORSDOF 14
ENDMDL
