MODEL 1
REMARK VINA RESULT:     -11.3      0.000      0.000
REMARK SMILES O=C(NCCCCCCNC(=O)[C@H]1CC[C@@H](CNc2cccc(F)c2[N+](=O)[O-])O1)c1ccc(-c2c3nc(c(-c4c(F)c(F)c(F)c(F)c4F)c4ccc([nH]4)c(-c4c(F)c(F)c(F)c(F)c4F)c4nc(c(-c5c(F)c(F)c(F)c(F)c5F)c5ccc2[nH]5)C=C4)C=C3)cc1
REMARK SMILES IDX 7 1 6 2 5 3 4 4 3 5 1 6 2 7 30 9 31 10 92 11 32 12 91 13
REMARK SMILES IDX 33 14 34 15 35 16 85 17 36 18 90 19 84 20 86 21 37 22 89 23
REMARK SMILES IDX 83 24 82 25 38 27 70 28 50 29 69 30 51 31 54 32 68 33 87 34
REMARK SMILES IDX 52 35 53 36 67 38 88 39 55 40 39 41 40 42 48 43 41 44 42 45
REMARK SMILES IDX 46 46 49 47 43 48 44 49 47 50 45 51 71 52 72 53 80 54 73 55
REMARK SMILES IDX 74 56 78 57 81 58 75 59 76 60 79 61 77 62 56 63 57 64 65 65
REMARK SMILES IDX 58 66 59 67 63 68 66 69 60 70 61 71 64 72 62 73 8 74 9 75
REMARK SMILES IDX 10 76 11 77 12 79 13 80 14 81 29 82 15 83 16 84 17 85 18 86
REMARK SMILES IDX 19 88 20 89 25 90 21 91 23 92 22 93 24 94 26 95 27 96 28 97
REMARK H PARENT 3 8 86 26 54 37 10 78 18 87
REMARK Flexibility Score: inf
ROOT
ATOM      1  C   UNL A   1      34.860  33.342  28.955  1.00  0.00     0.002 C 
ENDROOT
BRANCH   1   2
ATOM      2  C   UNL A   1      34.355  34.627  28.283  1.00  0.00     0.002 C 
BRANCH   2   3
ATOM      3  C   UNL A   1      33.082  35.234  28.888  1.00  0.00     0.021 C 
BRANCH   3   4
ATOM      4  C   UNL A   1      33.311  36.500  29.709  1.00  0.00     0.116 C 
BRANCH   4   5
ATOM      5  N   UNL A   1      32.480  36.516  30.903  1.00  0.00    -0.352 N 
ATOM      6  O   UNL A   1      31.619  35.709  32.820  1.00  0.00    -0.269 OA
ATOM      7  C   UNL A   1      32.561  35.745  32.030  1.00  0.00     0.251 C 
ATOM      8  H   UNL A   1      31.753  37.180  30.900  1.00  0.00     0.163 HD
BRANCH   7   9
ATOM      9  C   UNL A   1      33.779  34.958  32.310  1.00  0.00     0.039 A 
ATOM     10  C   UNL A   1      35.048  35.509  32.107  1.00  0.00     0.014 A 
ATOM     11  C   UNL A   1      33.646  33.678  32.857  1.00  0.00     0.014 A 
ATOM     12  C   UNL A   1      36.185  34.750  32.370  1.00  0.00     0.010 A 
ATOM     13  C   UNL A   1      34.786  32.941  33.175  1.00  0.00     0.010 A 
ATOM     14  C   UNL A   1      36.063  33.467  32.925  1.00  0.00    -0.014 A 
BRANCH  14  15
ATOM     15  C   UNL A   1      37.272  32.706  33.320  1.00  0.00     0.031 A 
ATOM     16  C   UNL A   1      37.988  33.012  34.600  1.00  0.00     0.074 A 
ATOM     17  C   UNL A   1      37.745  31.760  32.487  1.00  0.00     0.049 A 
ATOM     18  N   UNL A   1      39.104  32.509  35.062  1.00  0.00    -0.248 NA
ATOM     19  C   UNL A   1      37.376  34.023  35.475  1.00  0.00     0.031 C 
ATOM     20  C   UNL A   1      37.131  31.383  31.213  1.00  0.00     0.029 A 
ATOM     21  N   UNL A   1      38.850  30.953  32.578  1.00  0.00    -0.354 N 
ATOM     22  C   UNL A   1      39.342  33.157  36.265  1.00  0.00     0.074 A 
ATOM     23  C   UNL A   1      38.262  34.102  36.458  1.00  0.00     0.031 C 
ATOM     24  C   UNL A   1      37.859  30.411  30.647  1.00  0.00     0.029 A 
ATOM     25  C   UNL A   1      39.022  30.139  31.486  1.00  0.00     0.049 A 
ATOM     26  H   UNL A   1      39.461  30.958  33.350  1.00  0.00     0.167 HD
ATOM     27  C   UNL A   1      40.370  32.972  37.128  1.00  0.00     0.037 A 
ATOM     28  C   UNL A   1      40.019  29.289  31.177  1.00  0.00     0.037 A 
ATOM     29  C   UNL A   1      41.426  32.012  36.932  1.00  0.00     0.049 A 
ATOM     30  C   UNL A   1      41.168  29.128  32.128  1.00  0.00     0.074 A 
ATOM     31  C   UNL A   1      42.470  31.699  37.783  1.00  0.00     0.029 A 
ATOM     32  N   UNL A   1      41.578  31.220  35.802  1.00  0.00    -0.354 N 
ATOM     33  N   UNL A   1      41.363  29.714  33.284  1.00  0.00    -0.248 NA
ATOM     34  C   UNL A   1      42.238  28.202  31.735  1.00  0.00     0.031 C 
ATOM     35  C   UNL A   1      43.287  30.761  37.145  1.00  0.00     0.029 A 
ATOM     36  C   UNL A   1      42.721  30.447  35.919  1.00  0.00     0.049 A 
ATOM     37  H   UNL A   1      40.964  31.210  35.032  1.00  0.00     0.167 HD
ATOM     38  C   UNL A   1      42.566  29.219  33.766  1.00  0.00     0.074 A 
ATOM     39  C   UNL A   1      43.057  28.280  32.777  1.00  0.00     0.031 C 
ATOM     40  C   UNL A   1      43.200  29.517  34.926  1.00  0.00     0.037 A 
BRANCH  27  41
ATOM     41  C   UNL A   1      40.421  33.835  38.353  1.00  0.00     0.064 A 
ATOM     42  C   UNL A   1      41.197  35.006  38.359  1.00  0.00     0.173 A 
ATOM     43  C   UNL A   1      39.757  33.483  39.537  1.00  0.00     0.173 A 
ATOM     44  F   UNL A   1      41.860  35.384  37.256  1.00  0.00    -0.203 F 
ATOM     45  C   UNL A   1      41.309  35.786  39.507  1.00  0.00     0.198 A 
ATOM     46  C   UNL A   1      39.849  34.281  40.674  1.00  0.00     0.198 A 
ATOM     47  F   UNL A   1      38.997  32.378  39.581  1.00  0.00    -0.203 F 
ATOM     48  F   UNL A   1      42.075  36.886  39.495  1.00  0.00    -0.200 F 
ATOM     49  C   UNL A   1      40.631  35.427  40.661  1.00  0.00     0.200 A 
ATOM     50  F   UNL A   1      39.174  33.945  41.782  1.00  0.00    -0.200 F 
ATOM     51  F   UNL A   1      40.725  36.188  41.760  1.00  0.00    -0.200 F 
ENDBRANCH  27  41
BRANCH  28  52
ATOM     52  C   UNL A   1      39.945  28.538  29.899  1.00  0.00     0.064 A 
ATOM     53  C   UNL A   1      39.357  27.266  29.839  1.00  0.00     0.173 A 
ATOM     54  C   UNL A   1      40.556  29.034  28.741  1.00  0.00     0.173 A 
ATOM     55  F   UNL A   1      38.769  26.747  30.927  1.00  0.00    -0.203 F 
ATOM     56  C   UNL A   1      39.417  26.501  28.677  1.00  0.00     0.198 A 
ATOM     57  C   UNL A   1      40.596  28.277  27.572  1.00  0.00     0.198 A 
ATOM     58  F   UNL A   1      41.120  30.250  28.750  1.00  0.00    -0.203 F 
ATOM     59  F   UNL A   1      38.896  25.267  28.661  1.00  0.00    -0.200 F 
ATOM     60  C   UNL A   1      40.038  27.006  27.545  1.00  0.00     0.200 A 
ATOM     61  F   UNL A   1      41.187  28.772  26.476  1.00  0.00    -0.200 F 
ATOM     62  F   UNL A   1      40.107  26.266  26.430  1.00  0.00    -0.200 F 
ENDBRANCH  28  52
BRANCH  40  63
ATOM     63  C   UNL A   1      44.493  28.818  35.218  1.00  0.00     0.064 A 
ATOM     64  C   UNL A   1      45.705  29.346  34.743  1.00  0.00     0.173 A 
ATOM     65  C   UNL A   1      44.520  27.571  35.856  1.00  0.00     0.173 A 
ATOM     66  F   UNL A   1      45.726  30.533  34.120  1.00  0.00    -0.203 F 
ATOM     67  C   UNL A   1      46.892  28.632  34.869  1.00  0.00     0.198 A 
ATOM     68  C   UNL A   1      45.715  26.871  36.001  1.00  0.00     0.198 A 
ATOM     69  F   UNL A   1      43.389  27.035  36.338  1.00  0.00    -0.203 F 
ATOM     70  F   UNL A   1      48.029  29.132  34.366  1.00  0.00    -0.200 F 
ATOM     71  C   UNL A   1      46.896  27.395  35.496  1.00  0.00     0.200 A 
ATOM     72  F   UNL A   1      45.722  25.683  36.622  1.00  0.00    -0.200 F 
ATOM     73  F   UNL A   1      48.039  26.704  35.608  1.00  0.00    -0.200 F 
ENDBRANCH  40  63
ENDBRANCH  14  15
ENDBRANCH   7   9
ENDBRANCH   4   5
ENDBRANCH   3   4
ENDBRANCH   2   3
ENDBRANCH   1   2
BRANCH   1  74
ATOM     74  C   UNL A   1      35.736  32.458  28.064  1.00  0.00     0.021 C 
BRANCH  74  75
ATOM     75  C   UNL A   1      35.183  31.047  27.862  1.00  0.00     0.116 C 
BRANCH  75  76
ATOM     76  N   UNL A   1      34.044  31.053  26.967  1.00  0.00    -0.354 N 
ATOM     77  C   UNL A   1      33.123  30.097  26.663  1.00  0.00     0.249 C 
ATOM     78  H   UNL A   1      33.910  31.905  26.493  1.00  0.00     0.163 HD
ATOM     79  O   UNL A   1      32.251  30.409  25.844  1.00  0.00    -0.272 OA
BRANCH  77  80
ATOM     80  C   UNL A   1      33.149  28.665  27.257  1.00  0.00     0.207 C 
ATOM     81  C   UNL A   1      31.737  28.212  27.617  1.00  0.00     0.045 C 
ATOM     82  O   UNL A   1      33.738  27.608  26.507  1.00  0.00    -0.363 OA
ATOM     83  C   UNL A   1      31.408  27.230  26.518  1.00  0.00     0.037 C 
ATOM     84  C   UNL A   1      32.757  26.579  26.270  1.00  0.00     0.138 C 
BRANCH  84  85
ATOM     85  C   UNL A   1      32.932  26.021  24.850  1.00  0.00     0.145 C 
BRANCH  85  86
ATOM     86  N   UNL A   1      32.451  24.657  24.743  1.00  0.00    -0.377 N 
ATOM     87  H   UNL A   1      31.625  24.515  24.226  1.00  0.00     0.160 HD
BRANCH  86  88
ATOM     88  C   UNL A   1      33.043  23.537  25.297  1.00  0.00     0.116 A 
ATOM     89  C   UNL A   1      32.839  23.195  26.646  1.00  0.00     0.033 A 
ATOM     90  C   UNL A   1      33.918  22.707  24.561  1.00  0.00     0.327 A 
ATOM     91  C   UNL A   1      33.465  22.087  27.231  1.00  0.00     0.006 A 
ATOM     92  C   UNL A   1      34.546  21.604  25.142  1.00  0.00     0.202 A 
ATOM     93  C   UNL A   1      34.324  21.295  26.478  1.00  0.00     0.047 A 
ATOM     94  F   UNL A   1      35.359  20.803  24.439  1.00  0.00    -0.199 F 
BRANCH  90  95
ATOM     95  N   UNL A   1      34.220  23.004  23.170  1.00  0.00     0.068 N 
ATOM     96  O   UNL A   1      35.361  23.417  22.905  1.00  0.00    -0.258 OA
ATOM     97  O   UNL A   1      33.341  22.788  22.325  1.00  0.00    -0.258 OA
ENDBRANCH  90  95
ENDBRANCH  86  88
ENDBRANCH  85  86
ENDBRANCH  84  85
ENDBRANCH  77  80
ENDBRANCH  75  76
ENDBRANCH  74  75
ENDBRANCH   1  74
TORSDOF 17
ENDMDL
MODEL 2
REMARK VINA RESULT:     -11.2      6.264     10.903
REMARK SMILES O=C(NCCCCCCNC(=O)[C@H]1CC[C@@H](CNc2cccc(F)c2[N+](=O)[O-])O1)c1ccc(-c2c3nc(c(-c4c(F)c(F)c(F)c(F)c4F)c4ccc([nH]4)c(-c4c(F)c(F)c(F)c(F)c4F)c4nc(c(-c5c(F)c(F)c(F)c(F)c5F)c5ccc2[nH]5)C=C4)C=C3)cc1
REMARK SMILES IDX 7 1 6 2 5 3 4 4 3 5 1 6 2 7 30 9 31 10 92 11 32 12 91 13
REMARK SMILES IDX 33 14 34 15 35 16 85 17 36 18 90 19 84 20 86 21 37 22 89 23
REMARK SMILES IDX 83 24 82 25 38 27 70 28 50 29 69 30 51 31 54 32 68 33 87 34
REMARK SMILES IDX 52 35 53 36 67 38 88 39 55 40 39 41 40 42 48 43 41 44 42 45
REMARK SMILES IDX 46 46 49 47 43 48 44 49 47 50 45 51 71 52 72 53 80 54 73 55
REMARK SMILES IDX 74 56 78 57 81 58 75 59 76 60 79 61 77 62 56 63 57 64 65 65
REMARK SMILES IDX 58 66 59 67 63 68 66 69 60 70 61 71 64 72 62 73 8 74 9 75
REMARK SMILES IDX 10 76 11 77 12 79 13 80 14 81 29 82 15 83 16 84 17 85 18 86
REMARK SMILES IDX 19 88 20 89 25 90 21 91 23 92 22 93 24 94 26 95 27 96 28 97
REMARK H PARENT 3 8 86 26 54 37 10 78 18 87
REMARK Flexibility Score: inf
ROOT
ATOM      1  C   UNL A   1      37.027  21.820  24.310  1.00  0.00     0.002 C 
ENDROOT
BRANCH   1   2
ATOM      2  C   UNL A   1      36.867  20.448  24.982  1.00  0.00     0.002 C 
BRANCH   2   3
ATOM      3  C   UNL A   1      38.124  19.569  24.999  1.00  0.00     0.021 C 
BRANCH   3   4
ATOM      4  C   UNL A   1      39.216  20.040  25.954  1.00  0.00     0.116 C 
BRANCH   4   5
ATOM      5  N   UNL A   1      40.283  19.059  26.068  1.00  0.00    -0.352 N 
ATOM      6  O   UNL A   1      42.399  18.299  25.946  1.00  0.00    -0.269 OA
ATOM      7  C   UNL A   1      41.637  19.247  26.122  1.00  0.00     0.251 C 
ATOM      8  H   UNL A   1      39.988  18.120  26.113  1.00  0.00     0.163 HD
BRANCH   7   9
ATOM      9  C   UNL A   1      42.193  20.588  26.398  1.00  0.00     0.039 A 
ATOM     10  C   UNL A   1      42.482  21.471  25.352  1.00  0.00     0.014 A 
ATOM     11  C   UNL A   1      42.353  20.992  27.727  1.00  0.00     0.014 A 
ATOM     12  C   UNL A   1      43.012  22.728  25.632  1.00  0.00     0.010 A 
ATOM     13  C   UNL A   1      42.827  22.274  28.007  1.00  0.00     0.010 A 
ATOM     14  C   UNL A   1      43.169  23.147  26.961  1.00  0.00    -0.014 A 
BRANCH  14  15
ATOM     15  C   UNL A   1      43.616  24.528  27.262  1.00  0.00     0.031 A 
ATOM     16  C   UNL A   1      42.646  25.558  27.755  1.00  0.00     0.074 A 
ATOM     17  C   UNL A   1      44.903  24.856  27.043  1.00  0.00     0.049 A 
ATOM     18  N   UNL A   1      42.842  26.831  27.985  1.00  0.00    -0.248 NA
ATOM     19  C   UNL A   1      41.272  25.103  28.016  1.00  0.00     0.031 C 
ATOM     20  C   UNL A   1      45.932  23.935  26.559  1.00  0.00     0.029 A 
ATOM     21  N   UNL A   1      45.563  26.049  27.186  1.00  0.00    -0.354 N 
ATOM     22  C   UNL A   1      41.616  27.334  28.393  1.00  0.00     0.074 A 
ATOM     23  C   UNL A   1      40.675  26.233  28.366  1.00  0.00     0.031 C 
ATOM     24  C   UNL A   1      47.095  24.592  26.457  1.00  0.00     0.029 A 
ATOM     25  C   UNL A   1      46.882  25.992  26.810  1.00  0.00     0.049 A 
ATOM     26  H   UNL A   1      45.133  26.868  27.525  1.00  0.00     0.167 HD
ATOM     27  C   UNL A   1      41.310  28.602  28.760  1.00  0.00     0.037 A 
ATOM     28  C   UNL A   1      47.811  26.962  26.727  1.00  0.00     0.037 A 
ATOM     29  C   UNL A   1      42.261  29.683  28.803  1.00  0.00     0.049 A 
ATOM     30  C   UNL A   1      47.441  28.367  27.100  1.00  0.00     0.074 A 
ATOM     31  C   UNL A   1      42.065  30.983  29.231  1.00  0.00     0.029 A 
ATOM     32  N   UNL A   1      43.584  29.590  28.393  1.00  0.00    -0.354 N 
ATOM     33  N   UNL A   1      46.290  28.826  27.526  1.00  0.00    -0.248 NA
ATOM     34  C   UNL A   1      48.487  29.391  26.975  1.00  0.00     0.031 C 
ATOM     35  C   UNL A   1      43.251  31.694  29.025  1.00  0.00     0.029 A 
ATOM     36  C   UNL A   1      44.204  30.822  28.522  1.00  0.00     0.049 A 
ATOM     37  H   UNL A   1      44.017  28.771  28.060  1.00  0.00     0.167 HD
ATOM     38  C   UNL A   1      46.472  30.185  27.735  1.00  0.00     0.074 A 
ATOM     39  C   UNL A   1      47.849  30.479  27.392  1.00  0.00     0.031 C 
ATOM     40  C   UNL A   1      45.577  31.101  28.175  1.00  0.00     0.037 A 
BRANCH  27  41
ATOM     41  C   UNL A   1      39.886  28.903  29.124  1.00  0.00     0.064 A 
ATOM     42  C   UNL A   1      39.451  28.756  30.451  1.00  0.00     0.173 A 
ATOM     43  C   UNL A   1      38.938  29.278  28.161  1.00  0.00     0.173 A 
ATOM     44  F   UNL A   1      40.315  28.391  31.410  1.00  0.00    -0.203 F 
ATOM     45  C   UNL A   1      38.119  28.969  30.797  1.00  0.00     0.198 A 
ATOM     46  C   UNL A   1      37.613  29.517  28.517  1.00  0.00     0.198 A 
ATOM     47  F   UNL A   1      39.305  29.440  26.880  1.00  0.00    -0.203 F 
ATOM     48  F   UNL A   1      37.723  28.799  32.066  1.00  0.00    -0.200 F 
ATOM     49  C   UNL A   1      37.203  29.355  29.832  1.00  0.00     0.200 A 
ATOM     50  F   UNL A   1      36.733  29.913  27.586  1.00  0.00    -0.200 F 
ATOM     51  F   UNL A   1      35.925  29.577  30.169  1.00  0.00    -0.200 F 
ENDBRANCH  27  41
BRANCH  28  52
ATOM     52  C   UNL A   1      49.176  26.605  26.266  1.00  0.00     0.064 A 
ATOM     53  C   UNL A   1      50.165  26.198  27.175  1.00  0.00     0.173 A 
ATOM     54  C   UNL A   1      49.544  26.766  24.925  1.00  0.00     0.173 A 
ATOM     55  F   UNL A   1      49.860  26.041  28.471  1.00  0.00    -0.203 F 
ATOM     56  C   UNL A   1      51.481  26.004  26.765  1.00  0.00     0.198 A 
ATOM     57  C   UNL A   1      50.857  26.550  24.511  1.00  0.00     0.198 A 
ATOM     58  F   UNL A   1      48.628  27.142  24.020  1.00  0.00    -0.203 F 
ATOM     59  F   UNL A   1      52.418  25.670  27.662  1.00  0.00    -0.200 F 
ATOM     60  C   UNL A   1      51.827  26.182  25.434  1.00  0.00     0.200 A 
ATOM     61  F   UNL A   1      51.187  26.711  23.223  1.00  0.00    -0.200 F 
ATOM     62  F   UNL A   1      53.096  26.008  25.041  1.00  0.00    -0.200 F 
ENDBRANCH  28  52
BRANCH  40  63
ATOM     63  C   UNL A   1      46.042  32.517  28.334  1.00  0.00     0.064 A 
ATOM     64  C   UNL A   1      46.528  32.967  29.571  1.00  0.00     0.173 A 
ATOM     65  C   UNL A   1      45.890  33.454  27.303  1.00  0.00     0.173 A 
ATOM     66  F   UNL A   1      46.682  32.107  30.589  1.00  0.00    -0.203 F 
ATOM     67  C   UNL A   1      46.814  34.312  29.779  1.00  0.00     0.198 A 
ATOM     68  C   UNL A   1      46.201  34.795  27.508  1.00  0.00     0.198 A 
ATOM     69  F   UNL A   1      45.442  33.067  26.099  1.00  0.00    -0.203 F 
ATOM     70  F   UNL A   1      47.232  34.729  30.983  1.00  0.00    -0.200 F 
ATOM     71  C   UNL A   1      46.649  35.226  28.749  1.00  0.00     0.200 A 
ATOM     72  F   UNL A   1      46.057  35.675  26.507  1.00  0.00    -0.200 F 
ATOM     73  F   UNL A   1      46.917  36.523  28.953  1.00  0.00    -0.200 F 
ENDBRANCH  40  63
ENDBRANCH  14  15
ENDBRANCH   7   9
ENDBRANCH   4   5
ENDBRANCH   3   4
ENDBRANCH   2   3
ENDBRANCH   1   2
BRANCH   1  74
ATOM     74  C   UNL A   1      37.241  22.984  25.280  1.00  0.00     0.021 C 
BRANCH  74  75
ATOM     75  C   UNL A   1      35.961  23.751  25.613  1.00  0.00     0.116 C 
BRANCH  75  76
ATOM     76  N   UNL A   1      35.210  23.089  26.659  1.00  0.00    -0.354 N 
ATOM     77  C   UNL A   1      33.929  22.629  26.705  1.00  0.00     0.249 C 
ATOM     78  H   UNL A   1      35.719  22.944  27.489  1.00  0.00     0.163 HD
ATOM     79  O   UNL A   1      33.569  22.098  27.762  1.00  0.00    -0.272 OA
BRANCH  77  80
ATOM     80  C   UNL A   1      32.925  22.776  25.533  1.00  0.00     0.207 C 
ATOM     81  C   UNL A   1      31.810  21.740  25.652  1.00  0.00     0.045 C 
ATOM     82  O   UNL A   1      32.292  24.031  25.307  1.00  0.00    -0.363 OA
ATOM     83  C   UNL A   1      30.636  22.563  26.127  1.00  0.00     0.037 C 
ATOM     84  C   UNL A   1      30.863  23.875  25.398  1.00  0.00     0.138 C 
BRANCH  84  85
ATOM     85  C   UNL A   1      30.257  25.098  26.104  1.00  0.00     0.145 C 
BRANCH  85  86
ATOM     86  N   UNL A   1      30.570  26.333  25.409  1.00  0.00    -0.377 N 
ATOM     87  H   UNL A   1      29.922  26.640  24.734  1.00  0.00     0.160 HD
BRANCH  86  88
ATOM     88  C   UNL A   1      31.691  27.117  25.606  1.00  0.00     0.116 A 
ATOM     89  C   UNL A   1      32.005  27.638  26.873  1.00  0.00     0.033 A 
ATOM     90  C   UNL A   1      32.551  27.478  24.544  1.00  0.00     0.327 A 
ATOM     91  C   UNL A   1      33.114  28.468  27.078  1.00  0.00     0.006 A 
ATOM     92  C   UNL A   1      33.656  28.307  24.744  1.00  0.00     0.202 A 
ATOM     93  C   UNL A   1      33.937  28.807  26.010  1.00  0.00     0.047 A 
ATOM     94  F   UNL A   1      34.486  28.631  23.742  1.00  0.00    -0.199 F 
BRANCH  90  95
ATOM     95  N   UNL A   1      32.286  27.017  23.191  1.00  0.00     0.068 N 
ATOM     96  O   UNL A   1      32.986  26.090  22.751  1.00  0.00    -0.258 OA
ATOM     97  O   UNL A   1      31.353  27.543  22.570  1.00  0.00    -0.258 OA
ENDBRANCH  90  95
ENDBRANCH  86  88
ENDBRANCH  85  86
ENDBRANCH  84  85
ENDBRANCH  77  80
ENDBRANCH  75  76
ENDBRANCH  74  75
ENDBRANCH   1  74
TORSDOF 17
ENDMDL
MODEL 3
REMARK VINA RESULT:     -11.2      6.075     10.934
REMARK SMILES O=C(NCCCCCCNC(=O)[C@H]1CC[C@@H](CNc2cccc(F)c2[N+](=O)[O-])O1)c1ccc(-c2c3nc(c(-c4c(F)c(F)c(F)c(F)c4F)c4ccc([nH]4)c(-c4c(F)c(F)c(F)c(F)c4F)c4nc(c(-c5c(F)c(F)c(F)c(F)c5F)c5ccc2[nH]5)C=C4)C=C3)cc1
REMARK SMILES IDX 7 1 6 2 5 3 4 4 3 5 1 6 2 7 30 9 31 10 92 11 32 12 91 13
REMARK SMILES IDX 33 14 34 15 35 16 85 17 36 18 90 19 84 20 86 21 37 22 89 23
REMARK SMILES IDX 83 24 82 25 38 27 70 28 50 29 69 30 51 31 54 32 68 33 87 34
REMARK SMILES IDX 52 35 53 36 67 38 88 39 55 40 39 41 40 42 48 43 41 44 42 45
REMARK SMILES IDX 46 46 49 47 43 48 44 49 47 50 45 51 71 52 72 53 80 54 73 55
REMARK SMILES IDX 74 56 78 57 81 58 75 59 76 60 79 61 77 62 56 63 57 64 65 65
REMARK SMILES IDX 58 66 59 67 63 68 66 69 60 70 61 71 64 72 62 73 8 74 9 75
REMARK SMILES IDX 10 76 11 77 12 79 13 80 14 81 29 82 15 83 16 84 17 85 18 86
REMARK SMILES IDX 19 88 20 89 25 90 21 91 23 92 22 93 24 94 26 95 27 96 28 97
REMARK H PARENT 3 8 86 26 54 37 10 78 18 87
REMARK Flexibility Score: inf
ROOT
ATOM      1  C   UNL A   1      36.100  21.393  25.267  1.00  0.00     0.002 C 
ENDROOT
BRANCH   1   2
ATOM      2  C   UNL A   1      36.602  19.963  25.023  1.00  0.00     0.002 C 
BRANCH   2   3
ATOM      3  C   UNL A   1      38.089  19.834  24.672  1.00  0.00     0.021 C 
BRANCH   3   4
ATOM      4  C   UNL A   1      39.044  20.233  25.794  1.00  0.00     0.116 C 
BRANCH   4   5
ATOM      5  N   UNL A   1      40.093  19.243  25.978  1.00  0.00    -0.352 N 
ATOM      6  O   UNL A   1      42.205  18.465  25.996  1.00  0.00    -0.269 OA
ATOM      7  C   UNL A   1      41.442  19.420  26.122  1.00  0.00     0.251 C 
ATOM      8  H   UNL A   1      39.788  18.307  26.002  1.00  0.00     0.163 HD
BRANCH   7   9
ATOM      9  C   UNL A   1      41.989  20.756  26.436  1.00  0.00     0.039 A 
ATOM     10  C   UNL A   1      42.253  21.678  25.418  1.00  0.00     0.014 A 
ATOM     11  C   UNL A   1      42.165  21.116  27.776  1.00  0.00     0.014 A 
ATOM     12  C   UNL A   1      42.775  22.929  25.733  1.00  0.00     0.010 A 
ATOM     13  C   UNL A   1      42.631  22.391  28.093  1.00  0.00     0.010 A 
ATOM     14  C   UNL A   1      42.949  23.304  27.074  1.00  0.00    -0.014 A 
BRANCH  14  15
ATOM     15  C   UNL A   1      43.387  24.678  27.416  1.00  0.00     0.031 A 
ATOM     16  C   UNL A   1      42.421  25.673  27.982  1.00  0.00     0.074 A 
ATOM     17  C   UNL A   1      44.662  25.033  27.168  1.00  0.00     0.049 A 
ATOM     18  N   UNL A   1      42.607  26.939  28.257  1.00  0.00    -0.248 NA
ATOM     19  C   UNL A   1      41.062  25.187  28.269  1.00  0.00     0.031 C 
ATOM     20  C   UNL A   1      45.686  24.147  26.614  1.00  0.00     0.029 A 
ATOM     21  N   UNL A   1      45.310  26.229  27.338  1.00  0.00    -0.354 N 
ATOM     22  C   UNL A   1      41.388  27.407  28.725  1.00  0.00     0.074 A 
ATOM     23  C   UNL A   1      40.462  26.294  28.683  1.00  0.00     0.031 C 
ATOM     24  C   UNL A   1      46.836  24.825  26.501  1.00  0.00     0.029 A 
ATOM     25  C   UNL A   1      46.617  26.206  26.917  1.00  0.00     0.049 A 
ATOM     26  H   UNL A   1      44.881  27.027  27.724  1.00  0.00     0.167 HD
ATOM     27  C   UNL A   1      41.078  28.654  29.153  1.00  0.00     0.037 A 
ATOM     28  C   UNL A   1      47.529  27.193  26.843  1.00  0.00     0.037 A 
ATOM     29  C   UNL A   1      42.016  29.746  29.209  1.00  0.00     0.049 A 
ATOM     30  C   UNL A   1      47.153  28.576  27.285  1.00  0.00     0.074 A 
ATOM     31  C   UNL A   1      41.816  31.025  29.695  1.00  0.00     0.029 A 
ATOM     32  N   UNL A   1      43.325  29.689  28.752  1.00  0.00    -0.354 N 
ATOM     33  N   UNL A   1      46.010  29.001  27.767  1.00  0.00    -0.248 NA
ATOM     34  C   UNL A   1      48.181  29.620  27.168  1.00  0.00     0.031 C 
ATOM     35  C   UNL A   1      42.985  31.761  29.479  1.00  0.00     0.029 A 
ATOM     36  C   UNL A   1      43.933  30.924  28.911  1.00  0.00     0.049 A 
ATOM     37  H   UNL A   1      43.758  28.891  28.372  1.00  0.00     0.167 HD
ATOM     38  C   UNL A   1      46.182  30.353  28.024  1.00  0.00     0.074 A 
ATOM     39  C   UNL A   1      47.542  30.680  27.649  1.00  0.00     0.031 C 
ATOM     40  C   UNL A   1      45.289  31.237  28.531  1.00  0.00     0.037 A 
BRANCH  27  41
ATOM     41  C   UNL A   1      39.663  28.919  29.575  1.00  0.00     0.064 A 
ATOM     42  C   UNL A   1      39.257  28.647  30.892  1.00  0.00     0.173 A 
ATOM     43  C   UNL A   1      38.695  29.384  28.674  1.00  0.00     0.173 A 
ATOM     44  F   UNL A   1      40.141  28.193  31.792  1.00  0.00    -0.203 F 
ATOM     45  C   UNL A   1      37.934  28.827  31.286  1.00  0.00     0.198 A 
ATOM     46  C   UNL A   1      37.378  29.589  29.079  1.00  0.00     0.198 A 
ATOM     47  F   UNL A   1      39.034  29.666  27.406  1.00  0.00    -0.203 F 
ATOM     48  F   UNL A   1      37.565  28.537  32.541  1.00  0.00    -0.200 F 
ATOM     49  C   UNL A   1      36.997  29.303  30.381  1.00  0.00     0.200 A 
ATOM     50  F   UNL A   1      36.479  30.071  28.210  1.00  0.00    -0.200 F 
ATOM     51  F   UNL A   1      35.727  29.492  30.766  1.00  0.00    -0.200 F 
ENDBRANCH  27  41
BRANCH  28  52
ATOM     52  C   UNL A   1      48.882  26.874  26.324  1.00  0.00     0.064 A 
ATOM     53  C   UNL A   1      49.206  27.071  24.973  1.00  0.00     0.173 A 
ATOM     54  C   UNL A   1      49.840  26.267  27.146  1.00  0.00     0.173 A 
ATOM     55  F   UNL A   1      48.315  27.640  24.147  1.00  0.00    -0.203 F 
ATOM     56  C   UNL A   1      50.423  26.638  24.455  1.00  0.00     0.198 A 
ATOM     57  C   UNL A   1      51.068  25.854  26.631  1.00  0.00     0.198 A 
ATOM     58  F   UNL A   1      49.578  26.070  28.446  1.00  0.00    -0.203 F 
ATOM     59  F   UNL A   1      50.686  26.787  23.150  1.00  0.00    -0.200 F 
ATOM     60  C   UNL A   1      51.352  26.027  25.283  1.00  0.00     0.200 A 
ATOM     61  F   UNL A   1      51.968  25.274  27.436  1.00  0.00    -0.200 F 
ATOM     62  F   UNL A   1      52.519  25.598  24.783  1.00  0.00    -0.200 F 
ENDBRANCH  28  52
BRANCH  40  63
ATOM     63  C   UNL A   1      45.740  32.652  28.731  1.00  0.00     0.064 A 
ATOM     64  C   UNL A   1      45.594  33.594  27.701  1.00  0.00     0.173 A 
ATOM     65  C   UNL A   1      46.426  33.041  29.890  1.00  0.00     0.173 A 
ATOM     66  F   UNL A   1      44.951  33.264  26.571  1.00  0.00    -0.203 F 
ATOM     67  C   UNL A   1      46.147  34.865  27.812  1.00  0.00     0.198 A 
ATOM     68  C   UNL A   1      46.958  34.322  30.006  1.00  0.00     0.198 A 
ATOM     69  F   UNL A   1      46.578  32.179  30.906  1.00  0.00    -0.203 F 
ATOM     70  F   UNL A   1      46.037  35.733  26.796  1.00  0.00    -0.200 F 
ATOM     71  C   UNL A   1      46.830  35.228  28.963  1.00  0.00     0.200 A 
ATOM     72  F   UNL A   1      47.603  34.679  31.126  1.00  0.00    -0.200 F 
ATOM     73  F   UNL A   1      47.371  36.451  29.064  1.00  0.00    -0.200 F 
ENDBRANCH  40  63
ENDBRANCH  14  15
ENDBRANCH   7   9
ENDBRANCH   4   5
ENDBRANCH   3   4
ENDBRANCH   2   3
ENDBRANCH   1   2
BRANCH   1  74
ATOM     74  C   UNL A   1      34.791  21.485  26.054  1.00  0.00     0.021 C 
BRANCH  74  75
ATOM     75  C   UNL A   1      34.684  22.735  26.928  1.00  0.00     0.116 C 
BRANCH  75  76
ATOM     76  N   UNL A   1      33.304  23.033  27.250  1.00  0.00    -0.354 N 
ATOM     77  C   UNL A   1      32.332  23.691  26.559  1.00  0.00     0.249 C 
ATOM     78  H   UNL A   1      33.014  22.698  28.129  1.00  0.00     0.163 HD
ATOM     79  O   UNL A   1      31.229  23.786  27.109  1.00  0.00    -0.272 OA
BRANCH  77  80
ATOM     80  C   UNL A   1      32.561  24.338  25.169  1.00  0.00     0.207 C 
ATOM     81  C   UNL A   1      32.098  23.398  24.060  1.00  0.00     0.045 C 
ATOM     82  O   UNL A   1      31.990  25.612  24.888  1.00  0.00    -0.363 OA
ATOM     83  C   UNL A   1      30.803  24.027  23.604  1.00  0.00     0.037 C 
ATOM     84  C   UNL A   1      31.108  25.507  23.754  1.00  0.00     0.138 C 
BRANCH  84  85
ATOM     85  C   UNL A   1      29.867  26.383  23.986  1.00  0.00     0.145 C 
BRANCH  85  86
ATOM     86  N   UNL A   1      29.750  27.429  22.988  1.00  0.00    -0.377 N 
ATOM     87  H   UNL A   1      30.085  27.223  22.086  1.00  0.00     0.160 HD
BRANCH  86  88
ATOM     88  C   UNL A   1      29.213  28.688  23.186  1.00  0.00     0.116 A 
ATOM     89  C   UNL A   1      27.941  29.024  22.692  1.00  0.00     0.033 A 
ATOM     90  C   UNL A   1      29.927  29.714  23.846  1.00  0.00     0.327 A 
ATOM     91  C   UNL A   1      27.401  30.308  22.849  1.00  0.00     0.006 A 
ATOM     92  C   UNL A   1      29.394  30.995  24.001  1.00  0.00     0.202 A 
ATOM     93  C   UNL A   1      28.133  31.295  23.500  1.00  0.00     0.047 A 
ATOM     94  F   UNL A   1      30.060  31.962  24.646  1.00  0.00    -0.199 F 
BRANCH  90  95
ATOM     95  N   UNL A   1      31.266  29.470  24.356  1.00  0.00     0.068 N 
ATOM     96  O   UNL A   1      32.150  29.176  23.533  1.00  0.00    -0.258 OA
ATOM     97  O   UNL A   1      31.460  29.610  25.570  1.00  0.00    -0.258 OA
ENDBRANCH  90  95
ENDBRANCH  86  88
ENDBRANCH  85  86
ENDBRANCH  84  85
ENDBRANCH  77  80
ENDBRANCH  75  76
ENDBRANCH  74  75
ENDBRANCH   1  74
TORSDOF 17
ENDMDL
