MODEL 1
REMARK VINA RESULT:     -12.3      0.000      0.000
REMARK SMILES CC(C)(C)c1cc2c(cc1Cl)C=C(C(=O)NCCCCCCNC(=O)c1ccc(-c3c4nc(c(-c5c(F)c(F)c(F)c(F)c5F)c5ccc([nH]5)c(-c5c(F)c(F)c(F)c(F)c5F)c5nc(c(-c6c(F)c(F)c(F)c(F)c6F)c6ccc3[nH]6)C=C5)C=C4)cc1)[C@@H](C(F)(F)F)O2
REMARK SMILES IDX 20 1 19 2 18 3 17 4 16 5 14 6 15 7 13 9 5 10 6 11 10 12 7 13
REMARK SMILES IDX 9 14 11 15 8 16 94 17 12 18 89 19 2 20 1 21 3 22 4 23 90 24
REMARK SMILES IDX 91 25 92 26 93 27 21 28 22 29 23 30 24 31 25 33 26 34 27 35
REMARK SMILES IDX 88 36 28 37 87 38 29 39 30 40 31 41 81 42 32 43 86 44 80 45
REMARK SMILES IDX 82 46 33 47 85 48 79 49 78 50 34 52 66 53 46 54 65 55 47 56
REMARK SMILES IDX 50 57 64 58 83 59 48 60 49 61 63 63 84 64 51 65 35 66 36 67
REMARK SMILES IDX 44 68 37 69 38 70 42 71 45 72 39 73 40 74 43 75 41 76 67 77
REMARK SMILES IDX 68 78 76 79 69 80 70 81 74 82 77 83 71 84 72 85 75 86 73 87
REMARK SMILES IDX 52 88 53 89 61 90 54 91 55 92 59 93 62 94 56 95 57 96 60 97
REMARK SMILES IDX 58 98
REMARK H PARENT 16 8 23 32 82 51 50 62
REMARK Flexibility Score: inf
ROOT
ATOM      1  C   UNL A   1      38.669  22.384  25.949  1.00  0.00     0.002 C 
ENDROOT
BRANCH   1   2
ATOM      2  C   UNL A   1      37.374  22.654  25.172  1.00  0.00     0.002 C 
BRANCH   2   3
ATOM      3  C   UNL A   1      36.831  21.477  24.355  1.00  0.00     0.021 C 
BRANCH   3   4
ATOM      4  C   UNL A   1      35.959  20.509  25.152  1.00  0.00     0.116 C 
BRANCH   4   5
ATOM      5  N   UNL A   1      34.648  20.338  24.552  1.00  0.00    -0.352 N 
ATOM      6  C   UNL A   1      33.504  21.052  24.434  1.00  0.00     0.251 C 
ATOM      7  O   UNL A   1      32.613  20.506  23.776  1.00  0.00    -0.270 OA
ATOM      8  H   UNL A   1      34.570  19.461  24.109  1.00  0.00     0.163 HD
BRANCH   6   9
ATOM      9  C   UNL A   1      33.256  22.400  25.029  1.00  0.00     0.067 C 
ATOM     10  C   UNL A   1      32.804  27.436  25.724  1.00  0.00    -0.020 A 
ATOM     11  C   UNL A   1      32.347  26.262  26.373  1.00  0.00     0.053 A 
ATOM     12  C   UNL A   1      33.584  27.227  24.566  1.00  0.00     0.045 A 
ATOM     13  C   UNL A   1      32.644  24.979  25.916  1.00  0.00     0.128 A 
ATOM     14  C   UNL A   1      33.869  25.924  24.102  1.00  0.00     0.032 A 
ATOM     15  Cl  UNL A   1      34.252  28.474  23.574  1.00  0.00    -0.084 Cl
ATOM     16  C   UNL A   1      33.396  24.797  24.770  1.00  0.00     0.019 A 
ATOM     17  O   UNL A   1      32.108  23.949  26.627  1.00  0.00    -0.475 OA
ATOM     18  C   UNL A   1      33.616  23.448  24.265  1.00  0.00     0.025 C 
ATOM     19  C   UNL A   1      32.672  22.631  26.396  1.00  0.00     0.314 C 
BRANCH  10  20
ATOM     20  C   UNL A   1      32.348  28.779  26.347  1.00  0.00    -0.012 C 
ATOM     21  C   UNL A   1      31.543  29.749  25.461  1.00  0.00     0.016 C 
ATOM     22  C   UNL A   1      33.588  29.586  26.820  1.00  0.00     0.016 C 
ATOM     23  C   UNL A   1      31.457  28.468  27.575  1.00  0.00     0.016 C 
ENDBRANCH  10  20
BRANCH  19  24
ATOM     24  C   UNL A   1      33.667  22.309  27.526  1.00  0.00     0.429 C 
ATOM     25  F   UNL A   1      33.859  20.969  27.620  1.00  0.00    -0.167 F 
ATOM     26  F   UNL A   1      34.888  22.852  27.314  1.00  0.00    -0.167 F 
ATOM     27  F   UNL A   1      33.242  22.745  28.733  1.00  0.00    -0.167 F 
ENDBRANCH  19  24
ENDBRANCH   6   9
ENDBRANCH   4   5
ENDBRANCH   3   4
ENDBRANCH   2   3
ENDBRANCH   1   2
BRANCH   1  28
ATOM     28  C   UNL A   1      39.511  21.207  25.451  1.00  0.00     0.021 C 
BRANCH  28  29
ATOM     29  C   UNL A   1      39.510  19.983  26.358  1.00  0.00     0.116 C 
BRANCH  29  30
ATOM     30  N   UNL A   1      40.567  19.041  26.032  1.00  0.00    -0.352 N 
ATOM     31  C   UNL A   1      41.925  19.239  26.001  1.00  0.00     0.251 C 
ATOM     32  H   UNL A   1      40.266  18.132  25.798  1.00  0.00     0.163 HD
ATOM     33  O   UNL A   1      42.674  18.370  25.564  1.00  0.00    -0.269 OA
BRANCH  31  34
ATOM     34  C   UNL A   1      42.483  20.526  26.467  1.00  0.00     0.039 A 
ATOM     35  C   UNL A   1      42.386  20.899  27.810  1.00  0.00     0.014 A 
ATOM     36  C   UNL A   1      43.081  21.382  25.539  1.00  0.00     0.014 A 
ATOM     37  C   UNL A   1      42.742  22.187  28.194  1.00  0.00     0.010 A 
ATOM     38  C   UNL A   1      43.507  22.651  25.943  1.00  0.00     0.010 A 
ATOM     39  C   UNL A   1      43.297  23.080  27.263  1.00  0.00    -0.014 A 
BRANCH  39  40
ATOM     40  C   UNL A   1      43.632  24.463  27.685  1.00  0.00     0.031 A 
ATOM     41  C   UNL A   1      45.061  24.934  27.703  1.00  0.00     0.074 A 
ATOM     42  C   UNL A   1      42.637  25.315  27.997  1.00  0.00     0.049 A 
ATOM     43  N   UNL A   1      45.538  26.110  28.031  1.00  0.00    -0.248 NA
ATOM     44  C   UNL A   1      46.088  23.962  27.301  1.00  0.00     0.031 C 
ATOM     45  C   UNL A   1      41.213  24.979  27.999  1.00  0.00     0.029 A 
ATOM     46  N   UNL A   1      42.667  26.642  28.346  1.00  0.00    -0.354 N 
ATOM     47  C   UNL A   1      46.916  26.012  27.892  1.00  0.00     0.074 A 
ATOM     48  C   UNL A   1      47.205  24.657  27.474  1.00  0.00     0.031 C 
ATOM     49  C   UNL A   1      40.503  26.081  28.279  1.00  0.00     0.029 A 
ATOM     50  C   UNL A   1      41.422  27.187  28.535  1.00  0.00     0.049 A 
ATOM     51  H   UNL A   1      43.501  27.153  28.450  1.00  0.00     0.167 HD
ATOM     52  C   UNL A   1      47.854  26.971  28.083  1.00  0.00     0.037 A 
ATOM     53  C   UNL A   1      41.059  28.435  28.886  1.00  0.00     0.037 A 
ATOM     54  C   UNL A   1      47.564  28.325  28.474  1.00  0.00     0.049 A 
ATOM     55  C   UNL A   1      42.122  29.466  29.131  1.00  0.00     0.074 A 
ATOM     56  C   UNL A   1      48.446  29.373  28.676  1.00  0.00     0.029 A 
ATOM     57  N   UNL A   1      46.292  28.822  28.716  1.00  0.00    -0.354 N 
ATOM     58  N   UNL A   1      43.422  29.359  29.003  1.00  0.00    -0.248 NA
ATOM     59  C   UNL A   1      41.669  30.789  29.584  1.00  0.00     0.031 C 
ATOM     60  C   UNL A   1      47.712  30.494  29.075  1.00  0.00     0.029 A 
ATOM     61  C   UNL A   1      46.368  30.156  29.083  1.00  0.00     0.049 A 
ATOM     62  H   UNL A   1      45.459  28.304  28.639  1.00  0.00     0.167 HD
ATOM     63  C   UNL A   1      43.943  30.596  29.352  1.00  0.00     0.074 A 
ATOM     64  C   UNL A   1      42.816  31.448  29.676  1.00  0.00     0.031 C 
ATOM     65  C   UNL A   1      45.238  30.988  29.407  1.00  0.00     0.037 A 
BRANCH  52  66
ATOM     66  C   UNL A   1      49.292  26.595  27.876  1.00  0.00     0.064 A 
ATOM     67  C   UNL A   1      49.856  26.529  26.594  1.00  0.00     0.173 A 
ATOM     68  C   UNL A   1      50.133  26.366  28.977  1.00  0.00     0.173 A 
ATOM     69  F   UNL A   1      49.091  26.729  25.510  1.00  0.00    -0.203 F 
ATOM     70  C   UNL A   1      51.206  26.236  26.420  1.00  0.00     0.198 A 
ATOM     71  C   UNL A   1      51.487  26.096  28.800  1.00  0.00     0.198 A 
ATOM     72  F   UNL A   1      49.643  26.422  30.224  1.00  0.00    -0.203 F 
ATOM     73  F   UNL A   1      51.717  26.150  25.184  1.00  0.00    -0.200 F 
ATOM     74  C   UNL A   1      52.022  26.029  27.522  1.00  0.00     0.200 A 
ATOM     75  F   UNL A   1      52.276  25.906  29.867  1.00  0.00    -0.200 F 
ATOM     76  F   UNL A   1      53.323  25.760  27.353  1.00  0.00    -0.200 F 
ENDBRANCH  52  66
BRANCH  53  77
ATOM     77  C   UNL A   1      39.618  28.770  29.015  1.00  0.00     0.064 A 
ATOM     78  C   UNL A   1      38.961  28.647  30.245  1.00  0.00     0.173 A 
ATOM     79  C   UNL A   1      38.882  29.251  27.923  1.00  0.00     0.173 A 
ATOM     80  F   UNL A   1      39.620  28.172  31.312  1.00  0.00    -0.203 F 
ATOM     81  C   UNL A   1      37.618  28.994  30.379  1.00  0.00     0.198 A 
ATOM     82  C   UNL A   1      37.547  29.622  28.064  1.00  0.00     0.198 A 
ATOM     83  F   UNL A   1      39.469  29.388  26.725  1.00  0.00    -0.203 F 
ATOM     84  F   UNL A   1      37.004  28.844  31.561  1.00  0.00    -0.200 F 
ATOM     85  C   UNL A   1      36.915  29.489  29.291  1.00  0.00     0.200 A 
ATOM     86  F   UNL A   1      36.876  30.114  27.013  1.00  0.00    -0.200 F 
ATOM     87  F   UNL A   1      35.629  29.837  29.424  1.00  0.00    -0.200 F 
ENDBRANCH  53  77
BRANCH  65  88
ATOM     88  C   UNL A   1      45.513  32.400  29.826  1.00  0.00     0.064 A 
ATOM     89  C   UNL A   1      45.786  32.722  31.163  1.00  0.00     0.173 A 
ATOM     90  C   UNL A   1      45.564  33.430  28.875  1.00  0.00     0.173 A 
ATOM     91  F   UNL A   1      45.734  31.772  32.110  1.00  0.00    -0.203 F 
ATOM     92  C   UNL A   1      46.086  34.029  31.536  1.00  0.00     0.198 A 
ATOM     93  C   UNL A   1      45.888  34.732  29.248  1.00  0.00     0.198 A 
ATOM     94  F   UNL A   1      45.316  33.170  27.583  1.00  0.00    -0.203 F 
ATOM     95  F   UNL A   1      46.312  34.321  32.824  1.00  0.00    -0.200 F 
ATOM     96  C   UNL A   1      46.145  35.030  30.578  1.00  0.00     0.200 A 
ATOM     97  F   UNL A   1      45.955  35.696  28.320  1.00  0.00    -0.200 F 
ATOM     98  F   UNL A   1      46.446  36.286  30.937  1.00  0.00    -0.200 F 
ENDBRANCH  65  88
ENDBRANCH  39  40
ENDBRANCH  31  34
ENDBRANCH  29  30
ENDBRANCH  28  29
ENDBRANCH   1  28
TORSDOF 15
ENDMDL
MODEL 2
REMARK VINA RESULT:     -12.2      5.343     10.638
REMARK SMILES CC(C)(C)c1cc2c(cc1Cl)C=C(C(=O)NCCCCCCNC(=O)c1ccc(-c3c4nc(c(-c5c(F)c(F)c(F)c(F)c5F)c5ccc([nH]5)c(-c5c(F)c(F)c(F)c(F)c5F)c5nc(c(-c6c(F)c(F)c(F)c(F)c6F)c6ccc3[nH]6)C=C5)C=C4)cc1)[C@@H](C(F)(F)F)O2
REMARK SMILES IDX 20 1 19 2 18 3 17 4 16 5 14 6 15 7 13 9 5 10 6 11 10 12 7 13
REMARK SMILES IDX 9 14 11 15 8 16 94 17 12 18 89 19 2 20 1 21 3 22 4 23 90 24
REMARK SMILES IDX 91 25 92 26 93 27 21 28 22 29 23 30 24 31 25 33 26 34 27 35
REMARK SMILES IDX 88 36 28 37 87 38 29 39 30 40 31 41 81 42 32 43 86 44 80 45
REMARK SMILES IDX 82 46 33 47 85 48 79 49 78 50 34 52 66 53 46 54 65 55 47 56
REMARK SMILES IDX 50 57 64 58 83 59 48 60 49 61 63 63 84 64 51 65 35 66 36 67
REMARK SMILES IDX 44 68 37 69 38 70 42 71 45 72 39 73 40 74 43 75 41 76 67 77
REMARK SMILES IDX 68 78 76 79 69 80 70 81 74 82 77 83 71 84 72 85 75 86 73 87
REMARK SMILES IDX 52 88 53 89 61 90 54 91 55 92 59 93 62 94 56 95 57 96 60 97
REMARK SMILES IDX 58 98
REMARK H PARENT 16 8 23 32 82 51 50 62
REMARK Flexibility Score: inf
ROOT
ATOM      1  C   UNL A   1      31.702  30.669  26.221  1.00  0.00     0.002 C 
ENDROOT
BRANCH   1   2
ATOM      2  C   UNL A   1      32.308  29.682  27.227  1.00  0.00     0.002 C 
BRANCH   2   3
ATOM      3  C   UNL A   1      31.405  28.515  27.642  1.00  0.00     0.021 C 
BRANCH   3   4
ATOM      4  C   UNL A   1      31.733  27.192  26.954  1.00  0.00     0.116 C 
BRANCH   4   5
ATOM      5  N   UNL A   1      32.784  27.340  25.964  1.00  0.00    -0.352 N 
ATOM      6  C   UNL A   1      33.427  26.556  25.067  1.00  0.00     0.251 C 
ATOM      7  O   UNL A   1      34.266  27.137  24.372  1.00  0.00    -0.270 OA
ATOM      8  H   UNL A   1      33.123  28.265  25.938  1.00  0.00     0.163 HD
BRANCH   6   9
ATOM      9  C   UNL A   1      33.202  25.091  24.875  1.00  0.00     0.067 C 
ATOM     10  C   UNL A   1      33.819  20.028  24.689  1.00  0.00    -0.020 A 
ATOM     11  C   UNL A   1      32.727  20.933  24.698  1.00  0.00     0.053 A 
ATOM     12  C   UNL A   1      35.099  20.618  24.760  1.00  0.00     0.045 A 
ATOM     13  C   UNL A   1      32.891  22.315  24.767  1.00  0.00     0.128 A 
ATOM     14  C   UNL A   1      35.255  22.019  24.844  1.00  0.00     0.032 A 
ATOM     15  Cl  UNL A   1      36.596  19.754  24.785  1.00  0.00    -0.084 Cl
ATOM     16  C   UNL A   1      34.154  22.871  24.854  1.00  0.00     0.019 A 
ATOM     17  O   UNL A   1      31.747  23.055  24.799  1.00  0.00    -0.475 OA
ATOM     18  C   UNL A   1      34.291  24.313  25.015  1.00  0.00     0.025 C 
ATOM     19  C   UNL A   1      31.877  24.474  24.520  1.00  0.00     0.314 C 
BRANCH  10  20
ATOM     20  C   UNL A   1      33.454  18.523  24.646  1.00  0.00    -0.012 C 
ATOM     21  C   UNL A   1      34.598  17.509  24.456  1.00  0.00     0.016 C 
ATOM     22  C   UNL A   1      32.468  18.255  23.476  1.00  0.00     0.016 C 
ATOM     23  C   UNL A   1      32.759  18.153  25.979  1.00  0.00     0.016 C 
ENDBRANCH  10  20
BRANCH  19  24
ATOM     24  C   UNL A   1      31.477  24.733  23.056  1.00  0.00     0.429 C 
ATOM     25  F   UNL A   1      32.455  24.307  22.216  1.00  0.00    -0.167 F 
ATOM     26  F   UNL A   1      30.355  24.067  22.698  1.00  0.00    -0.167 F 
ATOM     27  F   UNL A   1      31.263  26.042  22.800  1.00  0.00    -0.167 F 
ENDBRANCH  19  24
ENDBRANCH   6   9
ENDBRANCH   4   5
ENDBRANCH   3   4
ENDBRANCH   2   3
ENDBRANCH   1   2
BRANCH   1  28
ATOM     28  C   UNL A   1      31.426  32.077  26.753  1.00  0.00     0.021 C 
BRANCH  28  29
ATOM     29  C   UNL A   1      32.651  32.824  27.266  1.00  0.00     0.116 C 
BRANCH  29  30
ATOM     30  N   UNL A   1      32.358  34.200  27.630  1.00  0.00    -0.352 N 
ATOM     31  C   UNL A   1      32.958  34.992  28.578  1.00  0.00     0.251 C 
ATOM     32  H   UNL A   1      31.625  34.624  27.126  1.00  0.00     0.163 HD
ATOM     33  O   UNL A   1      32.491  36.093  28.858  1.00  0.00    -0.269 OA
BRANCH  31  34
ATOM     34  C   UNL A   1      34.154  34.495  29.289  1.00  0.00     0.039 A 
ATOM     35  C   UNL A   1      35.426  34.648  28.734  1.00  0.00     0.014 A 
ATOM     36  C   UNL A   1      33.993  33.841  30.513  1.00  0.00     0.014 A 
ATOM     37  C   UNL A   1      36.514  34.010  29.320  1.00  0.00     0.010 A 
ATOM     38  C   UNL A   1      35.100  33.263  31.140  1.00  0.00     0.010 A 
ATOM     39  C   UNL A   1      36.361  33.302  30.523  1.00  0.00    -0.014 A 
BRANCH  39  40
ATOM     40  C   UNL A   1      37.528  32.595  31.110  1.00  0.00     0.031 A 
ATOM     41  C   UNL A   1      38.004  32.924  32.498  1.00  0.00     0.074 A 
ATOM     42  C   UNL A   1      38.121  31.611  30.409  1.00  0.00     0.049 A 
ATOM     43  N   UNL A   1      38.997  32.402  33.176  1.00  0.00    -0.248 NA
ATOM     44  C   UNL A   1      37.274  33.976  33.222  1.00  0.00     0.031 C 
ATOM     45  C   UNL A   1      37.737  31.190  29.061  1.00  0.00     0.029 A 
ATOM     46  N   UNL A   1      39.153  30.770  30.739  1.00  0.00    -0.354 N 
ATOM     47  C   UNL A   1      39.019  33.070  34.393  1.00  0.00     0.074 A 
ATOM     48  C   UNL A   1      37.960  34.055  34.355  1.00  0.00     0.031 C 
ATOM     49  C   UNL A   1      38.485  30.138  28.700  1.00  0.00     0.029 A 
ATOM     50  C   UNL A   1      39.440  29.846  29.765  1.00  0.00     0.049 A 
ATOM     51  H   UNL A   1      39.641  30.823  31.592  1.00  0.00     0.167 HD
ATOM     52  C   UNL A   1      39.843  32.870  35.450  1.00  0.00     0.037 A 
ATOM     53  C   UNL A   1      40.375  28.878  29.728  1.00  0.00     0.037 A 
ATOM     54  C   UNL A   1      40.880  31.874  35.496  1.00  0.00     0.049 A 
ATOM     55  C   UNL A   1      41.301  28.707  30.897  1.00  0.00     0.074 A 
ATOM     56  C   UNL A   1      41.754  31.586  36.530  1.00  0.00     0.029 A 
ATOM     57  N   UNL A   1      41.180  30.998  34.463  1.00  0.00    -0.354 N 
ATOM     58  N   UNL A   1      41.317  29.350  32.039  1.00  0.00    -0.248 NA
ATOM     59  C   UNL A   1      42.348  27.685  30.769  1.00  0.00     0.031 C 
ATOM     60  C   UNL A   1      42.607  30.560  36.110  1.00  0.00     0.029 A 
ATOM     61  C   UNL A   1      42.237  30.181  34.829  1.00  0.00     0.049 A 
ATOM     62  H   UNL A   1      40.711  30.962  33.599  1.00  0.00     0.167 HD
ATOM     63  C   UNL A   1      42.367  28.811  32.767  1.00  0.00     0.074 A 
ATOM     64  C   UNL A   1      42.952  27.770  31.946  1.00  0.00     0.031 C 
ATOM     65  C   UNL A   1      42.811  29.153  34.000  1.00  0.00     0.037 A 
BRANCH  52  66
ATOM     66  C   UNL A   1      39.663  33.749  36.653  1.00  0.00     0.064 A 
ATOM     67  C   UNL A   1      40.244  35.024  36.722  1.00  0.00     0.173 A 
ATOM     68  C   UNL A   1      38.845  33.340  37.718  1.00  0.00     0.173 A 
ATOM     69  F   UNL A   1      41.043  35.456  35.735  1.00  0.00    -0.203 F 
ATOM     70  C   UNL A   1      40.022  35.853  37.819  1.00  0.00     0.198 A 
ATOM     71  C   UNL A   1      38.607  34.181  38.802  1.00  0.00     0.198 A 
ATOM     72  F   UNL A   1      38.263  32.132  37.697  1.00  0.00    -0.203 F 
ATOM     73  F   UNL A   1      40.610  37.056  37.877  1.00  0.00    -0.200 F 
ATOM     74  C   UNL A   1      39.197  35.435  38.853  1.00  0.00     0.200 A 
ATOM     75  F   UNL A   1      37.801  33.780  39.795  1.00  0.00    -0.200 F 
ATOM     76  F   UNL A   1      38.974  36.239  39.901  1.00  0.00    -0.200 F 
ENDBRANCH  52  66
BRANCH  53  77
ATOM     77  C   UNL A   1      40.468  27.995  28.538  1.00  0.00     0.064 A 
ATOM     78  C   UNL A   1      41.228  28.371  27.424  1.00  0.00     0.173 A 
ATOM     79  C   UNL A   1      39.830  26.747  28.506  1.00  0.00     0.173 A 
ATOM     80  F   UNL A   1      41.839  29.564  27.401  1.00  0.00    -0.203 F 
ATOM     81  C   UNL A   1      41.347  27.529  26.319  1.00  0.00     0.198 A 
ATOM     82  C   UNL A   1      39.971  25.896  27.413  1.00  0.00     0.198 A 
ATOM     83  F   UNL A   1      39.093  26.343  29.551  1.00  0.00    -0.203 F 
ATOM     84  F   UNL A   1      42.060  27.922  25.255  1.00  0.00    -0.200 F 
ATOM     85  C   UNL A   1      40.726  26.290  26.319  1.00  0.00     0.200 A 
ATOM     86  F   UNL A   1      39.381  24.693  27.423  1.00  0.00    -0.200 F 
ATOM     87  F   UNL A   1      40.853  25.475  25.263  1.00  0.00    -0.200 F 
ENDBRANCH  53  77
BRANCH  65  88
ATOM     88  C   UNL A   1      43.982  28.394  34.545  1.00  0.00     0.064 A 
ATOM     89  C   UNL A   1      43.809  27.185  35.234  1.00  0.00     0.173 A 
ATOM     90  C   UNL A   1      45.291  28.846  34.324  1.00  0.00     0.173 A 
ATOM     91  F   UNL A   1      42.574  26.721  35.481  1.00  0.00    -0.203 F 
ATOM     92  C   UNL A   1      44.905  26.462  35.696  1.00  0.00     0.198 A 
ATOM     93  C   UNL A   1      46.386  28.108  34.767  1.00  0.00     0.198 A 
ATOM     94  F   UNL A   1      45.508  29.994  33.665  1.00  0.00    -0.203 F 
ATOM     95  F   UNL A   1      44.716  25.325  36.380  1.00  0.00    -0.200 F 
ATOM     96  C   UNL A   1      46.191  26.919  35.455  1.00  0.00     0.200 A 
ATOM     97  F   UNL A   1      47.629  28.546  34.524  1.00  0.00    -0.200 F 
ATOM     98  F   UNL A   1      47.246  26.217  35.890  1.00  0.00    -0.200 F 
ENDBRANCH  65  88
ENDBRANCH  39  40
ENDBRANCH  31  34
ENDBRANCH  29  30
ENDBRANCH  28  29
ENDBRANCH   1  28
TORSDOF 15
ENDMDL
MODEL 3
REMARK VINA RESULT:     -12.0      2.521      4.674
REMARK SMILES CC(C)(C)c1cc2c(cc1Cl)C=C(C(=O)NCCCCCCNC(=O)c1ccc(-c3c4nc(c(-c5c(F)c(F)c(F)c(F)c5F)c5ccc([nH]5)c(-c5c(F)c(F)c(F)c(F)c5F)c5nc(c(-c6c(F)c(F)c(F)c(F)c6F)c6ccc3[nH]6)C=C5)C=C4)cc1)[C@@H](C(F)(F)F)O2
REMARK SMILES IDX 20 1 19 2 18 3 17 4 16 5 14 6 15 7 13 9 5 10 6 11 10 12 7 13
REMARK SMILES IDX 9 14 11 15 8 16 94 17 12 18 89 19 2 20 1 21 3 22 4 23 90 24
REMARK SMILES IDX 91 25 92 26 93 27 21 28 22 29 23 30 24 31 25 33 26 34 27 35
REMARK SMILES IDX 88 36 28 37 87 38 29 39 30 40 31 41 81 42 32 43 86 44 80 45
REMARK SMILES IDX 82 46 33 47 85 48 79 49 78 50 34 52 66 53 46 54 65 55 47 56
REMARK SMILES IDX 50 57 64 58 83 59 48 60 49 61 63 63 84 64 51 65 35 66 36 67
REMARK SMILES IDX 44 68 37 69 38 70 42 71 45 72 39 73 40 74 43 75 41 76 67 77
REMARK SMILES IDX 68 78 76 79 69 80 70 81 74 82 77 83 71 84 72 85 75 86 73 87
REMARK SMILES IDX 52 88 53 89 61 90 54 91 55 92 59 93 62 94 56 95 57 96 60 97
REMARK SMILES IDX 58 98
REMARK H PARENT 16 8 23 32 82 51 50 62
REMARK Flexibility Score: inf
ROOT
ATOM      1  C   UNL A   1      35.235  24.074  24.141  1.00  0.00     0.002 C 
ENDROOT
BRANCH   1   2
ATOM      2  C   UNL A   1      35.078  24.845  25.459  1.00  0.00     0.002 C 
BRANCH   2   3
ATOM      3  C   UNL A   1      34.205  26.102  25.394  1.00  0.00     0.021 C 
BRANCH   3   4
ATOM      4  C   UNL A   1      33.610  26.383  24.016  1.00  0.00     0.116 C 
BRANCH   4   5
ATOM      5  N   UNL A   1      32.173  26.183  23.993  1.00  0.00    -0.352 N 
ATOM      6  C   UNL A   1      31.304  25.166  24.199  1.00  0.00     0.251 C 
ATOM      7  O   UNL A   1      30.111  25.472  24.107  1.00  0.00    -0.270 OA
ATOM      8  H   UNL A   1      31.700  27.017  23.764  1.00  0.00     0.163 HD
BRANCH   6   9
ATOM      9  C   UNL A   1      31.677  23.753  24.512  1.00  0.00     0.067 C 
ATOM     10  C   UNL A   1      33.002  18.840  24.119  1.00  0.00    -0.020 A 
ATOM     11  C   UNL A   1      33.024  19.835  25.129  1.00  0.00     0.053 A 
ATOM     12  C   UNL A   1      32.507  19.256  22.864  1.00  0.00     0.045 A 
ATOM     13  C   UNL A   1      32.583  21.140  24.915  1.00  0.00     0.128 A 
ATOM     14  C   UNL A   1      32.077  20.585  22.653  1.00  0.00     0.032 A 
ATOM     15  Cl  UNL A   1      32.387  18.259  21.458  1.00  0.00    -0.084 Cl
ATOM     16  C   UNL A   1      32.118  21.531  23.673  1.00  0.00     0.019 A 
ATOM     17  O   UNL A   1      32.695  21.992  25.972  1.00  0.00    -0.475 OA
ATOM     18  C   UNL A   1      31.749  22.924  23.454  1.00  0.00     0.025 C 
ATOM     19  C   UNL A   1      31.939  23.230  25.898  1.00  0.00     0.314 C 
BRANCH  10  20
ATOM     20  C   UNL A   1      33.563  17.453  24.520  1.00  0.00    -0.012 C 
ATOM     21  C   UNL A   1      33.360  16.282  23.539  1.00  0.00     0.016 C 
ATOM     22  C   UNL A   1      32.916  16.989  25.853  1.00  0.00     0.016 C 
ATOM     23  C   UNL A   1      35.092  17.588  24.727  1.00  0.00     0.016 C 
ENDBRANCH  10  20
BRANCH  19  24
ATOM     24  C   UNL A   1      30.650  23.078  26.725  1.00  0.00     0.429 C 
ATOM     25  F   UNL A   1      29.804  22.202  26.126  1.00  0.00    -0.167 F 
ATOM     26  F   UNL A   1      30.883  22.590  27.966  1.00  0.00    -0.167 F 
ATOM     27  F   UNL A   1      29.988  24.246  26.875  1.00  0.00    -0.167 F 
ENDBRANCH  19  24
ENDBRANCH   6   9
ENDBRANCH   4   5
ENDBRANCH   3   4
ENDBRANCH   2   3
ENDBRANCH   1   2
BRANCH   1  28
ATOM     28  C   UNL A   1      35.855  22.680  24.255  1.00  0.00     0.021 C 
BRANCH  28  29
ATOM     29  C   UNL A   1      36.382  22.318  25.638  1.00  0.00     0.116 C 
BRANCH  29  30
ATOM     30  N   UNL A   1      37.388  21.270  25.599  1.00  0.00    -0.352 N 
ATOM     31  C   UNL A   1      38.724  21.339  25.911  1.00  0.00     0.251 C 
ATOM     32  H   UNL A   1      37.066  20.386  25.308  1.00  0.00     0.163 HD
ATOM     33  O   UNL A   1      39.467  20.388  25.686  1.00  0.00    -0.269 OA
BRANCH  31  34
ATOM     34  C   UNL A   1      39.273  22.584  26.487  1.00  0.00     0.039 A 
ATOM     35  C   UNL A   1      38.776  23.829  26.095  1.00  0.00     0.014 A 
ATOM     36  C   UNL A   1      40.320  22.501  27.409  1.00  0.00     0.014 A 
ATOM     37  C   UNL A   1      39.428  24.988  26.499  1.00  0.00     0.010 A 
ATOM     38  C   UNL A   1      40.927  23.671  27.873  1.00  0.00     0.010 A 
ATOM     39  C   UNL A   1      40.516  24.922  27.385  1.00  0.00    -0.014 A 
BRANCH  39  40
ATOM     40  C   UNL A   1      41.222  26.169  27.771  1.00  0.00     0.031 A 
ATOM     41  C   UNL A   1      42.641  26.414  27.333  1.00  0.00     0.074 A 
ATOM     42  C   UNL A   1      40.560  27.111  28.469  1.00  0.00     0.049 A 
ATOM     43  N   UNL A   1      43.410  27.449  27.567  1.00  0.00    -0.248 NA
ATOM     44  C   UNL A   1      43.282  25.361  26.531  1.00  0.00     0.031 C 
ATOM     45  C   UNL A   1      39.178  26.995  28.934  1.00  0.00     0.029 A 
ATOM     46  N   UNL A   1      40.949  28.358  28.887  1.00  0.00    -0.354 N 
ATOM     47  C   UNL A   1      44.624  27.165  26.956  1.00  0.00     0.074 A 
ATOM     48  C   UNL A   1      44.504  25.851  26.363  1.00  0.00     0.031 C 
ATOM     49  C   UNL A   1      38.816  28.143  29.524  1.00  0.00     0.029 A 
ATOM     50  C   UNL A   1      39.957  29.054  29.532  1.00  0.00     0.049 A 
ATOM     51  H   UNL A   1      41.852  28.720  28.737  1.00  0.00     0.167 HD
ATOM     52  C   UNL A   1      45.735  27.938  26.886  1.00  0.00     0.037 A 
ATOM     53  C   UNL A   1      39.967  30.283  30.081  1.00  0.00     0.037 A 
ATOM     54  C   UNL A   1      45.846  29.255  27.456  1.00  0.00     0.049 A 
ATOM     55  C   UNL A   1      41.226  31.101  30.025  1.00  0.00     0.074 A 
ATOM     56  C   UNL A   1      46.925  30.121  27.422  1.00  0.00     0.029 A 
ATOM     57  N   UNL A   1      44.838  29.900  28.157  1.00  0.00    -0.354 N 
ATOM     58  N   UNL A   1      42.369  30.818  29.451  1.00  0.00    -0.248 NA
ATOM     59  C   UNL A   1      41.200  32.403  30.705  1.00  0.00     0.031 C 
ATOM     60  C   UNL A   1      46.583  31.276  28.133  1.00  0.00     0.029 A 
ATOM     61  C   UNL A   1      45.277  31.145  28.576  1.00  0.00     0.049 A 
ATOM     62  H   UNL A   1      43.943  29.528  28.331  1.00  0.00     0.167 HD
ATOM     63  C   UNL A   1      43.197  31.904  29.693  1.00  0.00     0.074 A 
ATOM     64  C   UNL A   1      42.416  32.864  30.448  1.00  0.00     0.031 C 
ATOM     65  C   UNL A   1      44.489  32.086  29.330  1.00  0.00     0.037 A 
BRANCH  52  66
ATOM     66  C   UNL A   1      46.931  27.382  26.172  1.00  0.00     0.064 A 
ATOM     67  C   UNL A   1      47.128  27.593  24.799  1.00  0.00     0.173 A 
ATOM     68  C   UNL A   1      47.926  26.690  26.880  1.00  0.00     0.173 A 
ATOM     69  F   UNL A   1      46.201  28.239  24.076  1.00  0.00    -0.203 F 
ATOM     70  C   UNL A   1      48.272  27.121  24.159  1.00  0.00     0.198 A 
ATOM     71  C   UNL A   1      49.078  26.240  26.242  1.00  0.00     0.198 A 
ATOM     72  F   UNL A   1      47.786  26.466  28.195  1.00  0.00    -0.203 F 
ATOM     73  F   UNL A   1      48.427  27.309  22.842  1.00  0.00    -0.200 F 
ATOM     74  C   UNL A   1      49.250  26.454  24.882  1.00  0.00     0.200 A 
ATOM     75  F   UNL A   1      50.027  25.604  26.944  1.00  0.00    -0.200 F 
ATOM     76  F   UNL A   1      50.355  26.012  24.268  1.00  0.00    -0.200 F 
ENDBRANCH  52  66
BRANCH  53  77
ATOM     77  C   UNL A   1      38.736  30.810  30.721  1.00  0.00     0.064 A 
ATOM     78  C   UNL A   1      37.720  31.390  29.952  1.00  0.00     0.173 A 
ATOM     79  C   UNL A   1      38.536  30.711  32.105  1.00  0.00     0.173 A 
ATOM     80  F   UNL A   1      37.876  31.524  28.627  1.00  0.00    -0.203 F 
ATOM     81  C   UNL A   1      36.547  31.854  30.545  1.00  0.00     0.198 A 
ATOM     82  C   UNL A   1      37.353  31.151  32.694  1.00  0.00     0.198 A 
ATOM     83  F   UNL A   1      39.480  30.160  32.883  1.00  0.00    -0.203 F 
ATOM     84  F   UNL A   1      35.600  32.429  29.791  1.00  0.00    -0.200 F 
ATOM     85  C   UNL A   1      36.362  31.726  31.913  1.00  0.00     0.200 A 
ATOM     86  F   UNL A   1      37.171  31.012  34.014  1.00  0.00    -0.200 F 
ATOM     87  F   UNL A   1      35.227  32.158  32.480  1.00  0.00    -0.200 F 
ENDBRANCH  53  77
BRANCH  65  88
ATOM     88  C   UNL A   1      45.143  33.372  29.736  1.00  0.00     0.064 A 
ATOM     89  C   UNL A   1      45.093  34.506  28.913  1.00  0.00     0.173 A 
ATOM     90  C   UNL A   1      45.774  33.489  30.983  1.00  0.00     0.173 A 
ATOM     91  F   UNL A   1      44.513  34.436  27.704  1.00  0.00    -0.203 F 
ATOM     92  C   UNL A   1      45.663  35.709  29.318  1.00  0.00     0.198 A 
ATOM     93  C   UNL A   1      46.321  34.701  31.396  1.00  0.00     0.198 A 
ATOM     94  F   UNL A   1      45.843  32.434  31.808  1.00  0.00    -0.203 F 
ATOM     95  F   UNL A   1      45.631  36.772  28.502  1.00  0.00    -0.200 F 
ATOM     96  C   UNL A   1      46.268  35.808  30.561  1.00  0.00     0.200 A 
ATOM     97  F   UNL A   1      46.898  34.798  32.602  1.00  0.00    -0.200 F 
ATOM     98  F   UNL A   1      46.807  36.970  30.955  1.00  0.00    -0.200 F 
ENDBRANCH  65  88
ENDBRANCH  39  40
ENDBRANCH  31  34
ENDBRANCH  29  30
ENDBRANCH  28  29
ENDBRANCH   1  28
TORSDOF 15
ENDMDL
