MODEL 1
REMARK VINA RESULT:     -12.5      0.000      0.000
REMARK SMILES O=C(NCCCCCCNC(=O)C1(NC(=O)c2ccncc2Cl)CCCCC1)c1ccc(-c2c3nc(c(-c4c(F)c(F)c(F)c(F)c4F)c4ccc([nH]4)c(-c4c(F)c(F)c(F)c(F)c4F)c4nc(c(-c5c(F)c(F)c(F)c(F)c5F)c5ccc2[nH]5)C=C4)C=C3)cc1
REMARK SMILES IDX 6 1 5 2 4 3 3 4 1 5 2 6 29 8 30 9 91 10 31 11 90 12 32 13
REMARK SMILES IDX 33 14 34 15 84 16 35 17 89 18 83 19 85 20 36 21 88 22 82 23
REMARK SMILES IDX 81 24 37 26 69 27 49 28 68 29 50 30 53 31 67 32 86 33 51 34
REMARK SMILES IDX 52 35 66 37 87 38 54 39 38 40 39 41 47 42 40 43 41 44 45 45
REMARK SMILES IDX 48 46 42 47 43 48 46 49 44 50 70 51 71 52 79 53 72 54 73 55
REMARK SMILES IDX 77 56 80 57 74 58 75 59 78 60 76 61 55 62 56 63 64 64 57 65
REMARK SMILES IDX 58 66 62 67 65 68 59 69 60 70 63 71 61 72 7 73 8 74 9 75
REMARK SMILES IDX 10 76 11 77 12 79 13 80 24 81 28 82 25 83 27 84 26 85 14 86
REMARK SMILES IDX 15 87 16 89 17 90 18 91 22 92 19 93 21 94 23 95 20 96
REMARK H PARENT 3 7 85 25 53 36 10 78 14 88
REMARK Flexibility Score: inf
ROOT
ATOM      1  C   UNL A   1      31.563  30.807  26.008  1.00  0.00     0.002 C 
ENDROOT
BRANCH   1   2
ATOM      2  C   UNL A   1      31.333  32.222  26.542  1.00  0.00     0.021 C 
BRANCH   2   3
ATOM      3  C   UNL A   1      32.519  32.833  27.273  1.00  0.00     0.116 C 
BRANCH   3   4
ATOM      4  N   UNL A   1      32.300  34.222  27.632  1.00  0.00    -0.352 N 
ATOM      5  O   UNL A   1      32.549  36.097  28.868  1.00  0.00    -0.269 OA
ATOM      6  C   UNL A   1      32.951  34.982  28.576  1.00  0.00     0.251 C 
ATOM      7  H   UNL A   1      31.589  34.684  27.130  1.00  0.00     0.163 HD
BRANCH   6   8
ATOM      8  C   UNL A   1      34.133  34.416  29.263  1.00  0.00     0.039 A 
ATOM      9  C   UNL A   1      35.416  34.610  28.749  1.00  0.00     0.014 A 
ATOM     10  C   UNL A   1      33.944  33.661  30.424  1.00  0.00     0.014 A 
ATOM     11  C   UNL A   1      36.492  33.931  29.308  1.00  0.00     0.010 A 
ATOM     12  C   UNL A   1      35.041  33.048  31.035  1.00  0.00     0.010 A 
ATOM     13  C   UNL A   1      36.318  33.146  30.461  1.00  0.00    -0.014 A 
BRANCH  13  14
ATOM     14  C   UNL A   1      37.493  32.468  31.064  1.00  0.00     0.031 A 
ATOM     15  C   UNL A   1      37.963  32.811  32.450  1.00  0.00     0.074 A 
ATOM     16  C   UNL A   1      38.122  31.511  30.356  1.00  0.00     0.049 A 
ATOM     17  N   UNL A   1      38.952  32.297  33.139  1.00  0.00    -0.248 NA
ATOM     18  C   UNL A   1      37.234  33.876  33.156  1.00  0.00     0.031 C 
ATOM     19  C   UNL A   1      37.766  31.101  28.997  1.00  0.00     0.029 A 
ATOM     20  N   UNL A   1      39.175  30.696  30.683  1.00  0.00    -0.354 N 
ATOM     21  C   UNL A   1      38.984  32.992  34.340  1.00  0.00     0.074 A 
ATOM     22  C   UNL A   1      37.927  33.980  34.282  1.00  0.00     0.031 C 
ATOM     23  C   UNL A   1      38.549  30.078  28.625  1.00  0.00     0.029 A 
ATOM     24  C   UNL A   1      39.500  29.799  29.696  1.00  0.00     0.049 A 
ATOM     25  H   UNL A   1      39.653  30.749  31.542  1.00  0.00     0.167 HD
ATOM     26  C   UNL A   1      39.816  32.817  35.396  1.00  0.00     0.037 A 
ATOM     27  C   UNL A   1      40.459  28.857  29.654  1.00  0.00     0.037 A 
ATOM     28  C   UNL A   1      40.848  31.814  35.458  1.00  0.00     0.049 A 
ATOM     29  C   UNL A   1      41.365  28.686  30.840  1.00  0.00     0.074 A 
ATOM     30  C   UNL A   1      41.713  31.527  36.501  1.00  0.00     0.029 A 
ATOM     31  N   UNL A   1      41.158  30.933  34.432  1.00  0.00    -0.354 N 
ATOM     32  N   UNL A   1      41.358  29.322  31.985  1.00  0.00    -0.248 NA
ATOM     33  C   UNL A   1      42.412  27.662  30.724  1.00  0.00     0.031 C 
ATOM     34  C   UNL A   1      42.573  30.503  36.090  1.00  0.00     0.029 A 
ATOM     35  C   UNL A   1      42.213  30.116  34.809  1.00  0.00     0.049 A 
ATOM     36  H   UNL A   1      40.698  30.894  33.563  1.00  0.00     0.167 HD
ATOM     37  C   UNL A   1      42.380  28.761  32.738  1.00  0.00     0.074 A 
ATOM     38  C   UNL A   1      42.976  27.722  31.923  1.00  0.00     0.031 C 
ATOM     39  C   UNL A   1      42.787  29.079  33.991  1.00  0.00     0.037 A 
BRANCH  26  40
ATOM     40  C   UNL A   1      39.662  33.744  36.568  1.00  0.00     0.064 A 
ATOM     41  C   UNL A   1      40.273  35.007  36.599  1.00  0.00     0.173 A 
ATOM     42  C   UNL A   1      38.855  33.379  37.658  1.00  0.00     0.173 A 
ATOM     43  F   UNL A   1      41.063  35.400  35.590  1.00  0.00    -0.203 F 
ATOM     44  C   UNL A   1      40.104  35.857  37.690  1.00  0.00     0.198 A 
ATOM     45  C   UNL A   1      38.666  34.243  38.732  1.00  0.00     0.198 A 
ATOM     46  F   UNL A   1      38.242  32.187  37.674  1.00  0.00    -0.203 F 
ATOM     47  F   UNL A   1      40.735  37.040  37.719  1.00  0.00    -0.200 F 
ATOM     48  C   UNL A   1      39.296  35.479  38.752  1.00  0.00     0.200 A 
ATOM     49  F   UNL A   1      37.875  33.880  39.752  1.00  0.00    -0.200 F 
ATOM     50  F   UNL A   1      39.130  36.301  39.797  1.00  0.00    -0.200 F 
ENDBRANCH  26  40
BRANCH  27  51
ATOM     51  C   UNL A   1      40.592  27.994  28.455  1.00  0.00     0.064 A 
ATOM     52  C   UNL A   1      41.362  28.404  27.357  1.00  0.00     0.173 A 
ATOM     53  C   UNL A   1      39.970  26.739  28.385  1.00  0.00     0.173 A 
ATOM     54  F   UNL A   1      41.962  29.603  27.370  1.00  0.00    -0.203 F 
ATOM     55  C   UNL A   1      41.492  27.596  26.229  1.00  0.00     0.198 A 
ATOM     56  C   UNL A   1      40.124  25.921  27.269  1.00  0.00     0.198 A 
ATOM     57  F   UNL A   1      39.229  26.299  29.412  1.00  0.00    -0.203 F 
ATOM     58  F   UNL A   1      42.201  28.028  25.178  1.00  0.00    -0.200 F 
ATOM     59  C   UNL A   1      40.879  26.353  26.189  1.00  0.00     0.200 A 
ATOM     60  F   UNL A   1      39.545  24.713  27.240  1.00  0.00    -0.200 F 
ATOM     61  F   UNL A   1      41.013  25.574  25.107  1.00  0.00    -0.200 F 
ENDBRANCH  27  51
BRANCH  39  62
ATOM     62  C   UNL A   1      43.902  28.260  34.572  1.00  0.00     0.064 A 
ATOM     63  C   UNL A   1      43.660  27.055  35.247  1.00  0.00     0.173 A 
ATOM     64  C   UNL A   1      45.233  28.684  34.437  1.00  0.00     0.173 A 
ATOM     65  F   UNL A   1      42.403  26.618  35.417  1.00  0.00    -0.203 F 
ATOM     66  C   UNL A   1      44.708  26.318  35.792  1.00  0.00     0.198 A 
ATOM     67  C   UNL A   1      46.281  27.929  34.958  1.00  0.00     0.198 A 
ATOM     68  F   UNL A   1      45.518  29.827  33.795  1.00  0.00    -0.203 F 
ATOM     69  F   UNL A   1      44.449  25.198  36.481  1.00  0.00    -0.200 F 
ATOM     70  C   UNL A   1      46.017  26.753  35.642  1.00  0.00     0.200 A 
ATOM     71  F   UNL A   1      47.545  28.345  34.803  1.00  0.00    -0.200 F 
ATOM     72  F   UNL A   1      47.024  26.042  36.168  1.00  0.00    -0.200 F 
ENDBRANCH  39  62
ENDBRANCH  13  14
ENDBRANCH   6   8
ENDBRANCH   3   4
ENDBRANCH   2   3
ENDBRANCH   1   2
BRANCH   1  73
ATOM     73  C   UNL A   1      32.518  29.938  26.832  1.00  0.00     0.002 C 
BRANCH  73  74
ATOM     74  C   UNL A   1      31.983  28.558  27.218  1.00  0.00     0.021 C 
BRANCH  74  75
ATOM     75  C   UNL A   1      32.792  27.386  26.685  1.00  0.00     0.116 C 
BRANCH  75  76
ATOM     76  N   UNL A   1      33.568  27.728  25.509  1.00  0.00    -0.354 N 
ATOM     77  C   UNL A   1      33.281  28.016  24.218  1.00  0.00     0.245 C 
ATOM     78  H   UNL A   1      34.534  27.758  25.695  1.00  0.00     0.163 HD
ATOM     79  O   UNL A   1      34.223  28.554  23.612  1.00  0.00    -0.272 OA
BRANCH  77  80
ATOM     80  C   UNL A   1      31.969  27.659  23.425  1.00  0.00     0.119 C 
ATOM     81  C   UNL A   1      30.813  27.141  24.303  1.00  0.00     0.038 C 
ATOM     82  C   UNL A   1      31.533  29.019  22.792  1.00  0.00     0.038 C 
ATOM     83  C   UNL A   1      29.445  27.111  23.625  1.00  0.00     0.003 C 
ATOM     84  C   UNL A   1      30.127  29.040  22.187  1.00  0.00     0.003 C 
ATOM     85  C   UNL A   1      29.072  28.503  23.143  1.00  0.00     0.000 C 
BRANCH  80  86
ATOM     86  N   UNL A   1      32.165  26.662  22.324  1.00  0.00    -0.338 N 
ATOM     87  C   UNL A   1      32.931  25.535  22.183  1.00  0.00     0.253 C 
ATOM     88  H   UNL A   1      31.623  26.860  21.526  1.00  0.00     0.164 HD
ATOM     89  O   UNL A   1      33.307  25.190  21.065  1.00  0.00    -0.269 OA
BRANCH  87  90
ATOM     90  C   UNL A   1      33.222  24.649  23.312  1.00  0.00     0.061 A 
ATOM     91  C   UNL A   1      34.538  24.566  23.766  1.00  0.00     0.035 A 
ATOM     92  C   UNL A   1      32.240  23.825  23.857  1.00  0.00     0.072 A 
ATOM     93  C   UNL A   1      34.801  23.726  24.833  1.00  0.00     0.112 A 
ATOM     94  C   UNL A   1      32.607  23.026  24.928  1.00  0.00     0.132 A 
ATOM     95  Cl  UNL A   1      30.650  23.700  23.211  1.00  0.00    -0.082 Cl
ATOM     96  N   UNL A   1      33.860  22.967  25.439  1.00  0.00    -0.263 NA
ENDBRANCH  87  90
ENDBRANCH  80  86
ENDBRANCH  77  80
ENDBRANCH  75  76
ENDBRANCH  74  75
ENDBRANCH  73  74
ENDBRANCH   1  73
TORSDOF 15
ENDMDL
MODEL 2
REMARK VINA RESULT:     -12.5      0.243      1.944
REMARK SMILES O=C(NCCCCCCNC(=O)C1(NC(=O)c2ccncc2Cl)CCCCC1)c1ccc(-c2c3nc(c(-c4c(F)c(F)c(F)c(F)c4F)c4ccc([nH]4)c(-c4c(F)c(F)c(F)c(F)c4F)c4nc(c(-c5c(F)c(F)c(F)c(F)c5F)c5ccc2[nH]5)C=C4)C=C3)cc1
REMARK SMILES IDX 6 1 5 2 4 3 3 4 1 5 2 6 29 8 30 9 91 10 31 11 90 12 32 13
REMARK SMILES IDX 33 14 34 15 84 16 35 17 89 18 83 19 85 20 36 21 88 22 82 23
REMARK SMILES IDX 81 24 37 26 69 27 49 28 68 29 50 30 53 31 67 32 86 33 51 34
REMARK SMILES IDX 52 35 66 37 87 38 54 39 38 40 39 41 47 42 40 43 41 44 45 45
REMARK SMILES IDX 48 46 42 47 43 48 46 49 44 50 70 51 71 52 79 53 72 54 73 55
REMARK SMILES IDX 77 56 80 57 74 58 75 59 78 60 76 61 55 62 56 63 64 64 57 65
REMARK SMILES IDX 58 66 62 67 65 68 59 69 60 70 63 71 61 72 7 73 8 74 9 75
REMARK SMILES IDX 10 76 11 77 12 79 13 80 24 81 28 82 25 83 27 84 26 85 14 86
REMARK SMILES IDX 15 87 16 89 17 90 18 91 22 92 19 93 21 94 23 95 20 96
REMARK H PARENT 3 7 85 25 53 36 10 78 14 88
REMARK Flexibility Score: inf
ROOT
ATOM      1  C   UNL A   1      31.633  30.703  26.234  1.00  0.00     0.002 C 
ENDROOT
BRANCH   1   2
ATOM      2  C   UNL A   1      31.402  32.146  26.687  1.00  0.00     0.021 C 
BRANCH   2   3
ATOM      3  C   UNL A   1      32.644  32.866  27.195  1.00  0.00     0.116 C 
BRANCH   3   4
ATOM      4  N   UNL A   1      32.369  34.228  27.612  1.00  0.00    -0.352 N 
ATOM      5  O   UNL A   1      32.521  36.049  28.941  1.00  0.00    -0.269 OA
ATOM      6  C   UNL A   1      32.968  34.962  28.609  1.00  0.00     0.251 C 
ATOM      7  H   UNL A   1      31.657  34.690  27.113  1.00  0.00     0.163 HD
BRANCH   6   8
ATOM      8  C   UNL A   1      34.149  34.402  29.303  1.00  0.00     0.039 A 
ATOM      9  C   UNL A   1      35.434  34.597  28.791  1.00  0.00     0.014 A 
ATOM     10  C   UNL A   1      33.959  33.652  30.467  1.00  0.00     0.014 A 
ATOM     11  C   UNL A   1      36.510  33.922  29.357  1.00  0.00     0.010 A 
ATOM     12  C   UNL A   1      35.054  33.044  31.083  1.00  0.00     0.010 A 
ATOM     13  C   UNL A   1      36.333  33.142  30.513  1.00  0.00    -0.014 A 
BRANCH  13  14
ATOM     14  C   UNL A   1      37.508  32.469  31.123  1.00  0.00     0.031 A 
ATOM     15  C   UNL A   1      37.971  32.818  32.510  1.00  0.00     0.074 A 
ATOM     16  C   UNL A   1      38.143  31.513  30.420  1.00  0.00     0.049 A 
ATOM     17  N   UNL A   1      38.958  32.309  33.204  1.00  0.00    -0.248 NA
ATOM     18  C   UNL A   1      37.236  33.883  33.210  1.00  0.00     0.031 C 
ATOM     19  C   UNL A   1      37.793  31.098  29.060  1.00  0.00     0.029 A 
ATOM     20  N   UNL A   1      39.197  30.702  30.754  1.00  0.00    -0.354 N 
ATOM     21  C   UNL A   1      38.983  33.008  34.403  1.00  0.00     0.074 A 
ATOM     22  C   UNL A   1      37.924  33.992  34.338  1.00  0.00     0.031 C 
ATOM     23  C   UNL A   1      38.581  30.075  28.695  1.00  0.00     0.029 A 
ATOM     24  C   UNL A   1      39.528  29.802  29.771  1.00  0.00     0.049 A 
ATOM     25  H   UNL A   1      39.671  30.759  31.614  1.00  0.00     0.167 HD
ATOM     26  C   UNL A   1      39.812  32.838  35.463  1.00  0.00     0.037 A 
ATOM     27  C   UNL A   1      40.491  28.863  29.735  1.00  0.00     0.037 A 
ATOM     28  C   UNL A   1      40.847  31.838  35.532  1.00  0.00     0.049 A 
ATOM     29  C   UNL A   1      41.392  28.699  30.925  1.00  0.00     0.074 A 
ATOM     30  C   UNL A   1      41.708  31.557  36.580  1.00  0.00     0.029 A 
ATOM     31  N   UNL A   1      41.164  30.956  34.510  1.00  0.00    -0.354 N 
ATOM     32  N   UNL A   1      41.379  29.338  32.069  1.00  0.00    -0.248 NA
ATOM     33  C   UNL A   1      42.443  27.678  30.817  1.00  0.00     0.031 C 
ATOM     34  C   UNL A   1      42.574  30.535  36.174  1.00  0.00     0.029 A 
ATOM     35  C   UNL A   1      42.220  30.142  34.894  1.00  0.00     0.049 A 
ATOM     36  H   UNL A   1      40.707  30.913  33.639  1.00  0.00     0.167 HD
ATOM     37  C   UNL A   1      42.399  28.782  32.827  1.00  0.00     0.074 A 
ATOM     38  C   UNL A   1      43.001  27.743  32.018  1.00  0.00     0.031 C 
ATOM     39  C   UNL A   1      42.800  29.105  34.081  1.00  0.00     0.037 A 
BRANCH  26  40
ATOM     40  C   UNL A   1      39.650  33.768  36.632  1.00  0.00     0.064 A 
ATOM     41  C   UNL A   1      38.847  33.439  37.734  1.00  0.00     0.173 A 
ATOM     42  C   UNL A   1      40.342  34.989  36.667  1.00  0.00     0.173 A 
ATOM     43  F   UNL A   1      38.154  32.291  37.747  1.00  0.00    -0.203 F 
ATOM     44  C   UNL A   1      38.722  34.309  38.815  1.00  0.00     0.198 A 
ATOM     45  C   UNL A   1      40.237  35.843  37.761  1.00  0.00     0.198 A 
ATOM     46  F   UNL A   1      41.130  35.348  35.642  1.00  0.00    -0.203 F 
ATOM     47  F   UNL A   1      37.913  33.994  39.837  1.00  0.00    -0.200 F 
ATOM     48  C   UNL A   1      39.422  35.507  38.831  1.00  0.00     0.200 A 
ATOM     49  F   UNL A   1      40.925  36.994  37.779  1.00  0.00    -0.200 F 
ATOM     50  F   UNL A   1      39.305  36.340  39.874  1.00  0.00    -0.200 F 
ENDBRANCH  26  40
BRANCH  27  51
ATOM     51  C   UNL A   1      40.631  27.997  28.539  1.00  0.00     0.064 A 
ATOM     52  C   UNL A   1      39.986  26.754  28.473  1.00  0.00     0.173 A 
ATOM     53  C   UNL A   1      41.396  28.396  27.434  1.00  0.00     0.173 A 
ATOM     54  F   UNL A   1      39.257  26.321  29.512  1.00  0.00    -0.203 F 
ATOM     55  C   UNL A   1      40.113  25.938  27.351  1.00  0.00     0.198 A 
ATOM     56  C   UNL A   1      41.499  27.593  26.301  1.00  0.00     0.198 A 
ATOM     57  F   UNL A   1      42.027  29.580  27.446  1.00  0.00    -0.203 F 
ATOM     58  F   UNL A   1      39.518  24.738  27.328  1.00  0.00    -0.200 F 
ATOM     59  C   UNL A   1      40.863  26.361  26.264  1.00  0.00     0.200 A 
ATOM     60  F   UNL A   1      42.210  28.012  25.246  1.00  0.00    -0.200 F 
ATOM     61  F   UNL A   1      40.977  25.579  25.182  1.00  0.00    -0.200 F 
ENDBRANCH  27  51
BRANCH  39  62
ATOM     62  C   UNL A   1      43.915  28.291  34.669  1.00  0.00     0.064 A 
ATOM     63  C   UNL A   1      45.256  28.681  34.551  1.00  0.00     0.173 A 
ATOM     64  C   UNL A   1      43.631  27.110  35.373  1.00  0.00     0.173 A 
ATOM     65  F   UNL A   1      45.578  29.793  33.874  1.00  0.00    -0.203 F 
ATOM     66  C   UNL A   1      46.277  27.904  35.092  1.00  0.00     0.198 A 
ATOM     67  C   UNL A   1      44.652  26.350  35.937  1.00  0.00     0.198 A 
ATOM     68  F   UNL A   1      42.364  26.696  35.517  1.00  0.00    -0.203 F 
ATOM     69  F   UNL A   1      47.556  28.267  34.921  1.00  0.00    -0.200 F 
ATOM     70  C   UNL A   1      45.974  26.742  35.788  1.00  0.00     0.200 A 
ATOM     71  F   UNL A   1      44.357  25.235  36.618  1.00  0.00    -0.200 F 
ATOM     72  F   UNL A   1      46.958  25.995  36.306  1.00  0.00    -0.200 F 
ENDBRANCH  39  62
ENDBRANCH  13  14
ENDBRANCH   6   8
ENDBRANCH   3   4
ENDBRANCH   2   3
ENDBRANCH   1   2
BRANCH   1  73
ATOM     73  C   UNL A   1      33.006  30.117  26.575  1.00  0.00     0.002 C 
BRANCH  73  74
ATOM     74  C   UNL A   1      32.983  28.760  27.282  1.00  0.00     0.021 C 
BRANCH  74  75
ATOM     75  C   UNL A   1      33.087  27.555  26.360  1.00  0.00     0.116 C 
BRANCH  75  76
ATOM     76  N   UNL A   1      33.792  27.850  25.128  1.00  0.00    -0.354 N 
ATOM     77  C   UNL A   1      33.427  28.156  23.861  1.00  0.00     0.245 C 
ATOM     78  H   UNL A   1      34.769  27.822  25.241  1.00  0.00     0.163 HD
ATOM     79  O   UNL A   1      34.352  28.636  23.184  1.00  0.00    -0.272 OA
BRANCH  77  80
ATOM     80  C   UNL A   1      32.041  27.880  23.169  1.00  0.00     0.119 C 
ATOM     81  C   UNL A   1      30.923  27.437  24.134  1.00  0.00     0.038 C 
ATOM     82  C   UNL A   1      31.644  29.262  22.560  1.00  0.00     0.038 C 
ATOM     83  C   UNL A   1      29.510  27.490  23.558  1.00  0.00     0.003 C 
ATOM     84  C   UNL A   1      30.202  29.369  22.060  1.00  0.00     0.003 C 
ATOM     85  C   UNL A   1      29.189  28.902  23.095  1.00  0.00     0.000 C 
BRANCH  80  86
ATOM     86  N   UNL A   1      32.093  26.869  22.064  1.00  0.00    -0.338 N 
ATOM     87  C   UNL A   1      32.774  25.696  21.876  1.00  0.00     0.253 C 
ATOM     88  H   UNL A   1      31.507  27.099  21.306  1.00  0.00     0.164 HD
ATOM     89  O   UNL A   1      33.045  25.325  20.735  1.00  0.00    -0.269 OA
BRANCH  87  90
ATOM     90  C   UNL A   1      33.091  24.796  22.986  1.00  0.00     0.061 A 
ATOM     91  C   UNL A   1      34.429  24.636  23.348  1.00  0.00     0.035 A 
ATOM     92  C   UNL A   1      32.104  24.033  23.603  1.00  0.00     0.072 A 
ATOM     93  C   UNL A   1      34.716  23.784  24.398  1.00  0.00     0.112 A 
ATOM     94  C   UNL A   1      32.497  23.215  24.651  1.00  0.00     0.132 A 
ATOM     95  Cl  UNL A   1      30.467  24.000  23.072  1.00  0.00    -0.082 Cl
ATOM     96  N   UNL A   1      33.778  23.083  25.074  1.00  0.00    -0.263 NA
ENDBRANCH  87  90
ENDBRANCH  80  86
ENDBRANCH  77  80
ENDBRANCH  75  76
ENDBRANCH  74  75
ENDBRANCH  73  74
ENDBRANCH   1  73
TORSDOF 15
ENDMDL
MODEL 3
REMARK VINA RESULT:     -12.5      5.305     10.871
REMARK SMILES O=C(NCCCCCCNC(=O)C1(NC(=O)c2ccncc2Cl)CCCCC1)c1ccc(-c2c3nc(c(-c4c(F)c(F)c(F)c(F)c4F)c4ccc([nH]4)c(-c4c(F)c(F)c(F)c(F)c4F)c4nc(c(-c5c(F)c(F)c(F)c(F)c5F)c5ccc2[nH]5)C=C4)C=C3)cc1
REMARK SMILES IDX 6 1 5 2 4 3 3 4 1 5 2 6 29 8 30 9 91 10 31 11 90 12 32 13
REMARK SMILES IDX 33 14 34 15 84 16 35 17 89 18 83 19 85 20 36 21 88 22 82 23
REMARK SMILES IDX 81 24 37 26 69 27 49 28 68 29 50 30 53 31 67 32 86 33 51 34
REMARK SMILES IDX 52 35 66 37 87 38 54 39 38 40 39 41 47 42 40 43 41 44 45 45
REMARK SMILES IDX 48 46 42 47 43 48 46 49 44 50 70 51 71 52 79 53 72 54 73 55
REMARK SMILES IDX 77 56 80 57 74 58 75 59 78 60 76 61 55 62 56 63 64 64 57 65
REMARK SMILES IDX 58 66 62 67 65 68 59 69 60 70 63 71 61 72 7 73 8 74 9 75
REMARK SMILES IDX 10 76 11 77 12 79 13 80 24 81 28 82 25 83 27 84 26 85 14 86
REMARK SMILES IDX 15 87 16 89 17 90 18 91 22 92 19 93 21 94 23 95 20 96
REMARK H PARENT 3 7 85 25 53 36 10 78 14 88
REMARK Flexibility Score: inf
ROOT
ATOM      1  C   UNL A   1      36.772  20.739  24.995  1.00  0.00     0.002 C 
ENDROOT
BRANCH   1   2
ATOM      2  C   UNL A   1      37.972  19.791  24.941  1.00  0.00     0.021 C 
BRANCH   2   3
ATOM      3  C   UNL A   1      39.161  20.212  25.793  1.00  0.00     0.116 C 
BRANCH   3   4
ATOM      4  N   UNL A   1      40.178  19.180  25.883  1.00  0.00    -0.352 N 
ATOM      5  O   UNL A   1      42.280  18.360  25.992  1.00  0.00    -0.269 OA
ATOM      6  C   UNL A   1      41.530  19.318  26.093  1.00  0.00     0.251 C 
ATOM      7  H   UNL A   1      39.855  18.255  25.778  1.00  0.00     0.163 HD
BRANCH   6   8
ATOM      8  C   UNL A   1      42.074  20.655  26.415  1.00  0.00     0.039 A 
ATOM      9  C   UNL A   1      42.278  21.041  27.742  1.00  0.00     0.014 A 
ATOM     10  C   UNL A   1      42.359  21.540  25.371  1.00  0.00     0.014 A 
ATOM     11  C   UNL A   1      42.625  22.355  28.031  1.00  0.00     0.010 A 
ATOM     12  C   UNL A   1      42.790  22.836  25.662  1.00  0.00     0.010 A 
ATOM     13  C   UNL A   1      42.890  23.267  26.995  1.00  0.00    -0.014 A 
BRANCH  13  14
ATOM     14  C   UNL A   1      43.303  24.653  27.333  1.00  0.00     0.031 A 
ATOM     15  C   UNL A   1      44.693  25.144  27.036  1.00  0.00     0.074 A 
ATOM     16  C   UNL A   1      42.399  25.481  27.887  1.00  0.00     0.049 A 
ATOM     17  N   UNL A   1      45.211  26.330  27.239  1.00  0.00    -0.248 NA
ATOM     18  C   UNL A   1      45.630  24.178  26.443  1.00  0.00     0.031 C 
ATOM     19  C   UNL A   1      41.024  25.113  28.232  1.00  0.00     0.029 A 
ATOM     20  N   UNL A   1      42.487  26.803  28.239  1.00  0.00    -0.354 N 
ATOM     21  C   UNL A   1      46.534  26.245  26.828  1.00  0.00     0.074 A 
ATOM     22  C   UNL A   1      46.749  24.886  26.382  1.00  0.00     0.031 C 
ATOM     23  C   UNL A   1      40.382  26.195  28.696  1.00  0.00     0.029 A 
ATOM     24  C   UNL A   1      41.314  27.316  28.736  1.00  0.00     0.049 A 
ATOM     25  H   UNL A   1      43.311  27.333  28.146  1.00  0.00     0.167 HD
ATOM     26  C   UNL A   1      47.480  27.217  26.821  1.00  0.00     0.037 A 
ATOM     27  C   UNL A   1      41.021  28.552  29.179  1.00  0.00     0.037 A 
ATOM     28  C   UNL A   1      47.252  28.576  27.241  1.00  0.00     0.049 A 
ATOM     29  C   UNL A   1      42.090  29.607  29.156  1.00  0.00     0.074 A 
ATOM     30  C   UNL A   1      48.133  29.644  27.227  1.00  0.00     0.029 A 
ATOM     31  N   UNL A   1      46.056  29.055  27.754  1.00  0.00    -0.354 N 
ATOM     32  N   UNL A   1      43.325  29.525  28.728  1.00  0.00    -0.248 NA
ATOM     33  C   UNL A   1      41.720  30.929  29.680  1.00  0.00     0.031 C 
ATOM     34  C   UNL A   1      47.483  30.757  27.773  1.00  0.00     0.029 A 
ATOM     35  C   UNL A   1      46.181  30.397  28.078  1.00  0.00     0.049 A 
ATOM     36  H   UNL A   1      45.237  28.520  27.871  1.00  0.00     0.167 HD
ATOM     37  C   UNL A   1      43.874  30.786  28.904  1.00  0.00     0.074 A 
ATOM     38  C   UNL A   1      42.831  31.620  29.466  1.00  0.00     0.031 C 
ATOM     39  C   UNL A   1      45.129  31.215  28.626  1.00  0.00     0.037 A 
BRANCH  26  40
ATOM     40  C   UNL A   1      48.861  26.843  26.361  1.00  0.00     0.064 A 
ATOM     41  C   UNL A   1      49.810  26.294  27.237  1.00  0.00     0.173 A 
ATOM     42  C   UNL A   1      49.224  26.997  25.014  1.00  0.00     0.173 A 
ATOM     43  F   UNL A   1      49.519  26.136  28.536  1.00  0.00    -0.203 F 
ATOM     44  C   UNL A   1      51.080  25.940  26.786  1.00  0.00     0.198 A 
ATOM     45  C   UNL A   1      50.484  26.616  24.562  1.00  0.00     0.198 A 
ATOM     46  F   UNL A   1      48.352  27.509  24.133  1.00  0.00    -0.203 F 
ATOM     47  F   UNL A   1      51.986  25.461  27.650  1.00  0.00    -0.200 F 
ATOM     48  C   UNL A   1      51.414  26.094  25.449  1.00  0.00     0.200 A 
ATOM     49  F   UNL A   1      50.801  26.755  23.266  1.00  0.00    -0.200 F 
ATOM     50  F   UNL A   1      52.634  25.747  25.016  1.00  0.00    -0.200 F 
ENDBRANCH  26  40
BRANCH  27  51
ATOM     51  C   UNL A   1      39.651  28.857  29.659  1.00  0.00     0.064 A 
ATOM     52  C   UNL A   1      38.684  29.377  28.787  1.00  0.00     0.173 A 
ATOM     53  C   UNL A   1      39.273  28.622  30.988  1.00  0.00     0.173 A 
ATOM     54  F   UNL A   1      39.003  29.635  27.510  1.00  0.00    -0.203 F 
ATOM     55  C   UNL A   1      37.395  29.663  29.232  1.00  0.00     0.198 A 
ATOM     56  C   UNL A   1      37.976  28.881  31.425  1.00  0.00     0.198 A 
ATOM     57  F   UNL A   1      40.160  28.118  31.859  1.00  0.00    -0.203 F 
ATOM     58  F   UNL A   1      36.501  30.196  28.388  1.00  0.00    -0.200 F 
ATOM     59  C   UNL A   1      37.041  29.408  30.548  1.00  0.00     0.200 A 
ATOM     60  F   UNL A   1      37.632  28.617  32.693  1.00  0.00    -0.200 F 
ATOM     61  F   UNL A   1      35.798  29.675  30.972  1.00  0.00    -0.200 F 
ENDBRANCH  27  51
BRANCH  39  62
ATOM     62  C   UNL A   1      45.426  32.664  28.883  1.00  0.00     0.064 A 
ATOM     63  C   UNL A   1      45.186  33.650  27.916  1.00  0.00     0.173 A 
ATOM     64  C   UNL A   1      45.946  33.068  30.123  1.00  0.00     0.173 A 
ATOM     65  F   UNL A   1      44.706  33.310  26.711  1.00  0.00    -0.203 F 
ATOM     66  C   UNL A   1      45.482  34.986  28.170  1.00  0.00     0.198 A 
ATOM     67  C   UNL A   1      46.214  34.409  30.383  1.00  0.00     0.198 A 
ATOM     68  F   UNL A   1      46.189  32.163  31.082  1.00  0.00    -0.203 F 
ATOM     69  F   UNL A   1      45.296  35.906  27.212  1.00  0.00    -0.200 F 
ATOM     70  C   UNL A   1      45.991  35.365  29.404  1.00  0.00     0.200 A 
ATOM     71  F   UNL A   1      46.695  34.774  31.579  1.00  0.00    -0.200 F 
ATOM     72  F   UNL A   1      46.276  36.652  29.646  1.00  0.00    -0.200 F 
ENDBRANCH  39  62
ENDBRANCH  13  14
ENDBRANCH   6   8
ENDBRANCH   3   4
ENDBRANCH   2   3
ENDBRANCH   1   2
BRANCH   1  73
ATOM     73  C   UNL A   1      36.876  21.985  24.110  1.00  0.00     0.002 C 
BRANCH  73  74
ATOM     74  C   UNL A   1      37.015  23.312  24.858  1.00  0.00     0.021 C 
BRANCH  74  75
ATOM     75  C   UNL A   1      35.704  24.035  25.127  1.00  0.00     0.116 C 
BRANCH  75  76
ATOM     76  N   UNL A   1      35.097  23.649  26.385  1.00  0.00    -0.354 N 
ATOM     77  C   UNL A   1      34.183  22.726  26.769  1.00  0.00     0.245 C 
ATOM     78  H   UNL A   1      35.431  24.183  27.141  1.00  0.00     0.163 HD
ATOM     79  O   UNL A   1      34.172  22.523  27.995  1.00  0.00    -0.272 OA
BRANCH  77  80
ATOM     80  C   UNL A   1      33.116  22.002  25.867  1.00  0.00     0.119 C 
ATOM     81  C   UNL A   1      33.338  22.175  24.352  1.00  0.00     0.038 C 
ATOM     82  C   UNL A   1      33.293  20.491  26.219  1.00  0.00     0.038 C 
ATOM     83  C   UNL A   1      32.538  21.223  23.465  1.00  0.00     0.003 C 
ATOM     84  C   UNL A   1      32.575  19.511  25.288  1.00  0.00     0.003 C 
ATOM     85  C   UNL A   1      32.867  19.782  23.819  1.00  0.00     0.000 C 
BRANCH  80  86
ATOM     86  N   UNL A   1      31.698  22.394  26.150  1.00  0.00    -0.338 N 
ATOM     87  C   UNL A   1      31.069  23.586  26.397  1.00  0.00     0.253 C 
ATOM     88  H   UNL A   1      31.082  21.626  26.162  1.00  0.00     0.164 HD
ATOM     89  O   UNL A   1      30.050  23.607  27.082  1.00  0.00    -0.269 OA
BRANCH  87  90
ATOM     90  C   UNL A   1      31.503  24.836  25.768  1.00  0.00     0.061 A 
ATOM     91  C   UNL A   1      32.109  25.804  26.569  1.00  0.00     0.035 A 
ATOM     92  C   UNL A   1      31.226  25.107  24.431  1.00  0.00     0.072 A 
ATOM     93  C   UNL A   1      32.515  26.980  25.965  1.00  0.00     0.112 A 
ATOM     94  C   UNL A   1      31.682  26.313  23.922  1.00  0.00     0.132 A 
ATOM     95  Cl  UNL A   1      30.287  24.066  23.433  1.00  0.00    -0.082 Cl
ATOM     96  N   UNL A   1      32.333  27.250  24.652  1.00  0.00    -0.263 NA
ENDBRANCH  87  90
ENDBRANCH  80  86
ENDBRANCH  77  80
ENDBRANCH  75  76
ENDBRANCH  74  75
ENDBRANCH  73  74
ENDBRANCH   1  73
TORSDOF 15
ENDMDL
