MODEL 1
REMARK VINA RESULT:     -11.1      0.000      0.000
REMARK SMILES Cc1n[nH]c(C(=O)NCCCCCCNC(=O)c2ccc(-c3c4nc(c(-c5c(F)c(F)c(F)c(F)c5F)c5ccc([nH]5)c(-c5c(F)c(F)c(F)c(F)c5F)c5nc(c(-c6c(F)c(F)c(F)c(F)c6F)c6ccc3[nH]6)C=C5)C=C4)cc2)c1Br
REMARK SMILES IDX 12 1 11 2 10 3 9 4 8 5 6 6 7 7 5 9 1 10 2 11 3 12 81 13 4 14
REMARK SMILES IDX 82 15 13 17 14 18 15 19 16 20 17 22 18 23 19 24 80 25 20 26
REMARK SMILES IDX 79 27 21 28 22 29 23 30 73 31 24 32 78 33 72 34 74 35 25 36
REMARK SMILES IDX 77 37 71 38 70 39 26 41 58 42 38 43 57 44 39 45 42 46 56 47
REMARK SMILES IDX 75 48 40 49 41 50 55 52 76 53 43 54 27 55 28 56 36 57 29 58
REMARK SMILES IDX 30 59 34 60 37 61 31 62 32 63 35 64 33 65 59 66 60 67 68 68
REMARK SMILES IDX 61 69 62 70 66 71 69 72 63 73 64 74 67 75 65 76 44 77 45 78
REMARK SMILES IDX 53 79 46 80 47 81 51 82 54 83 48 84 49 85 52 86 50 87
REMARK H PARENT 8 8 4 16 15 21 74 40 42 51
REMARK Flexibility Score: inf
ROOT
ATOM      1  C   UNL A   1      40.572  21.422  26.853  1.00  0.00     0.002 C 
ENDROOT
BRANCH   1   2
ATOM      2  C   UNL A   1      39.290  21.901  26.151  1.00  0.00     0.002 C 
BRANCH   2   3
ATOM      3  C   UNL A   1      38.908  23.368  26.391  1.00  0.00     0.021 C 
BRANCH   3   4
ATOM      4  C   UNL A   1      37.483  23.723  25.967  1.00  0.00     0.116 C 
BRANCH   4   5
ATOM      5  N   UNL A   1      37.295  23.508  24.547  1.00  0.00    -0.351 N 
ATOM      6  C   UNL A   1      36.281  23.074  23.739  1.00  0.00     0.270 C 
ATOM      7  O   UNL A   1      36.588  23.024  22.546  1.00  0.00    -0.267 OA
ATOM      8  H   UNL A   1      38.105  23.732  24.033  1.00  0.00     0.163 HD
BRANCH   6   9
ATOM      9  C   UNL A   1      34.962  22.730  24.213  1.00  0.00     0.137 A 
ATOM     10  C   UNL A   1      31.618  23.152  25.752  1.00  0.00     0.070 C 
ATOM     11  C   UNL A   1      32.895  22.763  25.106  1.00  0.00     0.074 A 
ATOM     12  N   UNL A   1      33.133  21.483  24.810  1.00  0.00    -0.179 NA
ATOM     13  C   UNL A   1      33.989  23.570  24.731  1.00  0.00     0.071 A 
ATOM     14  N   UNL A   1      34.350  21.506  24.247  1.00  0.00    -0.272 N 
ATOM     15  Br  UNL A   1      34.030  25.435  24.961  1.00  0.00    -0.046 Br
ATOM     16  H   UNL A   1      34.776  20.698  23.881  1.00  0.00     0.190 HD
ENDBRANCH   6   9
ENDBRANCH   4   5
ENDBRANCH   3   4
ENDBRANCH   2   3
ENDBRANCH   1   2
BRANCH   1  17
ATOM     17  C   UNL A   1      41.152  20.086  26.368  1.00  0.00     0.021 C 
BRANCH  17  18
ATOM     18  C   UNL A   1      42.565  19.817  26.861  1.00  0.00     0.116 C 
BRANCH  18  19
ATOM     19  N   UNL A   1      43.509  19.627  25.763  1.00  0.00    -0.352 N 
ATOM     20  C   UNL A   1      44.044  20.590  24.928  1.00  0.00     0.251 C 
ATOM     21  H   UNL A   1      43.801  18.700  25.598  1.00  0.00     0.163 HD
ATOM     22  O   UNL A   1      44.507  20.308  23.839  1.00  0.00    -0.269 OA
BRANCH  20  23
ATOM     23  C   UNL A   1      44.050  21.983  25.405  1.00  0.00     0.039 A 
ATOM     24  C   UNL A   1      43.143  22.927  24.915  1.00  0.00     0.014 A 
ATOM     25  C   UNL A   1      44.968  22.312  26.397  1.00  0.00     0.014 A 
ATOM     26  C   UNL A   1      43.113  24.192  25.497  1.00  0.00     0.010 A 
ATOM     27  C   UNL A   1      44.839  23.500  27.064  1.00  0.00     0.010 A 
ATOM     28  C   UNL A   1      43.952  24.463  26.587  1.00  0.00    -0.014 A 
BRANCH  28  29
ATOM     29  C   UNL A   1      43.827  25.701  27.350  1.00  0.00     0.031 A 
ATOM     30  C   UNL A   1      44.812  26.758  26.975  1.00  0.00     0.074 A 
ATOM     31  C   UNL A   1      42.734  25.946  28.110  1.00  0.00     0.049 A 
ATOM     32  N   UNL A   1      45.672  27.353  27.736  1.00  0.00    -0.248 NA
ATOM     33  C   UNL A   1      44.946  27.114  25.549  1.00  0.00     0.031 C 
ATOM     34  C   UNL A   1      41.560  25.081  28.293  1.00  0.00     0.029 A 
ATOM     35  N   UNL A   1      42.369  27.075  28.777  1.00  0.00    -0.354 N 
ATOM     36  C   UNL A   1      46.314  28.298  26.932  1.00  0.00     0.074 A 
ATOM     37  C   UNL A   1      45.962  27.977  25.577  1.00  0.00     0.031 C 
ATOM     38  C   UNL A   1      40.533  25.801  28.792  1.00  0.00     0.029 A 
ATOM     39  C   UNL A   1      41.022  27.124  29.126  1.00  0.00     0.049 A 
ATOM     40  H   UNL A   1      43.004  27.795  28.993  1.00  0.00     0.167 HD
ATOM     41  C   UNL A   1      46.856  29.421  27.481  1.00  0.00     0.037 A 
ATOM     42  C   UNL A   1      40.345  28.189  29.626  1.00  0.00     0.037 A 
ATOM     43  C   UNL A   1      47.042  29.252  28.901  1.00  0.00     0.049 A 
ATOM     44  C   UNL A   1      41.355  29.134  30.155  1.00  0.00     0.074 A 
ATOM     45  C   UNL A   1      47.785  28.409  29.702  1.00  0.00     0.029 A 
ATOM     46  N   UNL A   1      46.097  29.812  29.722  1.00  0.00    -0.354 N 
ATOM     47  N   UNL A   1      42.111  28.882  31.186  1.00  0.00    -0.248 NA
ATOM     48  C   UNL A   1      41.838  30.175  29.262  1.00  0.00     0.031 C 
ATOM     49  C   UNL A   1      46.964  28.162  30.843  1.00  0.00     0.029 A 
ATOM     50  C   UNL A   1      45.799  28.918  30.712  1.00  0.00     0.049 A 
ATOM     51  H   UNL A   1      45.700  30.708  29.615  1.00  0.00     0.167 HD
ATOM     52  C   UNL A   1      43.353  29.393  30.840  1.00  0.00     0.074 A 
ATOM     53  C   UNL A   1      43.098  30.266  29.696  1.00  0.00     0.031 C 
ATOM     54  C   UNL A   1      44.496  28.824  31.328  1.00  0.00     0.037 A 
BRANCH  41  55
ATOM     55  C   UNL A   1      46.795  30.805  26.854  1.00  0.00     0.064 A 
ATOM     56  C   UNL A   1      47.965  31.598  26.862  1.00  0.00     0.173 A 
ATOM     57  C   UNL A   1      45.601  31.502  26.573  1.00  0.00     0.173 A 
ATOM     58  F   UNL A   1      49.164  31.047  27.105  1.00  0.00    -0.203 F 
ATOM     59  C   UNL A   1      47.920  32.989  26.734  1.00  0.00     0.198 A 
ATOM     60  C   UNL A   1      45.568  32.886  26.396  1.00  0.00     0.198 A 
ATOM     61  F   UNL A   1      44.404  30.910  26.562  1.00  0.00    -0.203 F 
ATOM     62  F   UNL A   1      49.038  33.708  26.906  1.00  0.00    -0.200 F 
ATOM     63  C   UNL A   1      46.719  33.634  26.519  1.00  0.00     0.200 A 
ATOM     64  F   UNL A   1      44.389  33.495  26.196  1.00  0.00    -0.200 F 
ATOM     65  F   UNL A   1      46.659  34.971  26.476  1.00  0.00    -0.200 F 
ENDBRANCH  41  55
BRANCH  42  66
ATOM     66  C   UNL A   1      38.930  28.575  29.406  1.00  0.00     0.064 A 
ATOM     67  C   UNL A   1      38.051  28.766  30.485  1.00  0.00     0.173 A 
ATOM     68  C   UNL A   1      38.487  29.037  28.151  1.00  0.00     0.173 A 
ATOM     69  F   UNL A   1      38.415  28.401  31.722  1.00  0.00    -0.203 F 
ATOM     70  C   UNL A   1      36.812  29.399  30.321  1.00  0.00     0.198 A 
ATOM     71  C   UNL A   1      37.250  29.664  27.987  1.00  0.00     0.198 A 
ATOM     72  F   UNL A   1      39.287  28.978  27.076  1.00  0.00    -0.203 F 
ATOM     73  F   UNL A   1      36.028  29.618  31.385  1.00  0.00    -0.200 F 
ATOM     74  C   UNL A   1      36.418  29.856  29.074  1.00  0.00     0.200 A 
ATOM     75  F   UNL A   1      36.900  30.137  26.783  1.00  0.00    -0.200 F 
ATOM     76  F   UNL A   1      35.262  30.518  28.928  1.00  0.00    -0.200 F 
ENDBRANCH  42  66
BRANCH  54  77
ATOM     77  C   UNL A   1      44.358  27.850  32.466  1.00  0.00     0.064 A 
ATOM     78  C   UNL A   1      44.230  26.459  32.310  1.00  0.00     0.173 A 
ATOM     79  C   UNL A   1      44.502  28.341  33.770  1.00  0.00     0.173 A 
ATOM     80  F   UNL A   1      44.182  25.901  31.096  1.00  0.00    -0.203 F 
ATOM     81  C   UNL A   1      44.207  25.606  33.413  1.00  0.00     0.198 A 
ATOM     82  C   UNL A   1      44.518  27.485  34.867  1.00  0.00     0.198 A 
ATOM     83  F   UNL A   1      44.681  29.655  33.976  1.00  0.00    -0.203 F 
ATOM     84  F   UNL A   1      44.073  24.283  33.237  1.00  0.00    -0.200 F 
ATOM     85  C   UNL A   1      44.360  26.120  34.690  1.00  0.00     0.200 A 
ATOM     86  F   UNL A   1      44.716  27.982  36.095  1.00  0.00    -0.200 F 
ATOM     87  F   UNL A   1      44.382  25.297  35.748  1.00  0.00    -0.200 F 
ENDBRANCH  54  77
ENDBRANCH  28  29
ENDBRANCH  20  23
ENDBRANCH  18  19
ENDBRANCH  17  18
ENDBRANCH   1  17
TORSDOF 13
ENDMDL
MODEL 2
REMARK VINA RESULT:     -11.0      2.272      3.257
REMARK SMILES Cc1n[nH]c(C(=O)NCCCCCCNC(=O)c2ccc(-c3c4nc(c(-c5c(F)c(F)c(F)c(F)c5F)c5ccc([nH]5)c(-c5c(F)c(F)c(F)c(F)c5F)c5nc(c(-c6c(F)c(F)c(F)c(F)c6F)c6ccc3[nH]6)C=C5)C=C4)cc2)c1Br
REMARK SMILES IDX 12 1 11 2 10 3 9 4 8 5 6 6 7 7 5 9 1 10 2 11 3 12 81 13 4 14
REMARK SMILES IDX 82 15 13 17 14 18 15 19 16 20 17 22 18 23 19 24 80 25 20 26
REMARK SMILES IDX 79 27 21 28 22 29 23 30 73 31 24 32 78 33 72 34 74 35 25 36
REMARK SMILES IDX 77 37 71 38 70 39 26 41 58 42 38 43 57 44 39 45 42 46 56 47
REMARK SMILES IDX 75 48 40 49 41 50 55 52 76 53 43 54 27 55 28 56 36 57 29 58
REMARK SMILES IDX 30 59 34 60 37 61 31 62 32 63 35 64 33 65 59 66 60 67 68 68
REMARK SMILES IDX 61 69 62 70 66 71 69 72 63 73 64 74 67 75 65 76 44 77 45 78
REMARK SMILES IDX 53 79 46 80 47 81 51 82 54 83 48 84 49 85 52 86 50 87
REMARK H PARENT 8 8 4 16 15 21 74 40 42 51
REMARK Flexibility Score: inf
ROOT
ATOM      1  C   UNL A   1      38.149  23.163  26.147  1.00  0.00     0.002 C 
ENDROOT
BRANCH   1   2
ATOM      2  C   UNL A   1      36.639  23.312  25.899  1.00  0.00     0.002 C 
BRANCH   2   3
ATOM      3  C   UNL A   1      35.862  22.002  25.709  1.00  0.00     0.021 C 
BRANCH   3   4
ATOM      4  C   UNL A   1      34.897  22.011  24.524  1.00  0.00     0.116 C 
BRANCH   4   5
ATOM      5  N   UNL A   1      33.861  21.014  24.691  1.00  0.00    -0.351 N 
ATOM      6  C   UNL A   1      32.604  20.975  25.230  1.00  0.00     0.270 C 
ATOM      7  O   UNL A   1      32.077  19.862  25.173  1.00  0.00    -0.267 OA
ATOM      8  H   UNL A   1      34.129  20.141  24.322  1.00  0.00     0.163 HD
BRANCH   6   9
ATOM      9  C   UNL A   1      31.932  22.121  25.793  1.00  0.00     0.137 A 
ATOM     10  C   UNL A   1      30.225  25.407  25.935  1.00  0.00     0.070 C 
ATOM     11  C   UNL A   1      30.878  24.086  26.106  1.00  0.00     0.074 A 
ATOM     12  N   UNL A   1      31.085  23.596  27.331  1.00  0.00    -0.179 NA
ATOM     13  C   UNL A   1      31.363  23.196  25.127  1.00  0.00     0.071 A 
ATOM     14  N   UNL A   1      31.676  22.413  27.105  1.00  0.00    -0.272 N 
ATOM     15  Br  UNL A   1      31.236  23.515  23.279  1.00  0.00    -0.046 Br
ATOM     16  H   UNL A   1      31.911  21.795  27.834  1.00  0.00     0.190 HD
ENDBRANCH   6   9
ENDBRANCH   4   5
ENDBRANCH   3   4
ENDBRANCH   2   3
ENDBRANCH   1   2
BRANCH   1  17
ATOM     17  C   UNL A   1      38.780  21.833  25.709  1.00  0.00     0.021 C 
BRANCH  17  18
ATOM     18  C   UNL A   1      39.945  21.393  26.581  1.00  0.00     0.116 C 
BRANCH  18  19
ATOM     19  N   UNL A   1      41.224  21.471  25.879  1.00  0.00    -0.352 N 
ATOM     20  C   UNL A   1      42.011  22.588  25.672  1.00  0.00     0.251 C 
ATOM     21  H   UNL A   1      41.567  20.625  25.509  1.00  0.00     0.163 HD
ATOM     22  O   UNL A   1      42.839  22.632  24.781  1.00  0.00    -0.269 OA
BRANCH  20  23
ATOM     23  C   UNL A   1      41.828  23.733  26.579  1.00  0.00     0.039 A 
ATOM     24  C   UNL A   1      42.336  23.722  27.881  1.00  0.00     0.014 A 
ATOM     25  C   UNL A   1      41.165  24.847  26.072  1.00  0.00     0.014 A 
ATOM     26  C   UNL A   1      42.244  24.882  28.647  1.00  0.00     0.010 A 
ATOM     27  C   UNL A   1      41.205  26.025  26.767  1.00  0.00     0.010 A 
ATOM     28  C   UNL A   1      41.694  26.037  28.072  1.00  0.00    -0.014 A 
BRANCH  28  29
ATOM     29  C   UNL A   1      41.746  27.324  28.761  1.00  0.00     0.031 A 
ATOM     30  C   UNL A   1      42.898  28.187  28.366  1.00  0.00     0.074 A 
ATOM     31  C   UNL A   1      40.685  27.784  29.463  1.00  0.00     0.049 A 
ATOM     32  N   UNL A   1      43.819  28.684  29.125  1.00  0.00    -0.248 NA
ATOM     33  C   UNL A   1      43.129  28.430  26.929  1.00  0.00     0.031 C 
ATOM     34  C   UNL A   1      39.383  27.128  29.648  1.00  0.00     0.029 A 
ATOM     35  N   UNL A   1      40.485  28.994  30.052  1.00  0.00    -0.354 N 
ATOM     36  C   UNL A   1      44.627  29.465  28.297  1.00  0.00     0.074 A 
ATOM     37  C   UNL A   1      44.269  29.122  26.948  1.00  0.00     0.031 C 
ATOM     38  C   UNL A   1      38.470  28.030  30.066  1.00  0.00     0.029 A 
ATOM     39  C   UNL A   1      39.154  29.277  30.345  1.00  0.00     0.049 A 
ATOM     40  H   UNL A   1      41.220  29.618  30.252  1.00  0.00     0.167 HD
ATOM     41  C   UNL A   1      45.326  30.520  28.802  1.00  0.00     0.037 A 
ATOM     42  C   UNL A   1      38.641  30.463  30.759  1.00  0.00     0.037 A 
ATOM     43  C   UNL A   1      45.441  30.410  30.236  1.00  0.00     0.049 A 
ATOM     44  C   UNL A   1      39.773  31.268  31.274  1.00  0.00     0.074 A 
ATOM     45  C   UNL A   1      46.015  29.511  31.110  1.00  0.00     0.029 A 
ATOM     46  N   UNL A   1      44.573  31.162  30.987  1.00  0.00    -0.354 N 
ATOM     47  N   UNL A   1      40.449  30.963  32.345  1.00  0.00    -0.248 NA
ATOM     48  C   UNL A   1      40.443  32.163  30.344  1.00  0.00     0.031 C 
ATOM     49  C   UNL A   1      45.133  29.467  32.231  1.00  0.00     0.029 A 
ATOM     50  C   UNL A   1      44.107  30.388  32.013  1.00  0.00     0.049 A 
ATOM     51  H   UNL A   1      44.328  32.101  30.816  1.00  0.00     0.167 HD
ATOM     52  C   UNL A   1      41.766  31.249  32.020  1.00  0.00     0.074 A 
ATOM     53  C   UNL A   1      41.688  32.080  30.820  1.00  0.00     0.031 C 
ATOM     54  C   UNL A   1      42.788  30.538  32.582  1.00  0.00     0.037 A 
BRANCH  41  55
ATOM     55  C   UNL A   1      45.505  31.855  28.098  1.00  0.00     0.064 A 
ATOM     56  C   UNL A   1      44.351  32.551  27.673  1.00  0.00     0.173 A 
ATOM     57  C   UNL A   1      46.717  32.301  27.527  1.00  0.00     0.173 A 
ATOM     58  F   UNL A   1      43.141  32.227  28.153  1.00  0.00    -0.203 F 
ATOM     59  C   UNL A   1      44.395  33.516  26.663  1.00  0.00     0.198 A 
ATOM     60  C   UNL A   1      46.761  33.300  26.554  1.00  0.00     0.198 A 
ATOM     61  F   UNL A   1      47.894  31.729  27.794  1.00  0.00    -0.203 F 
ATOM     62  F   UNL A   1      43.253  34.033  26.187  1.00  0.00    -0.200 F 
ATOM     63  C   UNL A   1      45.599  33.877  26.092  1.00  0.00     0.200 A 
ATOM     64  F   UNL A   1      47.940  33.631  26.007  1.00  0.00    -0.200 F 
ATOM     65  F   UNL A   1      45.639  34.742  25.069  1.00  0.00    -0.200 F 
ENDBRANCH  41  55
BRANCH  42  66
ATOM     66  C   UNL A   1      37.314  31.054  30.464  1.00  0.00     0.064 A 
ATOM     67  C   UNL A   1      36.404  31.353  31.491  1.00  0.00     0.173 A 
ATOM     68  C   UNL A   1      37.022  31.595  29.196  1.00  0.00     0.173 A 
ATOM     69  F   UNL A   1      36.632  30.920  32.739  1.00  0.00    -0.203 F 
ATOM     70  C   UNL A   1      35.282  32.162  31.269  1.00  0.00     0.198 A 
ATOM     71  C   UNL A   1      35.901  32.397  28.973  1.00  0.00     0.198 A 
ATOM     72  F   UNL A   1      37.872  31.438  28.171  1.00  0.00    -0.203 F 
ATOM     73  F   UNL A   1      34.471  32.475  32.289  1.00  0.00    -0.200 F 
ATOM     74  C   UNL A   1      35.038  32.690  30.012  1.00  0.00     0.200 A 
ATOM     75  F   UNL A   1      35.699  32.936  27.763  1.00  0.00    -0.200 F 
ATOM     76  F   UNL A   1      34.000  33.515  29.813  1.00  0.00    -0.200 F 
ENDBRANCH  42  66
BRANCH  54  77
ATOM     77  C   UNL A   1      42.463  29.669  33.767  1.00  0.00     0.064 A 
ATOM     78  C   UNL A   1      42.031  28.335  33.678  1.00  0.00     0.173 A 
ATOM     79  C   UNL A   1      42.737  30.173  35.044  1.00  0.00     0.173 A 
ATOM     80  F   UNL A   1      41.838  27.748  32.492  1.00  0.00    -0.203 F 
ATOM     81  C   UNL A   1      41.844  27.557  34.820  1.00  0.00     0.198 A 
ATOM     82  C   UNL A   1      42.587  29.383  36.180  1.00  0.00     0.198 A 
ATOM     83  F   UNL A   1      43.204  31.423  35.186  1.00  0.00    -0.203 F 
ATOM     84  F   UNL A   1      41.420  26.289  34.708  1.00  0.00    -0.200 F 
ATOM     85  C   UNL A   1      42.130  28.080  36.070  1.00  0.00     0.200 A 
ATOM     86  F   UNL A   1      42.913  29.878  37.382  1.00  0.00    -0.200 F 
ATOM     87  F   UNL A   1      41.993  27.320  37.165  1.00  0.00    -0.200 F 
ENDBRANCH  54  77
ENDBRANCH  28  29
ENDBRANCH  20  23
ENDBRANCH  18  19
ENDBRANCH  17  18
ENDBRANCH   1  17
TORSDOF 13
ENDMDL
MODEL 3
REMARK VINA RESULT:     -10.9      3.590      6.112
REMARK SMILES Cc1n[nH]c(C(=O)NCCCCCCNC(=O)c2ccc(-c3c4nc(c(-c5c(F)c(F)c(F)c(F)c5F)c5ccc([nH]5)c(-c5c(F)c(F)c(F)c(F)c5F)c5nc(c(-c6c(F)c(F)c(F)c(F)c6F)c6ccc3[nH]6)C=C5)C=C4)cc2)c1Br
REMARK SMILES IDX 12 1 11 2 10 3 9 4 8 5 6 6 7 7 5 9 1 10 2 11 3 12 81 13 4 14
REMARK SMILES IDX 82 15 13 17 14 18 15 19 16 20 17 22 18 23 19 24 80 25 20 26
REMARK SMILES IDX 79 27 21 28 22 29 23 30 73 31 24 32 78 33 72 34 74 35 25 36
REMARK SMILES IDX 77 37 71 38 70 39 26 41 58 42 38 43 57 44 39 45 42 46 56 47
REMARK SMILES IDX 75 48 40 49 41 50 55 52 76 53 43 54 27 55 28 56 36 57 29 58
REMARK SMILES IDX 30 59 34 60 37 61 31 62 32 63 35 64 33 65 59 66 60 67 68 68
REMARK SMILES IDX 61 69 62 70 66 71 69 72 63 73 64 74 67 75 65 76 44 77 45 78
REMARK SMILES IDX 53 79 46 80 47 81 51 82 54 83 48 84 49 85 52 86 50 87
REMARK H PARENT 8 8 4 16 15 21 74 40 42 51
REMARK Flexibility Score: inf
ROOT
ATOM      1  C   UNL A   1      44.751  23.713  24.667  1.00  0.00     0.002 C 
ENDROOT
BRANCH   1   2
ATOM      2  C   UNL A   1      44.649  25.151  25.202  1.00  0.00     0.002 C 
BRANCH   2   3
ATOM      3  C   UNL A   1      45.026  25.342  26.677  1.00  0.00     0.021 C 
BRANCH   3   4
ATOM      4  C   UNL A   1      46.529  25.300  26.951  1.00  0.00     0.116 C 
BRANCH   4   5
ATOM      5  N   UNL A   1      47.036  26.620  27.264  1.00  0.00    -0.351 N 
ATOM      6  C   UNL A   1      47.512  27.689  26.557  1.00  0.00     0.270 C 
ATOM      7  O   UNL A   1      47.871  28.631  27.267  1.00  0.00    -0.267 OA
ATOM      8  H   UNL A   1      47.038  26.791  28.234  1.00  0.00     0.163 HD
BRANCH   6   9
ATOM      9  C   UNL A   1      47.573  27.741  25.116  1.00  0.00     0.137 A 
ATOM     10  C   UNL A   1      48.972  27.444  21.698  1.00  0.00     0.070 C 
ATOM     11  C   UNL A   1      48.220  27.635  22.962  1.00  0.00     0.074 A 
ATOM     12  N   UNL A   1      46.999  28.175  22.939  1.00  0.00    -0.179 NA
ATOM     13  C   UNL A   1      48.602  27.329  24.284  1.00  0.00     0.071 A 
ATOM     14  N   UNL A   1      46.631  28.187  24.229  1.00  0.00    -0.272 N 
ATOM     15  Br  UNL A   1      50.244  26.532  24.732  1.00  0.00    -0.046 Br
ATOM     16  H   UNL A   1      45.743  28.495  24.519  1.00  0.00     0.190 HD
ENDBRANCH   6   9
ENDBRANCH   4   5
ENDBRANCH   3   4
ENDBRANCH   2   3
ENDBRANCH   1   2
BRANCH   1  17
ATOM     17  C   UNL A   1      43.432  22.935  24.555  1.00  0.00     0.021 C 
BRANCH  17  18
ATOM     18  C   UNL A   1      43.274  21.844  25.601  1.00  0.00     0.116 C 
BRANCH  18  19
ATOM     19  N   UNL A   1      41.875  21.486  25.824  1.00  0.00    -0.352 N 
ATOM     20  C   UNL A   1      40.969  22.095  26.673  1.00  0.00     0.251 C 
ATOM     21  H   UNL A   1      41.536  20.719  25.307  1.00  0.00     0.163 HD
ATOM     22  O   UNL A   1      39.974  21.518  27.067  1.00  0.00    -0.269 OA
BRANCH  20  23
ATOM     23  C   UNL A   1      41.239  23.484  27.080  1.00  0.00     0.039 A 
ATOM     24  C   UNL A   1      40.645  24.566  26.425  1.00  0.00     0.014 A 
ATOM     25  C   UNL A   1      42.075  23.675  28.175  1.00  0.00     0.014 A 
ATOM     26  C   UNL A   1      40.836  25.847  26.937  1.00  0.00     0.010 A 
ATOM     27  C   UNL A   1      42.143  24.910  28.761  1.00  0.00     0.010 A 
ATOM     28  C   UNL A   1      41.571  26.007  28.120  1.00  0.00    -0.014 A 
BRANCH  28  29
ATOM     29  C   UNL A   1      41.641  27.297  28.800  1.00  0.00     0.031 A 
ATOM     30  C   UNL A   1      42.796  28.148  28.387  1.00  0.00     0.074 A 
ATOM     31  C   UNL A   1      40.592  27.770  29.511  1.00  0.00     0.049 A 
ATOM     32  N   UNL A   1      43.730  28.642  29.133  1.00  0.00    -0.248 NA
ATOM     33  C   UNL A   1      43.013  28.381  26.946  1.00  0.00     0.031 C 
ATOM     34  C   UNL A   1      39.287  27.127  29.715  1.00  0.00     0.029 A 
ATOM     35  N   UNL A   1      40.409  28.986  30.095  1.00  0.00    -0.354 N 
ATOM     36  C   UNL A   1      44.535  29.411  28.291  1.00  0.00     0.074 A 
ATOM     37  C   UNL A   1      44.159  29.063  26.948  1.00  0.00     0.031 C 
ATOM     38  C   UNL A   1      38.386  28.039  30.137  1.00  0.00     0.029 A 
ATOM     39  C   UNL A   1      39.083  29.282  30.401  1.00  0.00     0.049 A 
ATOM     40  H   UNL A   1      41.151  29.604  30.283  1.00  0.00     0.167 HD
ATOM     41  C   UNL A   1      45.248  30.462  28.782  1.00  0.00     0.037 A 
ATOM     42  C   UNL A   1      38.586  30.475  30.813  1.00  0.00     0.037 A 
ATOM     43  C   UNL A   1      45.378  30.361  30.215  1.00  0.00     0.049 A 
ATOM     44  C   UNL A   1      39.730  31.273  31.310  1.00  0.00     0.074 A 
ATOM     45  C   UNL A   1      45.955  29.461  31.089  1.00  0.00     0.029 A 
ATOM     46  N   UNL A   1      44.525  31.124  30.971  1.00  0.00    -0.354 N 
ATOM     47  N   UNL A   1      40.415  30.969  32.376  1.00  0.00    -0.248 NA
ATOM     48  C   UNL A   1      40.397  32.157  30.368  1.00  0.00     0.031 C 
ATOM     49  C   UNL A   1      45.084  29.432  32.219  1.00  0.00     0.029 A 
ATOM     50  C   UNL A   1      44.064  30.360  32.007  1.00  0.00     0.049 A 
ATOM     51  H   UNL A   1      44.286  32.064  30.797  1.00  0.00     0.167 HD
ATOM     52  C   UNL A   1      41.731  31.242  32.034  1.00  0.00     0.074 A 
ATOM     53  C   UNL A   1      41.646  32.066  30.831  1.00  0.00     0.031 C 
ATOM     54  C   UNL A   1      42.753  30.525  32.590  1.00  0.00     0.037 A 
BRANCH  41  55
ATOM     55  C   UNL A   1      45.431  31.792  28.068  1.00  0.00     0.064 A 
ATOM     56  C   UNL A   1      44.282  32.463  27.593  1.00  0.00     0.173 A 
ATOM     57  C   UNL A   1      46.655  32.251  27.535  1.00  0.00     0.173 A 
ATOM     58  F   UNL A   1      43.061  32.125  28.034  1.00  0.00    -0.203 F 
ATOM     59  C   UNL A   1      44.347  33.416  26.573  1.00  0.00     0.198 A 
ATOM     60  C   UNL A   1      46.718  33.239  26.552  1.00  0.00     0.198 A 
ATOM     61  F   UNL A   1      47.831  31.702  27.851  1.00  0.00    -0.203 F 
ATOM     62  F   UNL A   1      43.214  33.908  26.050  1.00  0.00    -0.200 F 
ATOM     63  C   UNL A   1      45.564  33.791  26.040  1.00  0.00     0.200 A 
ATOM     64  F   UNL A   1      47.911  33.582  26.042  1.00  0.00    -0.200 F 
ATOM     65  F   UNL A   1      45.626  34.643  25.009  1.00  0.00    -0.200 F 
ENDBRANCH  41  55
BRANCH  42  66
ATOM     66  C   UNL A   1      37.260  31.075  30.529  1.00  0.00     0.064 A 
ATOM     67  C   UNL A   1      36.391  31.450  31.567  1.00  0.00     0.173 A 
ATOM     68  C   UNL A   1      36.935  31.551  29.243  1.00  0.00     0.173 A 
ATOM     69  F   UNL A   1      36.654  31.082  32.829  1.00  0.00    -0.203 F 
ATOM     70  C   UNL A   1      35.278  32.267  31.336  1.00  0.00     0.198 A 
ATOM     71  C   UNL A   1      35.822  32.362  29.012  1.00  0.00     0.198 A 
ATOM     72  F   UNL A   1      37.747  31.320  28.201  1.00  0.00    -0.203 F 
ATOM     73  F   UNL A   1      34.508  32.654  32.363  1.00  0.00    -0.200 F 
ATOM     74  C   UNL A   1      35.000  32.730  30.061  1.00  0.00     0.200 A 
ATOM     75  F   UNL A   1      35.589  32.836  27.780  1.00  0.00    -0.200 F 
ATOM     76  F   UNL A   1      33.972  33.564  29.850  1.00  0.00    -0.200 F 
ENDBRANCH  42  66
BRANCH  54  77
ATOM     77  C   UNL A   1      42.434  29.666  33.783  1.00  0.00     0.064 A 
ATOM     78  C   UNL A   1      42.001  28.332  33.707  1.00  0.00     0.173 A 
ATOM     79  C   UNL A   1      42.715  30.181  35.055  1.00  0.00     0.173 A 
ATOM     80  F   UNL A   1      41.802  27.735  32.528  1.00  0.00    -0.203 F 
ATOM     81  C   UNL A   1      41.819  27.563  34.857  1.00  0.00     0.198 A 
ATOM     82  C   UNL A   1      42.569  29.401  36.198  1.00  0.00     0.198 A 
ATOM     83  F   UNL A   1      43.182  31.432  35.184  1.00  0.00    -0.203 F 
ATOM     84  F   UNL A   1      41.395  26.295  34.758  1.00  0.00    -0.200 F 
ATOM     85  C   UNL A   1      42.112  28.096  36.101  1.00  0.00     0.200 A 
ATOM     86  F   UNL A   1      42.902  29.905  37.394  1.00  0.00    -0.200 F 
ATOM     87  F   UNL A   1      41.980  27.346  37.203  1.00  0.00    -0.200 F 
ENDBRANCH  54  77
ENDBRANCH  28  29
ENDBRANCH  20  23
ENDBRANCH  18  19
ENDBRANCH  17  18
ENDBRANCH   1  17
TORSDOF 13
ENDMDL
