MODEL 1
REMARK VINA RESULT:     -12.2      0.000      0.000
REMARK SMILES O=C(COc1ccccc1[C@@H]1[NH2+]CCc2cc(O)c(O)cc21)NCCCCCCNC(=O)c1ccc(-c2c3nc(c(-c4c(F)c(F)c(F)c(F)c4F)c4ccc([nH]4)c(-c4c(F)c(F)c(F)c(F)c4F)c4nc(c(-c5c(F)c(F)c(F)c(F)c5F)c5ccc2[nH]5)C=C4)C=C3)cc1
REMARK SMILES IDX 25 1 24 2 23 3 1 4 2 5 3 7 4 8 5 9 6 10 10 11 7 12 9 13 8 14
REMARK SMILES IDX 11 15 12 16 22 17 13 18 15 21 21 22 14 23 16 24 19 25 17 26
REMARK SMILES IDX 20 27 18 29 26 31 27 32 28 33 29 34 30 35 31 36 32 38 33 39
REMARK SMILES IDX 34 40 95 41 35 42 94 43 36 44 37 45 38 46 88 47 39 48 93 49
REMARK SMILES IDX 87 50 89 51 40 52 92 53 86 54 85 55 41 57 73 58 53 59 72 60
REMARK SMILES IDX 54 61 57 62 71 63 90 64 55 65 56 66 70 68 91 69 58 70 42 71
REMARK SMILES IDX 43 72 51 73 44 74 45 75 49 76 52 77 46 78 47 79 50 80 48 81
REMARK SMILES IDX 74 82 75 83 83 84 76 85 77 86 81 87 84 88 78 89 79 90 82 91
REMARK SMILES IDX 80 92 59 93 60 94 68 95 61 96 62 97 66 98 69 99 63 100
REMARK SMILES IDX 64 101 67 102 65 103
REMARK H PARENT 23 6 12 19 12 20 20 28 18 30 30 37 89 56 57 67
REMARK Flexibility Score: inf
ROOT
ATOM      1  C   UNL A   1      36.079  32.021  28.018  1.00  0.00     0.021 C 
ENDROOT
BRANCH   1   2
ATOM      2  C   UNL A   1      35.344  30.700  27.854  1.00  0.00     0.116 C 
BRANCH   2   3
ATOM      3  N   UNL A   1      34.262  30.757  26.897  1.00  0.00    -0.353 N 
ATOM      4  O   UNL A   1      33.230  28.846  27.627  1.00  0.00    -0.271 OA
ATOM      5  C   UNL A   1      33.210  29.866  26.940  1.00  0.00     0.257 C 
ATOM      6  H   UNL A   1      34.278  31.448  26.197  1.00  0.00     0.163 HD
BRANCH   5   7
ATOM      7  C   UNL A   1      32.015  30.255  26.063  1.00  0.00     0.329 C 
BRANCH   7   8
ATOM      8  O   UNL A   1      31.931  29.774  24.739  1.00  0.00    -0.483 OA
BRANCH   8   9
ATOM      9  C   UNL A   1      31.041  28.875  24.226  1.00  0.00     0.129 A 
ATOM     10  C   UNL A   1      30.251  29.537  23.260  1.00  0.00     0.047 A 
ATOM     11  C   UNL A   1      30.730  27.536  24.563  1.00  0.00     0.056 A 
ATOM     12  C   UNL A   1      29.108  28.965  22.711  1.00  0.00     0.004 A 
ATOM     13  C   UNL A   1      29.504  27.022  24.063  1.00  0.00     0.014 A 
ATOM     14  C   UNL A   1      28.704  27.721  23.155  1.00  0.00     0.001 A 
BRANCH  11  15
ATOM     15  C   UNL A   1      31.577  26.612  25.439  1.00  0.00     0.249 C 
ATOM     16  N   UNL A   1      33.018  26.755  25.183  1.00  0.00    -0.336 N 
ATOM     17  C   UNL A   1      31.301  25.104  25.449  1.00  0.00     0.021 A 
ATOM     18  C   UNL A   1      33.442  26.204  23.887  1.00  0.00     0.266 C 
ATOM     19  H   UNL A   1      33.526  26.269  25.922  1.00  0.00     0.347 HD
ATOM     20  H   UNL A   1      33.222  27.754  25.165  1.00  0.00     0.347 HD
ATOM     21  C   UNL A   1      31.880  24.331  24.414  1.00  0.00    -0.029 A 
ATOM     22  C   UNL A   1      30.681  24.467  26.535  1.00  0.00     0.060 A 
ATOM     23  C   UNL A   1      32.568  25.081  23.305  1.00  0.00     0.097 C 
ATOM     24  C   UNL A   1      31.871  22.938  24.482  1.00  0.00     0.054 A 
ATOM     25  C   UNL A   1      30.707  23.078  26.603  1.00  0.00     0.157 A 
ATOM     26  C   UNL A   1      31.312  22.328  25.594  1.00  0.00     0.157 A 
BRANCH  25  27
ATOM     27  O   UNL A   1      30.195  22.396  27.673  1.00  0.00    -0.504 OA
ATOM     28  H   UNL A   1      30.130  22.816  28.509  1.00  0.00     0.293 HD
ENDBRANCH  25  27
BRANCH  26  29
ATOM     29  O   UNL A   1      31.401  20.970  25.717  1.00  0.00    -0.504 OA
ATOM     30  H   UNL A   1      31.551  20.585  26.558  1.00  0.00     0.293 HD
ENDBRANCH  26  29
ENDBRANCH  11  15
ENDBRANCH   8   9
ENDBRANCH   7   8
ENDBRANCH   5   7
ENDBRANCH   2   3
ENDBRANCH   1   2
BRANCH   1  31
ATOM     31  C   UNL A   1      35.163  33.242  27.934  1.00  0.00     0.002 C 
BRANCH  31  32
ATOM     32  C   UNL A   1      34.463  33.605  29.247  1.00  0.00     0.002 C 
BRANCH  32  33
ATOM     33  C   UNL A   1      33.237  34.505  29.093  1.00  0.00     0.021 C 
BRANCH  33  34
ATOM     34  C   UNL A   1      33.413  35.915  29.643  1.00  0.00     0.116 C 
BRANCH  34  35
ATOM     35  N   UNL A   1      32.512  36.191  30.749  1.00  0.00    -0.352 N 
ATOM     36  C   UNL A   1      32.578  35.757  32.049  1.00  0.00     0.251 C 
ATOM     37  H   UNL A   1      31.746  36.770  30.536  1.00  0.00     0.163 HD
ATOM     38  O   UNL A   1      31.642  35.939  32.817  1.00  0.00    -0.269 OA
BRANCH  36  39
ATOM     39  C   UNL A   1      33.786  35.043  32.512  1.00  0.00     0.039 A 
ATOM     40  C   UNL A   1      33.659  33.731  32.971  1.00  0.00     0.014 A 
ATOM     41  C   UNL A   1      35.036  35.667  32.486  1.00  0.00     0.014 A 
ATOM     42  C   UNL A   1      34.800  33.022  33.350  1.00  0.00     0.010 A 
ATOM     43  C   UNL A   1      36.179  34.935  32.791  1.00  0.00     0.010 A 
ATOM     44  C   UNL A   1      36.071  33.607  33.232  1.00  0.00    -0.014 A 
BRANCH  44  45
ATOM     45  C   UNL A   1      37.302  32.852  33.579  1.00  0.00     0.031 A 
ATOM     46  C   UNL A   1      38.035  33.159  34.854  1.00  0.00     0.074 A 
ATOM     47  C   UNL A   1      37.789  31.940  32.718  1.00  0.00     0.049 A 
ATOM     48  N   UNL A   1      39.166  32.671  35.297  1.00  0.00    -0.248 NA
ATOM     49  C   UNL A   1      37.433  34.172  35.737  1.00  0.00     0.031 C 
ATOM     50  C   UNL A   1      37.189  31.585  31.431  1.00  0.00     0.029 A 
ATOM     51  N   UNL A   1      38.911  31.151  32.789  1.00  0.00    -0.354 N 
ATOM     52  C   UNL A   1      39.415  33.325  36.496  1.00  0.00     0.074 A 
ATOM     53  C   UNL A   1      38.349  34.285  36.686  1.00  0.00     0.031 C 
ATOM     54  C   UNL A   1      37.936  30.635  30.844  1.00  0.00     0.029 A 
ATOM     55  C   UNL A   1      39.089  30.346  31.692  1.00  0.00     0.049 A 
ATOM     56  H   UNL A   1      39.529  31.162  33.556  1.00  0.00     0.167 HD
ATOM     57  C   UNL A   1      40.428  33.125  37.373  1.00  0.00     0.037 A 
ATOM     58  C   UNL A   1      40.078  29.479  31.397  1.00  0.00     0.037 A 
ATOM     59  C   UNL A   1      41.472  32.151  37.191  1.00  0.00     0.049 A 
ATOM     60  C   UNL A   1      41.200  29.287  32.383  1.00  0.00     0.074 A 
ATOM     61  C   UNL A   1      42.511  31.832  38.047  1.00  0.00     0.029 A 
ATOM     62  N   UNL A   1      41.609  31.341  36.074  1.00  0.00    -0.354 N 
ATOM     63  N   UNL A   1      41.389  29.862  33.546  1.00  0.00    -0.248 NA
ATOM     64  C   UNL A   1      42.244  28.319  32.017  1.00  0.00     0.031 C 
ATOM     65  C   UNL A   1      43.309  30.866  37.424  1.00  0.00     0.029 A 
ATOM     66  C   UNL A   1      42.731  30.538  36.208  1.00  0.00     0.049 A 
ATOM     67  H   UNL A   1      41.000  31.336  35.301  1.00  0.00     0.167 HD
ATOM     68  C   UNL A   1      42.548  29.302  34.066  1.00  0.00     0.074 A 
ATOM     69  C   UNL A   1      43.013  28.332  33.096  1.00  0.00     0.031 C 
ATOM     70  C   UNL A   1      43.171  29.566  35.240  1.00  0.00     0.037 A 
BRANCH  57  71
ATOM     71  C   UNL A   1      40.456  33.974  38.611  1.00  0.00     0.064 A 
ATOM     72  C   UNL A   1      41.168  35.183  38.659  1.00  0.00     0.173 A 
ATOM     73  C   UNL A   1      39.727  33.599  39.750  1.00  0.00     0.173 A 
ATOM     74  F   UNL A   1      41.890  35.584  37.602  1.00  0.00    -0.203 F 
ATOM     75  C   UNL A   1      41.172  35.968  39.809  1.00  0.00     0.198 A 
ATOM     76  C   UNL A   1      39.707  34.403  40.887  1.00  0.00     0.198 A 
ATOM     77  F   UNL A   1      39.025  32.456  39.757  1.00  0.00    -0.203 F 
ATOM     78  F   UNL A   1      41.899  37.094  39.848  1.00  0.00    -0.200 F 
ATOM     79  C   UNL A   1      40.434  35.583  40.918  1.00  0.00     0.200 A 
ATOM     80  F   UNL A   1      38.981  34.035  41.952  1.00  0.00    -0.200 F 
ATOM     81  F   UNL A   1      40.431  36.344  42.020  1.00  0.00    -0.200 F 
ENDBRANCH  57  71
BRANCH  58  82
ATOM     82  C   UNL A   1      40.046  28.715  30.122  1.00  0.00     0.064 A 
ATOM     83  C   UNL A   1      39.436  27.453  30.053  1.00  0.00     0.173 A 
ATOM     84  C   UNL A   1      40.637  29.217  28.954  1.00  0.00     0.173 A 
ATOM     85  F   UNL A   1      38.874  26.921  31.149  1.00  0.00    -0.203 F 
ATOM     86  C   UNL A   1      39.445  26.712  28.873  1.00  0.00     0.198 A 
ATOM     87  C   UNL A   1      40.616  28.489  27.766  1.00  0.00     0.198 A 
ATOM     88  F   UNL A   1      41.227  30.421  28.963  1.00  0.00    -0.203 F 
ATOM     89  F   UNL A   1      38.904  25.487  28.852  1.00  0.00    -0.200 F 
ATOM     90  C   UNL A   1      40.030  27.233  27.730  1.00  0.00     0.200 A 
ATOM     91  F   UNL A   1      41.169  29.003  26.658  1.00  0.00    -0.200 F 
ATOM     92  F   UNL A   1      40.037  26.521  26.594  1.00  0.00    -0.200 F 
ENDBRANCH  58  82
BRANCH  70  93
ATOM     93  C   UNL A   1      44.397  28.763  35.568  1.00  0.00     0.064 A 
ATOM     94  C   UNL A   1      44.318  27.529  36.230  1.00  0.00     0.173 A 
ATOM     95  C   UNL A   1      45.665  29.217  35.175  1.00  0.00     0.173 A 
ATOM     96  F   UNL A   1      43.132  27.056  36.641  1.00  0.00    -0.203 F 
ATOM     97  C   UNL A   1      45.466  26.792  36.508  1.00  0.00     0.198 A 
ATOM     98  C   UNL A   1      46.808  28.463  35.424  1.00  0.00     0.198 A 
ATOM     99  F   UNL A   1      45.795  30.388  34.532  1.00  0.00    -0.203 F 
ATOM    100  F   UNL A   1      45.373  25.640  37.185  1.00  0.00    -0.200 F 
ATOM    101  C   UNL A   1      46.708  27.255  36.098  1.00  0.00     0.200 A 
ATOM    102  F   UNL A   1      48.004  28.904  35.012  1.00  0.00    -0.200 F 
ATOM    103  F   UNL A   1      47.811  26.539  36.356  1.00  0.00    -0.200 F 
ENDBRANCH  70  93
ENDBRANCH  44  45
ENDBRANCH  36  39
ENDBRANCH  34  35
ENDBRANCH  33  34
ENDBRANCH  32  33
ENDBRANCH  31  32
ENDBRANCH   1  31
TORSDOF 18
ENDMDL
MODEL 2
REMARK VINA RESULT:     -11.9      2.464      8.004
REMARK SMILES O=C(COc1ccccc1[C@@H]1[NH2+]CCc2cc(O)c(O)cc21)NCCCCCCNC(=O)c1ccc(-c2c3nc(c(-c4c(F)c(F)c(F)c(F)c4F)c4ccc([nH]4)c(-c4c(F)c(F)c(F)c(F)c4F)c4nc(c(-c5c(F)c(F)c(F)c(F)c5F)c5ccc2[nH]5)C=C4)C=C3)cc1
REMARK SMILES IDX 25 1 24 2 23 3 1 4 2 5 3 7 4 8 5 9 6 10 10 11 7 12 9 13 8 14
REMARK SMILES IDX 11 15 12 16 22 17 13 18 15 21 21 22 14 23 16 24 19 25 17 26
REMARK SMILES IDX 20 27 18 29 26 31 27 32 28 33 29 34 30 35 31 36 32 38 33 39
REMARK SMILES IDX 34 40 95 41 35 42 94 43 36 44 37 45 38 46 88 47 39 48 93 49
REMARK SMILES IDX 87 50 89 51 40 52 92 53 86 54 85 55 41 57 73 58 53 59 72 60
REMARK SMILES IDX 54 61 57 62 71 63 90 64 55 65 56 66 70 68 91 69 58 70 42 71
REMARK SMILES IDX 43 72 51 73 44 74 45 75 49 76 52 77 46 78 47 79 50 80 48 81
REMARK SMILES IDX 74 82 75 83 83 84 76 85 77 86 81 87 84 88 78 89 79 90 82 91
REMARK SMILES IDX 80 92 59 93 60 94 68 95 61 96 62 97 66 98 69 99 63 100
REMARK SMILES IDX 64 101 67 102 65 103
REMARK H PARENT 23 6 12 19 12 20 20 28 18 30 30 37 89 56 57 67
REMARK Flexibility Score: inf
ROOT
ATOM      1  C   UNL A   1      31.452  28.430  27.381  1.00  0.00     0.021 C 
ENDROOT
BRANCH   1   2
ATOM      2  C   UNL A   1      31.451  27.536  26.150  1.00  0.00     0.116 C 
BRANCH   2   3
ATOM      3  N   UNL A   1      31.983  26.215  26.398  1.00  0.00    -0.353 N 
ATOM      4  O   UNL A   1      29.940  25.186  26.539  1.00  0.00    -0.271 OA
ATOM      5  C   UNL A   1      31.165  25.106  26.459  1.00  0.00     0.257 C 
ATOM      6  H   UNL A   1      32.952  26.105  26.528  1.00  0.00     0.163 HD
BRANCH   5   7
ATOM      7  C   UNL A   1      31.909  23.767  26.418  1.00  0.00     0.329 C 
BRANCH   7   8
ATOM      8  O   UNL A   1      32.862  23.525  25.405  1.00  0.00    -0.483 OA
BRANCH   8   9
ATOM      9  C   UNL A   1      32.778  22.646  24.364  1.00  0.00     0.129 A 
ATOM     10  C   UNL A   1      32.661  23.388  23.168  1.00  0.00     0.047 A 
ATOM     11  C   UNL A   1      32.678  21.236  24.307  1.00  0.00     0.056 A 
ATOM     12  C   UNL A   1      32.335  22.797  21.952  1.00  0.00     0.004 A 
ATOM     13  C   UNL A   1      32.245  20.678  23.075  1.00  0.00     0.014 A 
ATOM     14  C   UNL A   1      32.074  21.441  21.917  1.00  0.00     0.001 A 
BRANCH  11  15
ATOM     15  C   UNL A   1      32.960  20.270  25.458  1.00  0.00     0.249 C 
ATOM     16  N   UNL A   1      33.992  20.773  26.378  1.00  0.00    -0.336 N 
ATOM     17  C   UNL A   1      33.341  18.814  25.158  1.00  0.00     0.021 A 
ATOM     18  C   UNL A   1      35.346  20.763  25.804  1.00  0.00     0.266 C 
ATOM     19  H   UNL A   1      33.992  20.188  27.214  1.00  0.00     0.347 HD
ATOM     20  H   UNL A   1      33.761  21.744  26.584  1.00  0.00     0.347 HD
ATOM     21  C   UNL A   1      34.698  18.547  24.858  1.00  0.00    -0.029 A 
ATOM     22  C   UNL A   1      32.447  17.753  25.368  1.00  0.00     0.060 A 
ATOM     23  C   UNL A   1      35.607  19.734  24.692  1.00  0.00     0.097 C 
ATOM     24  C   UNL A   1      35.165  17.234  24.805  1.00  0.00     0.054 A 
ATOM     25  C   UNL A   1      32.935  16.451  25.341  1.00  0.00     0.157 A 
ATOM     26  C   UNL A   1      34.282  16.201  25.079  1.00  0.00     0.157 A 
BRANCH  25  27
ATOM     27  O   UNL A   1      32.136  15.374  25.618  1.00  0.00    -0.504 OA
ATOM     28  H   UNL A   1      32.362  14.526  25.288  1.00  0.00     0.293 HD
ENDBRANCH  25  27
BRANCH  26  29
ATOM     29  O   UNL A   1      34.759  14.921  25.137  1.00  0.00    -0.504 OA
ATOM     30  H   UNL A   1      35.505  14.676  24.624  1.00  0.00     0.293 HD
ENDBRANCH  26  29
ENDBRANCH  11  15
ENDBRANCH   8   9
ENDBRANCH   7   8
ENDBRANCH   5   7
ENDBRANCH   2   3
ENDBRANCH   1   2
BRANCH   1  31
ATOM     31  C   UNL A   1      32.243  29.724  27.194  1.00  0.00     0.002 C 
BRANCH  31  32
ATOM     32  C   UNL A   1      31.659  30.682  26.152  1.00  0.00     0.002 C 
BRANCH  32  33
ATOM     33  C   UNL A   1      31.417  32.106  26.654  1.00  0.00     0.021 C 
BRANCH  33  34
ATOM     34  C   UNL A   1      32.638  32.773  27.276  1.00  0.00     0.116 C 
BRANCH  34  35
ATOM     35  N   UNL A   1      32.392  34.165  27.614  1.00  0.00    -0.352 N 
ATOM     36  C   UNL A   1      32.980  34.938  28.584  1.00  0.00     0.251 C 
ATOM     37  H   UNL A   1      31.707  34.617  27.072  1.00  0.00     0.163 HD
ATOM     38  O   UNL A   1      32.535  36.046  28.854  1.00  0.00    -0.269 OA
BRANCH  36  39
ATOM     39  C   UNL A   1      34.147  34.411  29.319  1.00  0.00     0.039 A 
ATOM     40  C   UNL A   1      33.933  33.685  30.493  1.00  0.00     0.014 A 
ATOM     41  C   UNL A   1      35.444  34.626  28.846  1.00  0.00     0.014 A 
ATOM     42  C   UNL A   1      35.022  33.125  31.163  1.00  0.00     0.010 A 
ATOM     43  C   UNL A   1      36.519  34.004  29.472  1.00  0.00     0.010 A 
ATOM     44  C   UNL A   1      36.319  33.253  30.641  1.00  0.00    -0.014 A 
BRANCH  44  45
ATOM     45  C   UNL A   1      37.484  32.620  31.309  1.00  0.00     0.031 A 
ATOM     46  C   UNL A   1      38.211  31.490  30.637  1.00  0.00     0.074 A 
ATOM     47  C   UNL A   1      37.844  33.021  32.543  1.00  0.00     0.049 A 
ATOM     48  N   UNL A   1      39.196  30.754  31.088  1.00  0.00    -0.248 NA
ATOM     49  C   UNL A   1      37.751  31.114  29.291  1.00  0.00     0.031 C 
ATOM     50  C   UNL A   1      37.189  34.080  33.313  1.00  0.00     0.029 A 
ATOM     51  N   UNL A   1      38.842  32.576  33.373  1.00  0.00    -0.354 N 
ATOM     52  C   UNL A   1      39.461  29.827  30.089  1.00  0.00     0.074 A 
ATOM     53  C   UNL A   1      38.499  30.053  29.034  1.00  0.00     0.031 C 
ATOM     54  C   UNL A   1      37.816  34.217  34.494  1.00  0.00     0.029 A 
ATOM     55  C   UNL A   1      38.888  33.229  34.581  1.00  0.00     0.049 A 
ATOM     56  H   UNL A   1      39.469  31.857  33.126  1.00  0.00     0.167 HD
ATOM     57  C   UNL A   1      40.437  28.888  30.047  1.00  0.00     0.037 A 
ATOM     58  C   UNL A   1      39.695  33.043  35.642  1.00  0.00     0.037 A 
ATOM     59  C   UNL A   1      41.407  28.684  31.090  1.00  0.00     0.049 A 
ATOM     60  C   UNL A   1      40.761  31.981  35.574  1.00  0.00     0.074 A 
ATOM     61  C   UNL A   1      42.469  27.798  31.118  1.00  0.00     0.029 A 
ATOM     62  N   UNL A   1      41.431  29.377  32.291  1.00  0.00    -0.354 N 
ATOM     63  N   UNL A   1      41.046  31.155  34.597  1.00  0.00    -0.248 NA
ATOM     64  C   UNL A   1      41.623  31.832  36.755  1.00  0.00     0.031 C 
ATOM     65  C   UNL A   1      43.104  27.916  32.358  1.00  0.00     0.029 A 
ATOM     66  C   UNL A   1      42.476  28.920  33.078  1.00  0.00     0.049 A 
ATOM     67  H   UNL A   1      40.800  30.088  32.547  1.00  0.00     0.167 HD
ATOM     68  C   UNL A   1      42.139  30.415  35.029  1.00  0.00     0.074 A 
ATOM     69  C   UNL A   1      42.472  30.899  36.352  1.00  0.00     0.031 C 
ATOM     70  C   UNL A   1      42.806  29.424  34.388  1.00  0.00     0.037 A 
BRANCH  57  71
ATOM     71  C   UNL A   1      40.504  28.009  28.831  1.00  0.00     0.064 A 
ATOM     72  C   UNL A   1      39.777  26.811  28.747  1.00  0.00     0.173 A 
ATOM     73  C   UNL A   1      41.271  28.388  27.719  1.00  0.00     0.173 A 
ATOM     74  F   UNL A   1      39.037  26.396  29.786  1.00  0.00    -0.203 F 
ATOM     75  C   UNL A   1      39.838  26.013  27.607  1.00  0.00     0.198 A 
ATOM     76  C   UNL A   1      41.303  27.605  26.568  1.00  0.00     0.198 A 
ATOM     77  F   UNL A   1      41.981  29.526  27.744  1.00  0.00    -0.203 F 
ATOM     78  F   UNL A   1      39.173  24.850  27.569  1.00  0.00    -0.200 F 
ATOM     79  C   UNL A   1      40.592  26.415  26.515  1.00  0.00     0.200 A 
ATOM     80  F   UNL A   1      42.022  28.003  25.509  1.00  0.00    -0.200 F 
ATOM     81  F   UNL A   1      40.641  25.653  25.415  1.00  0.00    -0.200 F 
ENDBRANCH  57  71
BRANCH  58  82
ATOM     82  C   UNL A   1      39.541  33.889  36.856  1.00  0.00     0.064 A 
ATOM     83  C   UNL A   1      38.773  33.452  37.946  1.00  0.00     0.173 A 
ATOM     84  C   UNL A   1      40.140  35.153  36.946  1.00  0.00     0.173 A 
ATOM     85  F   UNL A   1      38.164  32.258  37.900  1.00  0.00    -0.203 F 
ATOM     86  C   UNL A   1      38.587  34.261  39.065  1.00  0.00     0.198 A 
ATOM     87  C   UNL A   1      39.980  35.947  38.079  1.00  0.00     0.198 A 
ATOM     88  F   UNL A   1      40.889  35.616  35.935  1.00  0.00    -0.203 F 
ATOM     89  F   UNL A   1      37.803  33.841  40.068  1.00  0.00    -0.200 F 
ATOM     90  C   UNL A   1      39.194  35.505  39.133  1.00  0.00     0.200 A 
ATOM     91  F   UNL A   1      40.582  37.143  38.149  1.00  0.00    -0.200 F 
ATOM     92  F   UNL A   1      39.017  36.282  40.211  1.00  0.00    -0.200 F 
ENDBRANCH  58  82
BRANCH  70  93
ATOM     93  C   UNL A   1      43.995  28.828  35.084  1.00  0.00     0.064 A 
ATOM     94  C   UNL A   1      43.870  27.744  35.965  1.00  0.00     0.173 A 
ATOM     95  C   UNL A   1      45.283  29.322  34.829  1.00  0.00     0.173 A 
ATOM     96  F   UNL A   1      42.660  27.244  36.255  1.00  0.00    -0.203 F 
ATOM     97  C   UNL A   1      44.989  27.195  36.585  1.00  0.00     0.198 A 
ATOM     98  C   UNL A   1      46.403  28.749  35.424  1.00  0.00     0.198 A 
ATOM     99  F   UNL A   1      45.459  30.353  33.987  1.00  0.00    -0.203 F 
ATOM    100  F   UNL A   1      44.842  26.193  37.463  1.00  0.00    -0.200 F 
ATOM    101  C   UNL A   1      46.254  27.691  36.308  1.00  0.00     0.200 A 
ATOM    102  F   UNL A   1      47.626  29.219  35.142  1.00  0.00    -0.200 F 
ATOM    103  F   UNL A   1      47.331  27.154  36.898  1.00  0.00    -0.200 F 
ENDBRANCH  70  93
ENDBRANCH  44  45
ENDBRANCH  36  39
ENDBRANCH  34  35
ENDBRANCH  33  34
ENDBRANCH  32  33
ENDBRANCH  31  32
ENDBRANCH   1  31
TORSDOF 18
ENDMDL
MODEL 3
REMARK VINA RESULT:     -11.7      1.311      2.913
REMARK SMILES O=C(COc1ccccc1[C@@H]1[NH2+]CCc2cc(O)c(O)cc21)NCCCCCCNC(=O)c1ccc(-c2c3nc(c(-c4c(F)c(F)c(F)c(F)c4F)c4ccc([nH]4)c(-c4c(F)c(F)c(F)c(F)c4F)c4nc(c(-c5c(F)c(F)c(F)c(F)c5F)c5ccc2[nH]5)C=C4)C=C3)cc1
REMARK SMILES IDX 25 1 24 2 23 3 1 4 2 5 3 7 4 8 5 9 6 10 10 11 7 12 9 13 8 14
REMARK SMILES IDX 11 15 12 16 22 17 13 18 15 21 21 22 14 23 16 24 19 25 17 26
REMARK SMILES IDX 20 27 18 29 26 31 27 32 28 33 29 34 30 35 31 36 32 38 33 39
REMARK SMILES IDX 34 40 95 41 35 42 94 43 36 44 37 45 38 46 88 47 39 48 93 49
REMARK SMILES IDX 87 50 89 51 40 52 92 53 86 54 85 55 41 57 73 58 53 59 72 60
REMARK SMILES IDX 54 61 57 62 71 63 90 64 55 65 56 66 70 68 91 69 58 70 42 71
REMARK SMILES IDX 43 72 51 73 44 74 45 75 49 76 52 77 46 78 47 79 50 80 48 81
REMARK SMILES IDX 74 82 75 83 83 84 76 85 77 86 81 87 84 88 78 89 79 90 82 91
REMARK SMILES IDX 80 92 59 93 60 94 68 95 61 96 62 97 66 98 69 99 63 100
REMARK SMILES IDX 64 101 67 102 65 103
REMARK H PARENT 23 6 12 19 12 20 20 28 18 30 30 37 89 56 57 67
REMARK Flexibility Score: inf
ROOT
ATOM      1  C   UNL A   1      34.863  31.445  28.068  1.00  0.00     0.021 C 
ENDROOT
BRANCH   1   2
ATOM      2  C   UNL A   1      33.688  30.852  27.307  1.00  0.00     0.116 C 
BRANCH   2   3
ATOM      3  N   UNL A   1      34.044  29.708  26.499  1.00  0.00    -0.353 N 
ATOM      4  O   UNL A   1      32.554  28.276  27.487  1.00  0.00    -0.271 OA
ATOM      5  C   UNL A   1      33.350  28.519  26.583  1.00  0.00     0.257 C 
ATOM      6  H   UNL A   1      34.801  29.779  25.874  1.00  0.00     0.163 HD
BRANCH   5   7
ATOM      7  C   UNL A   1      33.653  27.528  25.454  1.00  0.00     0.329 C 
BRANCH   7   8
ATOM      8  O   UNL A   1      33.103  26.229  25.495  1.00  0.00    -0.483 OA
BRANCH   8   9
ATOM      9  C   UNL A   1      33.613  25.082  24.957  1.00  0.00     0.129 A 
ATOM     10  C   UNL A   1      34.714  24.677  25.743  1.00  0.00     0.047 A 
ATOM     11  C   UNL A   1      33.316  24.364  23.774  1.00  0.00     0.056 A 
ATOM     12  C   UNL A   1      35.589  23.673  25.341  1.00  0.00     0.004 A 
ATOM     13  C   UNL A   1      34.283  23.418  23.343  1.00  0.00     0.014 A 
ATOM     14  C   UNL A   1      35.401  23.077  24.109  1.00  0.00     0.001 A 
BRANCH  11  15
ATOM     15  C   UNL A   1      32.068  24.541  22.907  1.00  0.00     0.249 C 
ATOM     16  N   UNL A   1      32.384  24.635  21.474  1.00  0.00    -0.336 N 
ATOM     17  C   UNL A   1      31.094  25.690  23.196  1.00  0.00     0.021 A 
ATOM     18  C   UNL A   1      33.040  25.896  21.098  1.00  0.00     0.266 C 
ATOM     19  H   UNL A   1      31.515  24.552  20.946  1.00  0.00     0.347 HD
ATOM     20  H   UNL A   1      33.039  23.882  21.262  1.00  0.00     0.347 HD
ATOM     21  C   UNL A   1      31.409  26.960  22.658  1.00  0.00    -0.029 A 
ATOM     22  C   UNL A   1      29.839  25.471  23.786  1.00  0.00     0.060 A 
ATOM     23  C   UNL A   1      32.755  27.108  22.000  1.00  0.00     0.097 C 
ATOM     24  C   UNL A   1      30.469  27.989  22.676  1.00  0.00     0.054 A 
ATOM     25  C   UNL A   1      28.902  26.499  23.769  1.00  0.00     0.157 A 
ATOM     26  C   UNL A   1      29.213  27.736  23.205  1.00  0.00     0.157 A 
BRANCH  25  27
ATOM     27  O   UNL A   1      27.633  26.328  24.253  1.00  0.00    -0.504 OA
ATOM     28  H   UNL A   1      27.482  25.761  24.984  1.00  0.00     0.293 HD
ENDBRANCH  25  27
BRANCH  26  29
ATOM     29  O   UNL A   1      28.253  28.706  23.124  1.00  0.00    -0.504 OA
ATOM     30  H   UNL A   1      27.366  28.472  22.934  1.00  0.00     0.293 HD
ENDBRANCH  26  29
ENDBRANCH  11  15
ENDBRANCH   8   9
ENDBRANCH   7   8
ENDBRANCH   5   7
ENDBRANCH   2   3
ENDBRANCH   1   2
BRANCH   1  31
ATOM     31  C   UNL A   1      34.444  32.381  29.202  1.00  0.00     0.002 C 
BRANCH  31  32
ATOM     32  C   UNL A   1      34.636  33.870  28.903  1.00  0.00     0.002 C 
BRANCH  32  33
ATOM     33  C   UNL A   1      33.346  34.690  28.875  1.00  0.00     0.021 C 
BRANCH  33  34
ATOM     34  C   UNL A   1      33.469  36.084  29.479  1.00  0.00     0.116 C 
BRANCH  34  35
ATOM     35  N   UNL A   1      32.519  36.302  30.558  1.00  0.00    -0.352 N 
ATOM     36  C   UNL A   1      32.536  35.813  31.839  1.00  0.00     0.251 C 
ATOM     37  H   UNL A   1      31.755  36.882  30.338  1.00  0.00     0.163 HD
ATOM     38  O   UNL A   1      31.566  35.951  32.574  1.00  0.00    -0.269 OA
BRANCH  36  39
ATOM     39  C   UNL A   1      33.732  35.093  32.322  1.00  0.00     0.039 A 
ATOM     40  C   UNL A   1      33.585  33.794  32.814  1.00  0.00     0.014 A 
ATOM     41  C   UNL A   1      34.992  35.696  32.281  1.00  0.00     0.014 A 
ATOM     42  C   UNL A   1      34.714  33.078  33.212  1.00  0.00     0.010 A 
ATOM     43  C   UNL A   1      36.123  34.954  32.606  1.00  0.00     0.010 A 
ATOM     44  C   UNL A   1      35.995  33.640  33.081  1.00  0.00    -0.014 A 
BRANCH  44  45
ATOM     45  C   UNL A   1      37.213  32.876  33.449  1.00  0.00     0.031 A 
ATOM     46  C   UNL A   1      37.926  33.175  34.737  1.00  0.00     0.074 A 
ATOM     47  C   UNL A   1      37.709  31.961  32.595  1.00  0.00     0.049 A 
ATOM     48  N   UNL A   1      39.045  32.678  35.200  1.00  0.00    -0.248 NA
ATOM     49  C   UNL A   1      37.316  34.191  35.611  1.00  0.00     0.031 C 
ATOM     50  C   UNL A   1      37.129  31.613  31.297  1.00  0.00     0.029 A 
ATOM     51  N   UNL A   1      38.823  31.164  32.685  1.00  0.00    -0.354 N 
ATOM     52  C   UNL A   1      39.277  33.328  36.404  1.00  0.00     0.074 A 
ATOM     53  C   UNL A   1      38.215  34.295  36.576  1.00  0.00     0.031 C 
ATOM     54  C   UNL A   1      37.880  30.659  30.722  1.00  0.00     0.029 A 
ATOM     55  C   UNL A   1      39.015  30.359  31.589  1.00  0.00     0.049 A 
ATOM     56  H   UNL A   1      39.428  31.168  33.463  1.00  0.00     0.167 HD
ATOM     57  C   UNL A   1      40.272  33.119  37.299  1.00  0.00     0.037 A 
ATOM     58  C   UNL A   1      40.002  29.486  31.311  1.00  0.00     0.037 A 
ATOM     59  C   UNL A   1      41.312  32.138  37.134  1.00  0.00     0.049 A 
ATOM     60  C   UNL A   1      41.105  29.284  32.317  1.00  0.00     0.074 A 
ATOM     61  C   UNL A   1      42.334  31.809  38.007  1.00  0.00     0.029 A 
ATOM     62  N   UNL A   1      41.463  31.328  36.018  1.00  0.00    -0.354 N 
ATOM     63  N   UNL A   1      41.277  29.855  33.483  1.00  0.00    -0.248 NA
ATOM     64  C   UNL A   1      42.148  28.308  31.968  1.00  0.00     0.031 C 
ATOM     65  C   UNL A   1      43.135  30.839  37.397  1.00  0.00     0.029 A 
ATOM     66  C   UNL A   1      42.577  30.517  36.170  1.00  0.00     0.049 A 
ATOM     67  H   UNL A   1      40.869  31.329  35.234  1.00  0.00     0.167 HD
ATOM     68  C   UNL A   1      42.423  29.285  34.023  1.00  0.00     0.074 A 
ATOM     69  C   UNL A   1      42.898  28.314  33.060  1.00  0.00     0.031 C 
ATOM     70  C   UNL A   1      43.027  29.543  35.209  1.00  0.00     0.037 A 
BRANCH  57  71
ATOM     71  C   UNL A   1      40.285  33.966  38.538  1.00  0.00     0.064 A 
ATOM     72  C   UNL A   1      39.590  33.587  39.698  1.00  0.00     0.173 A 
ATOM     73  C   UNL A   1      41.036  35.150  38.584  1.00  0.00     0.173 A 
ATOM     74  F   UNL A   1      38.847  32.470  39.704  1.00  0.00    -0.203 F 
ATOM     75  C   UNL A   1      39.623  34.376  40.845  1.00  0.00     0.198 A 
ATOM     76  C   UNL A   1      41.095  35.919  39.744  1.00  0.00     0.198 A 
ATOM     77  F   UNL A   1      41.724  35.557  37.507  1.00  0.00    -0.203 F 
ATOM     78  F   UNL A   1      38.912  34.018  41.923  1.00  0.00    -0.200 F 
ATOM     79  C   UNL A   1      40.383  35.536  40.870  1.00  0.00     0.200 A 
ATOM     80  F   UNL A   1      41.841  37.032  39.770  1.00  0.00    -0.200 F 
ATOM     81  F   UNL A   1      40.423  36.288  41.978  1.00  0.00    -0.200 F 
ENDBRANCH  57  71
BRANCH  58  82
ATOM     82  C   UNL A   1      39.988  28.723  30.034  1.00  0.00     0.064 A 
ATOM     83  C   UNL A   1      39.399  27.452  29.961  1.00  0.00     0.173 A 
ATOM     84  C   UNL A   1      40.574  29.238  28.869  1.00  0.00     0.173 A 
ATOM     85  F   UNL A   1      38.842  26.909  31.053  1.00  0.00    -0.203 F 
ATOM     86  C   UNL A   1      39.424  26.714  28.779  1.00  0.00     0.198 A 
ATOM     87  C   UNL A   1      40.570  28.512  27.680  1.00  0.00     0.198 A 
ATOM     88  F   UNL A   1      41.146  30.451  28.883  1.00  0.00    -0.203 F 
ATOM     89  F   UNL A   1      38.903  25.480  28.753  1.00  0.00    -0.200 F 
ATOM     90  C   UNL A   1      40.005  27.247  27.639  1.00  0.00     0.200 A 
ATOM     91  F   UNL A   1      41.119  29.037  26.575  1.00  0.00    -0.200 F 
ATOM     92  F   UNL A   1      40.028  26.537  26.502  1.00  0.00    -0.200 F 
ENDBRANCH  58  82
BRANCH  70  93
ATOM     93  C   UNL A   1      44.240  28.730  35.558  1.00  0.00     0.064 A 
ATOM     94  C   UNL A   1      45.535  29.152  35.223  1.00  0.00     0.173 A 
ATOM     95  C   UNL A   1      44.105  27.533  36.277  1.00  0.00     0.173 A 
ATOM     96  F   UNL A   1      45.718  30.281  34.523  1.00  0.00    -0.203 F 
ATOM     97  C   UNL A   1      46.648  28.392  35.573  1.00  0.00     0.198 A 
ATOM     98  C   UNL A   1      45.221  26.792  36.655  1.00  0.00     0.198 A 
ATOM     99  F   UNL A   1      42.889  27.088  36.629  1.00  0.00    -0.203 F 
ATOM    100  F   UNL A   1      47.872  28.788  35.200  1.00  0.00    -0.200 F 
ATOM    101  C   UNL A   1      46.491  27.218  36.296  1.00  0.00     0.200 A 
ATOM    102  F   UNL A   1      45.068  25.667  37.367  1.00  0.00    -0.200 F 
ATOM    103  F   UNL A   1      47.564  26.493  36.641  1.00  0.00    -0.200 F 
ENDBRANCH  70  93
ENDBRANCH  44  45
ENDBRANCH  36  39
ENDBRANCH  34  35
ENDBRANCH  33  34
ENDBRANCH  32  33
ENDBRANCH  31  32
ENDBRANCH   1  31
TORSDOF 18
ENDMDL
