MODEL 1
REMARK VINA RESULT:     -12.4      0.000      0.000
REMARK SMILES O=C(NCCCCCCNC(=O)[C@H]1CS[C@H](c2nc3ccccc3s2)[NH2+]1)c1ccc(-c2c3nc(c(-c4c(F)c(F)c(F)c(F)c4F)c4ccc([nH]4)c(-c4c(F)c(F)c(F)c(F)c4F)c4nc(c(-c5c(F)c(F)c(F)c(F)c5F)c5ccc2[nH]5)C=C4)C=C3)cc1
REMARK SMILES IDX 6 1 5 2 4 3 3 4 1 5 2 6 27 8 28 9 89 10 29 11 88 12 30 13
REMARK SMILES IDX 31 14 32 15 82 16 33 17 87 18 81 19 83 20 34 21 86 22 80 23
REMARK SMILES IDX 79 24 35 26 67 27 47 28 66 29 48 30 51 31 65 32 84 33 49 34
REMARK SMILES IDX 50 35 64 37 85 38 52 39 36 40 37 41 45 42 38 43 39 44 43 45
REMARK SMILES IDX 46 46 40 47 41 48 44 49 42 50 68 51 69 52 77 53 70 54 71 55
REMARK SMILES IDX 75 56 78 57 72 58 73 59 76 60 74 61 53 62 54 63 62 64 55 65
REMARK SMILES IDX 56 66 60 67 63 68 57 69 58 70 61 71 59 72 7 73 8 74 9 75
REMARK SMILES IDX 10 76 11 77 12 79 13 80 14 81 26 82 15 83 16 84 17 87 18 88
REMARK SMILES IDX 25 89 19 90 24 91 20 92 23 93 21 94 22 95
REMARK H PARENT 3 7 83 25 51 36 10 78 26 85 26 86
REMARK Flexibility Score: inf
ROOT
ATOM      1  C   UNL A   1      31.599  30.585  26.801  1.00  0.00     0.002 C 
ENDROOT
BRANCH   1   2
ATOM      2  C   UNL A   1      31.430  32.105  26.830  1.00  0.00     0.021 C 
BRANCH   2   3
ATOM      3  C   UNL A   1      32.710  32.880  27.111  1.00  0.00     0.116 C 
BRANCH   3   4
ATOM      4  N   UNL A   1      32.449  34.232  27.578  1.00  0.00    -0.352 N 
ATOM      5  O   UNL A   1      32.561  35.993  28.986  1.00  0.00    -0.269 OA
ATOM      6  C   UNL A   1      33.030  34.922  28.614  1.00  0.00     0.251 C 
ATOM      7  H   UNL A   1      31.756  34.723  27.080  1.00  0.00     0.163 HD
BRANCH   6   8
ATOM      8  C   UNL A   1      34.210  34.355  29.300  1.00  0.00     0.039 A 
ATOM      9  C   UNL A   1      35.496  34.597  28.815  1.00  0.00     0.014 A 
ATOM     10  C   UNL A   1      34.025  33.567  30.440  1.00  0.00     0.014 A 
ATOM     11  C   UNL A   1      36.579  33.927  29.372  1.00  0.00     0.010 A 
ATOM     12  C   UNL A   1      35.128  32.968  31.055  1.00  0.00     0.010 A 
ATOM     13  C   UNL A   1      36.410  33.111  30.503  1.00  0.00    -0.014 A 
BRANCH  13  14
ATOM     14  C   UNL A   1      37.600  32.454  31.103  1.00  0.00     0.031 A 
ATOM     15  C   UNL A   1      38.055  32.792  32.496  1.00  0.00     0.074 A 
ATOM     16  C   UNL A   1      38.243  31.508  30.392  1.00  0.00     0.049 A 
ATOM     17  N   UNL A   1      39.038  32.274  33.190  1.00  0.00    -0.248 NA
ATOM     18  C   UNL A   1      37.322  33.854  33.199  1.00  0.00     0.031 C 
ATOM     19  C   UNL A   1      37.900  31.107  29.026  1.00  0.00     0.029 A 
ATOM     20  N   UNL A   1      39.296  30.694  30.723  1.00  0.00    -0.354 N 
ATOM     21  C   UNL A   1      39.058  32.961  34.397  1.00  0.00     0.074 A 
ATOM     22  C   UNL A   1      38.003  33.951  34.333  1.00  0.00     0.031 C 
ATOM     23  C   UNL A   1      38.685  30.085  28.658  1.00  0.00     0.029 A 
ATOM     24  C   UNL A   1      39.625  29.798  29.735  1.00  0.00     0.049 A 
ATOM     25  H   UNL A   1      39.769  30.748  31.584  1.00  0.00     0.167 HD
ATOM     26  C   UNL A   1      39.877  32.776  35.461  1.00  0.00     0.037 A 
ATOM     27  C   UNL A   1      40.581  28.853  29.700  1.00  0.00     0.037 A 
ATOM     28  C   UNL A   1      40.907  31.771  35.528  1.00  0.00     0.049 A 
ATOM     29  C   UNL A   1      41.473  28.672  30.894  1.00  0.00     0.074 A 
ATOM     30  C   UNL A   1      41.756  31.473  36.580  1.00  0.00     0.029 A 
ATOM     31  N   UNL A   1      41.230  30.899  34.497  1.00  0.00    -0.354 N 
ATOM     32  N   UNL A   1      41.453  29.300  32.044  1.00  0.00    -0.248 NA
ATOM     33  C   UNL A   1      42.523  27.652  30.782  1.00  0.00     0.031 C 
ATOM     34  C   UNL A   1      42.623  30.453  36.170  1.00  0.00     0.029 A 
ATOM     35  C   UNL A   1      42.281  30.080  34.880  1.00  0.00     0.049 A 
ATOM     36  H   UNL A   1      40.779  30.868  33.623  1.00  0.00     0.167 HD
ATOM     37  C   UNL A   1      42.469  28.738  32.802  1.00  0.00     0.074 A 
ATOM     38  C   UNL A   1      43.075  27.704  31.987  1.00  0.00     0.031 C 
ATOM     39  C   UNL A   1      42.868  29.052  34.059  1.00  0.00     0.037 A 
BRANCH  26  40
ATOM     40  C   UNL A   1      39.711  33.695  36.638  1.00  0.00     0.064 A 
ATOM     41  C   UNL A   1      40.349  34.942  36.700  1.00  0.00     0.173 A 
ATOM     42  C   UNL A   1      38.862  33.340  37.698  1.00  0.00     0.173 A 
ATOM     43  F   UNL A   1      41.179  35.326  35.719  1.00  0.00    -0.203 F 
ATOM     44  C   UNL A   1      40.164  35.788  37.792  1.00  0.00     0.198 A 
ATOM     45  C   UNL A   1      38.658  34.200  38.774  1.00  0.00     0.198 A 
ATOM     46  F   UNL A   1      38.221  32.162  37.686  1.00  0.00    -0.203 F 
ATOM     47  F   UNL A   1      40.818  36.956  37.850  1.00  0.00    -0.200 F 
ATOM     48  C   UNL A   1      39.313  35.420  38.823  1.00  0.00     0.200 A 
ATOM     49  F   UNL A   1      37.825  33.847  39.764  1.00  0.00    -0.200 F 
ATOM     50  F   UNL A   1      39.131  36.239  39.868  1.00  0.00    -0.200 F 
ENDBRANCH  26  40
BRANCH  27  51
ATOM     51  C   UNL A   1      40.727  27.996  28.495  1.00  0.00     0.064 A 
ATOM     52  C   UNL A   1      41.515  28.407  27.412  1.00  0.00     0.173 A 
ATOM     53  C   UNL A   1      40.095  26.747  28.408  1.00  0.00     0.173 A 
ATOM     54  F   UNL A   1      42.124  29.602  27.441  1.00  0.00    -0.203 F 
ATOM     55  C   UNL A   1      41.652  27.607  26.279  1.00  0.00     0.198 A 
ATOM     56  C   UNL A   1      40.257  25.935  27.289  1.00  0.00     0.198 A 
ATOM     57  F   UNL A   1      39.336  26.307  29.422  1.00  0.00    -0.203 F 
ATOM     58  F   UNL A   1      42.378  28.041  25.239  1.00  0.00    -0.200 F 
ATOM     59  C   UNL A   1      41.029  26.370  26.222  1.00  0.00     0.200 A 
ATOM     60  F   UNL A   1      39.669  24.732  27.245  1.00  0.00    -0.200 F 
ATOM     61  F   UNL A   1      41.169  25.597  25.136  1.00  0.00    -0.200 F 
ENDBRANCH  27  51
BRANCH  39  62
ATOM     62  C   UNL A   1      43.988  28.240  34.640  1.00  0.00     0.064 A 
ATOM     63  C   UNL A   1      43.748  27.041  35.327  1.00  0.00     0.173 A 
ATOM     64  C   UNL A   1      45.318  28.661  34.495  1.00  0.00     0.173 A 
ATOM     65  F   UNL A   1      42.492  26.605  35.508  1.00  0.00    -0.203 F 
ATOM     66  C   UNL A   1      44.798  26.309  35.877  1.00  0.00     0.198 A 
ATOM     67  C   UNL A   1      46.368  27.912  35.018  1.00  0.00     0.198 A 
ATOM     68  F   UNL A   1      45.601  29.797  33.841  1.00  0.00    -0.203 F 
ATOM     69  F   UNL A   1      44.542  25.196  36.578  1.00  0.00    -0.200 F 
ATOM     70  C   UNL A   1      46.106  26.742  35.717  1.00  0.00     0.200 A 
ATOM     71  F   UNL A   1      47.632  28.324  34.854  1.00  0.00    -0.200 F 
ATOM     72  F   UNL A   1      47.116  26.037  36.246  1.00  0.00    -0.200 F 
ENDBRANCH  39  62
ENDBRANCH  13  14
ENDBRANCH   6   8
ENDBRANCH   3   4
ENDBRANCH   2   3
ENDBRANCH   1   2
BRANCH   1  73
ATOM     73  C   UNL A   1      31.751  29.969  25.407  1.00  0.00     0.002 C 
BRANCH  73  74
ATOM     74  C   UNL A   1      33.173  29.537  25.032  1.00  0.00     0.021 C 
BRANCH  74  75
ATOM     75  C   UNL A   1      33.359  29.224  23.551  1.00  0.00     0.116 C 
BRANCH  75  76
ATOM     76  N   UNL A   1      32.099  28.926  22.899  1.00  0.00    -0.351 N 
ATOM     77  C   UNL A   1      31.459  27.746  22.654  1.00  0.00     0.279 C 
ATOM     78  H   UNL A   1      31.617  29.720  22.574  1.00  0.00     0.163 HD
ATOM     79  O   UNL A   1      30.437  27.795  21.966  1.00  0.00    -0.268 OA
BRANCH  77  80
ATOM     80  C   UNL A   1      31.981  26.401  23.193  1.00  0.00     0.284 C 
ATOM     81  C   UNL A   1      30.968  25.719  24.108  1.00  0.00     0.151 C 
ATOM     82  N   UNL A   1      32.479  25.536  22.089  1.00  0.00    -0.319 N 
ATOM     83  S   UNL A   1      30.647  24.106  23.377  1.00  0.00    -0.085 SA
ATOM     84  C   UNL A   1      32.183  24.131  22.399  1.00  0.00     0.303 C 
ATOM     85  H   UNL A   1      33.486  25.659  21.989  1.00  0.00     0.348 HD
ATOM     86  H   UNL A   1      32.017  25.798  21.217  1.00  0.00     0.348 HD
BRANCH  84  87
ATOM     87  C   UNL A   1      33.273  23.356  23.118  1.00  0.00     0.163 A 
ATOM     88  N   UNL A   1      34.550  23.678  23.030  1.00  0.00    -0.234 NA
ATOM     89  S   UNL A   1      32.941  21.992  24.114  1.00  0.00    -0.112 S 
ATOM     90  C   UNL A   1      35.329  22.743  23.686  1.00  0.00     0.082 A 
ATOM     91  C   UNL A   1      34.625  21.736  24.342  1.00  0.00     0.055 A 
ATOM     92  C   UNL A   1      36.736  22.730  23.725  1.00  0.00     0.030 A 
ATOM     93  C   UNL A   1      35.279  20.711  25.044  1.00  0.00     0.021 A 
ATOM     94  C   UNL A   1      37.400  21.706  24.406  1.00  0.00     0.002 A 
ATOM     95  C   UNL A   1      36.678  20.710  25.057  1.00  0.00     0.002 A 
ENDBRANCH  84  87
ENDBRANCH  77  80
ENDBRANCH  75  76
ENDBRANCH  74  75
ENDBRANCH  73  74
ENDBRANCH   1  73
TORSDOF 14
ENDMDL
MODEL 2
REMARK VINA RESULT:     -12.4      2.187      3.418
REMARK SMILES O=C(NCCCCCCNC(=O)[C@H]1CS[C@H](c2nc3ccccc3s2)[NH2+]1)c1ccc(-c2c3nc(c(-c4c(F)c(F)c(F)c(F)c4F)c4ccc([nH]4)c(-c4c(F)c(F)c(F)c(F)c4F)c4nc(c(-c5c(F)c(F)c(F)c(F)c5F)c5ccc2[nH]5)C=C4)C=C3)cc1
REMARK SMILES IDX 6 1 5 2 4 3 3 4 1 5 2 6 27 8 28 9 89 10 29 11 88 12 30 13
REMARK SMILES IDX 31 14 32 15 82 16 33 17 87 18 81 19 83 20 34 21 86 22 80 23
REMARK SMILES IDX 79 24 35 26 67 27 47 28 66 29 48 30 51 31 65 32 84 33 49 34
REMARK SMILES IDX 50 35 64 37 85 38 52 39 36 40 37 41 45 42 38 43 39 44 43 45
REMARK SMILES IDX 46 46 40 47 41 48 44 49 42 50 68 51 69 52 77 53 70 54 71 55
REMARK SMILES IDX 75 56 78 57 72 58 73 59 76 60 74 61 53 62 54 63 62 64 55 65
REMARK SMILES IDX 56 66 60 67 63 68 57 69 58 70 61 71 59 72 7 73 8 74 9 75
REMARK SMILES IDX 10 76 11 77 12 79 13 80 14 81 26 82 15 83 16 84 17 87 18 88
REMARK SMILES IDX 25 89 19 90 24 91 20 92 23 93 21 94 22 95
REMARK H PARENT 3 7 83 25 51 36 10 78 26 85 26 86
REMARK Flexibility Score: inf
ROOT
ATOM      1  C   UNL A   1      31.499  27.957  25.585  1.00  0.00     0.002 C 
ENDROOT
BRANCH   1   2
ATOM      2  C   UNL A   1      33.026  27.892  25.519  1.00  0.00     0.021 C 
BRANCH   2   3
ATOM      3  C   UNL A   1      33.700  29.199  25.121  1.00  0.00     0.116 C 
BRANCH   3   4
ATOM      4  N   UNL A   1      33.068  30.357  25.734  1.00  0.00    -0.352 N 
ATOM      5  O   UNL A   1      32.663  31.879  27.351  1.00  0.00    -0.269 OA
ATOM      6  C   UNL A   1      33.415  31.032  26.879  1.00  0.00     0.251 C 
ATOM      7  H   UNL A   1      32.279  30.705  25.261  1.00  0.00     0.163 HD
BRANCH   6   8
ATOM      8  C   UNL A   1      34.689  30.715  27.558  1.00  0.00     0.039 A 
ATOM      9  C   UNL A   1      34.906  29.450  28.105  1.00  0.00     0.014 A 
ATOM     10  C   UNL A   1      35.676  31.701  27.651  1.00  0.00     0.014 A 
ATOM     11  C   UNL A   1      36.038  29.219  28.878  1.00  0.00     0.010 A 
ATOM     12  C   UNL A   1      36.857  31.436  28.353  1.00  0.00     0.010 A 
ATOM     13  C   UNL A   1      37.030  30.205  29.006  1.00  0.00    -0.014 A 
BRANCH  13  14
ATOM     14  C   UNL A   1      38.251  29.903  29.796  1.00  0.00     0.031 A 
ATOM     15  C   UNL A   1      38.409  30.401  31.206  1.00  0.00     0.074 A 
ATOM     16  C   UNL A   1      39.204  29.130  29.241  1.00  0.00     0.049 A 
ATOM     17  N   UNL A   1      39.385  30.182  32.052  1.00  0.00    -0.248 NA
ATOM     18  C   UNL A   1      37.342  31.263  31.733  1.00  0.00     0.031 C 
ATOM     19  C   UNL A   1      39.167  28.602  27.875  1.00  0.00     0.029 A 
ATOM     20  N   UNL A   1      40.371  28.630  29.758  1.00  0.00    -0.354 N 
ATOM     21  C   UNL A   1      39.063  30.897  33.199  1.00  0.00     0.074 A 
ATOM     22  C   UNL A   1      37.812  31.576  32.933  1.00  0.00     0.031 C 
ATOM     23  C   UNL A   1      40.227  27.805  27.683  1.00  0.00     0.029 A 
ATOM     24  C   UNL A   1      41.049  27.813  28.887  1.00  0.00     0.049 A 
ATOM     25  H   UNL A   1      40.692  28.838  30.665  1.00  0.00     0.167 HD
ATOM     26  C   UNL A   1      39.746  30.972  34.367  1.00  0.00     0.037 A 
ATOM     27  C   UNL A   1      42.208  27.147  29.040  1.00  0.00     0.037 A 
ATOM     28  C   UNL A   1      40.977  30.271  34.635  1.00  0.00     0.049 A 
ATOM     29  C   UNL A   1      42.943  27.250  30.345  1.00  0.00     0.074 A 
ATOM     30  C   UNL A   1      41.719  30.245  35.803  1.00  0.00     0.029 A 
ATOM     31  N   UNL A   1      41.648  29.475  33.719  1.00  0.00    -0.354 N 
ATOM     32  N   UNL A   1      42.605  27.895  31.435  1.00  0.00    -0.248 NA
ATOM     33  C   UNL A   1      44.221  26.533  30.439  1.00  0.00     0.031 C 
ATOM     34  C   UNL A   1      42.863  29.470  35.579  1.00  0.00     0.029 A 
ATOM     35  C   UNL A   1      42.808  28.971  34.288  1.00  0.00     0.049 A 
ATOM     36  H   UNL A   1      41.346  29.294  32.799  1.00  0.00     0.167 HD
ATOM     37  C   UNL A   1      43.615  27.646  32.352  1.00  0.00     0.074 A 
ATOM     38  C   UNL A   1      44.569  26.773  31.696  1.00  0.00     0.031 C 
ATOM     39  C   UNL A   1      43.744  28.100  33.623  1.00  0.00     0.037 A 
BRANCH  26  40
ATOM     40  C   UNL A   1      39.192  31.861  35.445  1.00  0.00     0.064 A 
ATOM     41  C   UNL A   1      38.363  31.364  36.461  1.00  0.00     0.173 A 
ATOM     42  C   UNL A   1      39.535  33.221  35.486  1.00  0.00     0.173 A 
ATOM     43  F   UNL A   1      37.995  30.073  36.463  1.00  0.00    -0.203 F 
ATOM     44  C   UNL A   1      37.878  32.201  37.463  1.00  0.00     0.198 A 
ATOM     45  C   UNL A   1      39.071  34.049  36.505  1.00  0.00     0.198 A 
ATOM     46  F   UNL A   1      40.332  33.746  34.543  1.00  0.00    -0.203 F 
ATOM     47  F   UNL A   1      37.051  31.714  38.399  1.00  0.00    -0.200 F 
ATOM     48  C   UNL A   1      38.238  33.540  37.489  1.00  0.00     0.200 A 
ATOM     49  F   UNL A   1      39.430  35.340  36.535  1.00  0.00    -0.200 F 
ATOM     50  F   UNL A   1      37.775  34.342  38.458  1.00  0.00    -0.200 F 
ENDBRANCH  26  40
BRANCH  27  51
ATOM     51  C   UNL A   1      42.731  26.312  27.928  1.00  0.00     0.064 A 
ATOM     52  C   UNL A   1      43.562  26.864  26.943  1.00  0.00     0.173 A 
ATOM     53  C   UNL A   1      42.424  24.947  27.835  1.00  0.00     0.173 A 
ATOM     54  F   UNL A   1      43.869  28.169  26.980  1.00  0.00    -0.203 F 
ATOM     55  C   UNL A   1      44.052  26.084  25.897  1.00  0.00     0.198 A 
ATOM     56  C   UNL A   1      42.939  24.162  26.807  1.00  0.00     0.198 A 
ATOM     57  F   UNL A   1      41.639  24.372  28.757  1.00  0.00    -0.203 F 
ATOM     58  F   UNL A   1      44.810  26.645  24.945  1.00  0.00    -0.200 F 
ATOM     59  C   UNL A   1      43.746  24.733  25.834  1.00  0.00     0.200 A 
ATOM     60  F   UNL A   1      42.656  22.853  26.759  1.00  0.00    -0.200 F 
ATOM     61  F   UNL A   1      44.225  23.982  24.834  1.00  0.00    -0.200 F 
ENDBRANCH  27  51
BRANCH  39  62
ATOM     62  C   UNL A   1      44.940  27.629  34.396  1.00  0.00     0.064 A 
ATOM     63  C   UNL A   1      46.142  28.351  34.404  1.00  0.00     0.173 A 
ATOM     64  C   UNL A   1      44.877  26.447  35.148  1.00  0.00     0.173 A 
ATOM     65  F   UNL A   1      46.258  29.478  33.687  1.00  0.00    -0.203 F 
ATOM     66  C   UNL A   1      47.249  27.889  35.113  1.00  0.00     0.198 A 
ATOM     67  C   UNL A   1      45.975  26.003  35.880  1.00  0.00     0.198 A 
ATOM     68  F   UNL A   1      43.748  25.722  35.178  1.00  0.00    -0.203 F 
ATOM     69  F   UNL A   1      48.405  28.565  35.061  1.00  0.00    -0.200 F 
ATOM     70  C   UNL A   1      47.163  26.719  35.853  1.00  0.00     0.200 A 
ATOM     71  F   UNL A   1      45.887  24.880  36.604  1.00  0.00    -0.200 F 
ATOM     72  F   UNL A   1      48.229  26.277  36.534  1.00  0.00    -0.200 F 
ENDBRANCH  39  62
ENDBRANCH  13  14
ENDBRANCH   6   8
ENDBRANCH   3   4
ENDBRANCH   2   3
ENDBRANCH   1   2
BRANCH   1  73
ATOM     73  C   UNL A   1      30.778  27.827  24.239  1.00  0.00     0.002 C 
BRANCH  73  74
ATOM     74  C   UNL A   1      29.700  26.739  24.175  1.00  0.00     0.021 C 
BRANCH  74  75
ATOM     75  C   UNL A   1      30.244  25.318  24.292  1.00  0.00     0.116 C 
BRANCH  75  76
ATOM     76  N   UNL A   1      29.903  24.712  25.564  1.00  0.00    -0.351 N 
ATOM     77  C   UNL A   1      30.546  23.786  26.330  1.00  0.00     0.279 C 
ATOM     78  H   UNL A   1      29.051  25.026  25.943  1.00  0.00     0.163 HD
ATOM     79  O   UNL A   1      29.949  23.368  27.326  1.00  0.00    -0.268 OA
BRANCH  77  80
ATOM     80  C   UNL A   1      31.952  23.263  25.980  1.00  0.00     0.284 C 
ATOM     81  C   UNL A   1      31.901  22.101  24.992  1.00  0.00     0.151 C 
ATOM     82  N   UNL A   1      32.850  24.374  25.562  1.00  0.00    -0.319 N 
ATOM     83  S   UNL A   1      32.882  22.614  23.572  1.00  0.00    -0.085 SA
ATOM     84  C   UNL A   1      33.765  23.895  24.517  1.00  0.00     0.303 C 
ATOM     85  H   UNL A   1      33.389  24.696  26.365  1.00  0.00     0.348 HD
ATOM     86  H   UNL A   1      32.290  25.146  25.198  1.00  0.00     0.348 HD
BRANCH  84  87
ATOM     87  C   UNL A   1      35.108  23.365  24.988  1.00  0.00     0.163 A 
ATOM     88  N   UNL A   1      35.963  24.102  25.672  1.00  0.00    -0.234 NA
ATOM     89  S   UNL A   1      35.632  21.755  24.678  1.00  0.00    -0.112 S 
ATOM     90  C   UNL A   1      37.143  23.411  25.871  1.00  0.00     0.082 A 
ATOM     91  C   UNL A   1      37.155  22.103  25.393  1.00  0.00     0.055 A 
ATOM     92  C   UNL A   1      38.299  23.924  26.489  1.00  0.00     0.030 A 
ATOM     93  C   UNL A   1      38.286  21.281  25.515  1.00  0.00     0.021 A 
ATOM     94  C   UNL A   1      39.438  23.121  26.602  1.00  0.00     0.002 A 
ATOM     95  C   UNL A   1      39.429  21.815  26.119  1.00  0.00     0.002 A 
ENDBRANCH  84  87
ENDBRANCH  77  80
ENDBRANCH  75  76
ENDBRANCH  74  75
ENDBRANCH  73  74
ENDBRANCH   1  73
TORSDOF 14
ENDMDL
MODEL 3
REMARK VINA RESULT:     -12.2      1.995      3.311
REMARK SMILES O=C(NCCCCCCNC(=O)[C@H]1CS[C@H](c2nc3ccccc3s2)[NH2+]1)c1ccc(-c2c3nc(c(-c4c(F)c(F)c(F)c(F)c4F)c4ccc([nH]4)c(-c4c(F)c(F)c(F)c(F)c4F)c4nc(c(-c5c(F)c(F)c(F)c(F)c5F)c5ccc2[nH]5)C=C4)C=C3)cc1
REMARK SMILES IDX 6 1 5 2 4 3 3 4 1 5 2 6 27 8 28 9 89 10 29 11 88 12 30 13
REMARK SMILES IDX 31 14 32 15 82 16 33 17 87 18 81 19 83 20 34 21 86 22 80 23
REMARK SMILES IDX 79 24 35 26 67 27 47 28 66 29 48 30 51 31 65 32 84 33 49 34
REMARK SMILES IDX 50 35 64 37 85 38 52 39 36 40 37 41 45 42 38 43 39 44 43 45
REMARK SMILES IDX 46 46 40 47 41 48 44 49 42 50 68 51 69 52 77 53 70 54 71 55
REMARK SMILES IDX 75 56 78 57 72 58 73 59 76 60 74 61 53 62 54 63 62 64 55 65
REMARK SMILES IDX 56 66 60 67 63 68 57 69 58 70 61 71 59 72 7 73 8 74 9 75
REMARK SMILES IDX 10 76 11 77 12 79 13 80 14 81 26 82 15 83 16 84 17 87 18 88
REMARK SMILES IDX 25 89 19 90 24 91 20 92 23 93 21 94 22 95
REMARK H PARENT 3 7 83 25 51 36 10 78 26 85 26 86
REMARK Flexibility Score: inf
ROOT
ATOM      1  C   UNL A   1      31.636  27.241  26.809  1.00  0.00     0.002 C 
ENDROOT
BRANCH   1   2
ATOM      2  C   UNL A   1      31.588  28.755  27.017  1.00  0.00     0.021 C 
BRANCH   2   3
ATOM      3  C   UNL A   1      32.755  29.517  26.402  1.00  0.00     0.116 C 
BRANCH   3   4
ATOM      4  N   UNL A   1      32.598  30.958  26.517  1.00  0.00    -0.352 N 
ATOM      5  O   UNL A   1      32.965  33.019  27.362  1.00  0.00    -0.269 OA
ATOM      6  C   UNL A   1      33.347  31.860  27.232  1.00  0.00     0.251 C 
ATOM      7  H   UNL A   1      31.847  31.342  26.009  1.00  0.00     0.163 HD
BRANCH   6   8
ATOM      8  C   UNL A   1      34.606  31.423  27.870  1.00  0.00     0.039 A 
ATOM      9  C   UNL A   1      34.751  30.114  28.330  1.00  0.00     0.014 A 
ATOM     10  C   UNL A   1      35.654  32.338  28.012  1.00  0.00     0.014 A 
ATOM     11  C   UNL A   1      35.875  29.764  29.070  1.00  0.00     0.010 A 
ATOM     12  C   UNL A   1      36.823  31.957  28.677  1.00  0.00     0.010 A 
ATOM     13  C   UNL A   1      36.927  30.678  29.246  1.00  0.00    -0.014 A 
BRANCH  13  14
ATOM     14  C   UNL A   1      38.136  30.251  29.996  1.00  0.00     0.031 A 
ATOM     15  C   UNL A   1      38.362  30.681  31.419  1.00  0.00     0.074 A 
ATOM     16  C   UNL A   1      39.013  29.426  29.392  1.00  0.00     0.049 A 
ATOM     17  N   UNL A   1      39.334  30.355  32.235  1.00  0.00    -0.248 NA
ATOM     18  C   UNL A   1      37.377  31.604  32.002  1.00  0.00     0.031 C 
ATOM     19  C   UNL A   1      38.906  28.954  28.010  1.00  0.00     0.029 A 
ATOM     20  N   UNL A   1      40.147  28.817  29.864  1.00  0.00    -0.354 N 
ATOM     21  C   UNL A   1      39.093  31.049  33.414  1.00  0.00     0.074 A 
ATOM     22  C   UNL A   1      37.895  31.834  33.201  1.00  0.00     0.031 C 
ATOM     23  C   UNL A   1      39.895  28.084  27.765  1.00  0.00     0.029 A 
ATOM     24  C   UNL A   1      40.740  27.982  28.949  1.00  0.00     0.049 A 
ATOM     25  H   UNL A   1      40.502  28.965  30.771  1.00  0.00     0.167 HD
ATOM     26  C   UNL A   1      39.804  31.026  34.567  1.00  0.00     0.037 A 
ATOM     27  C   UNL A   1      41.845  27.222  29.051  1.00  0.00     0.037 A 
ATOM     28  C   UNL A   1      40.979  30.221  34.781  1.00  0.00     0.049 A 
ATOM     29  C   UNL A   1      42.612  27.217  30.342  1.00  0.00     0.074 A 
ATOM     30  C   UNL A   1      41.741  30.092  35.930  1.00  0.00     0.029 A 
ATOM     31  N   UNL A   1      41.567  29.409  33.822  1.00  0.00    -0.354 N 
ATOM     32  N   UNL A   1      42.349  27.845  31.462  1.00  0.00    -0.248 NA
ATOM     33  C   UNL A   1      43.830  26.399  30.381  1.00  0.00     0.031 C 
ATOM     34  C   UNL A   1      42.815  29.238  35.653  1.00  0.00     0.029 A 
ATOM     35  C   UNL A   1      42.694  28.794  34.345  1.00  0.00     0.049 A 
ATOM     36  H   UNL A   1      41.233  29.287  32.904  1.00  0.00     0.167 HD
ATOM     37  C   UNL A   1      43.354  27.483  32.345  1.00  0.00     0.074 A 
ATOM     38  C   UNL A   1      44.221  26.563  31.637  1.00  0.00     0.031 C 
ATOM     39  C   UNL A   1      43.544  27.878  33.629  1.00  0.00     0.037 A 
BRANCH  26  40
ATOM     40  C   UNL A   1      39.344  31.914  35.689  1.00  0.00     0.064 A 
ATOM     41  C   UNL A   1      38.394  31.489  36.629  1.00  0.00     0.173 A 
ATOM     42  C   UNL A   1      39.898  33.194  35.851  1.00  0.00     0.173 A 
ATOM     43  F   UNL A   1      37.825  30.279  36.515  1.00  0.00    -0.203 F 
ATOM     44  C   UNL A   1      37.998  32.321  37.674  1.00  0.00     0.198 A 
ATOM     45  C   UNL A   1      39.520  34.012  36.912  1.00  0.00     0.198 A 
ATOM     46  F   UNL A   1      40.816  33.647  34.984  1.00  0.00    -0.203 F 
ATOM     47  F   UNL A   1      37.057  31.910  38.535  1.00  0.00    -0.200 F 
ATOM     48  C   UNL A   1      38.566  33.578  37.819  1.00  0.00     0.200 A 
ATOM     49  F   UNL A   1      40.080  35.221  37.057  1.00  0.00    -0.200 F 
ATOM     50  F   UNL A   1      38.189  34.373  38.829  1.00  0.00    -0.200 F 
ENDBRANCH  26  40
BRANCH  27  51
ATOM     51  C   UNL A   1      42.277  26.390  27.898  1.00  0.00     0.064 A 
ATOM     52  C   UNL A   1      41.742  25.111  27.694  1.00  0.00     0.173 A 
ATOM     53  C   UNL A   1      43.218  26.861  26.972  1.00  0.00     0.173 A 
ATOM     54  F   UNL A   1      40.852  24.610  28.563  1.00  0.00    -0.203 F 
ATOM     55  C   UNL A   1      42.147  24.327  26.615  1.00  0.00     0.198 A 
ATOM     56  C   UNL A   1      43.599  26.089  25.877  1.00  0.00     0.198 A 
ATOM     57  F   UNL A   1      43.753  28.081  27.120  1.00  0.00    -0.203 F 
ATOM     58  F   UNL A   1      41.651  23.091  26.466  1.00  0.00    -0.200 F 
ATOM     59  C   UNL A   1      43.069  24.820  25.704  1.00  0.00     0.200 A 
ATOM     60  F   UNL A   1      44.477  26.576  24.989  1.00  0.00    -0.200 F 
ATOM     61  F   UNL A   1      43.450  24.069  24.662  1.00  0.00    -0.200 F 
ENDBRANCH  27  51
BRANCH  39  62
ATOM     62  C   UNL A   1      44.714  27.285  34.356  1.00  0.00     0.064 A 
ATOM     63  C   UNL A   1      45.967  27.915  34.373  1.00  0.00     0.173 A 
ATOM     64  C   UNL A   1      44.576  26.077  35.057  1.00  0.00     0.173 A 
ATOM     65  F   UNL A   1      46.155  29.062  33.703  1.00  0.00    -0.203 F 
ATOM     66  C   UNL A   1      47.048  27.341  35.038  1.00  0.00     0.198 A 
ATOM     67  C   UNL A   1      45.649  25.521  35.747  1.00  0.00     0.198 A 
ATOM     68  F   UNL A   1      43.396  25.438  35.077  1.00  0.00    -0.203 F 
ATOM     69  F   UNL A   1      48.250  27.931  34.993  1.00  0.00    -0.200 F 
ATOM     70  C   UNL A   1      46.886  26.148  35.728  1.00  0.00     0.200 A 
ATOM     71  F   UNL A   1      45.490  24.376  36.423  1.00  0.00    -0.200 F 
ATOM     72  F   UNL A   1      47.927  25.598  36.368  1.00  0.00    -0.200 F 
ENDBRANCH  39  62
ENDBRANCH  13  14
ENDBRANCH   6   8
ENDBRANCH   3   4
ENDBRANCH   2   3
ENDBRANCH   1   2
BRANCH   1  73
ATOM     73  C   UNL A   1      30.727  26.702  25.699  1.00  0.00     0.002 C 
BRANCH  73  74
ATOM     74  C   UNL A   1      31.037  27.217  24.290  1.00  0.00     0.021 C 
BRANCH  74  75
ATOM     75  C   UNL A   1      30.656  26.248  23.175  1.00  0.00     0.116 C 
BRANCH  75  76
ATOM     76  N   UNL A   1      31.553  26.347  22.041  1.00  0.00    -0.351 N 
ATOM     77  C   UNL A   1      32.625  25.593  21.662  1.00  0.00     0.279 C 
ATOM     78  H   UNL A   1      31.353  27.095  21.435  1.00  0.00     0.163 HD
ATOM     79  O   UNL A   1      33.278  25.993  20.695  1.00  0.00    -0.268 OA
BRANCH  77  80
ATOM     80  C   UNL A   1      33.026  24.303  22.403  1.00  0.00     0.284 C 
ATOM     81  C   UNL A   1      33.889  24.591  23.627  1.00  0.00     0.151 C 
ATOM     82  N   UNL A   1      31.836  23.455  22.686  1.00  0.00    -0.319 N 
ATOM     83  S   UNL A   1      33.015  23.877  25.029  1.00  0.00    -0.085 SA
ATOM     84  C   UNL A   1      32.017  22.777  23.976  1.00  0.00     0.303 C 
ATOM     85  H   UNL A   1      31.730  22.760  21.948  1.00  0.00     0.348 HD
ATOM     86  H   UNL A   1      31.001  24.041  22.722  1.00  0.00     0.348 HD
BRANCH  84  87
ATOM     87  C   UNL A   1      32.640  21.393  23.929  1.00  0.00     0.163 A 
ATOM     88  N   UNL A   1      32.152  20.419  23.183  1.00  0.00    -0.234 NA
ATOM     89  S   UNL A   1      34.040  20.972  24.837  1.00  0.00    -0.112 S 
ATOM     90  C   UNL A   1      32.840  19.243  23.416  1.00  0.00     0.082 A 
ATOM     91  C   UNL A   1      33.913  19.345  24.299  1.00  0.00     0.055 A 
ATOM     92  C   UNL A   1      32.534  17.989  22.855  1.00  0.00     0.030 A 
ATOM     93  C   UNL A   1      34.700  18.234  24.640  1.00  0.00     0.021 A 
ATOM     94  C   UNL A   1      33.300  16.871  23.199  1.00  0.00     0.002 A 
ATOM     95  C   UNL A   1      34.369  16.995  24.081  1.00  0.00     0.002 A 
ENDBRANCH  84  87
ENDBRANCH  77  80
ENDBRANCH  75  76
ENDBRANCH  74  75
ENDBRANCH  73  74
ENDBRANCH   1  73
TORSDOF 14
ENDMDL
