MODEL 1
REMARK VINA RESULT:     -12.4      0.000      0.000
REMARK SMILES O=C(CCC(=O)N1CCC[C@@]2(CCC(=O)N(Cc3ccncc3)C2)C1)NCCCCCCNC(=O)c1ccc(-c2c3nc(c(-c4c(F)c(F)c(F)c(F)c4F)c4ccc([nH]4)c(-c4c(F)c(F)c(F)c(F)c4F)c4nc(c(-c5c(F)c(F)c(F)c(F)c5F)c5ccc2[nH]5)C=C4)C=C3)cc1
REMARK SMILES IDX 28 1 27 2 26 3 1 4 2 5 3 7 4 8 5 9 6 10 7 11 8 12 25 13 9 14
REMARK SMILES IDX 11 15 10 16 12 17 24 18 13 19 16 20 14 21 15 22 17 23 18 24
REMARK SMILES IDX 19 25 23 26 20 27 22 28 21 29 29 30 30 31 31 32 32 33 33 34
REMARK SMILES IDX 34 35 35 37 36 38 37 39 98 40 38 41 97 42 39 43 40 44 41 45
REMARK SMILES IDX 91 46 42 47 96 48 90 49 92 50 43 51 95 52 89 53 88 54 44 56
REMARK SMILES IDX 76 57 56 58 75 59 57 60 60 61 74 62 93 63 58 64 59 65 73 67
REMARK SMILES IDX 94 68 61 69 45 70 46 71 54 72 47 73 48 74 52 75 55 76 49 77
REMARK SMILES IDX 50 78 53 79 51 80 77 81 78 82 86 83 79 84 80 85 84 86 87 87
REMARK SMILES IDX 81 88 82 89 85 90 83 91 62 92 63 93 71 94 64 95 65 96 69 97
REMARK SMILES IDX 72 98 66 99 67 100 70 101 68 102
REMARK H PARENT 26 6 33 36 92 55 60 66
REMARK Flexibility Score: inf
ROOT
ATOM      1  C   UNL A   1      34.843  31.733  28.646  1.00  0.00     0.021 C 
ENDROOT
BRANCH   1   2
ATOM      2  C   UNL A   1      33.763  31.283  27.635  1.00  0.00     0.116 C 
BRANCH   2   3
ATOM      3  N   UNL A   1      33.202  29.944  27.685  1.00  0.00    -0.356 N 
ATOM      4  O   UNL A   1      31.625  30.418  26.076  1.00  0.00    -0.275 OA
ATOM      5  C   UNL A   1      32.103  29.632  26.893  1.00  0.00     0.220 C 
ATOM      6  H   UNL A   1      33.597  29.262  28.275  1.00  0.00     0.163 HD
BRANCH   5   7
ATOM      7  C   UNL A   1      31.508  28.245  27.078  1.00  0.00     0.110 C 
BRANCH   7   8
ATOM      8  C   UNL A   1      31.344  27.505  25.746  1.00  0.00     0.110 C 
BRANCH   8   9
ATOM      9  C   UNL A   1      31.068  26.063  26.077  1.00  0.00     0.223 C 
ATOM     10  O   UNL A   1      30.025  25.776  26.671  1.00  0.00    -0.275 OA
BRANCH   9  11
ATOM     11  N   UNL A   1      32.101  25.156  25.921  1.00  0.00    -0.342 N 
ATOM     12  C   UNL A   1      33.297  25.690  25.308  1.00  0.00     0.119 C 
ATOM     13  C   UNL A   1      32.149  23.763  26.452  1.00  0.00     0.128 C 
ATOM     14  C   UNL A   1      33.831  24.737  24.263  1.00  0.00     0.022 C 
ATOM     15  C   UNL A   1      33.313  22.899  25.866  1.00  0.00     0.006 C 
ATOM     16  C   UNL A   1      33.411  23.296  24.398  1.00  0.00     0.012 C 
ATOM     17  C   UNL A   1      34.636  23.089  26.637  1.00  0.00     0.020 C 
ATOM     18  C   UNL A   1      33.042  21.386  25.917  1.00  0.00     0.128 C 
ATOM     19  C   UNL A   1      35.787  22.348  25.976  1.00  0.00     0.101 C 
ATOM     20  N   UNL A   1      34.133  20.645  25.260  1.00  0.00    -0.338 N 
ATOM     21  C   UNL A   1      35.474  20.960  25.450  1.00  0.00     0.222 C 
ATOM     22  O   UNL A   1      36.400  20.256  25.047  1.00  0.00    -0.275 OA
BRANCH  20  23
ATOM     23  C   UNL A   1      33.806  19.698  24.193  1.00  0.00     0.155 C 
BRANCH  23  24
ATOM     24  C   UNL A   1      33.725  18.266  24.640  1.00  0.00    -0.026 A 
ATOM     25  C   UNL A   1      32.616  17.794  25.343  1.00  0.00     0.025 A 
ATOM     26  C   UNL A   1      34.774  17.377  24.371  1.00  0.00     0.025 A 
ATOM     27  C   UNL A   1      32.613  16.473  25.758  1.00  0.00     0.111 A 
ATOM     28  C   UNL A   1      34.676  16.075  24.830  1.00  0.00     0.111 A 
ATOM     29  N   UNL A   1      33.613  15.600  25.512  1.00  0.00    -0.265 NA
ENDBRANCH  23  24
ENDBRANCH  20  23
ENDBRANCH   9  11
ENDBRANCH   8   9
ENDBRANCH   7   8
ENDBRANCH   5   7
ENDBRANCH   2   3
ENDBRANCH   1   2
BRANCH   1  30
ATOM     30  C   UNL A   1      34.970  33.170  29.178  1.00  0.00     0.002 C 
BRANCH  30  31
ATOM     31  C   UNL A   1      34.397  34.412  28.455  1.00  0.00     0.002 C 
BRANCH  31  32
ATOM     32  C   UNL A   1      33.084  35.053  28.926  1.00  0.00     0.021 C 
BRANCH  32  33
ATOM     33  C   UNL A   1      33.282  36.340  29.709  1.00  0.00     0.116 C 
BRANCH  33  34
ATOM     34  N   UNL A   1      32.471  36.370  30.926  1.00  0.00    -0.352 N 
ATOM     35  C   UNL A   1      32.655  35.724  32.121  1.00  0.00     0.251 C 
ATOM     36  H   UNL A   1      31.672  36.942  30.879  1.00  0.00     0.163 HD
ATOM     37  O   UNL A   1      31.780  35.768  32.986  1.00  0.00    -0.269 OA
BRANCH  35  38
ATOM     38  C   UNL A   1      33.886  34.947  32.359  1.00  0.00     0.039 A 
ATOM     39  C   UNL A   1      35.127  35.586  32.259  1.00  0.00     0.014 A 
ATOM     40  C   UNL A   1      33.819  33.594  32.695  1.00  0.00     0.014 A 
ATOM     41  C   UNL A   1      36.292  34.879  32.559  1.00  0.00     0.010 A 
ATOM     42  C   UNL A   1      34.964  32.927  33.102  1.00  0.00     0.010 A 
ATOM     43  C   UNL A   1      36.214  33.556  33.019  1.00  0.00    -0.014 A 
BRANCH  43  44
ATOM     44  C   UNL A   1      37.423  32.788  33.396  1.00  0.00     0.031 A 
ATOM     45  C   UNL A   1      38.128  33.103  34.686  1.00  0.00     0.074 A 
ATOM     46  C   UNL A   1      37.928  31.883  32.537  1.00  0.00     0.049 A 
ATOM     47  N   UNL A   1      39.258  32.634  35.150  1.00  0.00    -0.248 NA
ATOM     48  C   UNL A   1      37.501  34.116  35.552  1.00  0.00     0.031 C 
ATOM     49  C   UNL A   1      37.360  31.548  31.230  1.00  0.00     0.029 A 
ATOM     50  N   UNL A   1      39.042  31.089  32.628  1.00  0.00    -0.354 N 
ATOM     51  C   UNL A   1      39.483  33.312  36.340  1.00  0.00     0.074 A 
ATOM     52  C   UNL A   1      38.417  34.275  36.493  1.00  0.00     0.031 C 
ATOM     53  C   UNL A   1      38.115  30.600  30.652  1.00  0.00     0.029 A 
ATOM     54  C   UNL A   1      39.242  30.294  31.526  1.00  0.00     0.049 A 
ATOM     55  H   UNL A   1      39.642  31.090  33.409  1.00  0.00     0.167 HD
ATOM     56  C   UNL A   1      40.476  33.123  37.242  1.00  0.00     0.037 A 
ATOM     57  C   UNL A   1      40.233  29.425  31.252  1.00  0.00     0.037 A 
ATOM     58  C   UNL A   1      41.511  32.136  37.090  1.00  0.00     0.049 A 
ATOM     59  C   UNL A   1      41.319  29.224  32.273  1.00  0.00     0.074 A 
ATOM     60  C   UNL A   1      42.526  31.806  37.969  1.00  0.00     0.029 A 
ATOM     61  N   UNL A   1      41.661  31.320  35.977  1.00  0.00    -0.354 N 
ATOM     62  N   UNL A   1      41.482  29.812  33.435  1.00  0.00    -0.248 NA
ATOM     63  C   UNL A   1      42.356  28.235  31.951  1.00  0.00     0.031 C 
ATOM     64  C   UNL A   1      43.324  30.830  37.363  1.00  0.00     0.029 A 
ATOM     65  C   UNL A   1      42.771  30.506  36.134  1.00  0.00     0.049 A 
ATOM     66  H   UNL A   1      41.067  31.321  35.191  1.00  0.00     0.167 HD
ATOM     67  C   UNL A   1      42.621  29.249  33.994  1.00  0.00     0.074 A 
ATOM     68  C   UNL A   1      43.098  28.258  33.049  1.00  0.00     0.031 C 
ATOM     69  C   UNL A   1      43.221  29.526  35.177  1.00  0.00     0.037 A 
BRANCH  56  70
ATOM     70  C   UNL A   1      40.483  33.997  38.464  1.00  0.00     0.064 A 
ATOM     71  C   UNL A   1      41.213  35.196  38.513  1.00  0.00     0.173 A 
ATOM     72  C   UNL A   1      39.740  33.641  39.600  1.00  0.00     0.173 A 
ATOM     73  F   UNL A   1      41.953  35.579  37.461  1.00  0.00    -0.203 F 
ATOM     74  C   UNL A   1      41.233  35.980  39.664  1.00  0.00     0.198 A 
ATOM     75  C   UNL A   1      39.731  34.447  40.735  1.00  0.00     0.198 A 
ATOM     76  F   UNL A   1      39.020  32.509  39.610  1.00  0.00    -0.203 F 
ATOM     77  F   UNL A   1      41.993  37.084  39.707  1.00  0.00    -0.200 F 
ATOM     78  C   UNL A   1      40.487  35.610  40.771  1.00  0.00     0.200 A 
ATOM     79  F   UNL A   1      38.998  34.094  41.801  1.00  0.00    -0.200 F 
ATOM     80  F   UNL A   1      40.503  36.367  41.876  1.00  0.00    -0.200 F 
ENDBRANCH  56  70
BRANCH  57  81
ATOM     81  C   UNL A   1      40.224  28.671  29.971  1.00  0.00     0.064 A 
ATOM     82  C   UNL A   1      40.868  29.175  28.832  1.00  0.00     0.173 A 
ATOM     83  C   UNL A   1      39.583  27.428  29.859  1.00  0.00     0.173 A 
ATOM     84  F   UNL A   1      41.481  30.367  28.883  1.00  0.00    -0.203 F 
ATOM     85  C   UNL A   1      40.852  28.477  27.626  1.00  0.00     0.198 A 
ATOM     86  C   UNL A   1      39.593  26.717  28.661  1.00  0.00     0.198 A 
ATOM     87  F   UNL A   1      38.958  26.896  30.921  1.00  0.00    -0.203 F 
ATOM     88  F   UNL A   1      41.434  29.007  26.541  1.00  0.00    -0.200 F 
ATOM     89  C   UNL A   1      40.220  27.246  27.543  1.00  0.00     0.200 A 
ATOM     90  F   UNL A   1      38.993  25.521  28.592  1.00  0.00    -0.200 F 
ATOM     91  F   UNL A   1      40.207  26.575  26.383  1.00  0.00    -0.200 F 
ENDBRANCH  57  81
BRANCH  69  92
ATOM     92  C   UNL A   1      44.442  28.727  35.532  1.00  0.00     0.064 A 
ATOM     93  C   UNL A   1      45.726  29.134  35.144  1.00  0.00     0.173 A 
ATOM     94  C   UNL A   1      44.328  27.568  36.314  1.00  0.00     0.173 A 
ATOM     95  F   UNL A   1      45.888  30.229  34.384  1.00  0.00    -0.203 F 
ATOM     96  C   UNL A   1      46.850  28.397  35.505  1.00  0.00     0.198 A 
ATOM     97  C   UNL A   1      45.456  26.853  36.703  1.00  0.00     0.198 A 
ATOM     98  F   UNL A   1      43.122  27.141  36.719  1.00  0.00    -0.203 F 
ATOM     99  F   UNL A   1      48.064  28.777  35.082  1.00  0.00    -0.200 F 
ATOM    100  C   UNL A   1      46.714  27.261  36.291  1.00  0.00     0.200 A 
ATOM    101  F   UNL A   1      45.324  25.768  37.479  1.00  0.00    -0.200 F 
ATOM    102  F   UNL A   1      47.799  26.561  36.649  1.00  0.00    -0.200 F 
ENDBRANCH  69  92
ENDBRANCH  43  44
ENDBRANCH  35  38
ENDBRANCH  33  34
ENDBRANCH  32  33
ENDBRANCH  31  32
ENDBRANCH  30  31
ENDBRANCH   1  30
TORSDOF 18
ENDMDL
MODEL 2
REMARK VINA RESULT:     -12.1      0.492      2.030
REMARK SMILES O=C(CCC(=O)N1CCC[C@@]2(CCC(=O)N(Cc3ccncc3)C2)C1)NCCCCCCNC(=O)c1ccc(-c2c3nc(c(-c4c(F)c(F)c(F)c(F)c4F)c4ccc([nH]4)c(-c4c(F)c(F)c(F)c(F)c4F)c4nc(c(-c5c(F)c(F)c(F)c(F)c5F)c5ccc2[nH]5)C=C4)C=C3)cc1
REMARK SMILES IDX 28 1 27 2 26 3 1 4 2 5 3 7 4 8 5 9 6 10 7 11 8 12 25 13 9 14
REMARK SMILES IDX 11 15 10 16 12 17 24 18 13 19 16 20 14 21 15 22 17 23 18 24
REMARK SMILES IDX 19 25 23 26 20 27 22 28 21 29 29 30 30 31 31 32 32 33 33 34
REMARK SMILES IDX 34 35 35 37 36 38 37 39 98 40 38 41 97 42 39 43 40 44 41 45
REMARK SMILES IDX 91 46 42 47 96 48 90 49 92 50 43 51 95 52 89 53 88 54 44 56
REMARK SMILES IDX 76 57 56 58 75 59 57 60 60 61 74 62 93 63 58 64 59 65 73 67
REMARK SMILES IDX 94 68 61 69 45 70 46 71 54 72 47 73 48 74 52 75 55 76 49 77
REMARK SMILES IDX 50 78 53 79 51 80 77 81 78 82 86 83 79 84 80 85 84 86 87 87
REMARK SMILES IDX 81 88 82 89 85 90 83 91 62 92 63 93 71 94 64 95 65 96 69 97
REMARK SMILES IDX 72 98 66 99 67 100 70 101 68 102
REMARK H PARENT 26 6 33 36 92 55 60 66
REMARK Flexibility Score: inf
ROOT
ATOM      1  C   UNL A   1      34.993  31.721  28.180  1.00  0.00     0.021 C 
ENDROOT
BRANCH   1   2
ATOM      2  C   UNL A   1      33.559  31.593  27.618  1.00  0.00     0.116 C 
BRANCH   2   3
ATOM      3  N   UNL A   1      33.111  30.367  26.982  1.00  0.00    -0.356 N 
ATOM      4  O   UNL A   1      31.249  31.376  26.079  1.00  0.00    -0.275 OA
ATOM      5  C   UNL A   1      31.916  30.360  26.271  1.00  0.00     0.220 C 
ATOM      6  H   UNL A   1      33.649  29.545  27.052  1.00  0.00     0.163 HD
BRANCH   5   7
ATOM      7  C   UNL A   1      31.461  29.016  25.724  1.00  0.00     0.110 C 
BRANCH   7   8
ATOM      8  C   UNL A   1      32.613  28.009  25.637  1.00  0.00     0.110 C 
BRANCH   8   9
ATOM      9  C   UNL A   1      32.077  26.688  26.115  1.00  0.00     0.223 C 
ATOM     10  O   UNL A   1      31.077  26.675  26.838  1.00  0.00    -0.275 OA
BRANCH   9  11
ATOM     11  N   UNL A   1      32.865  25.565  25.928  1.00  0.00    -0.342 N 
ATOM     12  C   UNL A   1      34.141  25.813  25.295  1.00  0.00     0.119 C 
ATOM     13  C   UNL A   1      32.594  24.192  26.444  1.00  0.00     0.128 C 
ATOM     14  C   UNL A   1      34.417  24.777  24.229  1.00  0.00     0.022 C 
ATOM     15  C   UNL A   1      33.512  23.088  25.824  1.00  0.00     0.006 C 
ATOM     16  C   UNL A   1      33.672  23.473  24.359  1.00  0.00     0.012 C 
ATOM     17  C   UNL A   1      34.857  22.951  26.568  1.00  0.00     0.020 C 
ATOM     18  C   UNL A   1      32.895  21.680  25.867  1.00  0.00     0.128 C 
ATOM     19  C   UNL A   1      35.789  21.971  25.874  1.00  0.00     0.101 C 
ATOM     20  N   UNL A   1      33.768  20.714  25.179  1.00  0.00    -0.338 N 
ATOM     21  C   UNL A   1      35.149  20.703  25.342  1.00  0.00     0.222 C 
ATOM     22  O   UNL A   1      35.876  19.808  24.911  1.00  0.00    -0.275 OA
BRANCH  20  23
ATOM     23  C   UNL A   1      33.208  19.886  24.110  1.00  0.00     0.155 C 
BRANCH  23  24
ATOM     24  C   UNL A   1      33.260  18.409  24.379  1.00  0.00    -0.026 A 
ATOM     25  C   UNL A   1      33.877  17.536  23.483  1.00  0.00     0.025 A 
ATOM     26  C   UNL A   1      32.675  17.877  25.535  1.00  0.00     0.025 A 
ATOM     27  C   UNL A   1      33.864  16.181  23.768  1.00  0.00     0.111 A 
ATOM     28  C   UNL A   1      32.714  16.507  25.730  1.00  0.00     0.111 A 
ATOM     29  N   UNL A   1      33.303  15.646  24.874  1.00  0.00    -0.265 NA
ENDBRANCH  23  24
ENDBRANCH  20  23
ENDBRANCH   9  11
ENDBRANCH   8   9
ENDBRANCH   7   8
ENDBRANCH   5   7
ENDBRANCH   2   3
ENDBRANCH   1   2
BRANCH   1  30
ATOM     30  C   UNL A   1      35.579  33.028  28.740  1.00  0.00     0.002 C 
BRANCH  30  31
ATOM     31  C   UNL A   1      34.978  34.429  28.469  1.00  0.00     0.002 C 
BRANCH  31  32
ATOM     32  C   UNL A   1      33.595  34.804  29.019  1.00  0.00     0.021 C 
BRANCH  32  33
ATOM     33  C   UNL A   1      33.544  36.188  29.644  1.00  0.00     0.116 C 
BRANCH  33  34
ATOM     34  N   UNL A   1      32.542  36.273  30.706  1.00  0.00    -0.352 N 
ATOM     35  C   UNL A   1      32.538  35.713  31.957  1.00  0.00     0.251 C 
ATOM     36  H   UNL A   1      31.749  36.814  30.488  1.00  0.00     0.163 HD
ATOM     37  O   UNL A   1      31.531  35.786  32.662  1.00  0.00    -0.269 OA
BRANCH  35  38
ATOM     38  C   UNL A   1      33.729  34.994  32.449  1.00  0.00     0.039 A 
ATOM     39  C   UNL A   1      33.601  33.665  32.865  1.00  0.00     0.014 A 
ATOM     40  C   UNL A   1      34.973  35.624  32.487  1.00  0.00     0.014 A 
ATOM     41  C   UNL A   1      34.735  32.953  33.257  1.00  0.00     0.010 A 
ATOM     42  C   UNL A   1      36.112  34.885  32.766  1.00  0.00     0.010 A 
ATOM     43  C   UNL A   1      36.003  33.548  33.174  1.00  0.00    -0.014 A 
BRANCH  43  44
ATOM     44  C   UNL A   1      37.237  32.810  33.533  1.00  0.00     0.031 A 
ATOM     45  C   UNL A   1      37.940  33.128  34.822  1.00  0.00     0.074 A 
ATOM     46  C   UNL A   1      37.762  31.932  32.658  1.00  0.00     0.049 A 
ATOM     47  N   UNL A   1      39.087  32.687  35.272  1.00  0.00    -0.248 NA
ATOM     48  C   UNL A   1      37.290  34.111  35.705  1.00  0.00     0.031 C 
ATOM     49  C   UNL A   1      37.196  31.599  31.350  1.00  0.00     0.029 A 
ATOM     50  N   UNL A   1      38.900  31.170  32.732  1.00  0.00    -0.354 N 
ATOM     51  C   UNL A   1      39.300  33.355  36.471  1.00  0.00     0.074 A 
ATOM     52  C   UNL A   1      38.208  34.284  36.643  1.00  0.00     0.031 C 
ATOM     53  C   UNL A   1      37.974  30.681  30.754  1.00  0.00     0.029 A 
ATOM     54  C   UNL A   1      39.115  30.396  31.618  1.00  0.00     0.049 A 
ATOM     55  H   UNL A   1      39.505  31.178  33.508  1.00  0.00     0.167 HD
ATOM     56  C   UNL A   1      40.304  33.183  37.363  1.00  0.00     0.037 A 
ATOM     57  C   UNL A   1      40.129  29.560  31.325  1.00  0.00     0.037 A 
ATOM     58  C   UNL A   1      41.367  32.229  37.192  1.00  0.00     0.049 A 
ATOM     59  C   UNL A   1      41.227  29.377  32.337  1.00  0.00     0.074 A 
ATOM     60  C   UNL A   1      42.396  31.916  38.060  1.00  0.00     0.029 A 
ATOM     61  N   UNL A   1      41.533  31.433  36.066  1.00  0.00    -0.354 N 
ATOM     62  N   UNL A   1      41.381  29.954  33.506  1.00  0.00    -0.248 NA
ATOM     63  C   UNL A   1      42.290  28.424  31.995  1.00  0.00     0.031 C 
ATOM     64  C   UNL A   1      43.218  30.972  37.436  1.00  0.00     0.029 A 
ATOM     65  C   UNL A   1      42.666  30.649  36.205  1.00  0.00     0.049 A 
ATOM     66  H   UNL A   1      40.934  31.426  35.284  1.00  0.00     0.167 HD
ATOM     67  C   UNL A   1      42.539  29.417  34.050  1.00  0.00     0.074 A 
ATOM     68  C   UNL A   1      43.039  28.454  33.089  1.00  0.00     0.031 C 
ATOM     69  C   UNL A   1      43.139  29.695  35.233  1.00  0.00     0.037 A 
BRANCH  56  70
ATOM     70  C   UNL A   1      40.293  34.041  38.598  1.00  0.00     0.064 A 
ATOM     71  C   UNL A   1      39.614  33.652  39.764  1.00  0.00     0.173 A 
ATOM     72  C   UNL A   1      40.981  35.263  38.621  1.00  0.00     0.173 A 
ATOM     73  F   UNL A   1      38.928  32.499  39.793  1.00  0.00    -0.203 F 
ATOM     74  C   UNL A   1      39.589  34.471  40.889  1.00  0.00     0.198 A 
ATOM     75  C   UNL A   1      40.986  36.063  39.762  1.00  0.00     0.198 A 
ATOM     76  F   UNL A   1      41.650  35.685  37.538  1.00  0.00    -0.203 F 
ATOM     77  F   UNL A   1      38.877  34.107  41.966  1.00  0.00    -0.200 F 
ATOM     78  C   UNL A   1      40.281  35.672  40.891  1.00  0.00     0.200 A 
ATOM     79  F   UNL A   1      41.667  37.218  39.766  1.00  0.00    -0.200 F 
ATOM     80  F   UNL A   1      40.260  36.459  41.975  1.00  0.00    -0.200 F 
ENDBRANCH  56  70
BRANCH  57  81
ATOM     81  C   UNL A   1      40.134  28.823  30.034  1.00  0.00     0.064 A 
ATOM     82  C   UNL A   1      39.511  27.574  29.913  1.00  0.00     0.173 A 
ATOM     83  C   UNL A   1      40.751  29.356  28.892  1.00  0.00     0.173 A 
ATOM     84  F   UNL A   1      38.921  27.014  30.980  1.00  0.00    -0.203 F 
ATOM     85  C   UNL A   1      39.524  26.874  28.707  1.00  0.00     0.198 A 
ATOM     86  C   UNL A   1      40.738  28.670  27.679  1.00  0.00     0.198 A 
ATOM     87  F   UNL A   1      41.355  30.553  28.950  1.00  0.00    -0.203 F 
ATOM     88  F   UNL A   1      38.963  25.660  28.635  1.00  0.00    -0.200 F 
ATOM     89  C   UNL A   1      40.132  27.426  27.590  1.00  0.00     0.200 A 
ATOM     90  F   UNL A   1      41.315  29.216  26.600  1.00  0.00    -0.200 F 
ATOM     91  F   UNL A   1      40.142  26.753  26.431  1.00  0.00    -0.200 F 
ENDBRANCH  57  81
BRANCH  69  92
ATOM     92  C   UNL A   1      44.385  28.928  35.569  1.00  0.00     0.064 A 
ATOM     93  C   UNL A   1      44.336  27.713  36.267  1.00  0.00     0.173 A 
ATOM     94  C   UNL A   1      45.639  29.390  35.141  1.00  0.00     0.173 A 
ATOM     95  F   UNL A   1      43.162  27.234  36.709  1.00  0.00    -0.203 F 
ATOM     96  C   UNL A   1      45.499  27.002  36.546  1.00  0.00     0.198 A 
ATOM     97  C   UNL A   1      46.795  28.659  35.390  1.00  0.00     0.198 A 
ATOM     98  F   UNL A   1      45.739  30.544  34.461  1.00  0.00    -0.203 F 
ATOM     99  F   UNL A   1      45.434  25.867  37.257  1.00  0.00    -0.200 F 
ATOM    100  C   UNL A   1      46.726  27.471  36.100  1.00  0.00     0.200 A 
ATOM    101  F   UNL A   1      47.977  29.104  34.942  1.00  0.00    -0.200 F 
ATOM    102  F   UNL A   1      47.843  26.777  36.358  1.00  0.00    -0.200 F 
ENDBRANCH  69  92
ENDBRANCH  43  44
ENDBRANCH  35  38
ENDBRANCH  33  34
ENDBRANCH  32  33
ENDBRANCH  31  32
ENDBRANCH  30  31
ENDBRANCH   1  30
TORSDOF 18
ENDMDL
MODEL 3
REMARK VINA RESULT:     -12.0      1.661      2.596
REMARK SMILES O=C(CCC(=O)N1CCC[C@@]2(CCC(=O)N(Cc3ccncc3)C2)C1)NCCCCCCNC(=O)c1ccc(-c2c3nc(c(-c4c(F)c(F)c(F)c(F)c4F)c4ccc([nH]4)c(-c4c(F)c(F)c(F)c(F)c4F)c4nc(c(-c5c(F)c(F)c(F)c(F)c5F)c5ccc2[nH]5)C=C4)C=C3)cc1
REMARK SMILES IDX 28 1 27 2 26 3 1 4 2 5 3 7 4 8 5 9 6 10 7 11 8 12 25 13 9 14
REMARK SMILES IDX 11 15 10 16 12 17 24 18 13 19 16 20 14 21 15 22 17 23 18 24
REMARK SMILES IDX 19 25 23 26 20 27 22 28 21 29 29 30 30 31 31 32 32 33 33 34
REMARK SMILES IDX 34 35 35 37 36 38 37 39 98 40 38 41 97 42 39 43 40 44 41 45
REMARK SMILES IDX 91 46 42 47 96 48 90 49 92 50 43 51 95 52 89 53 88 54 44 56
REMARK SMILES IDX 76 57 56 58 75 59 57 60 60 61 74 62 93 63 58 64 59 65 73 67
REMARK SMILES IDX 94 68 61 69 45 70 46 71 54 72 47 73 48 74 52 75 55 76 49 77
REMARK SMILES IDX 50 78 53 79 51 80 77 81 78 82 86 83 79 84 80 85 84 86 87 87
REMARK SMILES IDX 81 88 82 89 85 90 83 91 62 92 63 93 71 94 64 95 65 96 69 97
REMARK SMILES IDX 72 98 66 99 67 100 70 101 68 102
REMARK H PARENT 26 6 33 36 92 55 60 66
REMARK Flexibility Score: inf
ROOT
ATOM      1  C   UNL A   1      33.999  31.579  27.985  1.00  0.00     0.021 C 
ENDROOT
BRANCH   1   2
ATOM      2  C   UNL A   1      34.241  30.152  27.442  1.00  0.00     0.116 C 
BRANCH   2   3
ATOM      3  N   UNL A   1      33.992  29.829  26.048  1.00  0.00    -0.356 N 
ATOM      4  O   UNL A   1      31.780  29.324  26.439  1.00  0.00    -0.275 OA
ATOM      5  C   UNL A   1      32.733  29.381  25.663  1.00  0.00     0.220 C 
ATOM      6  H   UNL A   1      34.708  29.926  25.380  1.00  0.00     0.163 HD
BRANCH   5   7
ATOM      7  C   UNL A   1      32.580  28.962  24.209  1.00  0.00     0.110 C 
BRANCH   7   8
ATOM      8  C   UNL A   1      31.226  29.384  23.627  1.00  0.00     0.110 C 
BRANCH   8   9
ATOM      9  C   UNL A   1      30.641  28.172  22.955  1.00  0.00     0.223 C 
ATOM     10  O   UNL A   1      29.848  28.331  22.022  1.00  0.00    -0.275 OA
BRANCH   9  11
ATOM     11  N   UNL A   1      30.825  26.943  23.564  1.00  0.00    -0.342 N 
ATOM     12  C   UNL A   1      29.753  26.530  24.442  1.00  0.00     0.119 C 
ATOM     13  C   UNL A   1      31.919  25.968  23.286  1.00  0.00     0.128 C 
ATOM     14  C   UNL A   1      30.307  25.967  25.731  1.00  0.00     0.022 C 
ATOM     15  C   UNL A   1      32.020  24.812  24.334  1.00  0.00     0.006 C 
ATOM     16  C   UNL A   1      31.726  25.461  25.681  1.00  0.00     0.012 C 
ATOM     17  C   UNL A   1      31.077  23.635  24.008  1.00  0.00     0.020 C 
ATOM     18  C   UNL A   1      33.419  24.181  24.422  1.00  0.00     0.128 C 
ATOM     19  C   UNL A   1      31.088  22.581  25.104  1.00  0.00     0.101 C 
ATOM     20  N   UNL A   1      33.464  23.172  25.494  1.00  0.00    -0.338 N 
ATOM     21  C   UNL A   1      32.443  22.251  25.700  1.00  0.00     0.222 C 
ATOM     22  O   UNL A   1      32.533  21.300  26.477  1.00  0.00    -0.275 OA
BRANCH  20  23
ATOM     23  C   UNL A   1      34.495  23.279  26.528  1.00  0.00     0.155 C 
BRANCH  23  24
ATOM     24  C   UNL A   1      35.847  22.777  26.107  1.00  0.00    -0.026 A 
ATOM     25  C   UNL A   1      36.028  21.457  25.694  1.00  0.00     0.025 A 
ATOM     26  C   UNL A   1      36.960  23.626  26.137  1.00  0.00     0.025 A 
ATOM     27  C   UNL A   1      37.303  21.043  25.350  1.00  0.00     0.111 A 
ATOM     28  C   UNL A   1      38.196  23.116  25.776  1.00  0.00     0.111 A 
ATOM     29  N   UNL A   1      38.391  21.843  25.374  1.00  0.00    -0.265 NA
ENDBRANCH  23  24
ENDBRANCH  20  23
ENDBRANCH   9  11
ENDBRANCH   8   9
ENDBRANCH   7   8
ENDBRANCH   5   7
ENDBRANCH   2   3
ENDBRANCH   1   2
BRANCH   1  30
ATOM     30  C   UNL A   1      35.121  32.598  28.245  1.00  0.00     0.002 C 
BRANCH  30  31
ATOM     31  C   UNL A   1      34.898  33.978  28.908  1.00  0.00     0.002 C 
BRANCH  31  32
ATOM     32  C   UNL A   1      33.492  34.589  28.984  1.00  0.00     0.021 C 
BRANCH  32  33
ATOM     33  C   UNL A   1      33.482  36.038  29.440  1.00  0.00     0.116 C 
BRANCH  33  34
ATOM     34  N   UNL A   1      32.527  36.264  30.524  1.00  0.00    -0.352 N 
ATOM     35  C   UNL A   1      32.548  35.820  31.821  1.00  0.00     0.251 C 
ATOM     36  H   UNL A   1      31.750  36.820  30.286  1.00  0.00     0.163 HD
ATOM     37  O   UNL A   1      31.574  36.003  32.551  1.00  0.00    -0.269 OA
BRANCH  35  38
ATOM     38  C   UNL A   1      33.726  35.094  32.335  1.00  0.00     0.039 A 
ATOM     39  C   UNL A   1      33.561  33.803  32.848  1.00  0.00     0.014 A 
ATOM     40  C   UNL A   1      34.992  35.677  32.296  1.00  0.00     0.014 A 
ATOM     41  C   UNL A   1      34.679  33.079  33.263  1.00  0.00     0.010 A 
ATOM     42  C   UNL A   1      36.111  34.917  32.601  1.00  0.00     0.010 A 
ATOM     43  C   UNL A   1      35.965  33.618  33.106  1.00  0.00    -0.014 A 
BRANCH  43  44
ATOM     44  C   UNL A   1      37.180  32.862  33.487  1.00  0.00     0.031 A 
ATOM     45  C   UNL A   1      37.879  33.185  34.778  1.00  0.00     0.074 A 
ATOM     46  C   UNL A   1      37.696  31.960  32.630  1.00  0.00     0.049 A 
ATOM     47  N   UNL A   1      39.012  32.728  35.245  1.00  0.00    -0.248 NA
ATOM     48  C   UNL A   1      37.240  34.194  35.641  1.00  0.00     0.031 C 
ATOM     49  C   UNL A   1      37.135  31.619  31.322  1.00  0.00     0.029 A 
ATOM     50  N   UNL A   1      38.818  31.177  32.726  1.00  0.00    -0.354 N 
ATOM     51  C   UNL A   1      39.228  33.409  36.436  1.00  0.00     0.074 A 
ATOM     52  C   UNL A   1      38.153  34.362  36.584  1.00  0.00     0.031 C 
ATOM     53  C   UNL A   1      37.900  30.677  30.747  1.00  0.00     0.029 A 
ATOM     54  C   UNL A   1      39.027  30.383  31.625  1.00  0.00     0.049 A 
ATOM     55  H   UNL A   1      39.416  31.185  33.508  1.00  0.00     0.167 HD
ATOM     56  C   UNL A   1      40.220  33.231  37.340  1.00  0.00     0.037 A 
ATOM     57  C   UNL A   1      40.027  29.523  31.355  1.00  0.00     0.037 A 
ATOM     58  C   UNL A   1      41.265  32.254  37.192  1.00  0.00     0.049 A 
ATOM     59  C   UNL A   1      41.113  29.333  32.379  1.00  0.00     0.074 A 
ATOM     60  C   UNL A   1      42.281  31.934  38.074  1.00  0.00     0.029 A 
ATOM     61  N   UNL A   1      41.426  31.438  36.080  1.00  0.00    -0.354 N 
ATOM     62  N   UNL A   1      41.267  29.924  33.540  1.00  0.00    -0.248 NA
ATOM     63  C   UNL A   1      42.159  28.354  32.061  1.00  0.00     0.031 C 
ATOM     64  C   UNL A   1      43.089  30.965  37.472  1.00  0.00     0.029 A 
ATOM     65  C   UNL A   1      42.542  30.634  36.241  1.00  0.00     0.049 A 
ATOM     66  H   UNL A   1      40.834  31.432  35.293  1.00  0.00     0.167 HD
ATOM     67  C   UNL A   1      42.410  29.373  34.103  1.00  0.00     0.074 A 
ATOM     68  C   UNL A   1      42.899  28.386  33.161  1.00  0.00     0.031 C 
ATOM     69  C   UNL A   1      43.004  29.657  35.287  1.00  0.00     0.037 A 
BRANCH  56  70
ATOM     70  C   UNL A   1      40.216  34.107  38.561  1.00  0.00     0.064 A 
ATOM     71  C   UNL A   1      40.913  35.326  38.601  1.00  0.00     0.173 A 
ATOM     72  C   UNL A   1      39.495  33.732  39.705  1.00  0.00     0.173 A 
ATOM     73  F   UNL A   1      41.631  35.727  37.541  1.00  0.00    -0.203 F 
ATOM     74  C   UNL A   1      40.923  36.112  39.750  1.00  0.00     0.198 A 
ATOM     75  C   UNL A   1      39.476  34.540  40.839  1.00  0.00     0.198 A 
ATOM     76  F   UNL A   1      38.806  32.581  39.724  1.00  0.00    -0.203 F 
ATOM     77  F   UNL A   1      41.653  37.237  39.784  1.00  0.00    -0.200 F 
ATOM     78  C   UNL A   1      40.199  35.723  40.865  1.00  0.00     0.200 A 
ATOM     79  F   UNL A   1      38.763  34.169  41.913  1.00  0.00    -0.200 F 
ATOM     80  F   UNL A   1      40.206  36.482  41.970  1.00  0.00    -0.200 F 
ENDBRANCH  56  70
BRANCH  57  81
ATOM     81  C   UNL A   1      40.029  28.767  30.075  1.00  0.00     0.064 A 
ATOM     82  C   UNL A   1      39.420  27.508  29.978  1.00  0.00     0.173 A 
ATOM     83  C   UNL A   1      40.629  29.289  28.919  1.00  0.00     0.173 A 
ATOM     84  F   UNL A   1      38.847  26.957  31.059  1.00  0.00    -0.203 F 
ATOM     85  C   UNL A   1      39.430  26.791  28.783  1.00  0.00     0.198 A 
ATOM     86  C   UNL A   1      40.613  28.585  27.717  1.00  0.00     0.198 A 
ATOM     87  F   UNL A   1      41.219  30.494  28.953  1.00  0.00    -0.203 F 
ATOM     88  F   UNL A   1      38.883  25.569  28.734  1.00  0.00    -0.200 F 
ATOM     89  C   UNL A   1      40.021  27.333  27.652  1.00  0.00     0.200 A 
ATOM     90  F   UNL A   1      41.173  29.122  26.624  1.00  0.00    -0.200 F 
ATOM     91  F   UNL A   1      40.028  26.643  26.503  1.00  0.00    -0.200 F 
ENDBRANCH  57  81
BRANCH  69  92
ATOM     92  C   UNL A   1      44.232  28.871  35.646  1.00  0.00     0.064 A 
ATOM     93  C   UNL A   1      45.517  29.313  35.301  1.00  0.00     0.173 A 
ATOM     94  C   UNL A   1      44.122  27.686  36.390  1.00  0.00     0.173 A 
ATOM     95  F   UNL A   1      45.675  30.434  34.579  1.00  0.00    -0.203 F 
ATOM     96  C   UNL A   1      46.645  28.585  35.666  1.00  0.00     0.198 A 
ATOM     97  C   UNL A   1      45.254  26.980  36.784  1.00  0.00     0.198 A 
ATOM     98  F   UNL A   1      42.915  27.224  36.753  1.00  0.00    -0.203 F 
ATOM     99  F   UNL A   1      47.861  29.001  35.283  1.00  0.00    -0.200 F 
ATOM    100  C   UNL A   1      46.513  27.424  36.414  1.00  0.00     0.200 A 
ATOM    101  F   UNL A   1      45.125  25.870  37.523  1.00  0.00    -0.200 F 
ATOM    102  F   UNL A   1      47.602  26.733  36.776  1.00  0.00    -0.200 F 
ENDBRANCH  69  92
ENDBRANCH  43  44
ENDBRANCH  35  38
ENDBRANCH  33  34
ENDBRANCH  32  33
ENDBRANCH  31  32
ENDBRANCH  30  31
ENDBRANCH   1  30
TORSDOF 18
ENDMDL
