MODEL 1
REMARK VINA RESULT:     -11.0      0.000      0.000
REMARK SMILES C#CCN(CC(=O)NCCCCCCNC(=O)c1ccc(-c2c3nc(c(-c4c(F)c(F)c(F)c(F)c4F)c4ccc([nH]4)c(-c4c(F)c(F)c(F)c(F)c4F)c4nc(c(-c5c(F)c(F)c(F)c(F)c5F)c5ccc2[nH]5)C=C4)C=C3)cc1)C(=O)CCc1ccc(Cl)cc1Cl
REMARK SMILES IDX 10 1 9 2 8 3 6 4 7 5 5 7 4 8 3 9 2 10 1 11 81 12 82 13 83 14
REMARK SMILES IDX 84 15 85 16 86 17 91 18 87 19 90 20 92 21 88 22 89 23 11 24
REMARK SMILES IDX 12 25 13 26 14 27 15 28 16 29 17 31 18 32 19 33 80 34 20 35
REMARK SMILES IDX 79 36 21 37 22 38 23 39 73 40 24 41 78 42 72 43 74 44 25 45
REMARK SMILES IDX 77 46 71 47 70 48 26 50 58 51 38 52 57 53 39 54 42 55 56 56
REMARK SMILES IDX 75 57 40 58 41 59 55 61 76 62 43 63 27 64 28 65 36 66 29 67
REMARK SMILES IDX 30 68 34 69 37 70 31 71 32 72 35 73 33 74 59 75 60 76 68 77
REMARK SMILES IDX 61 78 62 79 66 80 69 81 63 82 64 83 67 84 65 85 44 86 45 87
REMARK SMILES IDX 53 88 46 89 47 90 51 91 54 92 48 93 49 94 52 95 50 96
REMARK H PARENT 8 6 15 30 74 49 42 60
REMARK Flexibility Score: inf
ROOT
ATOM      1  C   UNL A   1      34.215  20.717  25.674  1.00  0.00     0.021 C 
ENDROOT
BRANCH   1   2
ATOM      2  C   UNL A   1      32.848  20.338  25.116  1.00  0.00     0.116 C 
BRANCH   2   3
ATOM      3  N   UNL A   1      31.915  21.400  25.368  1.00  0.00    -0.355 N 
ATOM      4  C   UNL A   1      31.675  22.483  24.595  1.00  0.00     0.239 C 
ATOM      5  O   UNL A   1      31.004  23.400  25.073  1.00  0.00    -0.273 OA
ATOM      6  H   UNL A   1      31.389  21.331  26.199  1.00  0.00     0.163 HD
BRANCH   4   7
ATOM      7  C   UNL A   1      32.156  22.506  23.143  1.00  0.00     0.220 C 
BRANCH   7   8
ATOM      8  N   UNL A   1      33.115  23.533  22.704  1.00  0.00    -0.322 N 
BRANCH   8   9
ATOM      9  C   UNL A   1      34.530  23.373  23.105  1.00  0.00     0.209 C 
BRANCH   9  10
ATOM     10  C   UNL A   1      34.849  24.000  24.452  1.00  0.00    -0.085 C 
ATOM     11  C   UNL A   1      35.123  24.539  25.608  1.00  0.00     0.006 C 
ENDBRANCH   9  10
ENDBRANCH   8   9
BRANCH   8  12
ATOM     12  C   UNL A   1      32.750  24.645  21.948  1.00  0.00     0.224 C 
ATOM     13  O   UNL A   1      33.033  24.730  20.749  1.00  0.00    -0.275 OA
BRANCH  12  14
ATOM     14  C   UNL A   1      31.954  25.780  22.591  1.00  0.00     0.105 C 
BRANCH  14  15
ATOM     15  C   UNL A   1      32.693  27.133  22.609  1.00  0.00     0.047 C 
BRANCH  15  16
ATOM     16  C   UNL A   1      32.638  27.830  23.955  1.00  0.00    -0.029 A 
ATOM     17  C   UNL A   1      33.792  27.796  24.761  1.00  0.00     0.007 A 
ATOM     18  C   UNL A   1      31.572  28.667  24.344  1.00  0.00     0.045 A 
ATOM     19  C   UNL A   1      33.937  28.674  25.837  1.00  0.00     0.021 A 
ATOM     20  C   UNL A   1      31.709  29.529  25.439  1.00  0.00     0.041 A 
ATOM     21  Cl  UNL A   1      30.102  28.753  23.445  1.00  0.00    -0.084 Cl
ATOM     22  C   UNL A   1      32.905  29.554  26.153  1.00  0.00     0.042 A 
ATOM     23  Cl  UNL A   1      33.145  30.736  27.379  1.00  0.00    -0.084 Cl
ENDBRANCH  15  16
ENDBRANCH  14  15
ENDBRANCH  12  14
ENDBRANCH   8  12
ENDBRANCH   7   8
ENDBRANCH   4   7
ENDBRANCH   2   3
ENDBRANCH   1   2
BRANCH   1  24
ATOM     24  C   UNL A   1      35.373  20.086  24.889  1.00  0.00     0.002 C 
BRANCH  24  25
ATOM     25  C   UNL A   1      36.716  20.804  25.067  1.00  0.00     0.002 C 
BRANCH  25  26
ATOM     26  C   UNL A   1      37.935  19.890  24.934  1.00  0.00     0.021 C 
BRANCH  26  27
ATOM     27  C   UNL A   1      39.092  20.301  25.828  1.00  0.00     0.116 C 
BRANCH  27  28
ATOM     28  N   UNL A   1      40.072  19.235  25.937  1.00  0.00    -0.352 N 
ATOM     29  C   UNL A   1      41.430  19.348  26.091  1.00  0.00     0.251 C 
ATOM     30  H   UNL A   1      39.718  18.317  25.893  1.00  0.00     0.163 HD
ATOM     31  O   UNL A   1      42.167  18.392  25.900  1.00  0.00    -0.269 OA
BRANCH  29  32
ATOM     32  C   UNL A   1      41.983  20.658  26.485  1.00  0.00     0.039 A 
ATOM     33  C   UNL A   1      42.351  21.566  25.492  1.00  0.00     0.014 A 
ATOM     34  C   UNL A   1      42.110  20.987  27.838  1.00  0.00     0.014 A 
ATOM     35  C   UNL A   1      42.815  22.828  25.861  1.00  0.00     0.010 A 
ATOM     36  C   UNL A   1      42.487  22.272  28.201  1.00  0.00     0.010 A 
ATOM     37  C   UNL A   1      42.862  23.198  27.216  1.00  0.00    -0.014 A 
BRANCH  37  38
ATOM     38  C   UNL A   1      43.345  24.536  27.634  1.00  0.00     0.031 A 
ATOM     39  C   UNL A   1      42.347  25.610  27.972  1.00  0.00     0.074 A 
ATOM     40  C   UNL A   1      44.666  24.797  27.655  1.00  0.00     0.049 A 
ATOM     41  N   UNL A   1      42.552  26.869  28.263  1.00  0.00    -0.248 NA
ATOM     42  C   UNL A   1      40.925  25.224  27.952  1.00  0.00     0.031 C 
ATOM     43  C   UNL A   1      45.723  23.845  27.315  1.00  0.00     0.029 A 
ATOM     44  N   UNL A   1      45.344  25.949  27.966  1.00  0.00    -0.354 N 
ATOM     45  C   UNL A   1      41.291  27.420  28.451  1.00  0.00     0.074 A 
ATOM     46  C   UNL A   1      40.324  26.382  28.177  1.00  0.00     0.031 C 
ATOM     47  C   UNL A   1      46.916  24.445  27.454  1.00  0.00     0.029 A 
ATOM     48  C   UNL A   1      46.707  25.834  27.847  1.00  0.00     0.049 A 
ATOM     49  H   UNL A   1      44.895  26.778  28.248  1.00  0.00     0.167 HD
ATOM     50  C   UNL A   1      40.972  28.674  28.848  1.00  0.00     0.037 A 
ATOM     51  C   UNL A   1      47.673  26.756  28.019  1.00  0.00     0.037 A 
ATOM     52  C   UNL A   1      41.939  29.697  29.141  1.00  0.00     0.049 A 
ATOM     53  C   UNL A   1      47.284  28.154  28.430  1.00  0.00     0.074 A 
ATOM     54  C   UNL A   1      41.721  30.991  29.580  1.00  0.00     0.029 A 
ATOM     55  N   UNL A   1      43.313  29.537  29.028  1.00  0.00    -0.354 N 
ATOM     56  N   UNL A   1      46.092  28.648  28.657  1.00  0.00    -0.248 NA
ATOM     57  C   UNL A   1      48.377  29.118  28.614  1.00  0.00     0.031 C 
ATOM     58  C   UNL A   1      42.959  31.630  29.686  1.00  0.00     0.029 A 
ATOM     59  C   UNL A   1      43.953  30.715  29.374  1.00  0.00     0.049 A 
ATOM     60  H   UNL A   1      43.764  28.710  28.743  1.00  0.00     0.167 HD
ATOM     61  C   UNL A   1      46.294  29.964  29.054  1.00  0.00     0.074 A 
ATOM     62  C   UNL A   1      47.724  30.186  29.048  1.00  0.00     0.031 C 
ATOM     63  C   UNL A   1      45.379  30.905  29.393  1.00  0.00     0.037 A 
BRANCH  50  64
ATOM     64  C   UNL A   1      39.517  29.008  29.008  1.00  0.00     0.064 A 
ATOM     65  C   UNL A   1      38.732  29.407  27.915  1.00  0.00     0.173 A 
ATOM     66  C   UNL A   1      38.885  28.868  30.252  1.00  0.00     0.173 A 
ATOM     67  F   UNL A   1      39.292  29.570  26.706  1.00  0.00    -0.203 F 
ATOM     68  C   UNL A   1      37.374  29.672  28.065  1.00  0.00     0.198 A 
ATOM     69  C   UNL A   1      37.519  29.103  30.392  1.00  0.00     0.198 A 
ATOM     70  F   UNL A   1      39.586  28.486  31.330  1.00  0.00    -0.203 F 
ATOM     71  F   UNL A   1      36.655  30.091  27.014  1.00  0.00    -0.200 F 
ATOM     72  C   UNL A   1      36.766  29.509  29.301  1.00  0.00     0.200 A 
ATOM     73  F   UNL A   1      36.930  28.929  31.584  1.00  0.00    -0.200 F 
ATOM     74  F   UNL A   1      35.454  29.745  29.440  1.00  0.00    -0.200 F 
ENDBRANCH  50  64
BRANCH  51  75
ATOM     75  C   UNL A   1      49.103  26.400  27.812  1.00  0.00     0.064 A 
ATOM     76  C   UNL A   1      49.966  26.210  28.901  1.00  0.00     0.173 A 
ATOM     77  C   UNL A   1      49.650  26.290  26.524  1.00  0.00     0.173 A 
ATOM     78  F   UNL A   1      49.499  26.319  30.152  1.00  0.00    -0.203 F 
ATOM     79  C   UNL A   1      51.326  25.971  28.712  1.00  0.00     0.198 A 
ATOM     80  C   UNL A   1      51.002  26.014  26.335  1.00  0.00     0.198 A 
ATOM     81  F   UNL A   1      48.869  26.452  25.446  1.00  0.00    -0.203 F 
ATOM     82  F   UNL A   1      52.140  25.868  29.771  1.00  0.00    -0.200 F 
ATOM     83  C   UNL A   1      51.842  25.870  27.428  1.00  0.00     0.200 A 
ATOM     84  F   UNL A   1      51.493  25.900  25.093  1.00  0.00    -0.200 F 
ATOM     85  F   UNL A   1      53.151  25.650  27.246  1.00  0.00    -0.200 F 
ENDBRANCH  51  75
BRANCH  63  86
ATOM     86  C   UNL A   1      45.895  32.239  29.853  1.00  0.00     0.064 A 
ATOM     87  C   UNL A   1      46.088  33.307  28.966  1.00  0.00     0.173 A 
ATOM     88  C   UNL A   1      46.147  32.461  31.217  1.00  0.00     0.173 A 
ATOM     89  F   UNL A   1      45.873  33.140  27.652  1.00  0.00    -0.203 F 
ATOM     90  C   UNL A   1      46.543  34.541  29.422  1.00  0.00     0.198 A 
ATOM     91  C   UNL A   1      46.567  33.707  31.674  1.00  0.00     0.198 A 
ATOM     92  F   UNL A   1      45.969  31.475  32.109  1.00  0.00    -0.203 F 
ATOM     93  F   UNL A   1      46.769  35.532  28.550  1.00  0.00    -0.200 F 
ATOM     94  C   UNL A   1      46.772  34.743  30.776  1.00  0.00     0.200 A 
ATOM     95  F   UNL A   1      46.770  33.904  32.983  1.00  0.00    -0.200 F 
ATOM     96  F   UNL A   1      47.197  35.936  31.214  1.00  0.00    -0.200 F 
ENDBRANCH  63  86
ENDBRANCH  37  38
ENDBRANCH  29  32
ENDBRANCH  27  28
ENDBRANCH  26  27
ENDBRANCH  25  26
ENDBRANCH  24  25
ENDBRANCH   1  24
TORSDOF 20
ENDMDL
MODEL 2
REMARK VINA RESULT:     -11.0      5.133     10.138
REMARK SMILES C#CCN(CC(=O)NCCCCCCNC(=O)c1ccc(-c2c3nc(c(-c4c(F)c(F)c(F)c(F)c4F)c4ccc([nH]4)c(-c4c(F)c(F)c(F)c(F)c4F)c4nc(c(-c5c(F)c(F)c(F)c(F)c5F)c5ccc2[nH]5)C=C4)C=C3)cc1)C(=O)CCc1ccc(Cl)cc1Cl
REMARK SMILES IDX 10 1 9 2 8 3 6 4 7 5 5 7 4 8 3 9 2 10 1 11 81 12 82 13 83 14
REMARK SMILES IDX 84 15 85 16 86 17 91 18 87 19 90 20 92 21 88 22 89 23 11 24
REMARK SMILES IDX 12 25 13 26 14 27 15 28 16 29 17 31 18 32 19 33 80 34 20 35
REMARK SMILES IDX 79 36 21 37 22 38 23 39 73 40 24 41 78 42 72 43 74 44 25 45
REMARK SMILES IDX 77 46 71 47 70 48 26 50 58 51 38 52 57 53 39 54 42 55 56 56
REMARK SMILES IDX 75 57 40 58 41 59 55 61 76 62 43 63 27 64 28 65 36 66 29 67
REMARK SMILES IDX 30 68 34 69 37 70 31 71 32 72 35 73 33 74 59 75 60 76 68 77
REMARK SMILES IDX 61 78 62 79 66 80 69 81 63 82 64 83 67 84 65 85 44 86 45 87
REMARK SMILES IDX 53 88 46 89 47 90 51 91 54 92 48 93 49 94 52 95 50 96
REMARK H PARENT 8 6 15 30 74 49 42 60
REMARK Flexibility Score: inf
ROOT
ATOM      1  C   UNL A   1      31.846  28.288  27.568  1.00  0.00     0.021 C 
ENDROOT
BRANCH   1   2
ATOM      2  C   UNL A   1      31.705  27.414  26.327  1.00  0.00     0.116 C 
BRANCH   2   3
ATOM      3  N   UNL A   1      31.350  26.078  26.718  1.00  0.00    -0.355 N 
ATOM      4  C   UNL A   1      32.031  24.939  26.460  1.00  0.00     0.239 C 
ATOM      5  O   UNL A   1      31.468  23.865  26.680  1.00  0.00    -0.273 OA
ATOM      6  H   UNL A   1      30.515  25.981  27.232  1.00  0.00     0.163 HD
BRANCH   4   7
ATOM      7  C   UNL A   1      33.488  25.009  25.998  1.00  0.00     0.220 C 
BRANCH   7   8
ATOM      8  N   UNL A   1      33.906  24.292  24.782  1.00  0.00    -0.322 N 
BRANCH   8   9
ATOM      9  C   UNL A   1      34.306  22.875  24.918  1.00  0.00     0.209 C 
BRANCH   9  10
ATOM     10  C   UNL A   1      33.252  21.900  24.421  1.00  0.00    -0.085 C 
ATOM     11  C   UNL A   1      32.347  21.063  23.994  1.00  0.00     0.006 C 
ENDBRANCH   9  10
ENDBRANCH   8   9
BRANCH   8  12
ATOM     12  C   UNL A   1      33.954  24.889  23.523  1.00  0.00     0.224 C 
ATOM     13  O   UNL A   1      34.314  24.259  22.525  1.00  0.00    -0.275 OA
BRANCH  12  14
ATOM     14  C   UNL A   1      33.526  26.347  23.350  1.00  0.00     0.105 C 
BRANCH  14  15
ATOM     15  C   UNL A   1      32.425  26.556  22.292  1.00  0.00     0.047 C 
BRANCH  15  16
ATOM     16  C   UNL A   1      31.109  27.030  22.880  1.00  0.00    -0.029 A 
ATOM     17  C   UNL A   1      30.820  28.407  22.816  1.00  0.00     0.007 A 
ATOM     18  C   UNL A   1      30.093  26.149  23.297  1.00  0.00     0.045 A 
ATOM     19  C   UNL A   1      29.520  28.872  23.023  1.00  0.00     0.021 A 
ATOM     20  C   UNL A   1      28.795  26.621  23.529  1.00  0.00     0.041 A 
ATOM     21  Cl  UNL A   1      30.358  24.450  23.443  1.00  0.00    -0.084 Cl
ATOM     22  C   UNL A   1      28.509  27.972  23.351  1.00  0.00     0.042 A 
ATOM     23  Cl  UNL A   1      26.883  28.525  23.455  1.00  0.00    -0.084 Cl
ENDBRANCH  15  16
ENDBRANCH  14  15
ENDBRANCH  12  14
ENDBRANCH   8  12
ENDBRANCH   7   8
ENDBRANCH   4   7
ENDBRANCH   2   3
ENDBRANCH   1   2
BRANCH   1  24
ATOM     24  C   UNL A   1      32.365  29.696  27.247  1.00  0.00     0.002 C 
BRANCH  24  25
ATOM     25  C   UNL A   1      31.521  30.455  26.216  1.00  0.00     0.002 C 
BRANCH  25  26
ATOM     26  C   UNL A   1      31.417  31.958  26.478  1.00  0.00     0.021 C 
BRANCH  26  27
ATOM     27  C   UNL A   1      32.604  32.515  27.244  1.00  0.00     0.116 C 
BRANCH  27  28
ATOM     28  N   UNL A   1      32.440  33.935  27.500  1.00  0.00    -0.352 N 
ATOM     29  C   UNL A   1      33.038  34.693  28.474  1.00  0.00     0.251 C 
ATOM     30  H   UNL A   1      31.822  34.413  26.901  1.00  0.00     0.163 HD
ATOM     31  O   UNL A   1      32.617  35.805  28.755  1.00  0.00    -0.269 OA
BRANCH  29  32
ATOM     32  C   UNL A   1      34.199  34.127  29.187  1.00  0.00     0.039 A 
ATOM     33  C   UNL A   1      33.986  33.183  30.192  1.00  0.00     0.014 A 
ATOM     34  C   UNL A   1      35.495  34.519  28.837  1.00  0.00     0.014 A 
ATOM     35  C   UNL A   1      35.085  32.600  30.823  1.00  0.00     0.010 A 
ATOM     36  C   UNL A   1      36.585  33.874  29.403  1.00  0.00     0.010 A 
ATOM     37  C   UNL A   1      36.390  32.923  30.416  1.00  0.00    -0.014 A 
BRANCH  37  38
ATOM     38  C   UNL A   1      37.574  32.313  31.067  1.00  0.00     0.031 A 
ATOM     39  C   UNL A   1      38.328  31.222  30.356  1.00  0.00     0.074 A 
ATOM     40  C   UNL A   1      37.932  32.698  32.306  1.00  0.00     0.049 A 
ATOM     41  N   UNL A   1      39.325  30.490  30.784  1.00  0.00    -0.248 NA
ATOM     42  C   UNL A   1      37.883  30.889  28.992  1.00  0.00     0.031 C 
ATOM     43  C   UNL A   1      37.256  33.721  33.104  1.00  0.00     0.029 A 
ATOM     44  N   UNL A   1      38.950  32.263  33.117  1.00  0.00    -0.354 N 
ATOM     45  C   UNL A   1      39.616  29.612  29.749  1.00  0.00     0.074 A 
ATOM     46  C   UNL A   1      38.653  29.852  28.699  1.00  0.00     0.031 C 
ATOM     47  C   UNL A   1      37.888  33.848  34.283  1.00  0.00     0.029 A 
ATOM     48  C   UNL A   1      38.983  32.886  34.342  1.00  0.00     0.049 A 
ATOM     49  H   UNL A   1      39.595  31.570  32.847  1.00  0.00     0.167 HD
ATOM     50  C   UNL A   1      40.620  28.707  29.670  1.00  0.00     0.037 A 
ATOM     51  C   UNL A   1      39.797  32.685  35.395  1.00  0.00     0.037 A 
ATOM     52  C   UNL A   1      41.590  28.488  30.709  1.00  0.00     0.049 A 
ATOM     53  C   UNL A   1      40.885  31.646  35.289  1.00  0.00     0.074 A 
ATOM     54  C   UNL A   1      42.663  27.616  30.716  1.00  0.00     0.029 A 
ATOM     55  N   UNL A   1      41.602  29.152  31.927  1.00  0.00    -0.354 N 
ATOM     56  N   UNL A   1      41.185  30.860  34.285  1.00  0.00    -0.248 NA
ATOM     57  C   UNL A   1      41.752  31.474  36.463  1.00  0.00     0.031 C 
ATOM     58  C   UNL A   1      43.299  27.717  31.957  1.00  0.00     0.029 A 
ATOM     59  C   UNL A   1      42.658  28.697  32.699  1.00  0.00     0.049 A 
ATOM     60  H   UNL A   1      40.957  29.843  32.201  1.00  0.00     0.167 HD
ATOM     61  C   UNL A   1      42.299  30.134  34.687  1.00  0.00     0.074 A 
ATOM     62  C   UNL A   1      42.628  30.583  36.023  1.00  0.00     0.031 C 
ATOM     63  C   UNL A   1      42.989  29.182  34.014  1.00  0.00     0.037 A 
BRANCH  50  64
ATOM     64  C   UNL A   1      40.734  27.896  28.412  1.00  0.00     0.064 A 
ATOM     65  C   UNL A   1      41.501  28.337  27.323  1.00  0.00     0.173 A 
ATOM     66  C   UNL A   1      40.122  26.637  28.316  1.00  0.00     0.173 A 
ATOM     67  F   UNL A   1      42.096  29.540  27.358  1.00  0.00    -0.203 F 
ATOM     68  C   UNL A   1      41.637  27.557  26.178  1.00  0.00     0.198 A 
ATOM     69  C   UNL A   1      40.287  25.845  27.182  1.00  0.00     0.198 A 
ATOM     70  F   UNL A   1      39.380  26.166  29.329  1.00  0.00    -0.203 F 
ATOM     71  F   UNL A   1      42.343  28.017  25.136  1.00  0.00    -0.200 F 
ATOM     72  C   UNL A   1      41.039  26.307  26.113  1.00  0.00     0.200 A 
ATOM     73  F   UNL A   1      39.721  24.631  27.127  1.00  0.00    -0.200 F 
ATOM     74  F   UNL A   1      41.187  25.549  25.018  1.00  0.00    -0.200 F 
ENDBRANCH  50  64
BRANCH  51  75
ATOM     75  C   UNL A   1      39.628  33.479  36.642  1.00  0.00     0.064 A 
ATOM     76  C   UNL A   1      38.742  33.068  37.647  1.00  0.00     0.173 A 
ATOM     77  C   UNL A   1      40.311  34.691  36.835  1.00  0.00     0.173 A 
ATOM     78  F   UNL A   1      38.053  31.926  37.505  1.00  0.00    -0.203 F 
ATOM     79  C   UNL A   1      38.509  33.856  38.773  1.00  0.00     0.198 A 
ATOM     80  C   UNL A   1      40.106  35.460  37.978  1.00  0.00     0.198 A 
ATOM     81  F   UNL A   1      41.178  35.129  35.911  1.00  0.00    -0.203 F 
ATOM     82  F   UNL A   1      37.601  33.473  39.680  1.00  0.00    -0.200 F 
ATOM     83  C   UNL A   1      39.193  35.050  38.938  1.00  0.00     0.200 A 
ATOM     84  F   UNL A   1      40.782  36.605  38.142  1.00  0.00    -0.200 F 
ATOM     85  F   UNL A   1      38.962  35.813  40.015  1.00  0.00    -0.200 F 
ENDBRANCH  51  75
BRANCH  63  86
ATOM     86  C   UNL A   1      44.208  28.609  34.677  1.00  0.00     0.064 A 
ATOM     87  C   UNL A   1      44.151  27.450  35.463  1.00  0.00     0.173 A 
ATOM     88  C   UNL A   1      45.463  29.206  34.474  1.00  0.00     0.173 A 
ATOM     89  F   UNL A   1      42.974  26.850  35.697  1.00  0.00    -0.203 F 
ATOM     90  C   UNL A   1      45.301  26.925  36.046  1.00  0.00     0.198 A 
ATOM     91  C   UNL A   1      46.615  28.658  35.028  1.00  0.00     0.198 A 
ATOM     92  F   UNL A   1      45.574  30.311  33.722  1.00  0.00    -0.203 F 
ATOM     93  F   UNL A   1      45.216  25.846  36.835  1.00  0.00    -0.200 F 
ATOM     94  C   UNL A   1      46.533  27.522  35.820  1.00  0.00     0.200 A 
ATOM     95  F   UNL A   1      47.806  29.226  34.793  1.00  0.00    -0.200 F 
ATOM     96  F   UNL A   1      47.640  27.007  36.372  1.00  0.00    -0.200 F 
ENDBRANCH  63  86
ENDBRANCH  37  38
ENDBRANCH  29  32
ENDBRANCH  27  28
ENDBRANCH  26  27
ENDBRANCH  25  26
ENDBRANCH  24  25
ENDBRANCH   1  24
TORSDOF 20
ENDMDL
MODEL 3
REMARK VINA RESULT:     -10.9      5.381     10.496
REMARK SMILES C#CCN(CC(=O)NCCCCCCNC(=O)c1ccc(-c2c3nc(c(-c4c(F)c(F)c(F)c(F)c4F)c4ccc([nH]4)c(-c4c(F)c(F)c(F)c(F)c4F)c4nc(c(-c5c(F)c(F)c(F)c(F)c5F)c5ccc2[nH]5)C=C4)C=C3)cc1)C(=O)CCc1ccc(Cl)cc1Cl
REMARK SMILES IDX 10 1 9 2 8 3 6 4 7 5 5 7 4 8 3 9 2 10 1 11 81 12 82 13 83 14
REMARK SMILES IDX 84 15 85 16 86 17 91 18 87 19 90 20 92 21 88 22 89 23 11 24
REMARK SMILES IDX 12 25 13 26 14 27 15 28 16 29 17 31 18 32 19 33 80 34 20 35
REMARK SMILES IDX 79 36 21 37 22 38 23 39 73 40 24 41 78 42 72 43 74 44 25 45
REMARK SMILES IDX 77 46 71 47 70 48 26 50 58 51 38 52 57 53 39 54 42 55 56 56
REMARK SMILES IDX 75 57 40 58 41 59 55 61 76 62 43 63 27 64 28 65 36 66 29 67
REMARK SMILES IDX 30 68 34 69 37 70 31 71 32 72 35 73 33 74 59 75 60 76 68 77
REMARK SMILES IDX 61 78 62 79 66 80 69 81 63 82 64 83 67 84 65 85 44 86 45 87
REMARK SMILES IDX 53 88 46 89 47 90 51 91 54 92 48 93 49 94 52 95 50 96
REMARK H PARENT 8 6 15 30 74 49 42 60
REMARK Flexibility Score: inf
ROOT
ATOM      1  C   UNL A   1      32.858  28.641  27.300  1.00  0.00     0.021 C 
ENDROOT
BRANCH   1   2
ATOM      2  C   UNL A   1      33.075  27.432  26.397  1.00  0.00     0.116 C 
BRANCH   2   3
ATOM      3  N   UNL A   1      32.070  26.443  26.668  1.00  0.00    -0.355 N 
ATOM      4  C   UNL A   1      30.926  26.227  25.981  1.00  0.00     0.239 C 
ATOM      5  O   UNL A   1      30.078  25.486  26.484  1.00  0.00    -0.273 OA
ATOM      6  H   UNL A   1      32.232  25.856  27.442  1.00  0.00     0.163 HD
BRANCH   4   7
ATOM      7  C   UNL A   1      30.751  26.821  24.582  1.00  0.00     0.220 C 
BRANCH   7   8
ATOM      8  N   UNL A   1      31.373  26.160  23.422  1.00  0.00    -0.322 N 
BRANCH   8   9
ATOM      9  C   UNL A   1      31.810  27.012  22.294  1.00  0.00     0.209 C 
BRANCH   9  10
ATOM     10  C   UNL A   1      32.931  27.970  22.662  1.00  0.00    -0.085 C 
ATOM     11  C   UNL A   1      33.893  28.792  22.977  1.00  0.00     0.006 C 
ENDBRANCH   9  10
ENDBRANCH   8   9
BRANCH   8  12
ATOM     12  C   UNL A   1      31.551  24.781  23.335  1.00  0.00     0.224 C 
ATOM     13  O   UNL A   1      30.591  24.011  23.234  1.00  0.00    -0.275 OA
BRANCH  12  14
ATOM     14  C   UNL A   1      32.962  24.190  23.331  1.00  0.00     0.105 C 
BRANCH  14  15
ATOM     15  C   UNL A   1      33.251  23.246  24.515  1.00  0.00     0.047 C 
BRANCH  15  16
ATOM     16  C   UNL A   1      34.708  22.837  24.616  1.00  0.00    -0.029 A 
ATOM     17  C   UNL A   1      35.671  23.857  24.721  1.00  0.00     0.007 A 
ATOM     18  C   UNL A   1      35.118  21.503  24.808  1.00  0.00     0.045 A 
ATOM     19  C   UNL A   1      36.970  23.570  25.147  1.00  0.00     0.021 A 
ATOM     20  C   UNL A   1      36.428  21.214  25.211  1.00  0.00     0.041 A 
ATOM     21  Cl  UNL A   1      34.021  20.178  24.666  1.00  0.00    -0.084 Cl
ATOM     22  C   UNL A   1      37.333  22.253  25.415  1.00  0.00     0.042 A 
ATOM     23  Cl  UNL A   1      38.883  21.920  26.084  1.00  0.00    -0.084 Cl
ENDBRANCH  15  16
ENDBRANCH  14  15
ENDBRANCH  12  14
ENDBRANCH   8  12
ENDBRANCH   7   8
ENDBRANCH   4   7
ENDBRANCH   2   3
ENDBRANCH   1   2
BRANCH   1  24
ATOM     24  C   UNL A   1      33.013  29.974  26.556  1.00  0.00     0.002 C 
BRANCH  24  25
ATOM     25  C   UNL A   1      31.688  30.584  26.080  1.00  0.00     0.002 C 
BRANCH  25  26
ATOM     26  C   UNL A   1      31.444  32.009  26.578  1.00  0.00     0.021 C 
BRANCH  26  27
ATOM     27  C   UNL A   1      32.665  32.635  27.227  1.00  0.00     0.116 C 
BRANCH  27  28
ATOM     28  N   UNL A   1      32.445  34.043  27.505  1.00  0.00    -0.352 N 
ATOM     29  C   UNL A   1      32.989  34.802  28.510  1.00  0.00     0.251 C 
ATOM     30  H   UNL A   1      31.828  34.512  26.897  1.00  0.00     0.163 HD
ATOM     31  O   UNL A   1      32.522  35.893  28.798  1.00  0.00    -0.269 OA
BRANCH  29  32
ATOM     32  C   UNL A   1      34.148  34.262  29.246  1.00  0.00     0.039 A 
ATOM     33  C   UNL A   1      33.929  33.421  30.337  1.00  0.00     0.014 A 
ATOM     34  C   UNL A   1      35.447  34.574  28.831  1.00  0.00     0.014 A 
ATOM     35  C   UNL A   1      35.024  32.860  30.994  1.00  0.00     0.010 A 
ATOM     36  C   UNL A   1      36.529  33.944  29.430  1.00  0.00     0.010 A 
ATOM     37  C   UNL A   1      36.328  33.097  30.530  1.00  0.00    -0.014 A 
BRANCH  37  38
ATOM     38  C   UNL A   1      37.507  32.506  31.207  1.00  0.00     0.031 A 
ATOM     39  C   UNL A   1      38.241  31.367  30.555  1.00  0.00     0.074 A 
ATOM     40  C   UNL A   1      37.879  32.954  32.422  1.00  0.00     0.049 A 
ATOM     41  N   UNL A   1      39.230  30.645  31.017  1.00  0.00    -0.248 NA
ATOM     42  C   UNL A   1      37.783  30.965  29.213  1.00  0.00     0.031 C 
ATOM     43  C   UNL A   1      37.222  34.030  33.165  1.00  0.00     0.029 A 
ATOM     44  N   UNL A   1      38.895  32.550  33.250  1.00  0.00    -0.354 N 
ATOM     45  C   UNL A   1      39.502  29.706  30.030  1.00  0.00     0.074 A 
ATOM     46  C   UNL A   1      38.536  29.902  28.974  1.00  0.00     0.031 C 
ATOM     47  C   UNL A   1      37.863  34.213  34.331  1.00  0.00     0.029 A 
ATOM     48  C   UNL A   1      38.945  33.239  34.438  1.00  0.00     0.049 A 
ATOM     49  H   UNL A   1      39.528  31.834  33.015  1.00  0.00     0.167 HD
ATOM     50  C   UNL A   1      40.492  28.784  29.997  1.00  0.00     0.037 A 
ATOM     51  C   UNL A   1      39.762  33.086  35.496  1.00  0.00     0.037 A 
ATOM     52  C   UNL A   1      41.465  28.608  31.041  1.00  0.00     0.049 A 
ATOM     53  C   UNL A   1      40.834  32.027  35.442  1.00  0.00     0.074 A 
ATOM     54  C   UNL A   1      42.526  27.723  31.091  1.00  0.00     0.029 A 
ATOM     55  N   UNL A   1      41.495  29.339  32.220  1.00  0.00    -0.354 N 
ATOM     56  N   UNL A   1      41.116  31.181  34.482  1.00  0.00    -0.248 NA
ATOM     57  C   UNL A   1      41.706  31.907  36.619  1.00  0.00     0.031 C 
ATOM     58  C   UNL A   1      43.170  27.883  32.321  1.00  0.00     0.029 A 
ATOM     59  C   UNL A   1      42.548  28.912  33.010  1.00  0.00     0.049 A 
ATOM     60  H   UNL A   1      40.861  30.053  32.459  1.00  0.00     0.167 HD
ATOM     61  C   UNL A   1      42.222  30.463  34.918  1.00  0.00     0.074 A 
ATOM     62  C   UNL A   1      42.566  30.980  36.225  1.00  0.00     0.031 C 
ATOM     63  C   UNL A   1      42.894  29.464  34.294  1.00  0.00     0.037 A 
BRANCH  50  64
ATOM     64  C   UNL A   1      40.587  27.903  28.785  1.00  0.00     0.064 A 
ATOM     65  C   UNL A   1      39.870  26.700  28.695  1.00  0.00     0.173 A 
ATOM     66  C   UNL A   1      41.352  28.294  27.676  1.00  0.00     0.173 A 
ATOM     67  F   UNL A   1      39.134  26.273  29.734  1.00  0.00    -0.203 F 
ATOM     68  C   UNL A   1      39.931  25.912  27.549  1.00  0.00     0.198 A 
ATOM     69  C   UNL A   1      41.384  27.520  26.518  1.00  0.00     0.198 A 
ATOM     70  F   UNL A   1      42.054  29.437  27.706  1.00  0.00    -0.203 F 
ATOM     71  F   UNL A   1      39.268  24.748  27.503  1.00  0.00    -0.200 F 
ATOM     72  C   UNL A   1      40.678  26.329  26.458  1.00  0.00     0.200 A 
ATOM     73  F   UNL A   1      42.094  27.932  25.459  1.00  0.00    -0.200 F 
ATOM     74  F   UNL A   1      40.719  25.579  25.347  1.00  0.00    -0.200 F 
ENDBRANCH  50  64
BRANCH  51  75
ATOM     75  C   UNL A   1      39.613  33.950  36.698  1.00  0.00     0.064 A 
ATOM     76  C   UNL A   1      40.272  35.184  36.788  1.00  0.00     0.173 A 
ATOM     77  C   UNL A   1      38.848  33.540  37.802  1.00  0.00     0.173 A 
ATOM     78  F   UNL A   1      41.028  35.614  35.768  1.00  0.00    -0.203 F 
ATOM     79  C   UNL A   1      40.212  35.952  37.949  1.00  0.00     0.198 A 
ATOM     80  C   UNL A   1      38.758  34.326  38.948  1.00  0.00     0.198 A 
ATOM     81  F   UNL A   1      38.188  32.373  37.767  1.00  0.00    -0.203 F 
ATOM     82  F   UNL A   1      40.913  37.091  38.034  1.00  0.00    -0.200 F 
ATOM     83  C   UNL A   1      39.453  35.523  39.028  1.00  0.00     0.200 A 
ATOM     84  F   UNL A   1      38.009  33.917  39.981  1.00  0.00    -0.200 F 
ATOM     85  F   UNL A   1      39.403  36.257  40.148  1.00  0.00    -0.200 F 
ENDBRANCH  51  75
BRANCH  63  86
ATOM     86  C   UNL A   1      44.109  28.911  34.982  1.00  0.00     0.064 A 
ATOM     87  C   UNL A   1      44.041  27.796  35.828  1.00  0.00     0.173 A 
ATOM     88  C   UNL A   1      45.371  29.481  34.743  1.00  0.00     0.173 A 
ATOM     89  F   UNL A   1      42.857  27.224  36.098  1.00  0.00    -0.203 F 
ATOM     90  C   UNL A   1      45.187  27.287  36.433  1.00  0.00     0.198 A 
ATOM     91  C   UNL A   1      46.519  28.947  35.320  1.00  0.00     0.198 A 
ATOM     92  F   UNL A   1      45.492  30.543  33.934  1.00  0.00    -0.203 F 
ATOM     93  F   UNL A   1      45.092  26.252  37.278  1.00  0.00    -0.200 F 
ATOM     94  C   UNL A   1      46.426  27.856  36.171  1.00  0.00     0.200 A 
ATOM     95  F   UNL A   1      47.715  29.487  35.052  1.00  0.00    -0.200 F 
ATOM     96  F   UNL A   1      47.529  27.356  36.745  1.00  0.00    -0.200 F 
ENDBRANCH  63  86
ENDBRANCH  37  38
ENDBRANCH  29  32
ENDBRANCH  27  28
ENDBRANCH  26  27
ENDBRANCH  25  26
ENDBRANCH  24  25
ENDBRANCH   1  24
TORSDOF 20
ENDMDL
