MODEL 1
REMARK VINA RESULT:     -12.2      0.000      0.000
REMARK SMILES Cc1cc(S(=O)(=O)N[C@@H](CO)C(=O)NCCCCCCNC(=O)c2ccc(-c3c4nc(c(-c5c(F)c(F)c(F)c(F)c5F)c5ccc([nH]5)c(-c5c(F)c(F)c(F)c(F)c5F)c5nc(c(-c6c(F)c(F)c(F)c(F)c6F)c6ccc3[nH]6)C=C5)C=C4)cc2)ccc1OC(C)C
REMARK SMILES IDX 16 1 15 2 14 3 12 4 13 5 9 7 8 8 5 10 6 11 7 12 4 13 1 14
REMARK SMILES IDX 2 15 3 16 89 17 88 18 87 19 90 20 91 21 92 22 93 23 10 24
REMARK SMILES IDX 11 25 17 27 18 28 19 29 20 30 21 31 22 32 23 34 24 35 25 36
REMARK SMILES IDX 86 37 26 38 85 39 27 40 28 41 29 42 79 43 30 44 84 45 78 46
REMARK SMILES IDX 80 47 31 48 83 49 77 50 76 51 32 53 64 54 44 55 63 56 45 57
REMARK SMILES IDX 48 58 62 59 81 60 46 61 47 62 61 64 82 65 49 66 33 67 34 68
REMARK SMILES IDX 42 69 35 70 36 71 40 72 43 73 37 74 38 75 41 76 39 77 65 78
REMARK SMILES IDX 66 79 74 80 67 81 68 82 72 83 75 84 69 85 70 86 73 87 71 88
REMARK SMILES IDX 50 89 51 90 59 91 52 92 53 93 57 94 60 95 54 96 55 97 58 98
REMARK SMILES IDX 56 99
REMARK H PARENT 14 6 8 9 11 26 21 33 80 52 48 63
REMARK Flexibility Score: inf
ROOT
ATOM      1  C   UNL A   1      31.802  27.218  26.555  1.00  0.00     0.021 C 
ENDROOT
BRANCH   1   2
ATOM      2  C   UNL A   1      31.311  26.213  25.515  1.00  0.00     0.116 C 
BRANCH   2   3
ATOM      3  N   UNL A   1      30.119  26.666  24.825  1.00  0.00    -0.355 N 
ATOM      4  C   UNL A   1      30.009  27.227  23.585  1.00  0.00     0.240 C 
ATOM      5  O   UNL A   1      28.876  27.386  23.122  1.00  0.00    -0.273 OA
ATOM      6  H   UNL A   1      29.274  26.554  25.317  1.00  0.00     0.163 HD
BRANCH   4   7
ATOM      7  C   UNL A   1      31.245  27.703  22.811  1.00  0.00     0.184 C 
BRANCH   7   8
ATOM      8  N   UNL A   1      31.524  26.718  21.746  1.00  0.00    -0.196 NA
ATOM      9  H   UNL A   1      30.960  25.901  21.978  1.00  0.00     0.142 HD
BRANCH   8  10
ATOM     10  S   UNL A   1      33.018  26.127  21.364  1.00  0.00     0.241 S 
ATOM     11  O   UNL A   1      33.976  27.164  21.677  1.00  0.00    -0.207 OA
ATOM     12  O   UNL A   1      32.900  25.578  20.032  1.00  0.00    -0.207 OA
BRANCH  10  13
ATOM     13  C   UNL A   1      33.281  24.776  22.468  1.00  0.00     0.083 A 
ATOM     14  C   UNL A   1      35.090  24.451  25.739  1.00  0.00     0.048 C 
ATOM     15  C   UNL A   1      34.228  23.993  24.598  1.00  0.00    -0.008 A 
ATOM     16  C   UNL A   1      34.009  25.010  23.635  1.00  0.00     0.029 A 
ATOM     17  C   UNL A   1      33.637  22.739  24.380  1.00  0.00     0.122 A 
ATOM     18  C   UNL A   1      32.921  22.527  23.182  1.00  0.00     0.048 A 
ATOM     19  C   UNL A   1      32.764  23.517  22.217  1.00  0.00     0.025 A 
BRANCH  17  20
ATOM     20  O   UNL A   1      33.582  21.602  25.125  1.00  0.00    -0.491 OA
BRANCH  20  21
ATOM     21  C   UNL A   1      34.533  20.553  25.181  1.00  0.00     0.167 C 
ATOM     22  C   UNL A   1      33.994  19.237  24.626  1.00  0.00     0.052 C 
ATOM     23  C   UNL A   1      35.934  20.998  24.766  1.00  0.00     0.052 C 
ENDBRANCH  20  21
ENDBRANCH  17  20
ENDBRANCH  10  13
ENDBRANCH   8  10
ENDBRANCH   7   8
BRANCH   7  24
ATOM     24  C   UNL A   1      31.115  29.170  22.385  1.00  0.00     0.186 C 
BRANCH  24  25
ATOM     25  O   UNL A   1      30.134  29.408  21.382  1.00  0.00    -0.394 OA
ATOM     26  H   UNL A   1      30.549  29.843  20.620  1.00  0.00     0.210 HD
ENDBRANCH  24  25
ENDBRANCH   7  24
ENDBRANCH   4   7
ENDBRANCH   2   3
ENDBRANCH   1   2
BRANCH   1  27
ATOM     27  C   UNL A   1      33.295  27.550  26.497  1.00  0.00     0.002 C 
BRANCH  27  28
ATOM     28  C   UNL A   1      33.699  28.717  25.586  1.00  0.00     0.002 C 
BRANCH  28  29
ATOM     29  C   UNL A   1      33.076  30.073  25.910  1.00  0.00     0.021 C 
BRANCH  29  30
ATOM     30  C   UNL A   1      33.106  30.449  27.381  1.00  0.00     0.116 C 
BRANCH  30  31
ATOM     31  N   UNL A   1      34.020  31.541  27.680  1.00  0.00    -0.352 N 
ATOM     32  C   UNL A   1      35.269  31.520  28.270  1.00  0.00     0.251 C 
ATOM     33  H   UNL A   1      33.697  32.435  27.422  1.00  0.00     0.163 HD
ATOM     34  O   UNL A   1      35.808  32.574  28.593  1.00  0.00    -0.269 OA
BRANCH  32  35
ATOM     35  C   UNL A   1      36.042  30.255  28.313  1.00  0.00     0.039 A 
ATOM     36  C   UNL A   1      36.227  29.691  29.584  1.00  0.00     0.014 A 
ATOM     37  C   UNL A   1      36.850  29.871  27.251  1.00  0.00     0.014 A 
ATOM     38  C   UNL A   1      37.409  29.022  29.860  1.00  0.00     0.010 A 
ATOM     39  C   UNL A   1      38.077  29.331  27.545  1.00  0.00     0.010 A 
ATOM     40  C   UNL A   1      38.377  28.991  28.866  1.00  0.00    -0.014 A 
BRANCH  40  41
ATOM     41  C   UNL A   1      39.764  28.644  29.090  1.00  0.00     0.031 A 
ATOM     42  C   UNL A   1      40.180  27.265  28.798  1.00  0.00     0.074 A 
ATOM     43  C   UNL A   1      40.635  29.639  29.367  1.00  0.00     0.049 A 
ATOM     44  N   UNL A   1      41.318  26.775  29.127  1.00  0.00    -0.248 NA
ATOM     45  C   UNL A   1      39.300  26.290  28.154  1.00  0.00     0.031 C 
ATOM     46  C   UNL A   1      42.091  29.612  29.284  1.00  0.00     0.029 A 
ATOM     47  N   UNL A   1      40.347  30.875  29.977  1.00  0.00    -0.354 N 
ATOM     48  C   UNL A   1      41.437  25.547  28.520  1.00  0.00     0.074 A 
ATOM     49  C   UNL A   1      40.119  25.242  28.032  1.00  0.00     0.031 C 
ATOM     50  C   UNL A   1      42.589  30.588  30.064  1.00  0.00     0.029 A 
ATOM     51  C   UNL A   1      41.469  31.157  30.793  1.00  0.00     0.049 A 
ATOM     52  H   UNL A   1      39.540  31.426  29.860  1.00  0.00     0.167 HD
ATOM     53  C   UNL A   1      42.686  25.016  28.412  1.00  0.00     0.037 A 
ATOM     54  C   UNL A   1      41.352  31.147  32.154  1.00  0.00     0.037 A 
ATOM     55  C   UNL A   1      43.606  25.761  29.274  1.00  0.00     0.049 A 
ATOM     56  C   UNL A   1      42.196  30.075  32.806  1.00  0.00     0.074 A 
ATOM     57  C   UNL A   1      44.536  26.756  29.030  1.00  0.00     0.029 A 
ATOM     58  N   UNL A   1      43.370  25.763  30.647  1.00  0.00    -0.354 N 
ATOM     59  N   UNL A   1      42.586  28.984  32.202  1.00  0.00    -0.248 NA
ATOM     60  C   UNL A   1      42.688  30.164  34.176  1.00  0.00     0.031 C 
ATOM     61  C   UNL A   1      44.770  27.433  30.261  1.00  0.00     0.029 A 
ATOM     62  C   UNL A   1      44.025  26.816  31.255  1.00  0.00     0.049 A 
ATOM     63  H   UNL A   1      42.814  25.103  31.121  1.00  0.00     0.167 HD
ATOM     64  C   UNL A   1      43.362  28.243  33.054  1.00  0.00     0.074 A 
ATOM     65  C   UNL A   1      43.403  29.030  34.273  1.00  0.00     0.031 C 
ATOM     66  C   UNL A   1      43.908  27.042  32.691  1.00  0.00     0.037 A 
BRANCH  53  67
ATOM     67  C   UNL A   1      43.140  23.975  27.409  1.00  0.00     0.064 A 
ATOM     68  C   UNL A   1      43.893  24.374  26.282  1.00  0.00     0.173 A 
ATOM     69  C   UNL A   1      42.775  22.612  27.410  1.00  0.00     0.173 A 
ATOM     70  F   UNL A   1      44.316  25.639  26.141  1.00  0.00    -0.203 F 
ATOM     71  C   UNL A   1      44.221  23.497  25.241  1.00  0.00     0.198 A 
ATOM     72  C   UNL A   1      43.134  21.727  26.388  1.00  0.00     0.198 A 
ATOM     73  F   UNL A   1      42.017  22.069  28.365  1.00  0.00    -0.203 F 
ATOM     74  F   UNL A   1      44.891  23.951  24.172  1.00  0.00    -0.200 F 
ATOM     75  C   UNL A   1      43.845  22.171  25.295  1.00  0.00     0.200 A 
ATOM     76  F   UNL A   1      42.758  20.441  26.463  1.00  0.00    -0.200 F 
ATOM     77  F   UNL A   1      44.150  21.330  24.299  1.00  0.00    -0.200 F 
ENDBRANCH  53  67
BRANCH  54  78
ATOM     78  C   UNL A   1      40.009  31.610  32.610  1.00  0.00     0.064 A 
ATOM     79  C   UNL A   1      39.661  32.950  32.341  1.00  0.00     0.173 A 
ATOM     80  C   UNL A   1      38.964  30.712  32.859  1.00  0.00     0.173 A 
ATOM     81  F   UNL A   1      40.625  33.857  32.114  1.00  0.00    -0.203 F 
ATOM     82  C   UNL A   1      38.334  33.334  32.162  1.00  0.00     0.198 A 
ATOM     83  C   UNL A   1      37.632  31.109  32.706  1.00  0.00     0.198 A 
ATOM     84  F   UNL A   1      39.224  29.423  33.120  1.00  0.00    -0.203 F 
ATOM     85  F   UNL A   1      38.048  34.582  31.761  1.00  0.00    -0.200 F 
ATOM     86  C   UNL A   1      37.322  32.403  32.309  1.00  0.00     0.200 A 
ATOM     87  F   UNL A   1      36.648  30.207  32.841  1.00  0.00    -0.200 F 
ATOM     88  F   UNL A   1      36.054  32.739  32.032  1.00  0.00    -0.200 F 
ENDBRANCH  54  78
BRANCH  66  89
ATOM     89  C   UNL A   1      44.463  26.004  33.646  1.00  0.00     0.064 A 
ATOM     90  C   UNL A   1      45.823  25.658  33.727  1.00  0.00     0.173 A 
ATOM     91  C   UNL A   1      43.637  25.425  34.642  1.00  0.00     0.173 A 
ATOM     92  F   UNL A   1      46.744  26.238  32.949  1.00  0.00    -0.203 F 
ATOM     93  C   UNL A   1      46.303  24.742  34.668  1.00  0.00     0.198 A 
ATOM     94  C   UNL A   1      44.132  24.572  35.627  1.00  0.00     0.198 A 
ATOM     95  F   UNL A   1      42.326  25.696  34.718  1.00  0.00    -0.203 F 
ATOM     96  F   UNL A   1      47.600  24.403  34.658  1.00  0.00    -0.200 F 
ATOM     97  C   UNL A   1      45.462  24.209  35.625  1.00  0.00     0.200 A 
ATOM     98  F   UNL A   1      43.317  24.123  36.591  1.00  0.00    -0.200 F 
ATOM     99  F   UNL A   1      45.937  23.373  36.557  1.00  0.00    -0.200 F 
ENDBRANCH  66  89
ENDBRANCH  40  41
ENDBRANCH  32  35
ENDBRANCH  30  31
ENDBRANCH  29  30
ENDBRANCH  28  29
ENDBRANCH  27  28
ENDBRANCH   1  27
TORSDOF 20
ENDMDL
MODEL 2
REMARK VINA RESULT:     -11.7      1.375      3.516
REMARK SMILES Cc1cc(S(=O)(=O)N[C@@H](CO)C(=O)NCCCCCCNC(=O)c2ccc(-c3c4nc(c(-c5c(F)c(F)c(F)c(F)c5F)c5ccc([nH]5)c(-c5c(F)c(F)c(F)c(F)c5F)c5nc(c(-c6c(F)c(F)c(F)c(F)c6F)c6ccc3[nH]6)C=C5)C=C4)cc2)ccc1OC(C)C
REMARK SMILES IDX 16 1 15 2 14 3 12 4 13 5 9 7 8 8 5 10 6 11 7 12 4 13 1 14
REMARK SMILES IDX 2 15 3 16 89 17 88 18 87 19 90 20 91 21 92 22 93 23 10 24
REMARK SMILES IDX 11 25 17 27 18 28 19 29 20 30 21 31 22 32 23 34 24 35 25 36
REMARK SMILES IDX 86 37 26 38 85 39 27 40 28 41 29 42 79 43 30 44 84 45 78 46
REMARK SMILES IDX 80 47 31 48 83 49 77 50 76 51 32 53 64 54 44 55 63 56 45 57
REMARK SMILES IDX 48 58 62 59 81 60 46 61 47 62 61 64 82 65 49 66 33 67 34 68
REMARK SMILES IDX 42 69 35 70 36 71 40 72 43 73 37 74 38 75 41 76 39 77 65 78
REMARK SMILES IDX 66 79 74 80 67 81 68 82 72 83 75 84 69 85 70 86 73 87 71 88
REMARK SMILES IDX 50 89 51 90 59 91 52 92 53 93 57 94 60 95 54 96 55 97 58 98
REMARK SMILES IDX 56 99
REMARK H PARENT 14 6 8 9 11 26 21 33 80 52 48 63
REMARK Flexibility Score: inf
ROOT
ATOM      1  C   UNL A   1      30.666  26.821  26.209  1.00  0.00     0.021 C 
ENDROOT
BRANCH   1   2
ATOM      2  C   UNL A   1      30.817  25.375  25.740  1.00  0.00     0.116 C 
BRANCH   2   3
ATOM      3  N   UNL A   1      31.324  24.504  26.782  1.00  0.00    -0.355 N 
ATOM      4  C   UNL A   1      32.052  23.356  26.659  1.00  0.00     0.240 C 
ATOM      5  O   UNL A   1      32.524  22.859  27.684  1.00  0.00    -0.273 OA
ATOM      6  H   UNL A   1      31.116  24.778  27.704  1.00  0.00     0.163 HD
BRANCH   4   7
ATOM      7  C   UNL A   1      32.230  22.665  25.300  1.00  0.00     0.184 C 
BRANCH   7   8
ATOM      8  N   UNL A   1      33.504  23.132  24.715  1.00  0.00    -0.196 NA
ATOM      9  H   UNL A   1      33.744  23.979  25.228  1.00  0.00     0.142 HD
BRANCH   8  10
ATOM     10  S   UNL A   1      33.740  23.501  23.122  1.00  0.00     0.241 S 
ATOM     11  O   UNL A   1      33.028  22.509  22.348  1.00  0.00    -0.207 OA
ATOM     12  O   UNL A   1      35.163  23.708  22.970  1.00  0.00    -0.207 OA
BRANCH  10  13
ATOM     13  C   UNL A   1      32.953  25.062  22.884  1.00  0.00     0.083 A 
ATOM     14  C   UNL A   1      34.025  28.600  23.525  1.00  0.00     0.048 C 
ATOM     15  C   UNL A   1      33.119  27.511  23.024  1.00  0.00    -0.008 A 
ATOM     16  C   UNL A   1      33.659  26.216  23.226  1.00  0.00     0.029 A 
ATOM     17  C   UNL A   1      31.863  27.615  22.406  1.00  0.00     0.122 A 
ATOM     18  C   UNL A   1      31.166  26.430  22.087  1.00  0.00     0.048 A 
ATOM     19  C   UNL A   1      31.682  25.163  22.345  1.00  0.00     0.025 A 
BRANCH  17  20
ATOM     20  O   UNL A   1      31.118  28.679  22.002  1.00  0.00    -0.491 OA
BRANCH  20  21
ATOM     21  C   UNL A   1      29.973  29.227  22.633  1.00  0.00     0.167 C 
ATOM     22  C   UNL A   1      30.268  29.755  24.035  1.00  0.00     0.052 C 
ATOM     23  C   UNL A   1      29.132  30.089  21.693  1.00  0.00     0.052 C 
ENDBRANCH  20  21
ENDBRANCH  17  20
ENDBRANCH  10  13
ENDBRANCH   8  10
ENDBRANCH   7   8
BRANCH   7  24
ATOM     24  C   UNL A   1      32.028  21.149  25.406  1.00  0.00     0.186 C 
BRANCH  24  25
ATOM     25  O   UNL A   1      32.136  20.452  24.169  1.00  0.00    -0.394 OA
ATOM     26  H   UNL A   1      32.324  21.084  23.457  1.00  0.00     0.210 HD
ENDBRANCH  24  25
ENDBRANCH   7  24
ENDBRANCH   4   7
ENDBRANCH   2   3
ENDBRANCH   1   2
BRANCH   1  27
ATOM     27  C   UNL A   1      31.975  27.572  26.463  1.00  0.00     0.002 C 
BRANCH  27  28
ATOM     28  C   UNL A   1      31.970  28.574  27.626  1.00  0.00     0.002 C 
BRANCH  28  29
ATOM     29  C   UNL A   1      32.106  30.047  27.248  1.00  0.00     0.021 C 
BRANCH  29  30
ATOM     30  C   UNL A   1      33.465  30.437  26.695  1.00  0.00     0.116 C 
BRANCH  30  31
ATOM     31  N   UNL A   1      34.142  31.452  27.488  1.00  0.00    -0.352 N 
ATOM     32  C   UNL A   1      35.112  31.320  28.463  1.00  0.00     0.251 C 
ATOM     33  H   UNL A   1      33.866  32.378  27.300  1.00  0.00     0.163 HD
ATOM     34  O   UNL A   1      35.433  32.292  29.139  1.00  0.00    -0.269 OA
BRANCH  32  35
ATOM     35  C   UNL A   1      35.910  30.073  28.544  1.00  0.00     0.039 A 
ATOM     36  C   UNL A   1      36.230  29.631  29.836  1.00  0.00     0.014 A 
ATOM     37  C   UNL A   1      36.617  29.599  27.446  1.00  0.00     0.014 A 
ATOM     38  C   UNL A   1      37.447  29.003  30.052  1.00  0.00     0.010 A 
ATOM     39  C   UNL A   1      37.877  29.103  27.664  1.00  0.00     0.010 A 
ATOM     40  C   UNL A   1      38.313  28.890  28.974  1.00  0.00    -0.014 A 
BRANCH  40  41
ATOM     41  C   UNL A   1      39.721  28.580  29.089  1.00  0.00     0.031 A 
ATOM     42  C   UNL A   1      40.152  27.217  28.748  1.00  0.00     0.074 A 
ATOM     43  C   UNL A   1      40.583  29.596  29.313  1.00  0.00     0.049 A 
ATOM     44  N   UNL A   1      41.325  26.755  28.984  1.00  0.00    -0.248 NA
ATOM     45  C   UNL A   1      39.252  26.225  28.159  1.00  0.00     0.031 C 
ATOM     46  C   UNL A   1      42.029  29.611  29.121  1.00  0.00     0.029 A 
ATOM     47  N   UNL A   1      40.308  30.816  29.959  1.00  0.00    -0.354 N 
ATOM     48  C   UNL A   1      41.431  25.538  28.353  1.00  0.00     0.074 A 
ATOM     49  C   UNL A   1      40.089  25.201  27.961  1.00  0.00     0.031 C 
ATOM     50  C   UNL A   1      42.557  30.592  29.874  1.00  0.00     0.029 A 
ATOM     51  C   UNL A   1      41.480  31.121  30.693  1.00  0.00     0.049 A 
ATOM     52  H   UNL A   1      39.480  31.345  29.911  1.00  0.00     0.167 HD
ATOM     53  C   UNL A   1      42.682  25.044  28.145  1.00  0.00     0.037 A 
ATOM     54  C   UNL A   1      41.466  31.092  32.059  1.00  0.00     0.037 A 
ATOM     55  C   UNL A   1      43.644  25.804  28.946  1.00  0.00     0.049 A 
ATOM     56  C   UNL A   1      42.386  30.036  32.632  1.00  0.00     0.074 A 
ATOM     57  C   UNL A   1      44.525  26.828  28.647  1.00  0.00     0.029 A 
ATOM     58  N   UNL A   1      43.512  25.784  30.333  1.00  0.00    -0.354 N 
ATOM     59  N   UNL A   1      42.759  28.964  31.985  1.00  0.00    -0.248 NA
ATOM     60  C   UNL A   1      42.977  30.124  33.962  1.00  0.00     0.031 C 
ATOM     61  C   UNL A   1      44.832  27.498  29.866  1.00  0.00     0.029 A 
ATOM     62  C   UNL A   1      44.182  26.848  30.904  1.00  0.00     0.049 A 
ATOM     63  H   UNL A   1      43.011  25.104  30.838  1.00  0.00     0.167 HD
ATOM     64  C   UNL A   1      43.617  28.236  32.767  1.00  0.00     0.074 A 
ATOM     65  C   UNL A   1      43.728  29.009  33.990  1.00  0.00     0.031 C 
ATOM     66  C   UNL A   1      44.167  27.055  32.348  1.00  0.00     0.037 A 
BRANCH  53  67
ATOM     67  C   UNL A   1      43.088  24.027  27.097  1.00  0.00     0.064 A 
ATOM     68  C   UNL A   1      42.770  22.663  27.288  1.00  0.00     0.173 A 
ATOM     69  C   UNL A   1      43.887  24.283  25.963  1.00  0.00     0.173 A 
ATOM     70  F   UNL A   1      42.014  22.265  28.322  1.00  0.00    -0.203 F 
ATOM     71  C   UNL A   1      43.237  21.651  26.441  1.00  0.00     0.198 A 
ATOM     72  C   UNL A   1      44.323  23.276  25.096  1.00  0.00     0.198 A 
ATOM     73  F   UNL A   1      44.331  25.503  25.654  1.00  0.00    -0.203 F 
ATOM     74  F   UNL A   1      42.946  20.371  26.709  1.00  0.00    -0.200 F 
ATOM     75  C   UNL A   1      44.011  21.958  25.341  1.00  0.00     0.200 A 
ATOM     76  F   UNL A   1      45.073  23.598  24.031  1.00  0.00    -0.200 F 
ATOM     77  F   UNL A   1      44.465  20.992  24.532  1.00  0.00    -0.200 F 
ENDBRANCH  53  67
BRANCH  54  78
ATOM     78  C   UNL A   1      40.150  31.511  32.620  1.00  0.00     0.064 A 
ATOM     79  C   UNL A   1      39.753  32.848  32.411  1.00  0.00     0.173 A 
ATOM     80  C   UNL A   1      39.145  30.583  32.920  1.00  0.00     0.173 A 
ATOM     81  F   UNL A   1      40.678  33.784  32.138  1.00  0.00    -0.203 F 
ATOM     82  C   UNL A   1      38.408  33.205  32.336  1.00  0.00     0.198 A 
ATOM     83  C   UNL A   1      37.797  30.952  32.871  1.00  0.00     0.198 A 
ATOM     84  F   UNL A   1      39.451  29.295  33.129  1.00  0.00    -0.203 F 
ATOM     85  F   UNL A   1      38.066  34.454  31.987  1.00  0.00    -0.200 F 
ATOM     86  C   UNL A   1      37.430  32.246  32.530  1.00  0.00     0.200 A 
ATOM     87  F   UNL A   1      36.846  30.023  33.053  1.00  0.00    -0.200 F 
ATOM     88  F   UNL A   1      36.139  32.558  32.352  1.00  0.00    -0.200 F 
ENDBRANCH  54  78
BRANCH  66  89
ATOM     89  C   UNL A   1      44.820  26.022  33.244  1.00  0.00     0.064 A 
ATOM     90  C   UNL A   1      44.115  25.184  34.124  1.00  0.00     0.173 A 
ATOM     91  C   UNL A   1      46.204  25.735  33.123  1.00  0.00     0.173 A 
ATOM     92  F   UNL A   1      42.782  25.239  34.230  1.00  0.00    -0.203 F 
ATOM     93  C   UNL A   1      44.751  24.199  34.885  1.00  0.00     0.198 A 
ATOM     94  C   UNL A   1      46.822  24.702  33.827  1.00  0.00     0.198 A 
ATOM     95  F   UNL A   1      46.998  26.423  32.291  1.00  0.00    -0.203 F 
ATOM     96  F   UNL A   1      44.036  23.470  35.753  1.00  0.00    -0.200 F 
ATOM     97  C   UNL A   1      46.100  23.949  34.728  1.00  0.00     0.200 A 
ATOM     98  F   UNL A   1      48.115  24.426  33.607  1.00  0.00    -0.200 F 
ATOM     99  F   UNL A   1      46.695  22.970  35.421  1.00  0.00    -0.200 F 
ENDBRANCH  66  89
ENDBRANCH  40  41
ENDBRANCH  32  35
ENDBRANCH  30  31
ENDBRANCH  29  30
ENDBRANCH  28  29
ENDBRANCH  27  28
ENDBRANCH   1  27
TORSDOF 20
ENDMDL
MODEL 3
REMARK VINA RESULT:     -11.6      3.347      9.201
REMARK SMILES Cc1cc(S(=O)(=O)N[C@@H](CO)C(=O)NCCCCCCNC(=O)c2ccc(-c3c4nc(c(-c5c(F)c(F)c(F)c(F)c5F)c5ccc([nH]5)c(-c5c(F)c(F)c(F)c(F)c5F)c5nc(c(-c6c(F)c(F)c(F)c(F)c6F)c6ccc3[nH]6)C=C5)C=C4)cc2)ccc1OC(C)C
REMARK SMILES IDX 16 1 15 2 14 3 12 4 13 5 9 7 8 8 5 10 6 11 7 12 4 13 1 14
REMARK SMILES IDX 2 15 3 16 89 17 88 18 87 19 90 20 91 21 92 22 93 23 10 24
REMARK SMILES IDX 11 25 17 27 18 28 19 29 20 30 21 31 22 32 23 34 24 35 25 36
REMARK SMILES IDX 86 37 26 38 85 39 27 40 28 41 29 42 79 43 30 44 84 45 78 46
REMARK SMILES IDX 80 47 31 48 83 49 77 50 76 51 32 53 64 54 44 55 63 56 45 57
REMARK SMILES IDX 48 58 62 59 81 60 46 61 47 62 61 64 82 65 49 66 33 67 34 68
REMARK SMILES IDX 42 69 35 70 36 71 40 72 43 73 37 74 38 75 41 76 39 77 65 78
REMARK SMILES IDX 66 79 74 80 67 81 68 82 72 83 75 84 69 85 70 86 73 87 71 88
REMARK SMILES IDX 50 89 51 90 59 91 52 92 53 93 57 94 60 95 54 96 55 97 58 98
REMARK SMILES IDX 56 99
REMARK H PARENT 14 6 8 9 11 26 21 33 80 52 48 63
REMARK Flexibility Score: inf
ROOT
ATOM      1  C   UNL A   1      35.402  23.002  24.349  1.00  0.00     0.021 C 
ENDROOT
BRANCH   1   2
ATOM      2  C   UNL A   1      35.145  24.441  23.908  1.00  0.00     0.116 C 
BRANCH   2   3
ATOM      3  N   UNL A   1      33.926  24.575  23.134  1.00  0.00    -0.355 N 
ATOM      4  C   UNL A   1      32.814  25.318  23.409  1.00  0.00     0.240 C 
ATOM      5  O   UNL A   1      31.955  25.419  22.530  1.00  0.00    -0.273 OA
ATOM      6  H   UNL A   1      33.896  24.060  22.296  1.00  0.00     0.163 HD
BRANCH   4   7
ATOM      7  C   UNL A   1      32.603  25.959  24.787  1.00  0.00     0.184 C 
BRANCH   7   8
ATOM      8  N   UNL A   1      32.720  24.897  25.807  1.00  0.00    -0.196 NA
ATOM      9  H   UNL A   1      33.555  24.369  25.555  1.00  0.00     0.142 HD
BRANCH   8  10
ATOM     10  S   UNL A   1      31.565  23.763  26.135  1.00  0.00     0.241 S 
ATOM     11  O   UNL A   1      30.451  24.024  25.251  1.00  0.00    -0.207 OA
ATOM     12  O   UNL A   1      31.410  23.758  27.573  1.00  0.00    -0.207 OA
BRANCH  10  13
ATOM     13  C   UNL A   1      32.286  22.218  25.680  1.00  0.00     0.083 A 
ATOM     14  C   UNL A   1      32.153  20.150  22.552  1.00  0.00     0.048 C 
ATOM     15  C   UNL A   1      32.612  20.517  23.935  1.00  0.00    -0.008 A 
ATOM     16  C   UNL A   1      32.036  21.726  24.398  1.00  0.00     0.029 A 
ATOM     17  C   UNL A   1      33.503  19.842  24.783  1.00  0.00     0.122 A 
ATOM     18  C   UNL A   1      33.723  20.354  26.080  1.00  0.00     0.048 A 
ATOM     19  C   UNL A   1      33.104  21.512  26.544  1.00  0.00     0.025 A 
BRANCH  17  20
ATOM     20  O   UNL A   1      34.271  18.731  24.620  1.00  0.00    -0.491 OA
BRANCH  20  21
ATOM     21  C   UNL A   1      33.843  17.382  24.546  1.00  0.00     0.167 C 
ATOM     22  C   UNL A   1      32.536  17.136  25.295  1.00  0.00     0.052 C 
ATOM     23  C   UNL A   1      34.006  16.782  23.151  1.00  0.00     0.052 C 
ENDBRANCH  20  21
ENDBRANCH  17  20
ENDBRANCH  10  13
ENDBRANCH   8  10
ENDBRANCH   7   8
BRANCH   7  24
ATOM     24  C   UNL A   1      33.483  27.202  24.973  1.00  0.00     0.186 C 
BRANCH  24  25
ATOM     25  O   UNL A   1      33.943  27.786  23.758  1.00  0.00    -0.394 OA
ATOM     26  H   UNL A   1      34.505  27.150  23.287  1.00  0.00     0.210 HD
ENDBRANCH  24  25
ENDBRANCH   7  24
ENDBRANCH   4   7
ENDBRANCH   2   3
ENDBRANCH   1   2
BRANCH   1  27
ATOM     27  C   UNL A   1      36.752  22.415  23.930  1.00  0.00     0.002 C 
BRANCH  27  28
ATOM     28  C   UNL A   1      37.172  21.112  24.623  1.00  0.00     0.002 C 
BRANCH  28  29
ATOM     29  C   UNL A   1      38.480  21.156  25.409  1.00  0.00     0.021 C 
BRANCH  29  30
ATOM     30  C   UNL A   1      38.744  22.468  26.127  1.00  0.00     0.116 C 
BRANCH  30  31
ATOM     31  N   UNL A   1      40.142  22.663  26.478  1.00  0.00    -0.352 N 
ATOM     32  C   UNL A   1      40.864  23.830  26.640  1.00  0.00     0.251 C 
ATOM     33  H   UNL A   1      40.654  21.835  26.623  1.00  0.00     0.163 HD
ATOM     34  O   UNL A   1      42.083  23.780  26.770  1.00  0.00    -0.269 OA
BRANCH  32  35
ATOM     35  C   UNL A   1      40.152  25.110  26.873  1.00  0.00     0.039 A 
ATOM     36  C   UNL A   1      40.605  26.210  26.128  1.00  0.00     0.014 A 
ATOM     37  C   UNL A   1      39.377  25.305  28.009  1.00  0.00     0.014 A 
ATOM     38  C   UNL A   1      40.573  27.472  26.700  1.00  0.00     0.010 A 
ATOM     39  C   UNL A   1      39.461  26.520  28.639  1.00  0.00     0.010 A 
ATOM     40  C   UNL A   1      40.136  27.572  28.014  1.00  0.00    -0.014 A 
BRANCH  40  41
ATOM     41  C   UNL A   1      40.352  28.725  28.859  1.00  0.00     0.031 A 
ATOM     42  C   UNL A   1      39.295  29.745  28.909  1.00  0.00     0.074 A 
ATOM     43  C   UNL A   1      41.413  28.714  29.696  1.00  0.00     0.049 A 
ATOM     44  N   UNL A   1      39.434  30.895  29.459  1.00  0.00    -0.248 NA
ATOM     45  C   UNL A   1      37.991  29.567  28.271  1.00  0.00     0.031 C 
ATOM     46  C   UNL A   1      41.649  29.557  30.863  1.00  0.00     0.029 A 
ATOM     47  N   UNL A   1      42.621  28.012  29.527  1.00  0.00    -0.354 N 
ATOM     48  C   UNL A   1      38.196  31.493  29.498  1.00  0.00     0.074 A 
ATOM     49  C   UNL A   1      37.364  30.687  28.645  1.00  0.00     0.031 C 
ATOM     50  C   UNL A   1      42.967  29.570  31.130  1.00  0.00     0.029 A 
ATOM     51  C   UNL A   1      43.624  28.869  30.041  1.00  0.00     0.049 A 
ATOM     52  H   UNL A   1      42.743  27.117  29.137  1.00  0.00     0.167 HD
ATOM     53  C   UNL A   1      38.026  32.533  30.360  1.00  0.00     0.037 A 
ATOM     54  C   UNL A   1      44.542  29.438  29.202  1.00  0.00     0.037 A 
ATOM     55  C   UNL A   1      39.334  32.987  30.837  1.00  0.00     0.049 A 
ATOM     56  C   UNL A   1      44.445  30.947  29.165  1.00  0.00     0.074 A 
ATOM     57  C   UNL A   1      40.044  32.769  32.004  1.00  0.00     0.029 A 
ATOM     58  N   UNL A   1      40.243  33.482  29.904  1.00  0.00    -0.354 N 
ATOM     59  N   UNL A   1      43.361  31.616  29.456  1.00  0.00    -0.248 NA
ATOM     60  C   UNL A   1      45.567  31.814  28.827  1.00  0.00     0.031 C 
ATOM     61  C   UNL A   1      41.415  33.032  31.726  1.00  0.00     0.029 A 
ATOM     62  C   UNL A   1      41.527  33.458  30.411  1.00  0.00     0.049 A 
ATOM     63  H   UNL A   1      40.003  33.807  29.006  1.00  0.00     0.167 HD
ATOM     64  C   UNL A   1      43.615  32.959  29.361  1.00  0.00     0.074 A 
ATOM     65  C   UNL A   1      45.012  33.030  28.973  1.00  0.00     0.031 C 
ATOM     66  C   UNL A   1      42.658  33.906  29.606  1.00  0.00     0.037 A 
BRANCH  53  67
ATOM     67  C   UNL A   1      36.712  33.022  30.934  1.00  0.00     0.064 A 
ATOM     68  C   UNL A   1      35.865  33.833  30.145  1.00  0.00     0.173 A 
ATOM     69  C   UNL A   1      36.278  32.854  32.266  1.00  0.00     0.173 A 
ATOM     70  F   UNL A   1      36.145  34.082  28.857  1.00  0.00    -0.203 F 
ATOM     71  C   UNL A   1      34.711  34.442  30.652  1.00  0.00     0.198 A 
ATOM     72  C   UNL A   1      35.105  33.432  32.763  1.00  0.00     0.198 A 
ATOM     73  F   UNL A   1      36.977  32.167  33.171  1.00  0.00    -0.203 F 
ATOM     74  F   UNL A   1      33.981  35.245  29.867  1.00  0.00    -0.200 F 
ATOM     75  C   UNL A   1      34.328  34.238  31.962  1.00  0.00     0.200 A 
ATOM     76  F   UNL A   1      34.751  33.219  34.040  1.00  0.00    -0.200 F 
ATOM     77  F   UNL A   1      33.228  34.824  32.453  1.00  0.00    -0.200 F 
ENDBRANCH  53  67
BRANCH  54  78
ATOM     78  C   UNL A   1      44.888  28.549  28.057  1.00  0.00     0.064 A 
ATOM     79  C   UNL A   1      45.581  27.356  28.349  1.00  0.00     0.173 A 
ATOM     80  C   UNL A   1      44.195  28.608  26.841  1.00  0.00     0.173 A 
ATOM     81  F   UNL A   1      46.278  27.252  29.493  1.00  0.00    -0.203 F 
ATOM     82  C   UNL A   1      45.449  26.223  27.549  1.00  0.00     0.198 A 
ATOM     83  C   UNL A   1      44.088  27.476  26.027  1.00  0.00     0.198 A 
ATOM     84  F   UNL A   1      43.514  29.710  26.501  1.00  0.00    -0.203 F 
ATOM     85  F   UNL A   1      46.000  25.063  27.937  1.00  0.00    -0.200 F 
ATOM     86  C   UNL A   1      44.670  26.274  26.407  1.00  0.00     0.200 A 
ATOM     87  F   UNL A   1      43.329  27.520  24.922  1.00  0.00    -0.200 F 
ATOM     88  F   UNL A   1      44.450  25.161  25.694  1.00  0.00    -0.200 F 
ENDBRANCH  54  78
BRANCH  66  89
ATOM     89  C   UNL A   1      42.734  35.361  29.190  1.00  0.00     0.064 A 
ATOM     90  C   UNL A   1      43.291  36.378  29.984  1.00  0.00     0.173 A 
ATOM     91  C   UNL A   1      42.376  35.755  27.875  1.00  0.00     0.173 A 
ATOM     92  F   UNL A   1      43.809  36.124  31.191  1.00  0.00    -0.203 F 
ATOM     93  C   UNL A   1      43.400  37.698  29.534  1.00  0.00     0.198 A 
ATOM     94  C   UNL A   1      42.557  37.055  27.404  1.00  0.00     0.198 A 
ATOM     95  F   UNL A   1      41.871  34.884  26.990  1.00  0.00    -0.203 F 
ATOM     96  F   UNL A   1      43.883  38.639  30.358  1.00  0.00    -0.200 F 
ATOM     97  C   UNL A   1      43.046  38.033  28.242  1.00  0.00     0.200 A 
ATOM     98  F   UNL A   1      42.277  37.344  26.126  1.00  0.00    -0.200 F 
ATOM     99  F   UNL A   1      43.201  39.287  27.799  1.00  0.00    -0.200 F 
ENDBRANCH  66  89
ENDBRANCH  40  41
ENDBRANCH  32  35
ENDBRANCH  30  31
ENDBRANCH  29  30
ENDBRANCH  28  29
ENDBRANCH  27  28
ENDBRANCH   1  27
TORSDOF 20
ENDMDL
