MODEL 1
REMARK VINA RESULT:     -12.7      0.000      0.000
REMARK SMILES COc1ccc(-c2noc(CC(=O)NCCCCCCNC(=O)c3ccc(-c4c5nc(c(-c6c(F)c(F)c(F)c(F)c6F)c6ccc([nH]6)c(-c6c(F)c(F)c(F)c(F)c6F)c6nc(c(-c7c(F)c(F)c(F)c(F)c7F)c7ccc4[nH]7)C=C6)C=C5)cc3)c2-c2ccc(OC)cc2)cc1
REMARK SMILES IDX 17 1 16 2 15 3 14 4 12 5 13 6 11 8 10 9 7 10 8 11 87 12 9 13
REMARK SMILES IDX 6 14 3 15 4 16 97 17 5 18 96 19 2 20 1 21 88 22 89 23 95 24
REMARK SMILES IDX 90 25 94 26 91 27 92 28 93 29 18 30 19 31 20 32 21 33 22 34
REMARK SMILES IDX 23 36 24 37 25 38 86 39 26 40 85 41 27 42 28 43 29 44 79 45
REMARK SMILES IDX 30 46 84 47 78 48 80 49 31 50 83 51 77 52 76 53 32 55 64 56
REMARK SMILES IDX 44 57 63 58 45 59 48 60 62 61 81 62 46 63 47 64 61 66 82 67
REMARK SMILES IDX 49 68 33 69 34 70 42 71 35 72 36 73 40 74 43 75 37 76 38 77
REMARK SMILES IDX 41 78 39 79 65 80 66 81 74 82 67 83 68 84 72 85 75 86 69 87
REMARK SMILES IDX 70 88 73 89 71 90 50 91 51 92 59 93 52 94 53 95 57 96 60 97
REMARK SMILES IDX 54 98 55 99 58 100 56 101
REMARK H PARENT 14 7 21 35 80 54 48 65
REMARK Flexibility Score: inf
ROOT
ATOM      1  C   UNL A   1      32.504  29.802  26.606  1.00  0.00     0.002 C 
ENDROOT
BRANCH   1   2
ATOM      2  C   UNL A   1      31.687  28.723  27.327  1.00  0.00     0.021 C 
BRANCH   2   3
ATOM      3  C   UNL A   1      31.565  27.430  26.523  1.00  0.00     0.116 C 
BRANCH   3   4
ATOM      4  N   UNL A   1      31.225  27.714  25.146  1.00  0.00    -0.356 N 
ATOM      5  C   UNL A   1      31.893  27.363  24.010  1.00  0.00     0.227 C 
ATOM      6  O   UNL A   1      31.483  27.809  22.936  1.00  0.00    -0.275 OA
ATOM      7  H   UNL A   1      30.398  28.233  25.010  1.00  0.00     0.163 HD
BRANCH   5   8
ATOM      8  C   UNL A   1      33.023  26.353  24.062  1.00  0.00     0.179 C 
BRANCH   8   9
ATOM      9  C   UNL A   1      32.567  24.951  23.892  1.00  0.00     0.154 A 
ATOM     10  C   UNL A   1      32.130  22.784  23.724  1.00  0.00     0.122 A 
ATOM     11  N   UNL A   1      31.017  23.423  23.342  1.00  0.00    -0.079 NA
ATOM     12  C   UNL A   1      33.155  23.715  24.066  1.00  0.00     0.053 A 
ATOM     13  O   UNL A   1      31.284  24.773  23.471  1.00  0.00    -0.360 OA
BRANCH  10  14
ATOM     14  C   UNL A   1      32.224  21.332  23.768  1.00  0.00     0.005 A 
ATOM     15  C   UNL A   1      32.584  18.553  23.876  1.00  0.00     0.118 A 
ATOM     16  C   UNL A   1      32.293  19.181  22.662  1.00  0.00     0.047 A 
ATOM     17  C   UNL A   1      32.710  19.316  25.035  1.00  0.00     0.047 A 
ATOM     18  C   UNL A   1      32.097  20.565  22.607  1.00  0.00     0.014 A 
ATOM     19  C   UNL A   1      32.526  20.699  24.982  1.00  0.00     0.014 A 
BRANCH  15  20
ATOM     20  O   UNL A   1      32.780  17.200  23.814  1.00  0.00    -0.497 OA
ATOM     21  C   UNL A   1      34.092  16.805  23.426  1.00  0.00     0.278 C 
ENDBRANCH  15  20
ENDBRANCH  10  14
BRANCH  12  22
ATOM     22  C   UNL A   1      34.548  23.482  24.398  1.00  0.00    -0.012 A 
ATOM     23  C   UNL A   1      34.987  23.710  25.709  1.00  0.00     0.013 A 
ATOM     24  C   UNL A   1      35.462  23.029  23.443  1.00  0.00     0.013 A 
ATOM     25  C   UNL A   1      36.312  23.456  26.063  1.00  0.00     0.047 A 
ATOM     26  C   UNL A   1      36.794  22.782  23.802  1.00  0.00     0.047 A 
ATOM     27  C   UNL A   1      37.220  22.985  25.116  1.00  0.00     0.118 A 
BRANCH  27  28
ATOM     28  O   UNL A   1      38.479  22.768  25.601  1.00  0.00    -0.497 OA
ATOM     29  C   UNL A   1      38.874  21.416  25.791  1.00  0.00     0.278 C 
ENDBRANCH  27  28
ENDBRANCH  12  22
ENDBRANCH   8   9
ENDBRANCH   5   8
ENDBRANCH   3   4
ENDBRANCH   2   3
ENDBRANCH   1   2
BRANCH   1  30
ATOM     30  C   UNL A   1      31.664  30.895  25.934  1.00  0.00     0.002 C 
BRANCH  30  31
ATOM     31  C   UNL A   1      31.387  32.119  26.809  1.00  0.00     0.021 C 
BRANCH  31  32
ATOM     32  C   UNL A   1      32.643  32.780  27.365  1.00  0.00     0.116 C 
BRANCH  32  33
ATOM     33  N   UNL A   1      32.428  34.189  27.658  1.00  0.00    -0.352 N 
ATOM     34  C   UNL A   1      32.999  34.970  28.630  1.00  0.00     0.251 C 
ATOM     35  H   UNL A   1      31.780  34.648  27.076  1.00  0.00     0.163 HD
ATOM     36  O   UNL A   1      32.548  36.085  28.882  1.00  0.00    -0.269 OA
BRANCH  34  37
ATOM     37  C   UNL A   1      34.154  34.453  29.391  1.00  0.00     0.039 A 
ATOM     38  C   UNL A   1      33.930  33.799  30.604  1.00  0.00     0.014 A 
ATOM     39  C   UNL A   1      35.453  34.603  28.898  1.00  0.00     0.014 A 
ATOM     40  C   UNL A   1      35.007  33.238  31.291  1.00  0.00     0.010 A 
ATOM     41  C   UNL A   1      36.512  33.972  29.541  1.00  0.00     0.010 A 
ATOM     42  C   UNL A   1      36.301  33.285  30.746  1.00  0.00    -0.014 A 
BRANCH  42  43
ATOM     43  C   UNL A   1      37.442  32.614  31.417  1.00  0.00     0.031 A 
ATOM     44  C   UNL A   1      38.116  31.437  30.770  1.00  0.00     0.074 A 
ATOM     45  C   UNL A   1      37.829  33.027  32.640  1.00  0.00     0.049 A 
ATOM     46  N   UNL A   1      39.089  30.687  31.223  1.00  0.00    -0.248 NA
ATOM     47  C   UNL A   1      37.612  31.030  29.448  1.00  0.00     0.031 C 
ATOM     48  C   UNL A   1      37.219  34.123  33.394  1.00  0.00     0.029 A 
ATOM     49  N   UNL A   1      38.823  32.568  33.468  1.00  0.00    -0.354 N 
ATOM     50  C   UNL A   1      39.304  29.719  30.251  1.00  0.00     0.074 A 
ATOM     51  C   UNL A   1      38.321  29.936  29.212  1.00  0.00     0.031 C 
ATOM     52  C   UNL A   1      37.867  34.269  34.559  1.00  0.00     0.029 A 
ATOM     53  C   UNL A   1      38.909  33.250  34.656  1.00  0.00     0.049 A 
ATOM     54  H   UNL A   1      39.416  31.818  33.234  1.00  0.00     0.167 HD
ATOM     55  C   UNL A   1      40.251  28.752  30.217  1.00  0.00     0.037 A 
ATOM     56  C   UNL A   1      39.730  33.070  35.709  1.00  0.00     0.037 A 
ATOM     57  C   UNL A   1      41.238  28.552  31.245  1.00  0.00     0.049 A 
ATOM     58  C   UNL A   1      40.761  31.975  35.654  1.00  0.00     0.074 A 
ATOM     59  C   UNL A   1      42.281  27.643  31.276  1.00  0.00     0.029 A 
ATOM     60  N   UNL A   1      41.298  29.268  32.433  1.00  0.00    -0.354 N 
ATOM     61  N   UNL A   1      41.008  31.119  34.694  1.00  0.00    -0.248 NA
ATOM     62  C   UNL A   1      41.630  31.825  36.829  1.00  0.00     0.031 C 
ATOM     63  C   UNL A   1      42.936  27.768  32.505  1.00  0.00     0.029 A 
ATOM     64  C   UNL A   1      42.341  28.798  33.216  1.00  0.00     0.049 A 
ATOM     65  H   UNL A   1      40.690  30.001  32.682  1.00  0.00     0.167 HD
ATOM     66  C   UNL A   1      42.076  30.347  35.134  1.00  0.00     0.074 A 
ATOM     67  C   UNL A   1      42.442  30.853  36.442  1.00  0.00     0.031 C 
ATOM     68  C   UNL A   1      42.696  29.313  34.514  1.00  0.00     0.037 A 
BRANCH  55  69
ATOM     69  C   UNL A   1      40.268  27.835  29.027  1.00  0.00     0.064 A 
ATOM     70  C   UNL A   1      41.015  28.134  27.876  1.00  0.00     0.173 A 
ATOM     71  C   UNL A   1      39.559  26.624  29.050  1.00  0.00     0.173 A 
ATOM     72  F   UNL A   1      41.704  29.283  27.797  1.00  0.00    -0.203 F 
ATOM     73  C   UNL A   1      41.025  27.271  26.783  1.00  0.00     0.198 A 
ATOM     74  C   UNL A   1      39.601  25.748  27.968  1.00  0.00     0.198 A 
ATOM     75  F   UNL A   1      38.836  26.283  30.126  1.00  0.00    -0.203 F 
ATOM     76  F   UNL A   1      41.703  27.605  25.675  1.00  0.00    -0.200 F 
ATOM     77  C   UNL A   1      40.325  26.076  26.833  1.00  0.00     0.200 A 
ATOM     78  F   UNL A   1      38.937  24.585  28.025  1.00  0.00    -0.200 F 
ATOM     79  F   UNL A   1      40.344  25.243  25.784  1.00  0.00    -0.200 F 
ENDBRANCH  55  69
BRANCH  56  80
ATOM     80  C   UNL A   1      39.622  33.957  36.898  1.00  0.00     0.064 A 
ATOM     81  C   UNL A   1      38.864  33.578  38.014  1.00  0.00     0.173 A 
ATOM     82  C   UNL A   1      40.264  35.205  36.939  1.00  0.00     0.173 A 
ATOM     83  F   UNL A   1      38.216  32.404  38.015  1.00  0.00    -0.203 F 
ATOM     84  C   UNL A   1      38.731  34.422  39.115  1.00  0.00     0.198 A 
ATOM     85  C   UNL A   1      40.157  36.033  38.054  1.00  0.00     0.198 A 
ATOM     86  F   UNL A   1      41.006  35.614  35.900  1.00  0.00    -0.203 F 
ATOM     87  F   UNL A   1      37.957  34.056  40.147  1.00  0.00    -0.200 F 
ATOM     88  C   UNL A   1      39.382  35.645  39.137  1.00  0.00     0.200 A 
ATOM     89  F   UNL A   1      40.801  37.208  38.078  1.00  0.00    -0.200 F 
ATOM     90  F   UNL A   1      39.256  36.455  40.198  1.00  0.00    -0.200 F 
ENDBRANCH  56  80
BRANCH  68  91
ATOM     91  C   UNL A   1      43.854  28.675  35.227  1.00  0.00     0.064 A 
ATOM     92  C   UNL A   1      45.168  29.134  35.057  1.00  0.00     0.173 A 
ATOM     93  C   UNL A   1      43.638  27.621  36.128  1.00  0.00     0.173 A 
ATOM     94  F   UNL A   1      45.430  30.130  34.197  1.00  0.00    -0.203 F 
ATOM     95  C   UNL A   1      46.227  28.543  35.741  1.00  0.00     0.198 A 
ATOM     96  C   UNL A   1      44.696  27.055  36.836  1.00  0.00     0.198 A 
ATOM     97  F   UNL A   1      42.401  27.148  36.334  1.00  0.00    -0.203 F 
ATOM     98  F   UNL A   1      47.481  28.964  35.523  1.00  0.00    -0.200 F 
ATOM     99  C   UNL A   1      45.989  27.511  36.635  1.00  0.00     0.200 A 
ATOM    100  F   UNL A   1      44.461  26.069  37.713  1.00  0.00    -0.200 F 
ATOM    101  F   UNL A   1      47.008  26.950  37.301  1.00  0.00    -0.200 F 
ENDBRANCH  68  91
ENDBRANCH  42  43
ENDBRANCH  34  37
ENDBRANCH  32  33
ENDBRANCH  31  32
ENDBRANCH  30  31
ENDBRANCH   1  30
TORSDOF 18
ENDMDL
MODEL 2
REMARK VINA RESULT:     -12.3      4.868      9.256
REMARK SMILES COc1ccc(-c2noc(CC(=O)NCCCCCCNC(=O)c3ccc(-c4c5nc(c(-c6c(F)c(F)c(F)c(F)c6F)c6ccc([nH]6)c(-c6c(F)c(F)c(F)c(F)c6F)c6nc(c(-c7c(F)c(F)c(F)c(F)c7F)c7ccc4[nH]7)C=C6)C=C5)cc3)c2-c2ccc(OC)cc2)cc1
REMARK SMILES IDX 17 1 16 2 15 3 14 4 12 5 13 6 11 8 10 9 7 10 8 11 87 12 9 13
REMARK SMILES IDX 6 14 3 15 4 16 97 17 5 18 96 19 2 20 1 21 88 22 89 23 95 24
REMARK SMILES IDX 90 25 94 26 91 27 92 28 93 29 18 30 19 31 20 32 21 33 22 34
REMARK SMILES IDX 23 36 24 37 25 38 86 39 26 40 85 41 27 42 28 43 29 44 79 45
REMARK SMILES IDX 30 46 84 47 78 48 80 49 31 50 83 51 77 52 76 53 32 55 64 56
REMARK SMILES IDX 44 57 63 58 45 59 48 60 62 61 81 62 46 63 47 64 61 66 82 67
REMARK SMILES IDX 49 68 33 69 34 70 42 71 35 72 36 73 40 74 43 75 37 76 38 77
REMARK SMILES IDX 41 78 39 79 65 80 66 81 74 82 67 83 68 84 72 85 75 86 69 87
REMARK SMILES IDX 70 88 73 89 71 90 50 91 51 92 59 93 52 94 53 95 57 96 60 97
REMARK SMILES IDX 54 98 55 99 58 100 56 101
REMARK H PARENT 14 7 21 35 80 54 48 65
REMARK Flexibility Score: inf
ROOT
ATOM      1  C   UNL A   1      34.547  21.101  24.991  1.00  0.00     0.002 C 
ENDROOT
BRANCH   1   2
ATOM      2  C   UNL A   1      33.695  20.632  26.176  1.00  0.00     0.021 C 
BRANCH   2   3
ATOM      3  C   UNL A   1      33.655  21.644  27.320  1.00  0.00     0.116 C 
BRANCH   3   4
ATOM      4  N   UNL A   1      32.329  22.205  27.460  1.00  0.00    -0.356 N 
ATOM      5  C   UNL A   1      31.818  23.343  26.906  1.00  0.00     0.227 C 
ATOM      6  O   UNL A   1      30.689  23.697  27.252  1.00  0.00    -0.275 OA
ATOM      7  H   UNL A   1      31.710  21.696  28.034  1.00  0.00     0.163 HD
BRANCH   5   8
ATOM      8  C   UNL A   1      32.570  24.070  25.809  1.00  0.00     0.179 C 
BRANCH   8   9
ATOM      9  C   UNL A   1      31.700  24.930  24.970  1.00  0.00     0.154 A 
ATOM     10  C   UNL A   1      30.527  26.424  23.827  1.00  0.00     0.122 A 
ATOM     11  N   UNL A   1      30.082  25.222  23.440  1.00  0.00    -0.079 NA
ATOM     12  C   UNL A   1      31.545  26.292  24.816  1.00  0.00     0.053 A 
ATOM     13  O   UNL A   1      30.833  24.292  24.136  1.00  0.00    -0.360 OA
BRANCH  10  14
ATOM     14  C   UNL A   1      30.005  27.666  23.275  1.00  0.00     0.005 A 
ATOM     15  C   UNL A   1      28.922  29.960  22.078  1.00  0.00     0.118 A 
ATOM     16  C   UNL A   1      30.292  29.695  21.988  1.00  0.00     0.047 A 
ATOM     17  C   UNL A   1      28.090  29.070  22.755  1.00  0.00     0.047 A 
ATOM     18  C   UNL A   1      30.838  28.560  22.597  1.00  0.00     0.014 A 
ATOM     19  C   UNL A   1      28.630  27.931  23.354  1.00  0.00     0.014 A 
BRANCH  15  20
ATOM     20  O   UNL A   1      28.490  31.083  21.428  1.00  0.00    -0.497 OA
ATOM     21  C   UNL A   1      28.028  32.126  22.282  1.00  0.00     0.278 C 
ENDBRANCH  15  20
ENDBRANCH  10  14
BRANCH  12  22
ATOM     22  C   UNL A   1      32.208  27.311  25.608  1.00  0.00    -0.012 A 
ATOM     23  C   UNL A   1      33.514  27.696  25.276  1.00  0.00     0.013 A 
ATOM     24  C   UNL A   1      31.572  27.925  26.691  1.00  0.00     0.013 A 
ATOM     25  C   UNL A   1      34.158  28.701  25.997  1.00  0.00     0.047 A 
ATOM     26  C   UNL A   1      32.226  28.930  27.417  1.00  0.00     0.047 A 
ATOM     27  C   UNL A   1      33.518  29.328  27.065  1.00  0.00     0.118 A 
BRANCH  27  28
ATOM     28  O   UNL A   1      34.258  30.301  27.675  1.00  0.00    -0.497 OA
ATOM     29  C   UNL A   1      33.749  31.627  27.625  1.00  0.00     0.278 C 
ENDBRANCH  27  28
ENDBRANCH  12  22
ENDBRANCH   8   9
ENDBRANCH   5   8
ENDBRANCH   3   4
ENDBRANCH   2   3
ENDBRANCH   1   2
BRANCH   1  30
ATOM     30  C   UNL A   1      35.992  20.586  25.001  1.00  0.00     0.002 C 
BRANCH  30  31
ATOM     31  C   UNL A   1      36.980  21.465  25.770  1.00  0.00     0.021 C 
BRANCH  31  32
ATOM     32  C   UNL A   1      38.417  21.363  25.272  1.00  0.00     0.116 C 
BRANCH  32  33
ATOM     33  N   UNL A   1      39.209  20.454  26.087  1.00  0.00    -0.352 N 
ATOM     34  C   UNL A   1      40.299  20.723  26.875  1.00  0.00     0.251 C 
ATOM     35  H   UNL A   1      38.923  19.512  26.070  1.00  0.00     0.163 HD
ATOM     36  O   UNL A   1      40.984  19.808  27.326  1.00  0.00    -0.269 OA
BRANCH  34  37
ATOM     37  C   UNL A   1      40.657  22.125  27.166  1.00  0.00     0.039 A 
ATOM     38  C   UNL A   1      41.613  22.392  28.147  1.00  0.00     0.014 A 
ATOM     39  C   UNL A   1      40.058  23.171  26.459  1.00  0.00     0.014 A 
ATOM     40  C   UNL A   1      42.017  23.708  28.374  1.00  0.00     0.010 A 
ATOM     41  C   UNL A   1      40.520  24.472  26.629  1.00  0.00     0.010 A 
ATOM     42  C   UNL A   1      41.502  24.754  27.590  1.00  0.00    -0.014 A 
BRANCH  42  43
ATOM     43  C   UNL A   1      41.987  26.147  27.754  1.00  0.00     0.031 A 
ATOM     44  C   UNL A   1      43.321  26.557  27.196  1.00  0.00     0.074 A 
ATOM     45  C   UNL A   1      41.251  27.027  28.462  1.00  0.00     0.049 A 
ATOM     46  N   UNL A   1      43.939  27.708  27.285  1.00  0.00    -0.248 NA
ATOM     47  C   UNL A   1      44.076  25.527  26.464  1.00  0.00     0.031 C 
ATOM     48  C   UNL A   1      39.966  26.735  29.097  1.00  0.00     0.029 A 
ATOM     49  N   UNL A   1      41.484  28.344  28.773  1.00  0.00    -0.354 N 
ATOM     50  C   UNL A   1      45.152  27.536  26.633  1.00  0.00     0.074 A 
ATOM     51  C   UNL A   1      45.213  26.155  26.206  1.00  0.00     0.031 C 
ATOM     52  C   UNL A   1      39.510  27.844  29.699  1.00  0.00     0.029 A 
ATOM     53  C   UNL A   1      40.490  28.914  29.531  1.00  0.00     0.049 A 
ATOM     54  H   UNL A   1      42.287  28.833  28.483  1.00  0.00     0.167 HD
ATOM     55  C   UNL A   1      46.118  28.455  26.390  1.00  0.00     0.037 A 
ATOM     56  C   UNL A   1      40.385  30.156  30.040  1.00  0.00     0.037 A 
ATOM     57  C   UNL A   1      46.044  29.832  26.802  1.00  0.00     0.049 A 
ATOM     58  C   UNL A   1      41.482  31.152  29.772  1.00  0.00     0.074 A 
ATOM     59  C   UNL A   1      46.938  30.857  26.549  1.00  0.00     0.029 A 
ATOM     60  N   UNL A   1      45.018  30.375  27.563  1.00  0.00    -0.354 N 
ATOM     61  N   UNL A   1      42.586  31.002  29.083  1.00  0.00    -0.248 NA
ATOM     62  C   UNL A   1      41.313  32.493  30.349  1.00  0.00     0.031 C 
ATOM     63  C   UNL A   1      46.484  32.006  27.205  1.00  0.00     0.029 A 
ATOM     64  C   UNL A   1      45.274  31.714  27.815  1.00  0.00     0.049 A 
ATOM     65  H   UNL A   1      44.226  29.883  27.876  1.00  0.00     0.167 HD
ATOM     66  C   UNL A   1      43.230  32.232  29.120  1.00  0.00     0.074 A 
ATOM     67  C   UNL A   1      42.381  33.123  29.884  1.00  0.00     0.031 C 
ATOM     68  C   UNL A   1      44.418  32.590  28.574  1.00  0.00     0.037 A 
BRANCH  55  69
ATOM     69  C   UNL A   1      47.339  28.001  25.642  1.00  0.00     0.064 A 
ATOM     70  C   UNL A   1      48.522  27.643  26.307  1.00  0.00     0.173 A 
ATOM     71  C   UNL A   1      47.314  27.884  24.243  1.00  0.00     0.173 A 
ATOM     72  F   UNL A   1      48.603  27.745  27.643  1.00  0.00    -0.203 F 
ATOM     73  C   UNL A   1      49.643  27.219  25.599  1.00  0.00     0.198 A 
ATOM     74  C   UNL A   1      48.427  27.426  23.542  1.00  0.00     0.198 A 
ATOM     75  F   UNL A   1      46.208  28.204  23.556  1.00  0.00    -0.203 F 
ATOM     76  F   UNL A   1      50.779  26.935  26.253  1.00  0.00    -0.200 F 
ATOM     77  C   UNL A   1      49.592  27.102  24.218  1.00  0.00     0.200 A 
ATOM     78  F   UNL A   1      48.370  27.298  22.209  1.00  0.00    -0.200 F 
ATOM     79  F   UNL A   1      50.669  26.684  23.540  1.00  0.00    -0.200 F 
ENDBRANCH  55  69
BRANCH  56  80
ATOM     80  C   UNL A   1      39.189  30.535  30.840  1.00  0.00     0.064 A 
ATOM     81  C   UNL A   1      38.067  31.112  30.229  1.00  0.00     0.173 A 
ATOM     82  C   UNL A   1      39.147  30.339  32.229  1.00  0.00     0.173 A 
ATOM     83  F   UNL A   1      38.066  31.338  28.907  1.00  0.00    -0.203 F 
ATOM     84  C   UNL A   1      36.960  31.502  30.979  1.00  0.00     0.198 A 
ATOM     85  C   UNL A   1      38.026  30.699  32.973  1.00  0.00     0.198 A 
ATOM     86  F   UNL A   1      40.192  29.786  32.862  1.00  0.00    -0.203 F 
ATOM     87  F   UNL A   1      35.922  32.100  30.378  1.00  0.00    -0.200 F 
ATOM     88  C   UNL A   1      36.937  31.290  32.349  1.00  0.00     0.200 A 
ATOM     89  F   UNL A   1      38.002  30.478  34.294  1.00  0.00    -0.200 F 
ATOM     90  F   UNL A   1      35.871  31.662  33.070  1.00  0.00    -0.200 F 
ENDBRANCH  56  80
BRANCH  68  91
ATOM     91  C   UNL A   1      44.859  34.015  28.756  1.00  0.00     0.064 A 
ATOM     92  C   UNL A   1      44.571  35.003  27.804  1.00  0.00     0.173 A 
ATOM     93  C   UNL A   1      45.540  34.403  29.921  1.00  0.00     0.173 A 
ATOM     94  F   UNL A   1      43.936  34.681  26.667  1.00  0.00    -0.203 F 
ATOM     95  C   UNL A   1      44.972  36.323  27.998  1.00  0.00     0.198 A 
ATOM     96  C   UNL A   1      45.908  35.730  30.127  1.00  0.00     0.198 A 
ATOM     97  F   UNL A   1      45.834  33.499  30.866  1.00  0.00    -0.203 F 
ATOM     98  F   UNL A   1      44.731  37.240  27.051  1.00  0.00    -0.200 F 
ATOM     99  C   UNL A   1      45.631  36.686  29.163  1.00  0.00     0.200 A 
ATOM    100  F   UNL A   1      46.530  36.082  31.261  1.00  0.00    -0.200 F 
ATOM    101  F   UNL A   1      46.006  37.958  29.353  1.00  0.00    -0.200 F 
ENDBRANCH  68  91
ENDBRANCH  42  43
ENDBRANCH  34  37
ENDBRANCH  32  33
ENDBRANCH  31  32
ENDBRANCH  30  31
ENDBRANCH   1  30
TORSDOF 18
ENDMDL
MODEL 3
REMARK VINA RESULT:     -12.1      0.776      7.122
REMARK SMILES COc1ccc(-c2noc(CC(=O)NCCCCCCNC(=O)c3ccc(-c4c5nc(c(-c6c(F)c(F)c(F)c(F)c6F)c6ccc([nH]6)c(-c6c(F)c(F)c(F)c(F)c6F)c6nc(c(-c7c(F)c(F)c(F)c(F)c7F)c7ccc4[nH]7)C=C6)C=C5)cc3)c2-c2ccc(OC)cc2)cc1
REMARK SMILES IDX 17 1 16 2 15 3 14 4 12 5 13 6 11 8 10 9 7 10 8 11 87 12 9 13
REMARK SMILES IDX 6 14 3 15 4 16 97 17 5 18 96 19 2 20 1 21 88 22 89 23 95 24
REMARK SMILES IDX 90 25 94 26 91 27 92 28 93 29 18 30 19 31 20 32 21 33 22 34
REMARK SMILES IDX 23 36 24 37 25 38 86 39 26 40 85 41 27 42 28 43 29 44 79 45
REMARK SMILES IDX 30 46 84 47 78 48 80 49 31 50 83 51 77 52 76 53 32 55 64 56
REMARK SMILES IDX 44 57 63 58 45 59 48 60 62 61 81 62 46 63 47 64 61 66 82 67
REMARK SMILES IDX 49 68 33 69 34 70 42 71 35 72 36 73 40 74 43 75 37 76 38 77
REMARK SMILES IDX 41 78 39 79 65 80 66 81 74 82 67 83 68 84 72 85 75 86 69 87
REMARK SMILES IDX 70 88 73 89 71 90 50 91 51 92 59 93 52 94 53 95 57 96 60 97
REMARK SMILES IDX 54 98 55 99 58 100 56 101
REMARK H PARENT 14 7 21 35 80 54 48 65
REMARK Flexibility Score: inf
ROOT
ATOM      1  C   UNL A   1      32.528  29.394  26.328  1.00  0.00     0.002 C 
ENDROOT
BRANCH   1   2
ATOM      2  C   UNL A   1      31.713  28.375  27.134  1.00  0.00     0.021 C 
BRANCH   2   3
ATOM      3  C   UNL A   1      31.532  27.045  26.404  1.00  0.00     0.116 C 
BRANCH   3   4
ATOM      4  N   UNL A   1      30.937  27.254  25.102  1.00  0.00    -0.356 N 
ATOM      5  C   UNL A   1      31.431  26.924  23.873  1.00  0.00     0.227 C 
ATOM      6  O   UNL A   1      30.805  27.298  22.879  1.00  0.00    -0.275 OA
ATOM      7  H   UNL A   1      30.056  27.694  25.102  1.00  0.00     0.163 HD
BRANCH   5   8
ATOM      8  C   UNL A   1      32.640  26.019  23.747  1.00  0.00     0.179 C 
BRANCH   8   9
ATOM      9  C   UNL A   1      32.291  24.578  23.678  1.00  0.00     0.154 A 
ATOM     10  C   UNL A   1      32.015  22.378  23.677  1.00  0.00     0.122 A 
ATOM     11  N   UNL A   1      30.878  22.900  23.199  1.00  0.00    -0.079 NA
ATOM     12  C   UNL A   1      32.955  23.406  23.979  1.00  0.00     0.053 A 
ATOM     13  O   UNL A   1      31.045  24.272  23.224  1.00  0.00    -0.360 OA
BRANCH  10  14
ATOM     14  C   UNL A   1      32.207  20.945  23.848  1.00  0.00     0.005 A 
ATOM     15  C   UNL A   1      32.755  18.218  24.204  1.00  0.00     0.118 A 
ATOM     16  C   UNL A   1      32.464  18.720  22.933  1.00  0.00     0.047 A 
ATOM     17  C   UNL A   1      32.787  19.082  25.297  1.00  0.00     0.047 A 
ATOM     18  C   UNL A   1      32.174  20.077  22.754  1.00  0.00     0.014 A 
ATOM     19  C   UNL A   1      32.510  20.438  25.120  1.00  0.00     0.014 A 
BRANCH  15  20
ATOM     20  O   UNL A   1      33.046  16.882  24.264  1.00  0.00    -0.497 OA
ATOM     21  C   UNL A   1      32.847  16.285  25.542  1.00  0.00     0.278 C 
ENDBRANCH  15  20
ENDBRANCH  10  14
BRANCH  12  22
ATOM     22  C   UNL A   1      34.344  23.304  24.385  1.00  0.00    -0.012 A 
ATOM     23  C   UNL A   1      34.698  23.613  25.705  1.00  0.00     0.013 A 
ATOM     24  C   UNL A   1      35.339  22.897  23.492  1.00  0.00     0.013 A 
ATOM     25  C   UNL A   1      36.020  23.485  26.130  1.00  0.00     0.047 A 
ATOM     26  C   UNL A   1      36.668  22.776  23.921  1.00  0.00     0.047 A 
ATOM     27  C   UNL A   1      37.010  23.060  25.245  1.00  0.00     0.118 A 
BRANCH  27  28
ATOM     28  O   UNL A   1      38.257  22.968  25.796  1.00  0.00    -0.497 OA
ATOM     29  C   UNL A   1      38.839  21.672  25.865  1.00  0.00     0.278 C 
ENDBRANCH  27  28
ENDBRANCH  12  22
ENDBRANCH   8   9
ENDBRANCH   5   8
ENDBRANCH   3   4
ENDBRANCH   2   3
ENDBRANCH   1   2
BRANCH   1  30
ATOM     30  C   UNL A   1      31.694  30.496  25.664  1.00  0.00     0.002 C 
BRANCH  30  31
ATOM     31  C   UNL A   1      31.373  31.688  26.566  1.00  0.00     0.021 C 
BRANCH  31  32
ATOM     32  C   UNL A   1      32.587  32.267  27.283  1.00  0.00     0.116 C 
BRANCH  32  33
ATOM     33  N   UNL A   1      32.442  33.695  27.527  1.00  0.00    -0.352 N 
ATOM     34  C   UNL A   1      33.083  34.487  28.445  1.00  0.00     0.251 C 
ATOM     35  H   UNL A   1      31.791  34.158  26.952  1.00  0.00     0.163 HD
ATOM     36  O   UNL A   1      32.688  35.629  28.669  1.00  0.00    -0.269 OA
BRANCH  34  37
ATOM     37  C   UNL A   1      34.244  33.951  29.182  1.00  0.00     0.039 A 
ATOM     38  C   UNL A   1      34.037  32.978  30.161  1.00  0.00     0.014 A 
ATOM     39  C   UNL A   1      35.536  34.401  28.894  1.00  0.00     0.014 A 
ATOM     40  C   UNL A   1      35.135  32.409  30.807  1.00  0.00     0.010 A 
ATOM     41  C   UNL A   1      36.631  33.774  29.478  1.00  0.00     0.010 A 
ATOM     42  C   UNL A   1      36.442  32.773  30.443  1.00  0.00    -0.014 A 
BRANCH  42  43
ATOM     43  C   UNL A   1      37.623  32.112  31.053  1.00  0.00     0.031 A 
ATOM     44  C   UNL A   1      38.106  32.527  32.414  1.00  0.00     0.074 A 
ATOM     45  C   UNL A   1      38.297  31.180  30.351  1.00  0.00     0.049 A 
ATOM     46  N   UNL A   1      39.148  32.108  33.087  1.00  0.00    -0.248 NA
ATOM     47  C   UNL A   1      37.331  33.574  33.100  1.00  0.00     0.031 C 
ATOM     48  C   UNL A   1      37.959  30.730  29.000  1.00  0.00     0.029 A 
ATOM     49  N   UNL A   1      39.415  30.450  30.673  1.00  0.00    -0.354 N 
ATOM     50  C   UNL A   1      39.157  32.844  34.264  1.00  0.00     0.074 A 
ATOM     51  C   UNL A   1      38.056  33.780  34.188  1.00  0.00     0.031 C 
ATOM     52  C   UNL A   1      38.831  29.784  28.620  1.00  0.00     0.029 A 
ATOM     53  C   UNL A   1      39.816  29.591  29.681  1.00  0.00     0.049 A 
ATOM     54  H   UNL A   1      39.885  30.536  31.534  1.00  0.00     0.167 HD
ATOM     55  C   UNL A   1      39.995  32.733  35.323  1.00  0.00     0.037 A 
ATOM     56  C   UNL A   1      40.866  28.748  29.627  1.00  0.00     0.037 A 
ATOM     57  C   UNL A   1      41.078  31.789  35.400  1.00  0.00     0.049 A 
ATOM     58  C   UNL A   1      41.793  28.659  30.810  1.00  0.00     0.074 A 
ATOM     59  C   UNL A   1      41.943  31.552  36.453  1.00  0.00     0.029 A 
ATOM     60  N   UNL A   1      41.451  30.929  34.376  1.00  0.00    -0.354 N 
ATOM     61  N   UNL A   1      41.744  29.300  31.951  1.00  0.00    -0.248 NA
ATOM     62  C   UNL A   1      42.919  27.722  30.698  1.00  0.00     0.031 C 
ATOM     63  C   UNL A   1      42.875  30.592  36.048  1.00  0.00     0.029 A 
ATOM     64  C   UNL A   1      42.554  30.184  34.762  1.00  0.00     0.049 A 
ATOM     65  H   UNL A   1      40.999  30.859  33.505  1.00  0.00     0.167 HD
ATOM     66  C   UNL A   1      42.812  28.829  32.702  1.00  0.00     0.074 A 
ATOM     67  C   UNL A   1      43.480  27.829  31.893  1.00  0.00     0.031 C 
ATOM     68  C   UNL A   1      43.206  29.190  33.948  1.00  0.00     0.037 A 
BRANCH  55  69
ATOM     69  C   UNL A   1      39.771  33.656  36.487  1.00  0.00     0.064 A 
ATOM     70  C   UNL A   1      38.970  33.286  37.579  1.00  0.00     0.173 A 
ATOM     71  C   UNL A   1      40.396  34.912  36.531  1.00  0.00     0.173 A 
ATOM     72  F   UNL A   1      38.342  32.099  37.585  1.00  0.00    -0.203 F 
ATOM     73  C   UNL A   1      38.778  34.149  38.654  1.00  0.00     0.198 A 
ATOM     74  C   UNL A   1      40.228  35.759  37.624  1.00  0.00     0.198 A 
ATOM     75  F   UNL A   1      41.179  35.315  35.519  1.00  0.00    -0.203 F 
ATOM     76  F   UNL A   1      37.964  33.794  39.659  1.00  0.00    -0.200 F 
ATOM     77  C   UNL A   1      39.413  35.381  38.680  1.00  0.00     0.200 A 
ATOM     78  F   UNL A   1      40.856  36.942  37.654  1.00  0.00    -0.200 F 
ATOM     79  F   UNL A   1      39.234  36.207  39.719  1.00  0.00    -0.200 F 
ENDBRANCH  55  69
BRANCH  56  80
ATOM     80  C   UNL A   1      41.088  27.910  28.419  1.00  0.00     0.064 A 
ATOM     81  C   UNL A   1      41.816  28.400  27.325  1.00  0.00     0.173 A 
ATOM     82  C   UNL A   1      40.569  26.609  28.326  1.00  0.00     0.173 A 
ATOM     83  F   UNL A   1      42.315  29.644  27.357  1.00  0.00    -0.203 F 
ATOM     84  C   UNL A   1      41.995  27.631  26.177  1.00  0.00     0.198 A 
ATOM     85  C   UNL A   1      40.777  25.830  27.191  1.00  0.00     0.198 A 
ATOM     86  F   UNL A   1      39.869  26.090  29.346  1.00  0.00    -0.203 F 
ATOM     87  F   UNL A   1      42.650  28.144  25.126  1.00  0.00    -0.200 F 
ATOM     88  C   UNL A   1      41.481  26.346  26.112  1.00  0.00     0.200 A 
ATOM     89  F   UNL A   1      40.292  24.582  27.139  1.00  0.00    -0.200 F 
ATOM     90  F   UNL A   1      41.657  25.606  25.009  1.00  0.00    -0.200 F 
ENDBRANCH  56  80
BRANCH  68  91
ATOM     91  C   UNL A   1      44.398  28.483  34.527  1.00  0.00     0.064 A 
ATOM     92  C   UNL A   1      45.693  29.008  34.416  1.00  0.00     0.173 A 
ATOM     93  C   UNL A   1      44.234  27.286  35.241  1.00  0.00     0.173 A 
ATOM     94  F   UNL A   1      45.906  30.142  33.731  1.00  0.00    -0.203 F 
ATOM     95  C   UNL A   1      46.785  28.348  34.975  1.00  0.00     0.198 A 
ATOM     96  C   UNL A   1      45.323  26.647  35.829  1.00  0.00     0.198 A 
ATOM     97  F   UNL A   1      43.016  26.744  35.384  1.00  0.00    -0.203 F 
ATOM     98  F   UNL A   1      48.020  28.842  34.812  1.00  0.00    -0.200 F 
ATOM     99  C   UNL A   1      46.597  27.174  35.688  1.00  0.00     0.200 A 
ATOM    100  F   UNL A   1      45.137  25.521  36.533  1.00  0.00    -0.200 F 
ATOM    101  F   UNL A   1      47.646  26.546  36.236  1.00  0.00    -0.200 F 
ENDBRANCH  68  91
ENDBRANCH  42  43
ENDBRANCH  34  37
ENDBRANCH  32  33
ENDBRANCH  31  32
ENDBRANCH  30  31
ENDBRANCH   1  30
TORSDOF 18
ENDMDL
