MODEL 1
REMARK VINA RESULT:     -10.7      0.000      0.000
REMARK SMILES COCCS(=O)(=O)Cc1ccc(C(=O)NCCCCCCNC(=O)c2ccc(-c3c4nc(c(-c5c(F)c(F)c(F)c(F)c5F)c5ccc([nH]5)c(-c5c(F)c(F)c(F)c(F)c5F)c5nc(c(-c6c(F)c(F)c(F)c(F)c6F)c6ccc3[nH]6)C=C5)C=C4)cc2)cn1
REMARK SMILES IDX 17 1 16 2 15 3 13 4 14 5 12 7 9 8 10 9 89 10 11 11 88 12
REMARK SMILES IDX 8 13 5 14 6 15 7 16 4 17 3 18 2 19 1 20 18 21 19 22 20 23
REMARK SMILES IDX 21 24 22 25 23 26 24 28 25 29 26 30 87 31 27 32 86 33 28 34
REMARK SMILES IDX 29 35 30 36 80 37 31 38 85 39 79 40 81 41 32 42 84 43 78 44
REMARK SMILES IDX 77 45 33 47 65 48 45 49 64 50 46 51 49 52 63 53 82 54 47 55
REMARK SMILES IDX 48 56 62 58 83 59 50 60 34 61 35 62 43 63 36 64 37 65 41 66
REMARK SMILES IDX 44 67 38 68 39 69 42 70 40 71 66 72 67 73 75 74 68 75 69 76
REMARK SMILES IDX 73 77 76 78 70 79 71 80 74 81 72 82 51 83 52 84 60 85 53 86
REMARK SMILES IDX 54 87 58 88 61 89 55 90 56 91 59 92 57 93
REMARK H PARENT 15 6 22 27 81 46 49 57
REMARK Flexibility Score: inf
ROOT
ATOM      1  C   UNL A   1      33.274  29.717  25.666  1.00  0.00     0.021 C 
ENDROOT
BRANCH   1   2
ATOM      2  C   UNL A   1      32.305  29.509  24.499  1.00  0.00     0.116 C 
BRANCH   2   3
ATOM      3  N   UNL A   1      33.041  29.128  23.309  1.00  0.00    -0.352 N 
ATOM      4  C   UNL A   1      33.441  27.911  22.822  1.00  0.00     0.252 C 
ATOM      5  O   UNL A   1      34.068  27.891  21.764  1.00  0.00    -0.269 OA
ATOM      6  H   UNL A   1      33.302  29.889  22.741  1.00  0.00     0.163 HD
BRANCH   4   7
ATOM      7  C   UNL A   1      33.105  26.629  23.482  1.00  0.00     0.058 A 
ATOM      8  C   UNL A   1      32.211  24.246  24.608  1.00  0.00     0.055 A 
ATOM      9  C   UNL A   1      33.172  25.002  25.263  1.00  0.00     0.026 A 
ATOM     10  N   UNL A   1      31.678  24.665  23.432  1.00  0.00    -0.259 NA
ATOM     11  C   UNL A   1      33.689  26.137  24.642  1.00  0.00     0.017 A 
ATOM     12  C   UNL A   1      32.113  25.845  22.911  1.00  0.00     0.125 A 
BRANCH   8  13
ATOM     13  C   UNL A   1      31.650  22.960  25.135  1.00  0.00     0.193 C 
BRANCH  13  14
ATOM     14  S   UNL A   1      32.716  21.547  24.908  1.00  0.00     0.158 S 
ATOM     15  O   UNL A   1      33.376  21.707  23.625  1.00  0.00    -0.228 OA
ATOM     16  O   UNL A   1      31.889  20.367  25.123  1.00  0.00    -0.228 OA
BRANCH  14  17
ATOM     17  C   UNL A   1      33.975  21.510  26.186  1.00  0.00     0.165 C 
BRANCH  17  18
ATOM     18  C   UNL A   1      35.374  21.860  25.729  1.00  0.00     0.176 C 
BRANCH  18  19
ATOM     19  O   UNL A   1      35.853  23.070  26.317  1.00  0.00    -0.384 OA
ATOM     20  C   UNL A   1      36.896  23.696  25.588  1.00  0.00     0.194 C 
ENDBRANCH  18  19
ENDBRANCH  17  18
ENDBRANCH  14  17
ENDBRANCH  13  14
ENDBRANCH   8  13
ENDBRANCH   4   7
ENDBRANCH   2   3
ENDBRANCH   1   2
BRANCH   1  21
ATOM     21  C   UNL A   1      32.559  30.205  26.930  1.00  0.00     0.002 C 
BRANCH  21  22
ATOM     22  C   UNL A   1      31.262  30.976  26.656  1.00  0.00     0.002 C 
BRANCH  22  23
ATOM     23  C   UNL A   1      31.427  32.496  26.573  1.00  0.00     0.021 C 
BRANCH  23  24
ATOM     24  C   UNL A   1      32.648  33.023  27.318  1.00  0.00     0.116 C 
BRANCH  24  25
ATOM     25  N   UNL A   1      32.467  34.411  27.712  1.00  0.00    -0.352 N 
ATOM     26  C   UNL A   1      33.024  35.094  28.763  1.00  0.00     0.251 C 
ATOM     27  H   UNL A   1      31.859  34.936  27.144  1.00  0.00     0.163 HD
ATOM     28  O   UNL A   1      32.567  36.176  29.113  1.00  0.00    -0.269 OA
BRANCH  26  29
ATOM     29  C   UNL A   1      34.180  34.514  29.476  1.00  0.00     0.039 A 
ATOM     30  C   UNL A   1      33.972  33.877  30.700  1.00  0.00     0.014 A 
ATOM     31  C   UNL A   1      35.467  34.617  28.940  1.00  0.00     0.014 A 
ATOM     32  C   UNL A   1      35.052  33.298  31.366  1.00  0.00     0.010 A 
ATOM     33  C   UNL A   1      36.528  33.974  29.565  1.00  0.00     0.010 A 
ATOM     34  C   UNL A   1      36.333  33.318  30.790  1.00  0.00    -0.014 A 
BRANCH  34  35
ATOM     35  C   UNL A   1      37.485  32.663  31.456  1.00  0.00     0.031 A 
ATOM     36  C   UNL A   1      38.179  31.506  30.795  1.00  0.00     0.074 A 
ATOM     37  C   UNL A   1      37.860  33.068  32.683  1.00  0.00     0.049 A 
ATOM     38  N   UNL A   1      39.159  30.761  31.242  1.00  0.00    -0.248 NA
ATOM     39  C   UNL A   1      37.687  31.112  29.465  1.00  0.00     0.031 C 
ATOM     40  C   UNL A   1      37.231  34.147  33.445  1.00  0.00     0.029 A 
ATOM     41  N   UNL A   1      38.855  32.613  33.510  1.00  0.00    -0.354 N 
ATOM     42  C   UNL A   1      39.389  29.809  30.258  1.00  0.00     0.074 A 
ATOM     43  C   UNL A   1      38.408  30.030  29.217  1.00  0.00     0.031 C 
ATOM     44  C   UNL A   1      37.868  34.286  34.618  1.00  0.00     0.029 A 
ATOM     45  C   UNL A   1      38.923  33.282  34.708  1.00  0.00     0.049 A 
ATOM     46  H   UNL A   1      39.463  31.877  33.268  1.00  0.00     0.167 HD
ATOM     47  C   UNL A   1      40.347  28.853  30.216  1.00  0.00     0.037 A 
ATOM     48  C   UNL A   1      39.740  33.099  35.762  1.00  0.00     0.037 A 
ATOM     49  C   UNL A   1      41.331  28.652  31.248  1.00  0.00     0.049 A 
ATOM     50  C   UNL A   1      40.791  32.024  35.696  1.00  0.00     0.074 A 
ATOM     51  C   UNL A   1      42.382  27.753  31.276  1.00  0.00     0.029 A 
ATOM     52  N   UNL A   1      41.379  29.360  32.441  1.00  0.00    -0.354 N 
ATOM     53  N   UNL A   1      41.048  31.176  34.729  1.00  0.00    -0.248 NA
ATOM     54  C   UNL A   1      41.670  31.886  36.865  1.00  0.00     0.031 C 
ATOM     55  C   UNL A   1      43.031  27.877  32.508  1.00  0.00     0.029 A 
ATOM     56  C   UNL A   1      42.425  28.897  33.224  1.00  0.00     0.049 A 
ATOM     57  H   UNL A   1      40.760  30.083  32.694  1.00  0.00     0.167 HD
ATOM     58  C   UNL A   1      42.133  30.425  35.159  1.00  0.00     0.074 A 
ATOM     59  C   UNL A   1      42.495  30.927  36.468  1.00  0.00     0.031 C 
ATOM     60  C   UNL A   1      42.774  29.411  34.524  1.00  0.00     0.037 A 
BRANCH  47  61
ATOM     61  C   UNL A   1      40.372  27.948  29.016  1.00  0.00     0.064 A 
ATOM     62  C   UNL A   1      41.135  28.253  27.878  1.00  0.00     0.173 A 
ATOM     63  C   UNL A   1      39.640  26.752  29.011  1.00  0.00     0.173 A 
ATOM     64  F   UNL A   1      41.845  29.390  27.825  1.00  0.00    -0.203 F 
ATOM     65  C   UNL A   1      41.133  27.414  26.766  1.00  0.00     0.198 A 
ATOM     66  C   UNL A   1      39.669  25.897  27.912  1.00  0.00     0.198 A 
ATOM     67  F   UNL A   1      38.898  26.408  30.074  1.00  0.00    -0.203 F 
ATOM     68  F   UNL A   1      41.821  27.757  25.668  1.00  0.00    -0.200 F 
ATOM     69  C   UNL A   1      40.406  26.234  26.787  1.00  0.00     0.200 A 
ATOM     70  F   UNL A   1      38.976  24.749  27.939  1.00  0.00    -0.200 F 
ATOM     71  F   UNL A   1      40.409  25.425  25.718  1.00  0.00    -0.200 F 
ENDBRANCH  47  61
BRANCH  48  72
ATOM     72  C   UNL A   1      39.612  33.974  36.956  1.00  0.00     0.064 A 
ATOM     73  C   UNL A   1      40.263  35.214  37.013  1.00  0.00     0.173 A 
ATOM     74  C   UNL A   1      38.827  33.598  38.057  1.00  0.00     0.173 A 
ATOM     75  F   UNL A   1      41.037  35.611  35.993  1.00  0.00    -0.203 F 
ATOM     76  C   UNL A   1      40.150  36.035  38.134  1.00  0.00     0.198 A 
ATOM     77  C   UNL A   1      38.691  34.433  39.163  1.00  0.00     0.198 A 
ATOM     78  F   UNL A   1      38.177  32.425  38.048  1.00  0.00    -0.203 F 
ATOM     79  F   UNL A   1      40.816  37.197  38.179  1.00  0.00    -0.200 F 
ATOM     80  C   UNL A   1      39.358  35.648  39.204  1.00  0.00     0.200 A 
ATOM     81  F   UNL A   1      37.911  34.062  40.188  1.00  0.00    -0.200 F 
ATOM     82  F   UNL A   1      39.243  36.442  40.276  1.00  0.00    -0.200 F 
ENDBRANCH  48  72
BRANCH  60  83
ATOM     83  C   UNL A   1      43.956  28.801  35.222  1.00  0.00     0.064 A 
ATOM     84  C   UNL A   1      45.242  29.351  35.115  1.00  0.00     0.173 A 
ATOM     85  C   UNL A   1      43.791  27.674  36.040  1.00  0.00     0.173 A 
ATOM     86  F   UNL A   1      45.457  30.421  34.332  1.00  0.00    -0.203 F 
ATOM     87  C   UNL A   1      46.322  28.781  35.783  1.00  0.00     0.198 A 
ATOM     88  C   UNL A   1      44.866  27.125  36.733  1.00  0.00     0.198 A 
ATOM     89  F   UNL A   1      42.581  27.112  36.183  1.00  0.00    -0.203 F 
ATOM     90  F   UNL A   1      47.551  29.293  35.626  1.00  0.00    -0.200 F 
ATOM     91  C   UNL A   1      46.133  27.674  36.597  1.00  0.00     0.200 A 
ATOM     92  F   UNL A   1      44.678  26.066  37.531  1.00  0.00    -0.200 F 
ATOM     93  F   UNL A   1      47.172  27.131  37.245  1.00  0.00    -0.200 F 
ENDBRANCH  60  83
ENDBRANCH  34  35
ENDBRANCH  26  29
ENDBRANCH  24  25
ENDBRANCH  23  24
ENDBRANCH  22  23
ENDBRANCH  21  22
ENDBRANCH   1  21
TORSDOF 18
ENDMDL
MODEL 2
REMARK VINA RESULT:     -10.7      1.852      7.812
REMARK SMILES COCCS(=O)(=O)Cc1ccc(C(=O)NCCCCCCNC(=O)c2ccc(-c3c4nc(c(-c5c(F)c(F)c(F)c(F)c5F)c5ccc([nH]5)c(-c5c(F)c(F)c(F)c(F)c5F)c5nc(c(-c6c(F)c(F)c(F)c(F)c6F)c6ccc3[nH]6)C=C5)C=C4)cc2)cn1
REMARK SMILES IDX 17 1 16 2 15 3 13 4 14 5 12 7 9 8 10 9 89 10 11 11 88 12
REMARK SMILES IDX 8 13 5 14 6 15 7 16 4 17 3 18 2 19 1 20 18 21 19 22 20 23
REMARK SMILES IDX 21 24 22 25 23 26 24 28 25 29 26 30 87 31 27 32 86 33 28 34
REMARK SMILES IDX 29 35 30 36 80 37 31 38 85 39 79 40 81 41 32 42 84 43 78 44
REMARK SMILES IDX 77 45 33 47 65 48 45 49 64 50 46 51 49 52 63 53 82 54 47 55
REMARK SMILES IDX 48 56 62 58 83 59 50 60 34 61 35 62 43 63 36 64 37 65 41 66
REMARK SMILES IDX 44 67 38 68 39 69 42 70 40 71 66 72 67 73 75 74 68 75 69 76
REMARK SMILES IDX 73 77 76 78 70 79 71 80 74 81 72 82 51 83 52 84 60 85 53 86
REMARK SMILES IDX 54 87 58 88 61 89 55 90 56 91 59 92 57 93
REMARK H PARENT 15 6 22 27 81 46 49 57
REMARK Flexibility Score: inf
ROOT
ATOM      1  C   UNL A   1      35.537  31.930  28.089  1.00  0.00     0.021 C 
ENDROOT
BRANCH   1   2
ATOM      2  C   UNL A   1      34.520  30.881  27.630  1.00  0.00     0.116 C 
BRANCH   2   3
ATOM      3  N   UNL A   1      33.259  31.521  27.314  1.00  0.00    -0.352 N 
ATOM      4  C   UNL A   1      32.093  31.044  26.772  1.00  0.00     0.252 C 
ATOM      5  O   UNL A   1      31.165  31.836  26.612  1.00  0.00    -0.269 OA
ATOM      6  H   UNL A   1      33.234  32.481  27.528  1.00  0.00     0.163 HD
BRANCH   4   7
ATOM      7  C   UNL A   1      31.887  29.618  26.430  1.00  0.00     0.058 A 
ATOM      8  C   UNL A   1      31.377  27.031  25.542  1.00  0.00     0.055 A 
ATOM      9  C   UNL A   1      31.385  27.306  26.902  1.00  0.00     0.026 A 
ATOM     10  N   UNL A   1      31.590  28.014  24.632  1.00  0.00    -0.259 NA
ATOM     11  C   UNL A   1      31.744  28.579  27.339  1.00  0.00     0.017 A 
ATOM     12  C   UNL A   1      31.814  29.277  25.087  1.00  0.00     0.125 A 
BRANCH   8  13
ATOM     13  C   UNL A   1      31.097  25.678  24.960  1.00  0.00     0.193 C 
BRANCH  13  14
ATOM     14  S   UNL A   1      32.558  24.755  24.512  1.00  0.00     0.158 S 
ATOM     15  O   UNL A   1      32.134  23.402  24.199  1.00  0.00    -0.228 OA
ATOM     16  O   UNL A   1      33.517  24.952  25.590  1.00  0.00    -0.228 OA
BRANCH  14  17
ATOM     17  C   UNL A   1      33.310  25.462  23.044  1.00  0.00     0.165 C 
BRANCH  17  18
ATOM     18  C   UNL A   1      32.453  25.429  21.797  1.00  0.00     0.176 C 
BRANCH  18  19
ATOM     19  O   UNL A   1      33.233  25.356  20.603  1.00  0.00    -0.384 OA
ATOM     20  C   UNL A   1      32.479  25.486  19.409  1.00  0.00     0.194 C 
ENDBRANCH  18  19
ENDBRANCH  17  18
ENDBRANCH  14  17
ENDBRANCH  13  14
ENDBRANCH   8  13
ENDBRANCH   4   7
ENDBRANCH   2   3
ENDBRANCH   1   2
BRANCH   1  21
ATOM     21  C   UNL A   1      34.926  32.938  29.067  1.00  0.00     0.002 C 
BRANCH  21  22
ATOM     22  C   UNL A   1      35.322  34.394  28.793  1.00  0.00     0.002 C 
BRANCH  22  23
ATOM     23  C   UNL A   1      34.171  35.399  28.883  1.00  0.00     0.021 C 
BRANCH  23  24
ATOM     24  C   UNL A   1      32.928  34.848  29.573  1.00  0.00     0.116 C 
BRANCH  24  25
ATOM     25  N   UNL A   1      32.480  35.732  30.638  1.00  0.00    -0.352 N 
ATOM     26  C   UNL A   1      32.847  35.754  31.959  1.00  0.00     0.251 C 
ATOM     27  H   UNL A   1      31.820  36.411  30.373  1.00  0.00     0.163 HD
ATOM     28  O   UNL A   1      32.185  36.381  32.777  1.00  0.00    -0.269 OA
BRANCH  26  29
ATOM     29  C   UNL A   1      34.048  35.011  32.392  1.00  0.00     0.039 A 
ATOM     30  C   UNL A   1      33.903  33.710  32.878  1.00  0.00     0.014 A 
ATOM     31  C   UNL A   1      35.310  35.608  32.333  1.00  0.00     0.014 A 
ATOM     32  C   UNL A   1      35.033  32.989  33.259  1.00  0.00     0.010 A 
ATOM     33  C   UNL A   1      36.441  34.862  32.640  1.00  0.00     0.010 A 
ATOM     34  C   UNL A   1      36.313  33.549  33.117  1.00  0.00    -0.014 A 
BRANCH  34  35
ATOM     35  C   UNL A   1      37.532  32.780  33.468  1.00  0.00     0.031 A 
ATOM     36  C   UNL A   1      38.273  33.081  34.740  1.00  0.00     0.074 A 
ATOM     37  C   UNL A   1      38.006  31.860  32.608  1.00  0.00     0.049 A 
ATOM     38  N   UNL A   1      39.389  32.567  35.191  1.00  0.00    -0.248 NA
ATOM     39  C   UNL A   1      37.698  34.121  35.609  1.00  0.00     0.031 C 
ATOM     40  C   UNL A   1      37.401  31.517  31.321  1.00  0.00     0.029 A 
ATOM     41  N   UNL A   1      39.111  31.051  32.682  1.00  0.00    -0.354 N 
ATOM     42  C   UNL A   1      39.654  33.227  36.383  1.00  0.00     0.074 A 
ATOM     43  C   UNL A   1      38.617  34.221  36.556  1.00  0.00     0.031 C 
ATOM     44  C   UNL A   1      38.130  30.553  30.736  1.00  0.00     0.029 A 
ATOM     45  C   UNL A   1      39.273  30.239  31.587  1.00  0.00     0.049 A 
ATOM     46  H   UNL A   1      39.730  31.054  33.448  1.00  0.00     0.167 HD
ATOM     47  C   UNL A   1      40.659  33.007  37.264  1.00  0.00     0.037 A 
ATOM     48  C   UNL A   1      40.239  29.347  31.299  1.00  0.00     0.037 A 
ATOM     49  C   UNL A   1      41.676  32.003  37.093  1.00  0.00     0.049 A 
ATOM     50  C   UNL A   1      41.351  29.127  32.290  1.00  0.00     0.074 A 
ATOM     51  C   UNL A   1      42.702  31.657  37.954  1.00  0.00     0.029 A 
ATOM     52  N   UNL A   1      41.799  31.187  35.977  1.00  0.00    -0.354 N 
ATOM     53  N   UNL A   1      41.552  29.705  33.450  1.00  0.00    -0.248 NA
ATOM     54  C   UNL A   1      42.364  28.125  31.935  1.00  0.00     0.031 C 
ATOM     55  C   UNL A   1      43.479  30.673  37.336  1.00  0.00     0.029 A 
ATOM     56  C   UNL A   1      42.902  30.358  36.116  1.00  0.00     0.049 A 
ATOM     57  H   UNL A   1      41.193  31.196  35.201  1.00  0.00     0.167 HD
ATOM     58  C   UNL A   1      42.695  29.118  33.975  1.00  0.00     0.074 A 
ATOM     59  C   UNL A   1      43.135  28.129  33.013  1.00  0.00     0.031 C 
ATOM     60  C   UNL A   1      43.323  29.376  35.150  1.00  0.00     0.037 A 
BRANCH  47  61
ATOM     61  C   UNL A   1      40.707  33.874  38.492  1.00  0.00     0.064 A 
ATOM     62  C   UNL A   1      39.984  33.553  39.651  1.00  0.00     0.173 A 
ATOM     63  C   UNL A   1      41.501  35.030  38.516  1.00  0.00     0.173 A 
ATOM     64  F   UNL A   1      39.200  32.465  39.679  1.00  0.00    -0.203 F 
ATOM     65  C   UNL A   1      40.024  34.377  40.774  1.00  0.00     0.198 A 
ATOM     66  C   UNL A   1      41.568  35.833  39.652  1.00  0.00     0.198 A 
ATOM     67  F   UNL A   1      42.218  35.382  37.437  1.00  0.00    -0.203 F 
ATOM     68  F   UNL A   1      39.277  34.081  41.846  1.00  0.00    -0.200 F 
ATOM     69  C   UNL A   1      40.821  35.511  40.776  1.00  0.00     0.200 A 
ATOM     70  F   UNL A   1      42.349  36.921  39.658  1.00  0.00    -0.200 F 
ATOM     71  F   UNL A   1      40.862  36.301  41.858  1.00  0.00    -0.200 F 
ENDBRANCH  47  61
BRANCH  48  72
ATOM     72  C   UNL A   1      40.180  28.579  30.029  1.00  0.00     0.064 A 
ATOM     73  C   UNL A   1      40.779  29.070  28.861  1.00  0.00     0.173 A 
ATOM     74  C   UNL A   1      39.538  27.333  29.958  1.00  0.00     0.173 A 
ATOM     75  F   UNL A   1      41.390  30.264  28.874  1.00  0.00    -0.203 F 
ATOM     76  C   UNL A   1      40.721  28.356  27.666  1.00  0.00     0.198 A 
ATOM     77  C   UNL A   1      39.508  26.606  28.771  1.00  0.00     0.198 A 
ATOM     78  F   UNL A   1      38.957  26.814  31.050  1.00  0.00    -0.203 F 
ATOM     79  F   UNL A   1      41.267  28.868  26.555  1.00  0.00    -0.200 F 
ATOM     80  C   UNL A   1      40.093  27.121  27.624  1.00  0.00     0.200 A 
ATOM     81  F   UNL A   1      38.914  25.405  28.738  1.00  0.00    -0.200 F 
ATOM     82  F   UNL A   1      40.046  26.430  26.477  1.00  0.00    -0.200 F 
ENDBRANCH  48  72
BRANCH  60  83
ATOM     83  C   UNL A   1      44.533  28.549  35.479  1.00  0.00     0.064 A 
ATOM     84  C   UNL A   1      45.827  28.957  35.122  1.00  0.00     0.173 A 
ATOM     85  C   UNL A   1      44.399  27.352  36.197  1.00  0.00     0.173 A 
ATOM     86  F   UNL A   1      46.009  30.087  34.420  1.00  0.00    -0.203 F 
ATOM     87  C   UNL A   1      46.938  28.185  35.450  1.00  0.00     0.198 A 
ATOM     88  C   UNL A   1      45.514  26.598  36.554  1.00  0.00     0.198 A 
ATOM     89  F   UNL A   1      43.185  26.918  36.570  1.00  0.00    -0.203 F 
ATOM     90  F   UNL A   1      48.160  28.569  35.054  1.00  0.00    -0.200 F 
ATOM     91  C   UNL A   1      46.782  27.011  36.173  1.00  0.00     0.200 A 
ATOM     92  F   UNL A   1      45.362  25.473  37.265  1.00  0.00    -0.200 F 
ATOM     93  F   UNL A   1      47.852  26.273  36.495  1.00  0.00    -0.200 F 
ENDBRANCH  60  83
ENDBRANCH  34  35
ENDBRANCH  26  29
ENDBRANCH  24  25
ENDBRANCH  23  24
ENDBRANCH  22  23
ENDBRANCH  21  22
ENDBRANCH   1  21
TORSDOF 18
ENDMDL
MODEL 3
REMARK VINA RESULT:     -10.6      2.623      4.762
REMARK SMILES COCCS(=O)(=O)Cc1ccc(C(=O)NCCCCCCNC(=O)c2ccc(-c3c4nc(c(-c5c(F)c(F)c(F)c(F)c5F)c5ccc([nH]5)c(-c5c(F)c(F)c(F)c(F)c5F)c5nc(c(-c6c(F)c(F)c(F)c(F)c6F)c6ccc3[nH]6)C=C5)C=C4)cc2)cn1
REMARK SMILES IDX 17 1 16 2 15 3 13 4 14 5 12 7 9 8 10 9 89 10 11 11 88 12
REMARK SMILES IDX 8 13 5 14 6 15 7 16 4 17 3 18 2 19 1 20 18 21 19 22 20 23
REMARK SMILES IDX 21 24 22 25 23 26 24 28 25 29 26 30 87 31 27 32 86 33 28 34
REMARK SMILES IDX 29 35 30 36 80 37 31 38 85 39 79 40 81 41 32 42 84 43 78 44
REMARK SMILES IDX 77 45 33 47 65 48 45 49 64 50 46 51 49 52 63 53 82 54 47 55
REMARK SMILES IDX 48 56 62 58 83 59 50 60 34 61 35 62 43 63 36 64 37 65 41 66
REMARK SMILES IDX 44 67 38 68 39 69 42 70 40 71 66 72 67 73 75 74 68 75 69 76
REMARK SMILES IDX 73 77 76 78 70 79 71 80 74 81 72 82 51 83 52 84 60 85 53 86
REMARK SMILES IDX 54 87 58 88 61 89 55 90 56 91 59 92 57 93
REMARK H PARENT 15 6 22 27 81 46 49 57
REMARK Flexibility Score: inf
ROOT
ATOM      1  C   UNL A   1      33.815  23.856  25.498  1.00  0.00     0.021 C 
ENDROOT
BRANCH   1   2
ATOM      2  C   UNL A   1      32.803  23.148  24.594  1.00  0.00     0.116 C 
BRANCH   2   3
ATOM      3  N   UNL A   1      33.158  23.349  23.202  1.00  0.00    -0.352 N 
ATOM      4  C   UNL A   1      32.814  24.315  22.293  1.00  0.00     0.252 C 
ATOM      5  O   UNL A   1      33.274  24.227  21.156  1.00  0.00    -0.269 OA
ATOM      6  H   UNL A   1      33.761  22.659  22.842  1.00  0.00     0.163 HD
BRANCH   4   7
ATOM      7  C   UNL A   1      31.965  25.479  22.635  1.00  0.00     0.058 A 
ATOM      8  C   UNL A   1      30.610  27.826  23.269  1.00  0.00     0.055 A 
ATOM      9  C   UNL A   1      30.156  26.611  23.762  1.00  0.00     0.026 A 
ATOM     10  N   UNL A   1      31.726  27.892  22.499  1.00  0.00    -0.259 NA
ATOM     11  C   UNL A   1      30.778  25.433  23.354  1.00  0.00     0.017 A 
ATOM     12  C   UNL A   1      32.386  26.734  22.221  1.00  0.00     0.125 A 
BRANCH   8  13
ATOM     13  C   UNL A   1      29.965  29.147  23.564  1.00  0.00     0.193 C 
BRANCH  13  14
ATOM     14  S   UNL A   1      28.387  29.386  22.766  1.00  0.00     0.158 S 
ATOM     15  O   UNL A   1      27.523  28.295  23.183  1.00  0.00    -0.228 OA
ATOM     16  O   UNL A   1      28.663  29.550  21.345  1.00  0.00    -0.228 OA
BRANCH  14  17
ATOM     17  C   UNL A   1      27.646  30.928  23.309  1.00  0.00     0.165 C 
BRANCH  17  18
ATOM     18  C   UNL A   1      28.574  32.123  23.327  1.00  0.00     0.176 C 
BRANCH  18  19
ATOM     19  O   UNL A   1      29.000  32.500  22.018  1.00  0.00    -0.384 OA
ATOM     20  C   UNL A   1      27.939  32.804  21.127  1.00  0.00     0.194 C 
ENDBRANCH  18  19
ENDBRANCH  17  18
ENDBRANCH  14  17
ENDBRANCH  13  14
ENDBRANCH   8  13
ENDBRANCH   4   7
ENDBRANCH   2   3
ENDBRANCH   1   2
BRANCH   1  21
ATOM     21  C   UNL A   1      33.238  25.128  26.126  1.00  0.00     0.002 C 
BRANCH  21  22
ATOM     22  C   UNL A   1      34.003  26.407  25.762  1.00  0.00     0.002 C 
BRANCH  22  23
ATOM     23  C   UNL A   1      33.177  27.693  25.851  1.00  0.00     0.021 C 
BRANCH  23  24
ATOM     24  C   UNL A   1      33.877  28.914  25.265  1.00  0.00     0.116 C 
BRANCH  24  25
ATOM     25  N   UNL A   1      33.212  30.146  25.666  1.00  0.00    -0.352 N 
ATOM     26  C   UNL A   1      33.401  30.907  26.790  1.00  0.00     0.251 C 
ATOM     27  H   UNL A   1      32.532  30.481  25.039  1.00  0.00     0.163 HD
ATOM     28  O   UNL A   1      32.582  31.762  27.106  1.00  0.00    -0.269 OA
BRANCH  26  29
ATOM     29  C   UNL A   1      34.598  30.686  27.625  1.00  0.00     0.039 A 
ATOM     30  C   UNL A   1      34.694  29.515  28.379  1.00  0.00     0.014 A 
ATOM     31  C   UNL A   1      35.615  31.645  27.674  1.00  0.00     0.014 A 
ATOM     32  C   UNL A   1      35.835  29.282  29.146  1.00  0.00     0.010 A 
ATOM     33  C   UNL A   1      36.783  31.376  28.376  1.00  0.00     0.010 A 
ATOM     34  C   UNL A   1      36.900  30.198  29.128  1.00  0.00    -0.014 A 
BRANCH  34  35
ATOM     35  C   UNL A   1      38.144  29.944  29.895  1.00  0.00     0.031 A 
ATOM     36  C   UNL A   1      39.198  29.029  29.340  1.00  0.00     0.074 A 
ATOM     37  C   UNL A   1      38.291  30.485  31.119  1.00  0.00     0.049 A 
ATOM     38  N   UNL A   1      40.321  28.631  29.883  1.00  0.00    -0.248 NA
ATOM     39  C   UNL A   1      38.943  28.461  28.006  1.00  0.00     0.031 C 
ATOM     40  C   UNL A   1      37.314  31.349  31.783  1.00  0.00     0.029 A 
ATOM     41  N   UNL A   1      39.314  30.381  32.026  1.00  0.00    -0.354 N 
ATOM     42  C   UNL A   1      40.896  27.761  28.967  1.00  0.00     0.074 A 
ATOM     43  C   UNL A   1      39.971  27.639  27.861  1.00  0.00     0.031 C 
ATOM     44  C   UNL A   1      37.794  31.713  32.982  1.00  0.00     0.029 A 
ATOM     45  C   UNL A   1      39.092  31.078  33.188  1.00  0.00     0.049 A 
ATOM     46  H   UNL A   1      40.130  29.854  31.861  1.00  0.00     0.167 HD
ATOM     47  C   UNL A   1      42.096  27.138  29.034  1.00  0.00     0.037 A 
ATOM     48  C   UNL A   1      39.847  31.187  34.297  1.00  0.00     0.037 A 
ATOM     49  C   UNL A   1      43.018  27.279  30.130  1.00  0.00     0.049 A 
ATOM     50  C   UNL A   1      41.174  30.478  34.351  1.00  0.00     0.074 A 
ATOM     51  C   UNL A   1      44.285  26.740  30.269  1.00  0.00     0.029 A 
ATOM     52  N   UNL A   1      42.766  28.007  31.284  1.00  0.00    -0.354 N 
ATOM     53  N   UNL A   1      41.742  29.716  33.448  1.00  0.00    -0.248 NA
ATOM     54  C   UNL A   1      41.967  30.652  35.575  1.00  0.00     0.031 C 
ATOM     55  C   UNL A   1      44.777  27.096  31.528  1.00  0.00     0.029 A 
ATOM     56  C   UNL A   1      43.843  27.909  32.152  1.00  0.00     0.049 A 
ATOM     57  H   UNL A   1      41.943  28.518  31.461  1.00  0.00     0.167 HD
ATOM     58  C   UNL A   1      42.968  29.342  33.980  1.00  0.00     0.074 A 
ATOM     59  C   UNL A   1      43.068  29.974  35.280  1.00  0.00     0.031 C 
ATOM     60  C   UNL A   1      43.927  28.548  33.440  1.00  0.00     0.037 A 
BRANCH  47  61
ATOM     61  C   UNL A   1      42.478  26.243  27.887  1.00  0.00     0.064 A 
ATOM     62  C   UNL A   1      43.330  26.680  26.862  1.00  0.00     0.173 A 
ATOM     63  C   UNL A   1      42.002  24.925  27.824  1.00  0.00     0.173 A 
ATOM     64  F   UNL A   1      43.805  27.934  26.866  1.00  0.00    -0.203 F 
ATOM     65  C   UNL A   1      43.659  25.845  25.796  1.00  0.00     0.198 A 
ATOM     66  C   UNL A   1      42.361  24.080  26.777  1.00  0.00     0.198 A 
ATOM     67  F   UNL A   1      41.189  24.452  28.781  1.00  0.00    -0.203 F 
ATOM     68  F   UNL A   1      44.424  26.306  24.797  1.00  0.00    -0.200 F 
ATOM     69  C   UNL A   1      43.180  24.544  25.759  1.00  0.00     0.200 A 
ATOM     70  F   UNL A   1      41.909  22.819  26.749  1.00  0.00    -0.200 F 
ATOM     71  F   UNL A   1      43.501  23.740  24.735  1.00  0.00    -0.200 F 
ENDBRANCH  47  61
BRANCH  48  72
ATOM     72  C   UNL A   1      39.378  32.022  35.432  1.00  0.00     0.064 A 
ATOM     73  C   UNL A   1      38.547  31.485  36.425  1.00  0.00     0.173 A 
ATOM     74  C   UNL A   1      39.757  33.367  35.556  1.00  0.00     0.173 A 
ATOM     75  F   UNL A   1      38.143  30.209  36.342  1.00  0.00    -0.203 F 
ATOM     76  C   UNL A   1      38.099  32.266  37.489  1.00  0.00     0.198 A 
ATOM     77  C   UNL A   1      39.333  34.138  36.636  1.00  0.00     0.198 A 
ATOM     78  F   UNL A   1      40.558  33.926  34.637  1.00  0.00    -0.203 F 
ATOM     79  F   UNL A   1      37.272  31.739  38.402  1.00  0.00    -0.200 F 
ATOM     80  C   UNL A   1      38.499  33.589  37.597  1.00  0.00     0.200 A 
ATOM     81  F   UNL A   1      39.735  35.411  36.746  1.00  0.00    -0.200 F 
ATOM     82  F   UNL A   1      38.075  34.337  38.625  1.00  0.00    -0.200 F 
ENDBRANCH  48  72
BRANCH  60  83
ATOM     83  C   UNL A   1      45.184  28.348  34.238  1.00  0.00     0.064 A 
ATOM     84  C   UNL A   1      45.329  27.276  35.131  1.00  0.00     0.173 A 
ATOM     85  C   UNL A   1      46.273  29.216  34.074  1.00  0.00     0.173 A 
ATOM     86  F   UNL A   1      44.312  26.424  35.336  1.00  0.00    -0.203 F 
ATOM     87  C   UNL A   1      46.508  27.097  35.849  1.00  0.00     0.198 A 
ATOM     88  C   UNL A   1      47.463  29.016  34.768  1.00  0.00     0.198 A 
ATOM     89  F   UNL A   1      46.190  30.253  33.227  1.00  0.00    -0.203 F 
ATOM     90  F   UNL A   1      46.606  26.095  36.735  1.00  0.00    -0.200 F 
ATOM     91  C   UNL A   1      47.577  27.961  35.661  1.00  0.00     0.200 A 
ATOM     92  F   UNL A   1      48.498  29.843  34.572  1.00  0.00    -0.200 F 
ATOM     93  F   UNL A   1      48.714  27.783  36.347  1.00  0.00    -0.200 F 
ENDBRANCH  60  83
ENDBRANCH  34  35
ENDBRANCH  26  29
ENDBRANCH  24  25
ENDBRANCH  23  24
ENDBRANCH  22  23
ENDBRANCH  21  22
ENDBRANCH   1  21
TORSDOF 18
ENDMDL
