MODEL 1
REMARK VINA RESULT:     -12.5      0.000      0.000
REMARK SMILES CSc1nc2ccccc2c(=O)n1CC(=O)NCCCCCCNC(=O)c1ccc(-c2c3nc(c(-c4c(F)c(F)c(F)c(F)c4F)c4ccc([nH]4)c(-c4c(F)c(F)c(F)c(F)c4F)c4nc(c(-c5c(F)c(F)c(F)c(F)c5F)c5ccc2[nH]5)C=C4)C=C3)cc1
REMARK SMILES IDX 20 1 19 2 18 3 17 4 15 5 16 6 14 8 13 9 3 10 4 11 5 12 11 13
REMARK SMILES IDX 6 14 10 15 12 16 7 17 9 18 8 19 2 20 1 21 21 22 22 23 23 24
REMARK SMILES IDX 24 25 25 26 26 28 27 29 28 30 89 31 29 32 88 33 30 34 31 35
REMARK SMILES IDX 32 36 82 37 33 38 87 39 81 40 83 41 34 42 86 43 80 44 79 45
REMARK SMILES IDX 35 47 67 48 47 49 66 50 48 51 51 52 65 53 84 54 49 55 50 56
REMARK SMILES IDX 64 58 85 59 52 60 36 61 37 62 45 63 38 64 39 65 43 66 46 67
REMARK SMILES IDX 40 68 41 69 44 70 42 71 68 72 69 73 77 74 70 75 71 76 75 77
REMARK SMILES IDX 78 78 72 79 73 80 76 81 74 82 53 83 54 84 62 85 55 86 56 87
REMARK SMILES IDX 60 88 63 89 57 90 58 91 61 92 59 93
REMARK H PARENT 17 7 24 27 83 46 51 57
REMARK Flexibility Score: inf
ROOT
ATOM      1  C   UNL A   1      32.460  29.611  27.021  1.00  0.00     0.002 C 
ENDROOT
BRANCH   1   2
ATOM      2  C   UNL A   1      31.679  28.321  27.286  1.00  0.00     0.021 C 
BRANCH   2   3
ATOM      3  C   UNL A   1      32.102  27.114  26.455  1.00  0.00     0.116 C 
BRANCH   3   4
ATOM      4  N   UNL A   1      31.324  25.921  26.720  1.00  0.00    -0.355 N 
ATOM      5  C   UNL A   1      31.619  24.592  26.690  1.00  0.00     0.240 C 
ATOM      6  O   UNL A   1      30.804  23.850  27.257  1.00  0.00    -0.273 OA
ATOM      7  H   UNL A   1      30.391  26.110  26.973  1.00  0.00     0.163 HD
BRANCH   5   8
ATOM      8  C   UNL A   1      32.948  23.999  26.185  1.00  0.00     0.228 C 
BRANCH   8   9
ATOM      9  N   UNL A   1      32.839  22.933  25.198  1.00  0.00    -0.278 N 
ATOM     10  C   UNL A   1      32.675  23.102  23.834  1.00  0.00     0.171 A 
ATOM     11  N   UNL A   1      32.445  22.126  23.015  1.00  0.00    -0.224 NA
ATOM     12  C   UNL A   1      32.463  20.813  23.504  1.00  0.00     0.079 A 
ATOM     13  C   UNL A   1      33.011  21.655  25.729  1.00  0.00     0.262 A 
ATOM     14  C   UNL A   1      32.220  19.748  22.633  1.00  0.00     0.029 A 
ATOM     15  C   UNL A   1      32.811  20.522  24.817  1.00  0.00     0.066 A 
ATOM     16  O   UNL A   1      33.302  21.433  26.901  1.00  0.00    -0.269 OA
ATOM     17  C   UNL A   1      32.353  18.423  23.068  1.00  0.00     0.002 A 
ATOM     18  C   UNL A   1      32.958  19.203  25.265  1.00  0.00     0.016 A 
ATOM     19  C   UNL A   1      32.734  18.150  24.382  1.00  0.00     0.001 A 
BRANCH  10  20
ATOM     20  S   UNL A   1      32.954  24.663  23.080  1.00  0.00    -0.091 SA
ATOM     21  C   UNL A   1      31.327  25.348  22.753  1.00  0.00     0.094 C 
ENDBRANCH  10  20
ENDBRANCH   8   9
ENDBRANCH   5   8
ENDBRANCH   3   4
ENDBRANCH   2   3
ENDBRANCH   1   2
BRANCH   1  22
ATOM     22  C   UNL A   1      31.788  30.639  26.104  1.00  0.00     0.002 C 
BRANCH  22  23
ATOM     23  C   UNL A   1      31.469  31.996  26.733  1.00  0.00     0.021 C 
BRANCH  23  24
ATOM     24  C   UNL A   1      32.671  32.780  27.251  1.00  0.00     0.116 C 
BRANCH  24  25
ATOM     25  N   UNL A   1      32.349  34.154  27.604  1.00  0.00    -0.352 N 
ATOM     26  C   UNL A   1      32.938  34.980  28.532  1.00  0.00     0.251 C 
ATOM     27  H   UNL A   1      31.598  34.551  27.104  1.00  0.00     0.163 HD
ATOM     28  O   UNL A   1      32.455  36.078  28.785  1.00  0.00    -0.269 OA
BRANCH  26  29
ATOM     29  C   UNL A   1      34.138  34.519  29.264  1.00  0.00     0.039 A 
ATOM     30  C   UNL A   1      35.414  34.691  28.724  1.00  0.00     0.014 A 
ATOM     31  C   UNL A   1      33.975  33.873  30.493  1.00  0.00     0.014 A 
ATOM     32  C   UNL A   1      36.504  34.068  29.324  1.00  0.00     0.010 A 
ATOM     33  C   UNL A   1      35.084  33.312  31.134  1.00  0.00     0.010 A 
ATOM     34  C   UNL A   1      36.347  33.358  30.525  1.00  0.00    -0.014 A 
BRANCH  34  35
ATOM     35  C   UNL A   1      37.510  32.644  31.113  1.00  0.00     0.031 A 
ATOM     36  C   UNL A   1      37.981  32.966  32.505  1.00  0.00     0.074 A 
ATOM     37  C   UNL A   1      38.104  31.658  30.416  1.00  0.00     0.049 A 
ATOM     38  N   UNL A   1      38.968  32.443  33.187  1.00  0.00    -0.248 NA
ATOM     39  C   UNL A   1      37.245  34.015  33.228  1.00  0.00     0.031 C 
ATOM     40  C   UNL A   1      37.719  31.233  29.071  1.00  0.00     0.029 A 
ATOM     41  N   UNL A   1      39.135  30.818  30.752  1.00  0.00    -0.354 N 
ATOM     42  C   UNL A   1      38.981  33.103  34.409  1.00  0.00     0.074 A 
ATOM     43  C   UNL A   1      37.922  34.088  34.367  1.00  0.00     0.031 C 
ATOM     44  C   UNL A   1      38.463  30.174  28.717  1.00  0.00     0.029 A 
ATOM     45  C   UNL A   1      39.416  29.886  29.785  1.00  0.00     0.049 A 
ATOM     46  H   UNL A   1      39.624  30.878  31.603  1.00  0.00     0.167 HD
ATOM     47  C   UNL A   1      39.794  32.899  35.473  1.00  0.00     0.037 A 
ATOM     48  C   UNL A   1      40.343  28.910  29.757  1.00  0.00     0.037 A 
ATOM     49  C   UNL A   1      40.842  31.911  35.520  1.00  0.00     0.049 A 
ATOM     50  C   UNL A   1      41.268  28.740  30.927  1.00  0.00     0.074 A 
ATOM     51  C   UNL A   1      41.726  31.636  36.549  1.00  0.00     0.029 A 
ATOM     52  N   UNL A   1      41.143  31.033  34.490  1.00  0.00    -0.354 N 
ATOM     53  N   UNL A   1      41.290  29.391  32.064  1.00  0.00    -0.248 NA
ATOM     54  C   UNL A   1      42.307  27.709  30.802  1.00  0.00     0.031 C 
ATOM     55  C   UNL A   1      42.583  30.614  36.130  1.00  0.00     0.029 A 
ATOM     56  C   UNL A   1      42.207  30.222  34.855  1.00  0.00     0.049 A 
ATOM     57  H   UNL A   1      40.672  30.990  33.627  1.00  0.00     0.167 HD
ATOM     58  C   UNL A   1      42.335  28.845  32.795  1.00  0.00     0.074 A 
ATOM     59  C   UNL A   1      42.914  27.796  31.979  1.00  0.00     0.031 C 
ATOM     60  C   UNL A   1      42.776  29.187  34.030  1.00  0.00     0.037 A 
BRANCH  47  61
ATOM     61  C   UNL A   1      39.590  33.771  36.678  1.00  0.00     0.064 A 
ATOM     62  C   UNL A   1      38.787  33.361  37.753  1.00  0.00     0.173 A 
ATOM     63  C   UNL A   1      40.233  35.014  36.776  1.00  0.00     0.173 A 
ATOM     64  F   UNL A   1      38.138  32.188  37.703  1.00  0.00    -0.203 F 
ATOM     65  C   UNL A   1      38.618  34.175  38.871  1.00  0.00     0.198 A 
ATOM     66  C   UNL A   1      40.082  35.813  37.906  1.00  0.00     0.198 A 
ATOM     67  F   UNL A   1      41.015  35.450  35.778  1.00  0.00    -0.203 F 
ATOM     68  F   UNL A   1      37.812  33.781  39.868  1.00  0.00    -0.200 F 
ATOM     69  C   UNL A   1      39.271  35.395  38.950  1.00  0.00     0.200 A 
ATOM     70  F   UNL A   1      40.720  36.989  37.985  1.00  0.00    -0.200 F 
ATOM     71  F   UNL A   1      39.109  36.174  40.029  1.00  0.00    -0.200 F 
ENDBRANCH  47  61
BRANCH  48  72
ATOM     72  C   UNL A   1      40.411  28.010  28.581  1.00  0.00     0.064 A 
ATOM     73  C   UNL A   1      41.171  28.360  27.458  1.00  0.00     0.173 A 
ATOM     74  C   UNL A   1      39.773  26.761  28.578  1.00  0.00     0.173 A 
ATOM     75  F   UNL A   1      41.784  29.552  27.409  1.00  0.00    -0.203 F 
ATOM     76  C   UNL A   1      41.297  27.490  26.377  1.00  0.00     0.198 A 
ATOM     77  C   UNL A   1      39.919  25.882  27.508  1.00  0.00     0.198 A 
ATOM     78  F   UNL A   1      39.037  26.381  29.634  1.00  0.00    -0.203 F 
ATOM     79  F   UNL A   1      42.019  27.852  25.308  1.00  0.00    -0.200 F 
ATOM     80  C   UNL A   1      40.680  26.247  26.408  1.00  0.00     0.200 A 
ATOM     81  F   UNL A   1      39.334  24.678  27.548  1.00  0.00    -0.200 F 
ATOM     82  F   UNL A   1      40.821  25.402  25.378  1.00  0.00    -0.200 F 
ENDBRANCH  48  72
BRANCH  60  83
ATOM     83  C   UNL A   1      43.934  28.412  34.584  1.00  0.00     0.064 A 
ATOM     84  C   UNL A   1      45.256  28.849  34.413  1.00  0.00     0.173 A 
ATOM     85  C   UNL A   1      43.716  27.245  35.333  1.00  0.00     0.173 A 
ATOM     86  F   UNL A   1      45.514  29.951  33.692  1.00  0.00    -0.203 F 
ATOM     87  C   UNL A   1      46.319  28.136  34.959  1.00  0.00     0.198 A 
ATOM     88  C   UNL A   1      44.781  26.549  35.897  1.00  0.00     0.198 A 
ATOM     89  F   UNL A   1      42.470  26.791  35.528  1.00  0.00    -0.203 F 
ATOM     90  F   UNL A   1      47.576  28.551  34.754  1.00  0.00    -0.200 F 
ATOM     91  C   UNL A   1      46.081  26.991  35.706  1.00  0.00     0.200 A 
ATOM     92  F   UNL A   1      44.548  25.449  36.626  1.00  0.00    -0.200 F 
ATOM     93  F   UNL A   1      47.106  26.310  36.235  1.00  0.00    -0.200 F 
ENDBRANCH  60  83
ENDBRANCH  34  35
ENDBRANCH  26  29
ENDBRANCH  24  25
ENDBRANCH  23  24
ENDBRANCH  22  23
ENDBRANCH   1  22
TORSDOF 15
ENDMDL
MODEL 2
REMARK VINA RESULT:     -12.4      1.992      3.684
REMARK SMILES CSc1nc2ccccc2c(=O)n1CC(=O)NCCCCCCNC(=O)c1ccc(-c2c3nc(c(-c4c(F)c(F)c(F)c(F)c4F)c4ccc([nH]4)c(-c4c(F)c(F)c(F)c(F)c4F)c4nc(c(-c5c(F)c(F)c(F)c(F)c5F)c5ccc2[nH]5)C=C4)C=C3)cc1
REMARK SMILES IDX 20 1 19 2 18 3 17 4 15 5 16 6 14 8 13 9 3 10 4 11 5 12 11 13
REMARK SMILES IDX 6 14 10 15 12 16 7 17 9 18 8 19 2 20 1 21 21 22 22 23 23 24
REMARK SMILES IDX 24 25 25 26 26 28 27 29 28 30 89 31 29 32 88 33 30 34 31 35
REMARK SMILES IDX 32 36 82 37 33 38 87 39 81 40 83 41 34 42 86 43 80 44 79 45
REMARK SMILES IDX 35 47 67 48 47 49 66 50 48 51 51 52 65 53 84 54 49 55 50 56
REMARK SMILES IDX 64 58 85 59 52 60 36 61 37 62 45 63 38 64 39 65 43 66 46 67
REMARK SMILES IDX 40 68 41 69 44 70 42 71 68 72 69 73 77 74 70 75 71 76 75 77
REMARK SMILES IDX 78 78 72 79 73 80 76 81 74 82 53 83 54 84 62 85 55 86 56 87
REMARK SMILES IDX 60 88 63 89 57 90 58 91 61 92 59 93
REMARK H PARENT 17 7 24 27 83 46 51 57
REMARK Flexibility Score: inf
ROOT
ATOM      1  C   UNL A   1      32.514  29.708  27.143  1.00  0.00     0.002 C 
ENDROOT
BRANCH   1   2
ATOM      2  C   UNL A   1      31.756  28.431  27.518  1.00  0.00     0.021 C 
BRANCH   2   3
ATOM      3  C   UNL A   1      31.995  27.233  26.605  1.00  0.00     0.116 C 
BRANCH   3   4
ATOM      4  N   UNL A   1      31.039  26.160  26.788  1.00  0.00    -0.355 N 
ATOM      5  C   UNL A   1      30.458  25.275  25.932  1.00  0.00     0.240 C 
ATOM      6  O   UNL A   1      29.909  24.299  26.463  1.00  0.00    -0.273 OA
ATOM      7  H   UNL A   1      30.750  26.049  27.723  1.00  0.00     0.163 HD
BRANCH   5   8
ATOM      8  C   UNL A   1      30.604  25.312  24.399  1.00  0.00     0.228 C 
BRANCH   8   9
ATOM      9  N   UNL A   1      30.409  26.611  23.769  1.00  0.00    -0.278 N 
ATOM     10  C   UNL A   1      31.391  27.378  23.166  1.00  0.00     0.171 A 
ATOM     11  N   UNL A   1      31.195  28.586  22.742  1.00  0.00    -0.224 NA
ATOM     12  C   UNL A   1      29.901  29.121  22.796  1.00  0.00     0.079 A 
ATOM     13  C   UNL A   1      29.076  27.021  23.726  1.00  0.00     0.262 A 
ATOM     14  C   UNL A   1      29.673  30.421  22.339  1.00  0.00     0.029 A 
ATOM     15  C   UNL A   1      28.809  28.365  23.201  1.00  0.00     0.066 A 
ATOM     16  O   UNL A   1      28.135  26.332  24.110  1.00  0.00    -0.269 OA
ATOM     17  C   UNL A   1      28.372  30.936  22.267  1.00  0.00     0.002 A 
ATOM     18  C   UNL A   1      27.501  28.861  23.125  1.00  0.00     0.016 A 
ATOM     19  C   UNL A   1      27.284  30.151  22.649  1.00  0.00     0.001 A 
BRANCH  10  20
ATOM     20  S   UNL A   1      32.952  26.685  22.762  1.00  0.00    -0.091 SA
ATOM     21  C   UNL A   1      34.038  28.077  22.437  1.00  0.00     0.094 C 
ENDBRANCH  10  20
ENDBRANCH   8   9
ENDBRANCH   5   8
ENDBRANCH   3   4
ENDBRANCH   2   3
ENDBRANCH   1   2
BRANCH   1  22
ATOM     22  C   UNL A   1      31.828  30.635  26.133  1.00  0.00     0.002 C 
BRANCH  22  23
ATOM     23  C   UNL A   1      31.531  32.055  26.615  1.00  0.00     0.021 C 
BRANCH  23  24
ATOM     24  C   UNL A   1      32.675  32.756  27.341  1.00  0.00     0.116 C 
BRANCH  24  25
ATOM     25  N   UNL A   1      32.392  34.151  27.641  1.00  0.00    -0.352 N 
ATOM     26  C   UNL A   1      33.008  34.997  28.534  1.00  0.00     0.251 C 
ATOM     27  H   UNL A   1      31.650  34.549  27.129  1.00  0.00     0.163 HD
ATOM     28  O   UNL A   1      32.557  36.117  28.744  1.00  0.00    -0.269 OA
BRANCH  26  29
ATOM     29  C   UNL A   1      34.198  34.532  29.278  1.00  0.00     0.039 A 
ATOM     30  C   UNL A   1      35.476  34.647  28.727  1.00  0.00     0.014 A 
ATOM     31  C   UNL A   1      34.024  33.941  30.533  1.00  0.00     0.014 A 
ATOM     32  C   UNL A   1      36.551  34.018  29.347  1.00  0.00     0.010 A 
ATOM     33  C   UNL A   1      35.120  33.376  31.191  1.00  0.00     0.010 A 
ATOM     34  C   UNL A   1      36.381  33.361  30.577  1.00  0.00    -0.014 A 
BRANCH  34  35
ATOM     35  C   UNL A   1      37.526  32.639  31.188  1.00  0.00     0.031 A 
ATOM     36  C   UNL A   1      37.983  32.972  32.583  1.00  0.00     0.074 A 
ATOM     37  C   UNL A   1      38.116  31.637  30.510  1.00  0.00     0.049 A 
ATOM     38  N   UNL A   1      38.955  32.444  33.284  1.00  0.00    -0.248 NA
ATOM     39  C   UNL A   1      37.252  34.039  33.283  1.00  0.00     0.031 C 
ATOM     40  C   UNL A   1      37.743  31.201  29.166  1.00  0.00     0.029 A 
ATOM     41  N   UNL A   1      39.131  30.787  30.870  1.00  0.00    -0.354 N 
ATOM     42  C   UNL A   1      38.961  33.119  34.498  1.00  0.00     0.074 A 
ATOM     43  C   UNL A   1      37.915  34.117  34.429  1.00  0.00     0.031 C 
ATOM     44  C   UNL A   1      38.477  30.128  28.834  1.00  0.00     0.029 A 
ATOM     45  C   UNL A   1      39.412  29.840  29.918  1.00  0.00     0.049 A 
ATOM     46  H   UNL A   1      39.610  30.851  31.727  1.00  0.00     0.167 HD
ATOM     47  C   UNL A   1      39.757  32.916  35.575  1.00  0.00     0.037 A 
ATOM     48  C   UNL A   1      40.326  28.851  29.914  1.00  0.00     0.037 A 
ATOM     49  C   UNL A   1      40.791  31.916  35.647  1.00  0.00     0.049 A 
ATOM     50  C   UNL A   1      41.233  28.683  31.098  1.00  0.00     0.074 A 
ATOM     51  C   UNL A   1      41.657  31.641  36.690  1.00  0.00     0.029 A 
ATOM     52  N   UNL A   1      41.094  31.020  34.631  1.00  0.00    -0.354 N 
ATOM     53  N   UNL A   1      41.250  29.348  32.227  1.00  0.00    -0.248 NA
ATOM     54  C   UNL A   1      42.260  27.637  30.999  1.00  0.00     0.031 C 
ATOM     55  C   UNL A   1      42.506  30.602  36.295  1.00  0.00     0.029 A 
ATOM     56  C   UNL A   1      42.142  30.200  35.020  1.00  0.00     0.049 A 
ATOM     57  H   UNL A   1      40.633  30.973  33.762  1.00  0.00     0.167 HD
ATOM     58  C   UNL A   1      42.278  28.797  32.978  1.00  0.00     0.074 A 
ATOM     59  C   UNL A   1      42.852  27.730  32.183  1.00  0.00     0.031 C 
ATOM     60  C   UNL A   1      42.707  29.148  34.214  1.00  0.00     0.037 A 
BRANCH  47  61
ATOM     61  C   UNL A   1      39.549  33.806  36.766  1.00  0.00     0.064 A 
ATOM     62  C   UNL A   1      40.128  35.082  36.838  1.00  0.00     0.173 A 
ATOM     63  C   UNL A   1      38.733  33.393  37.831  1.00  0.00     0.173 A 
ATOM     64  F   UNL A   1      40.928  35.517  35.854  1.00  0.00    -0.203 F 
ATOM     65  C   UNL A   1      39.916  35.902  37.944  1.00  0.00     0.198 A 
ATOM     66  C   UNL A   1      38.503  34.227  38.922  1.00  0.00     0.198 A 
ATOM     67  F   UNL A   1      38.153  32.185  37.809  1.00  0.00    -0.203 F 
ATOM     68  F   UNL A   1      40.514  37.101  38.010  1.00  0.00    -0.200 F 
ATOM     69  C   UNL A   1      39.099  35.477  38.980  1.00  0.00     0.200 A 
ATOM     70  F   UNL A   1      37.706  33.819  39.919  1.00  0.00    -0.200 F 
ATOM     71  F   UNL A   1      38.893  36.271  40.041  1.00  0.00    -0.200 F 
ENDBRANCH  47  61
BRANCH  48  72
ATOM     72  C   UNL A   1      40.397  27.936  28.749  1.00  0.00     0.064 A 
ATOM     73  C   UNL A   1      39.655  26.749  28.728  1.00  0.00     0.173 A 
ATOM     74  C   UNL A   1      41.156  28.257  27.615  1.00  0.00     0.173 A 
ATOM     75  F   UNL A   1      38.929  26.393  29.798  1.00  0.00    -0.203 F 
ATOM     76  C   UNL A   1      39.663  25.918  27.609  1.00  0.00     0.198 A 
ATOM     77  C   UNL A   1      41.145  27.438  26.488  1.00  0.00     0.198 A 
ATOM     78  F   UNL A   1      41.881  29.385  27.589  1.00  0.00    -0.203 F 
ATOM     79  F   UNL A   1      38.954  24.781  27.616  1.00  0.00    -0.200 F 
ATOM     80  C   UNL A   1      40.399  26.270  26.487  1.00  0.00     0.200 A 
ATOM     81  F   UNL A   1      41.845  27.788  25.401  1.00  0.00    -0.200 F 
ATOM     82  F   UNL A   1      40.387  25.482  25.403  1.00  0.00    -0.200 F 
ENDBRANCH  48  72
BRANCH  60  83
ATOM     83  C   UNL A   1      43.847  28.364  34.793  1.00  0.00     0.064 A 
ATOM     84  C   UNL A   1      45.174  28.801  34.666  1.00  0.00     0.173 A 
ATOM     85  C   UNL A   1      43.606  27.189  35.521  1.00  0.00     0.173 A 
ATOM     86  F   UNL A   1      45.454  29.911  33.967  1.00  0.00    -0.203 F 
ATOM     87  C   UNL A   1      46.220  28.080  35.234  1.00  0.00     0.198 A 
ATOM     88  C   UNL A   1      44.652  26.484  36.108  1.00  0.00     0.198 A 
ATOM     89  F   UNL A   1      42.354  26.734  35.674  1.00  0.00    -0.203 F 
ATOM     90  F   UNL A   1      47.483  28.495  35.071  1.00  0.00    -0.200 F 
ATOM     91  C   UNL A   1      45.958  26.926  35.960  1.00  0.00     0.200 A 
ATOM     92  F   UNL A   1      44.397  25.376  36.816  1.00  0.00    -0.200 F 
ATOM     93  F   UNL A   1      46.967  26.238  36.511  1.00  0.00    -0.200 F 
ENDBRANCH  60  83
ENDBRANCH  34  35
ENDBRANCH  26  29
ENDBRANCH  24  25
ENDBRANCH  23  24
ENDBRANCH  22  23
ENDBRANCH   1  22
TORSDOF 15
ENDMDL
MODEL 3
REMARK VINA RESULT:     -12.3      1.950      3.620
REMARK SMILES CSc1nc2ccccc2c(=O)n1CC(=O)NCCCCCCNC(=O)c1ccc(-c2c3nc(c(-c4c(F)c(F)c(F)c(F)c4F)c4ccc([nH]4)c(-c4c(F)c(F)c(F)c(F)c4F)c4nc(c(-c5c(F)c(F)c(F)c(F)c5F)c5ccc2[nH]5)C=C4)C=C3)cc1
REMARK SMILES IDX 20 1 19 2 18 3 17 4 15 5 16 6 14 8 13 9 3 10 4 11 5 12 11 13
REMARK SMILES IDX 6 14 10 15 12 16 7 17 9 18 8 19 2 20 1 21 21 22 22 23 23 24
REMARK SMILES IDX 24 25 25 26 26 28 27 29 28 30 89 31 29 32 88 33 30 34 31 35
REMARK SMILES IDX 32 36 82 37 33 38 87 39 81 40 83 41 34 42 86 43 80 44 79 45
REMARK SMILES IDX 35 47 67 48 47 49 66 50 48 51 51 52 65 53 84 54 49 55 50 56
REMARK SMILES IDX 64 58 85 59 52 60 36 61 37 62 45 63 38 64 39 65 43 66 46 67
REMARK SMILES IDX 40 68 41 69 44 70 42 71 68 72 69 73 77 74 70 75 71 76 75 77
REMARK SMILES IDX 78 78 72 79 73 80 76 81 74 82 53 83 54 84 62 85 55 86 56 87
REMARK SMILES IDX 60 88 63 89 57 90 58 91 61 92 59 93
REMARK H PARENT 17 7 24 27 83 46 51 57
REMARK Flexibility Score: inf
ROOT
ATOM      1  C   UNL A   1      31.794  29.347  27.248  1.00  0.00     0.002 C 
ENDROOT
BRANCH   1   2
ATOM      2  C   UNL A   1      32.210  27.948  26.786  1.00  0.00     0.021 C 
BRANCH   2   3
ATOM      3  C   UNL A   1      33.503  27.879  25.980  1.00  0.00     0.116 C 
BRANCH   3   4
ATOM      4  N   UNL A   1      33.861  26.538  25.564  1.00  0.00    -0.355 N 
ATOM      5  C   UNL A   1      33.780  25.879  24.376  1.00  0.00     0.240 C 
ATOM      6  O   UNL A   1      34.445  24.837  24.295  1.00  0.00    -0.273 OA
ATOM      7  H   UNL A   1      34.240  25.992  26.291  1.00  0.00     0.163 HD
BRANCH   5   8
ATOM      8  C   UNL A   1      33.092  26.430  23.112  1.00  0.00     0.228 C 
BRANCH   8   9
ATOM      9  N   UNL A   1      31.698  26.824  23.262  1.00  0.00    -0.278 N 
ATOM     10  C   UNL A   1      30.647  25.985  23.594  1.00  0.00     0.171 A 
ATOM     11  N   UNL A   1      29.406  26.355  23.582  1.00  0.00    -0.224 NA
ATOM     12  C   UNL A   1      29.102  27.697  23.322  1.00  0.00     0.079 A 
ATOM     13  C   UNL A   1      31.484  28.197  23.135  1.00  0.00     0.262 A 
ATOM     14  C   UNL A   1      27.768  28.113  23.308  1.00  0.00     0.029 A 
ATOM     15  C   UNL A   1      30.092  28.660  23.170  1.00  0.00     0.066 A 
ATOM     16  O   UNL A   1      32.383  29.019  22.985  1.00  0.00    -0.269 OA
ATOM     17  C   UNL A   1      27.442  29.468  23.173  1.00  0.00     0.002 A 
ATOM     18  C   UNL A   1      29.782  30.021  23.045  1.00  0.00     0.016 A 
ATOM     19  C   UNL A   1      28.450  30.424  23.053  1.00  0.00     0.001 A 
BRANCH  10  20
ATOM     20  S   UNL A   1      30.946  24.382  24.242  1.00  0.00    -0.091 SA
ATOM     21  C   UNL A   1      30.726  24.521  26.019  1.00  0.00     0.094 C 
ENDBRANCH  10  20
ENDBRANCH   8   9
ENDBRANCH   5   8
ENDBRANCH   3   4
ENDBRANCH   2   3
ENDBRANCH   1   2
BRANCH   1  22
ATOM     22  C   UNL A   1      31.865  30.460  26.196  1.00  0.00     0.002 C 
BRANCH  22  23
ATOM     23  C   UNL A   1      31.545  31.873  26.688  1.00  0.00     0.021 C 
BRANCH  23  24
ATOM     24  C   UNL A   1      32.713  32.636  27.302  1.00  0.00     0.116 C 
BRANCH  24  25
ATOM     25  N   UNL A   1      32.387  34.017  27.625  1.00  0.00    -0.352 N 
ATOM     26  C   UNL A   1      32.974  34.865  28.535  1.00  0.00     0.251 C 
ATOM     27  H   UNL A   1      31.635  34.401  27.117  1.00  0.00     0.163 HD
ATOM     28  O   UNL A   1      32.488  35.968  28.763  1.00  0.00    -0.269 OA
BRANCH  26  29
ATOM     29  C   UNL A   1      34.174  34.424  29.277  1.00  0.00     0.039 A 
ATOM     30  C   UNL A   1      35.451  34.601  28.740  1.00  0.00     0.014 A 
ATOM     31  C   UNL A   1      34.012  33.791  30.513  1.00  0.00     0.014 A 
ATOM     32  C   UNL A   1      36.544  33.995  29.352  1.00  0.00     0.010 A 
ATOM     33  C   UNL A   1      35.123  33.248  31.165  1.00  0.00     0.010 A 
ATOM     34  C   UNL A   1      36.389  33.297  30.561  1.00  0.00    -0.014 A 
BRANCH  34  35
ATOM     35  C   UNL A   1      37.555  32.601  31.162  1.00  0.00     0.031 A 
ATOM     36  C   UNL A   1      38.011  32.938  32.556  1.00  0.00     0.074 A 
ATOM     37  C   UNL A   1      38.167  31.618  30.475  1.00  0.00     0.049 A 
ATOM     38  N   UNL A   1      39.000  32.430  33.248  1.00  0.00    -0.248 NA
ATOM     39  C   UNL A   1      37.258  33.982  33.267  1.00  0.00     0.031 C 
ATOM     40  C   UNL A   1      37.797  31.181  29.130  1.00  0.00     0.029 A 
ATOM     41  N   UNL A   1      39.205  30.793  30.824  1.00  0.00    -0.354 N 
ATOM     42  C   UNL A   1      38.995  33.098  34.467  1.00  0.00     0.074 A 
ATOM     43  C   UNL A   1      37.925  34.069  34.410  1.00  0.00     0.031 C 
ATOM     44  C   UNL A   1      38.557  30.129  28.788  1.00  0.00     0.029 A 
ATOM     45  C   UNL A   1      39.504  29.858  29.865  1.00  0.00     0.049 A 
ATOM     46  H   UNL A   1      39.687  30.864  31.679  1.00  0.00     0.167 HD
ATOM     47  C   UNL A   1      39.802  32.909  35.538  1.00  0.00     0.037 A 
ATOM     48  C   UNL A   1      40.443  28.893  29.850  1.00  0.00     0.037 A 
ATOM     49  C   UNL A   1      40.862  31.935  35.599  1.00  0.00     0.049 A 
ATOM     50  C   UNL A   1      41.361  28.742  31.028  1.00  0.00     0.074 A 
ATOM     51  C   UNL A   1      41.740  31.676  36.636  1.00  0.00     0.029 A 
ATOM     52  N   UNL A   1      41.182  31.054  34.576  1.00  0.00    -0.354 N 
ATOM     53  N   UNL A   1      41.367  29.399  32.161  1.00  0.00    -0.248 NA
ATOM     54  C   UNL A   1      42.413  27.722  30.917  1.00  0.00     0.031 C 
ATOM     55  C   UNL A   1      42.614  30.662  36.230  1.00  0.00     0.029 A 
ATOM     56  C   UNL A   1      42.252  30.258  34.954  1.00  0.00     0.049 A 
ATOM     57  H   UNL A   1      40.717  31.000  33.709  1.00  0.00     0.167 HD
ATOM     58  C   UNL A   1      42.413  28.871  32.903  1.00  0.00     0.074 A 
ATOM     59  C   UNL A   1      43.010  27.824  32.098  1.00  0.00     0.031 C 
ATOM     60  C   UNL A   1      42.839  29.225  34.139  1.00  0.00     0.037 A 
BRANCH  47  61
ATOM     61  C   UNL A   1      39.579  33.786  36.736  1.00  0.00     0.064 A 
ATOM     62  C   UNL A   1      40.149  35.065  36.825  1.00  0.00     0.173 A 
ATOM     63  C   UNL A   1      38.757  33.358  37.790  1.00  0.00     0.173 A 
ATOM     64  F   UNL A   1      40.953  35.515  35.851  1.00  0.00    -0.203 F 
ATOM     65  C   UNL A   1      39.921  35.874  37.936  1.00  0.00     0.198 A 
ATOM     66  C   UNL A   1      38.513  34.180  38.887  1.00  0.00     0.198 A 
ATOM     67  F   UNL A   1      38.186  32.146  37.752  1.00  0.00    -0.203 F 
ATOM     68  F   UNL A   1      40.511  37.076  38.018  1.00  0.00    -0.200 F 
ATOM     69  C   UNL A   1      39.099  35.434  38.962  1.00  0.00     0.200 A 
ATOM     70  F   UNL A   1      37.710  33.757  39.874  1.00  0.00    -0.200 F 
ATOM     71  F   UNL A   1      38.879  36.216  40.028  1.00  0.00    -0.200 F 
ENDBRANCH  47  61
BRANCH  48  72
ATOM     72  C   UNL A   1      40.531  27.987  28.680  1.00  0.00     0.064 A 
ATOM     73  C   UNL A   1      39.814  26.785  28.652  1.00  0.00     0.173 A 
ATOM     74  C   UNL A   1      41.281  28.331  27.546  1.00  0.00     0.173 A 
ATOM     75  F   UNL A   1      39.097  26.407  29.721  1.00  0.00    -0.203 F 
ATOM     76  C   UNL A   1      39.836  25.961  27.528  1.00  0.00     0.198 A 
ATOM     77  C   UNL A   1      41.285  27.519  26.414  1.00  0.00     0.198 A 
ATOM     78  F   UNL A   1      41.982  29.474  27.525  1.00  0.00    -0.203 F 
ATOM     79  F   UNL A   1      39.152  24.810  27.530  1.00  0.00    -0.200 F 
ATOM     80  C   UNL A   1      40.563  26.335  26.407  1.00  0.00     0.200 A 
ATOM     81  F   UNL A   1      41.975  27.890  25.328  1.00  0.00    -0.200 F 
ATOM     82  F   UNL A   1      40.566  25.554  25.318  1.00  0.00    -0.200 F 
ENDBRANCH  48  72
BRANCH  60  83
ATOM     83  C   UNL A   1      44.002  28.467  34.707  1.00  0.00     0.064 A 
ATOM     84  C   UNL A   1      45.319  28.928  34.558  1.00  0.00     0.173 A 
ATOM     85  C   UNL A   1      43.794  27.293  35.447  1.00  0.00     0.173 A 
ATOM     86  F   UNL A   1      45.568  30.038  33.847  1.00  0.00    -0.203 F 
ATOM     87  C   UNL A   1      46.386  28.231  35.117  1.00  0.00     0.198 A 
ATOM     88  C   UNL A   1      44.862  26.612  36.023  1.00  0.00     0.198 A 
ATOM     89  F   UNL A   1      42.553  26.816  35.620  1.00  0.00    -0.203 F 
ATOM     90  F   UNL A   1      47.639  28.668  34.933  1.00  0.00    -0.200 F 
ATOM     91  C   UNL A   1      46.157  27.078  35.854  1.00  0.00     0.200 A 
ATOM     92  F   UNL A   1      44.638  25.504  36.743  1.00  0.00    -0.200 F 
ATOM     93  F   UNL A   1      47.186  26.412  36.395  1.00  0.00    -0.200 F 
ENDBRANCH  60  83
ENDBRANCH  34  35
ENDBRANCH  26  29
ENDBRANCH  24  25
ENDBRANCH  23  24
ENDBRANCH  22  23
ENDBRANCH   1  22
TORSDOF 15
ENDMDL
