MODEL 1
REMARK VINA RESULT:     -11.0      0.000      0.000
REMARK SMILES C[C@@H]1[C@@H](C(=O)NCCCCCCNC(=O)c2ccc(-c3c4nc(c(-c5c(F)c(F)c(F)c(F)c5F)c5ccc([nH]5)c(-c5c(F)c(F)c(F)c(F)c5F)c5nc(c(-c6c(F)c(F)c(F)c(F)c6F)c6ccc3[nH]6)C=C5)C=C4)cc2)CCN1C(=O)N(C)Cc1ccsc1
REMARK SMILES IDX 8 1 7 2 6 3 4 4 5 5 3 7 1 8 2 9 81 10 79 11 80 12 82 13
REMARK SMILES IDX 83 14 84 15 85 16 86 17 87 18 88 19 91 20 89 21 90 22 9 23
REMARK SMILES IDX 10 24 11 25 12 26 13 27 14 28 15 30 16 31 17 32 78 33 18 34
REMARK SMILES IDX 77 35 19 36 20 37 21 38 71 39 22 40 76 41 70 42 72 43 23 44
REMARK SMILES IDX 75 45 69 46 68 47 24 49 56 50 36 51 55 52 37 53 40 54 54 55
REMARK SMILES IDX 73 56 38 57 39 58 53 60 74 61 41 62 25 63 26 64 34 65 27 66
REMARK SMILES IDX 28 67 32 68 35 69 29 70 30 71 33 72 31 73 57 74 58 75 66 76
REMARK SMILES IDX 59 77 60 78 64 79 67 80 61 81 62 82 65 83 63 84 42 85 43 86
REMARK SMILES IDX 51 87 44 88 45 89 49 90 52 91 46 92 47 93 50 94 48 95
REMARK H PARENT 6 6 13 29 72 48 40 59
REMARK Flexibility Score: inf
ROOT
ATOM      1  C   UNL A   1      31.927  28.847  27.223  1.00  0.00     0.021 C 
ENDROOT
BRANCH   1   2
ATOM      2  C   UNL A   1      31.437  27.800  26.230  1.00  0.00     0.116 C 
BRANCH   2   3
ATOM      3  N   UNL A   1      31.171  26.525  26.857  1.00  0.00    -0.356 N 
ATOM      4  C   UNL A   1      31.578  25.276  26.496  1.00  0.00     0.225 C 
ATOM      5  O   UNL A   1      31.188  24.339  27.194  1.00  0.00    -0.275 OA
ATOM      6  H   UNL A   1      30.610  26.564  27.666  1.00  0.00     0.163 HD
BRANCH   4   7
ATOM      7  C   UNL A   1      32.414  25.082  25.231  1.00  0.00     0.102 C 
ATOM      8  C   UNL A   1      32.578  23.531  23.236  1.00  0.00     0.032 C 
ATOM      9  C   UNL A   1      32.349  23.611  24.751  1.00  0.00     0.096 C 
ATOM     10  N   UNL A   1      33.429  22.945  25.495  1.00  0.00    -0.321 N 
ATOM     11  C   UNL A   1      33.913  25.272  25.453  1.00  0.00     0.037 C 
ATOM     12  C   UNL A   1      34.337  23.944  26.043  1.00  0.00     0.122 C 
BRANCH  10  13
ATOM     13  C   UNL A   1      33.662  21.654  25.885  1.00  0.00     0.320 C 
ATOM     14  O   UNL A   1      33.341  21.340  27.041  1.00  0.00    -0.248 OA
BRANCH  13  15
ATOM     15  N   UNL A   1      34.280  20.722  25.087  1.00  0.00    -0.323 N 
ATOM     16  C   UNL A   1      35.675  20.334  24.957  1.00  0.00     0.149 C 
BRANCH  15  17
ATOM     17  C   UNL A   1      33.386  19.993  24.182  1.00  0.00     0.157 C 
BRANCH  17  18
ATOM     18  C   UNL A   1      33.325  18.515  24.503  1.00  0.00    -0.018 A 
ATOM     19  C   UNL A   1      33.802  17.502  23.602  1.00  0.00     0.017 A 
ATOM     20  C   UNL A   1      32.787  17.927  25.636  1.00  0.00     0.070 A 
ATOM     21  C   UNL A   1      33.594  16.224  24.070  1.00  0.00     0.065 A 
ATOM     22  S   UNL A   1      32.843  16.219  25.602  1.00  0.00    -0.152 S 
ENDBRANCH  17  18
ENDBRANCH  15  17
ENDBRANCH  13  15
ENDBRANCH  10  13
ENDBRANCH   4   7
ENDBRANCH   2   3
ENDBRANCH   1   2
BRANCH   1  23
ATOM     23  C   UNL A   1      33.389  29.279  27.058  1.00  0.00     0.002 C 
BRANCH  23  24
ATOM     24  C   UNL A   1      33.747  30.672  27.584  1.00  0.00     0.002 C 
BRANCH  24  25
ATOM     25  C   UNL A   1      32.626  31.711  27.552  1.00  0.00     0.021 C 
BRANCH  25  26
ATOM     26  C   UNL A   1      32.983  33.051  26.920  1.00  0.00     0.116 C 
BRANCH  26  27
ATOM     27  N   UNL A   1      32.665  34.185  27.768  1.00  0.00    -0.352 N 
ATOM     28  C   UNL A   1      33.224  34.569  28.961  1.00  0.00     0.251 C 
ATOM     29  H   UNL A   1      31.942  34.766  27.439  1.00  0.00     0.163 HD
ATOM     30  O   UNL A   1      32.743  35.507  29.588  1.00  0.00    -0.269 OA
BRANCH  28  31
ATOM     31  C   UNL A   1      34.386  33.838  29.517  1.00  0.00     0.039 A 
ATOM     32  C   UNL A   1      35.660  34.163  29.046  1.00  0.00     0.014 A 
ATOM     33  C   UNL A   1      34.232  32.825  30.469  1.00  0.00     0.014 A 
ATOM     34  C   UNL A   1      36.782  33.509  29.561  1.00  0.00     0.010 A 
ATOM     35  C   UNL A   1      35.355  32.222  31.033  1.00  0.00     0.010 A 
ATOM     36  C   UNL A   1      36.641  32.551  30.577  1.00  0.00    -0.014 A 
BRANCH  36  37
ATOM     37  C   UNL A   1      37.832  31.878  31.155  1.00  0.00     0.031 A 
ATOM     38  C   UNL A   1      38.308  32.232  32.537  1.00  0.00     0.074 A 
ATOM     39  C   UNL A   1      38.507  30.973  30.422  1.00  0.00     0.049 A 
ATOM     40  N   UNL A   1      39.336  31.767  33.203  1.00  0.00    -0.248 NA
ATOM     41  C   UNL A   1      37.542  33.260  33.258  1.00  0.00     0.031 C 
ATOM     42  C   UNL A   1      38.174  30.578  29.052  1.00  0.00     0.029 A 
ATOM     43  N   UNL A   1      39.615  30.221  30.724  1.00  0.00    -0.354 N 
ATOM     44  C   UNL A   1      39.344  32.451  34.412  1.00  0.00     0.074 A 
ATOM     45  C   UNL A   1      38.253  33.400  34.367  1.00  0.00     0.031 C 
ATOM     46  C   UNL A   1      39.041  29.639  28.641  1.00  0.00     0.029 A 
ATOM     47  C   UNL A   1      40.009  29.388  29.706  1.00  0.00     0.049 A 
ATOM     48  H   UNL A   1      40.083  30.274  31.588  1.00  0.00     0.167 HD
ATOM     49  C   UNL A   1      40.169  32.285  35.472  1.00  0.00     0.037 A 
ATOM     50  C   UNL A   1      41.035  28.517  29.640  1.00  0.00     0.037 A 
ATOM     51  C   UNL A   1      41.237  31.320  35.526  1.00  0.00     0.049 A 
ATOM     52  C   UNL A   1      41.937  28.350  30.833  1.00  0.00     0.074 A 
ATOM     53  C   UNL A   1      42.088  31.032  36.578  1.00  0.00     0.029 A 
ATOM     54  N   UNL A   1      41.599  30.485  34.479  1.00  0.00    -0.354 N 
ATOM     55  N   UNL A   1      41.889  28.952  31.996  1.00  0.00    -0.248 NA
ATOM     56  C   UNL A   1      43.030  27.377  30.705  1.00  0.00     0.031 C 
ATOM     57  C   UNL A   1      42.994  30.053  36.155  1.00  0.00     0.029 A 
ATOM     58  C   UNL A   1      42.677  29.698  34.853  1.00  0.00     0.049 A 
ATOM     59  H   UNL A   1      41.156  30.457  33.601  1.00  0.00     0.167 HD
ATOM     60  C   UNL A   1      42.926  28.414  32.746  1.00  0.00     0.074 A 
ATOM     61  C   UNL A   1      43.576  27.424  31.911  1.00  0.00     0.031 C 
ATOM     62  C   UNL A   1      43.309  28.715  34.011  1.00  0.00     0.037 A 
BRANCH  49  63
ATOM     63  C   UNL A   1      39.946  33.162  36.670  1.00  0.00     0.064 A 
ATOM     64  C   UNL A   1      38.977  32.853  37.637  1.00  0.00     0.173 A 
ATOM     65  C   UNL A   1      40.734  34.305  36.874  1.00  0.00     0.173 A 
ATOM     66  F   UNL A   1      38.189  31.778  37.483  1.00  0.00    -0.203 F 
ATOM     67  C   UNL A   1      38.785  33.671  38.747  1.00  0.00     0.198 A 
ATOM     68  C   UNL A   1      40.560  35.104  38.001  1.00  0.00     0.198 A 
ATOM     69  F   UNL A   1      41.679  34.644  35.982  1.00  0.00    -0.203 F 
ATOM     70  F   UNL A   1      37.821  33.382  39.631  1.00  0.00    -0.200 F 
ATOM     71  C   UNL A   1      39.581  34.791  38.932  1.00  0.00     0.200 A 
ATOM     72  F   UNL A   1      41.338  36.180  38.184  1.00  0.00    -0.200 F 
ATOM     73  F   UNL A   1      39.401  35.573  40.005  1.00  0.00    -0.200 F 
ENDBRANCH  49  63
BRANCH  50  74
ATOM     74  C   UNL A   1      41.247  27.714  28.409  1.00  0.00     0.064 A 
ATOM     75  C   UNL A   1      42.129  28.150  27.409  1.00  0.00     0.173 A 
ATOM     76  C   UNL A   1      40.573  26.502  28.201  1.00  0.00     0.173 A 
ATOM     77  F   UNL A   1      42.781  29.313  27.553  1.00  0.00    -0.203 F 
ATOM     78  C   UNL A   1      42.312  27.413  26.240  1.00  0.00     0.198 A 
ATOM     79  C   UNL A   1      40.778  25.754  27.044  1.00  0.00     0.198 A 
ATOM     80  F   UNL A   1      39.722  26.040  29.129  1.00  0.00    -0.203 F 
ATOM     81  F   UNL A   1      43.126  27.876  25.281  1.00  0.00    -0.200 F 
ATOM     82  C   UNL A   1      41.640  26.214  26.061  1.00  0.00     0.200 A 
ATOM     83  F   UNL A   1      40.137  24.588  26.880  1.00  0.00    -0.200 F 
ATOM     84  F   UNL A   1      41.819  25.506  24.938  1.00  0.00    -0.200 F 
ENDBRANCH  50  74
BRANCH  62  85
ATOM     85  C   UNL A   1      44.467  27.948  34.578  1.00  0.00     0.064 A 
ATOM     86  C   UNL A   1      45.781  28.427  34.485  1.00  0.00     0.173 A 
ATOM     87  C   UNL A   1      44.254  26.736  35.254  1.00  0.00     0.173 A 
ATOM     88  F   UNL A   1      46.038  29.572  33.835  1.00  0.00    -0.203 F 
ATOM     89  C   UNL A   1      46.845  27.707  35.024  1.00  0.00     0.198 A 
ATOM     90  C   UNL A   1      45.316  26.034  35.817  1.00  0.00     0.198 A 
ATOM     91  F   UNL A   1      43.015  26.238  35.376  1.00  0.00    -0.203 F 
ATOM     92  F   UNL A   1      48.098  28.159  34.881  1.00  0.00    -0.200 F 
ATOM     93  C   UNL A   1      46.610  26.516  35.694  1.00  0.00     0.200 A 
ATOM     94  F   UNL A   1      45.087  24.890  36.475  1.00  0.00    -0.200 F 
ATOM     95  F   UNL A   1      47.635  25.828  36.217  1.00  0.00    -0.200 F 
ENDBRANCH  62  85
ENDBRANCH  36  37
ENDBRANCH  28  31
ENDBRANCH  26  27
ENDBRANCH  25  26
ENDBRANCH  24  25
ENDBRANCH  23  24
ENDBRANCH   1  23
TORSDOF 17
ENDMDL
MODEL 2
REMARK VINA RESULT:     -11.0      3.566      4.871
REMARK SMILES C[C@@H]1[C@@H](C(=O)NCCCCCCNC(=O)c2ccc(-c3c4nc(c(-c5c(F)c(F)c(F)c(F)c5F)c5ccc([nH]5)c(-c5c(F)c(F)c(F)c(F)c5F)c5nc(c(-c6c(F)c(F)c(F)c(F)c6F)c6ccc3[nH]6)C=C5)C=C4)cc2)CCN1C(=O)N(C)Cc1ccsc1
REMARK SMILES IDX 8 1 7 2 6 3 4 4 5 5 3 7 1 8 2 9 81 10 79 11 80 12 82 13
REMARK SMILES IDX 83 14 84 15 85 16 86 17 87 18 88 19 91 20 89 21 90 22 9 23
REMARK SMILES IDX 10 24 11 25 12 26 13 27 14 28 15 30 16 31 17 32 78 33 18 34
REMARK SMILES IDX 77 35 19 36 20 37 21 38 71 39 22 40 76 41 70 42 72 43 23 44
REMARK SMILES IDX 75 45 69 46 68 47 24 49 56 50 36 51 55 52 37 53 40 54 54 55
REMARK SMILES IDX 73 56 38 57 39 58 53 60 74 61 41 62 25 63 26 64 34 65 27 66
REMARK SMILES IDX 28 67 32 68 35 69 29 70 30 71 33 72 31 73 57 74 58 75 66 76
REMARK SMILES IDX 59 77 60 78 64 79 67 80 61 81 62 82 65 83 63 84 42 85 43 86
REMARK SMILES IDX 51 87 44 88 45 89 49 90 52 91 46 92 47 93 50 94 48 95
REMARK H PARENT 6 6 13 29 72 48 40 59
REMARK Flexibility Score: inf
ROOT
ATOM      1  C   UNL A   1      35.334  32.724  29.111  1.00  0.00     0.021 C 
ENDROOT
BRANCH   1   2
ATOM      2  C   UNL A   1      34.440  32.223  27.984  1.00  0.00     0.116 C 
BRANCH   2   3
ATOM      3  N   UNL A   1      34.955  31.027  27.358  1.00  0.00    -0.356 N 
ATOM      4  C   UNL A   1      34.310  29.878  27.014  1.00  0.00     0.225 C 
ATOM      5  O   UNL A   1      34.992  28.985  26.508  1.00  0.00    -0.275 OA
ATOM      6  H   UNL A   1      35.918  31.046  27.148  1.00  0.00     0.163 HD
BRANCH   4   7
ATOM      7  C   UNL A   1      32.824  29.712  27.333  1.00  0.00     0.102 C 
ATOM      8  C   UNL A   1      31.152  27.892  27.884  1.00  0.00     0.032 C 
ATOM      9  C   UNL A   1      32.350  28.274  27.005  1.00  0.00     0.096 C 
ATOM     10  N   UNL A   1      31.978  28.336  25.584  1.00  0.00    -0.321 N 
ATOM     11  C   UNL A   1      31.911  30.552  26.442  1.00  0.00     0.037 C 
ATOM     12  C   UNL A   1      31.822  29.726  25.176  1.00  0.00     0.122 C 
BRANCH  10  13
ATOM     13  C   UNL A   1      31.898  27.411  24.579  1.00  0.00     0.320 C 
ATOM     14  O   UNL A   1      31.691  26.231  24.903  1.00  0.00    -0.248 OA
BRANCH  13  15
ATOM     15  N   UNL A   1      32.092  27.715  23.253  1.00  0.00    -0.323 N 
ATOM     16  C   UNL A   1      33.230  28.283  22.549  1.00  0.00     0.149 C 
BRANCH  15  17
ATOM     17  C   UNL A   1      30.945  27.442  22.381  1.00  0.00     0.157 C 
BRANCH  17  18
ATOM     18  C   UNL A   1      29.900  28.534  22.449  1.00  0.00    -0.018 A 
ATOM     19  C   UNL A   1      30.126  29.860  21.942  1.00  0.00     0.017 A 
ATOM     20  C   UNL A   1      28.641  28.454  23.021  1.00  0.00     0.070 A 
ATOM     21  C   UNL A   1      29.064  30.709  22.161  1.00  0.00     0.065 A 
ATOM     22  S   UNL A   1      27.775  29.926  22.960  1.00  0.00    -0.152 S 
ENDBRANCH  17  18
ENDBRANCH  15  17
ENDBRANCH  13  15
ENDBRANCH  10  13
ENDBRANCH   4   7
ENDBRANCH   2   3
ENDBRANCH   1   2
BRANCH   1  23
ATOM     23  C   UNL A   1      35.745  34.199  29.022  1.00  0.00     0.002 C 
BRANCH  23  24
ATOM     24  C   UNL A   1      34.848  35.101  28.169  1.00  0.00     0.002 C 
BRANCH  24  25
ATOM     25  C   UNL A   1      33.740  35.846  28.915  1.00  0.00     0.021 C 
BRANCH  25  26
ATOM     26  C   UNL A   1      32.845  34.989  29.802  1.00  0.00     0.116 C 
BRANCH  26  27
ATOM     27  N   UNL A   1      32.343  35.701  30.963  1.00  0.00    -0.352 N 
ATOM     28  C   UNL A   1      32.822  35.727  32.248  1.00  0.00     0.251 C 
ATOM     29  H   UNL A   1      31.540  36.247  30.804  1.00  0.00     0.163 HD
ATOM     30  O   UNL A   1      32.192  36.310  33.124  1.00  0.00    -0.269 OA
BRANCH  28  31
ATOM     31  C   UNL A   1      34.080  35.028  32.596  1.00  0.00     0.039 A 
ATOM     32  C   UNL A   1      33.996  33.749  33.153  1.00  0.00     0.014 A 
ATOM     33  C   UNL A   1      35.331  35.625  32.408  1.00  0.00     0.014 A 
ATOM     34  C   UNL A   1      35.162  33.051  33.478  1.00  0.00     0.010 A 
ATOM     35  C   UNL A   1      36.495  34.902  32.667  1.00  0.00     0.010 A 
ATOM     36  C   UNL A   1      36.421  33.612  33.213  1.00  0.00    -0.014 A 
BRANCH  36  37
ATOM     37  C   UNL A   1      37.665  32.861  33.521  1.00  0.00     0.031 A 
ATOM     38  C   UNL A   1      38.418  33.129  34.795  1.00  0.00     0.074 A 
ATOM     39  C   UNL A   1      38.136  31.961  32.637  1.00  0.00     0.049 A 
ATOM     40  N   UNL A   1      39.530  32.589  35.229  1.00  0.00    -0.248 NA
ATOM     41  C   UNL A   1      37.861  34.156  35.688  1.00  0.00     0.031 C 
ATOM     42  C   UNL A   1      37.523  31.645  31.346  1.00  0.00     0.029 A 
ATOM     43  N   UNL A   1      39.241  31.147  32.688  1.00  0.00    -0.354 N 
ATOM     44  C   UNL A   1      39.808  33.215  36.436  1.00  0.00     0.074 A 
ATOM     45  C   UNL A   1      38.781  34.214  36.641  1.00  0.00     0.031 C 
ATOM     46  C   UNL A   1      38.244  30.688  30.739  1.00  0.00     0.029 A 
ATOM     47  C   UNL A   1      39.386  30.345  31.583  1.00  0.00     0.049 A 
ATOM     48  H   UNL A   1      39.870  31.140  33.446  1.00  0.00     0.167 HD
ATOM     49  C   UNL A   1      40.814  32.964  37.307  1.00  0.00     0.037 A 
ATOM     50  C   UNL A   1      40.331  29.434  31.286  1.00  0.00     0.037 A 
ATOM     51  C   UNL A   1      41.820  31.952  37.116  1.00  0.00     0.049 A 
ATOM     52  C   UNL A   1      41.438  29.173  32.272  1.00  0.00     0.074 A 
ATOM     53  C   UNL A   1      42.842  31.578  37.970  1.00  0.00     0.029 A 
ATOM     54  N   UNL A   1      41.927  31.151  35.989  1.00  0.00    -0.354 N 
ATOM     55  N   UNL A   1      41.648  29.721  33.443  1.00  0.00    -0.248 NA
ATOM     56  C   UNL A   1      42.433  28.159  31.897  1.00  0.00     0.031 C 
ATOM     57  C   UNL A   1      43.596  30.580  37.341  1.00  0.00     0.029 A 
ATOM     58  C   UNL A   1      43.014  30.300  36.115  1.00  0.00     0.049 A 
ATOM     59  H   UNL A   1      41.321  31.182  35.214  1.00  0.00     0.167 HD
ATOM     60  C   UNL A   1      42.782  29.104  33.954  1.00  0.00     0.074 A 
ATOM     61  C   UNL A   1      43.204  28.126  32.973  1.00  0.00     0.031 C 
ATOM     62  C   UNL A   1      43.418  29.330  35.131  1.00  0.00     0.037 A 
BRANCH  49  63
ATOM     63  C   UNL A   1      40.874  33.795  38.557  1.00  0.00     0.064 A 
ATOM     64  C   UNL A   1      40.138  33.453  39.703  1.00  0.00     0.173 A 
ATOM     65  C   UNL A   1      41.703  34.925  38.624  1.00  0.00     0.173 A 
ATOM     66  F   UNL A   1      39.322  32.389  39.687  1.00  0.00    -0.203 F 
ATOM     67  C   UNL A   1      40.209  34.227  40.858  1.00  0.00     0.198 A 
ATOM     68  C   UNL A   1      41.794  35.679  39.790  1.00  0.00     0.198 A 
ATOM     69  F   UNL A   1      42.432  35.293  37.558  1.00  0.00    -0.203 F 
ATOM     70  F   UNL A   1      39.461  33.908  41.922  1.00  0.00    -0.200 F 
ATOM     71  C   UNL A   1      41.042  35.334  40.903  1.00  0.00     0.200 A 
ATOM     72  F   UNL A   1      42.609  36.742  39.837  1.00  0.00    -0.200 F 
ATOM     73  F   UNL A   1      41.115  36.075  42.018  1.00  0.00    -0.200 F 
ENDBRANCH  49  63
BRANCH  50  74
ATOM     74  C   UNL A   1      40.259  28.679  30.008  1.00  0.00     0.064 A 
ATOM     75  C   UNL A   1      39.550  27.472  29.926  1.00  0.00     0.173 A 
ATOM     76  C   UNL A   1      40.898  29.141  28.849  1.00  0.00     0.173 A 
ATOM     77  F   UNL A   1      38.939  26.979  31.013  1.00  0.00    -0.203 F 
ATOM     78  C   UNL A   1      39.501  26.746  28.737  1.00  0.00     0.198 A 
ATOM     79  C   UNL A   1      40.825  28.428  27.655  1.00  0.00     0.198 A 
ATOM     80  F   UNL A   1      41.586  30.292  28.875  1.00  0.00    -0.203 F 
ATOM     81  F   UNL A   1      38.854  25.573  28.699  1.00  0.00    -0.200 F 
ATOM     82  C   UNL A   1      40.134  27.227  27.602  1.00  0.00     0.200 A 
ATOM     83  F   UNL A   1      41.428  28.902  26.556  1.00  0.00    -0.200 F 
ATOM     84  F   UNL A   1      40.084  26.529  26.459  1.00  0.00    -0.200 F 
ENDBRANCH  50  74
BRANCH  62  85
ATOM     85  C   UNL A   1      44.622  28.486  35.431  1.00  0.00     0.064 A 
ATOM     86  C   UNL A   1      44.510  27.256  36.094  1.00  0.00     0.173 A 
ATOM     87  C   UNL A   1      45.899  28.898  35.018  1.00  0.00     0.173 A 
ATOM     88  F   UNL A   1      43.314  26.826  36.523  1.00  0.00    -0.203 F 
ATOM     89  C   UNL A   1      45.636  26.480  36.358  1.00  0.00     0.198 A 
ATOM     90  C   UNL A   1      47.019  28.106  35.258  1.00  0.00     0.198 A 
ATOM     91  F   UNL A   1      46.059  30.063  34.375  1.00  0.00    -0.203 F 
ATOM     92  F   UNL A   1      45.512  25.331  37.036  1.00  0.00    -0.200 F 
ATOM     93  C   UNL A   1      46.887  26.902  35.934  1.00  0.00     0.200 A 
ATOM     94  F   UNL A   1      48.225  28.509  34.836  1.00  0.00    -0.200 F 
ATOM     95  F   UNL A   1      47.969  26.151  36.184  1.00  0.00    -0.200 F 
ENDBRANCH  62  85
ENDBRANCH  36  37
ENDBRANCH  28  31
ENDBRANCH  26  27
ENDBRANCH  25  26
ENDBRANCH  24  25
ENDBRANCH  23  24
ENDBRANCH   1  23
TORSDOF 17
ENDMDL
MODEL 3
REMARK VINA RESULT:     -11.0      0.436      7.422
REMARK SMILES C[C@@H]1[C@@H](C(=O)NCCCCCCNC(=O)c2ccc(-c3c4nc(c(-c5c(F)c(F)c(F)c(F)c5F)c5ccc([nH]5)c(-c5c(F)c(F)c(F)c(F)c5F)c5nc(c(-c6c(F)c(F)c(F)c(F)c6F)c6ccc3[nH]6)C=C5)C=C4)cc2)CCN1C(=O)N(C)Cc1ccsc1
REMARK SMILES IDX 8 1 7 2 6 3 4 4 5 5 3 7 1 8 2 9 81 10 79 11 80 12 82 13
REMARK SMILES IDX 83 14 84 15 85 16 86 17 87 18 88 19 91 20 89 21 90 22 9 23
REMARK SMILES IDX 10 24 11 25 12 26 13 27 14 28 15 30 16 31 17 32 78 33 18 34
REMARK SMILES IDX 77 35 19 36 20 37 21 38 71 39 22 40 76 41 70 42 72 43 23 44
REMARK SMILES IDX 75 45 69 46 68 47 24 49 56 50 36 51 55 52 37 53 40 54 54 55
REMARK SMILES IDX 73 56 38 57 39 58 53 60 74 61 41 62 25 63 26 64 34 65 27 66
REMARK SMILES IDX 28 67 32 68 35 69 29 70 30 71 33 72 31 73 57 74 58 75 66 76
REMARK SMILES IDX 59 77 60 78 64 79 67 80 61 81 62 82 65 83 63 84 42 85 43 86
REMARK SMILES IDX 51 87 44 88 45 89 49 90 52 91 46 92 47 93 50 94 48 95
REMARK H PARENT 6 6 13 29 72 48 40 59
REMARK Flexibility Score: inf
ROOT
ATOM      1  C   UNL A   1      31.896  28.847  27.211  1.00  0.00     0.021 C 
ENDROOT
BRANCH   1   2
ATOM      2  C   UNL A   1      31.457  27.767  26.229  1.00  0.00     0.116 C 
BRANCH   2   3
ATOM      3  N   UNL A   1      31.220  26.495  26.873  1.00  0.00    -0.356 N 
ATOM      4  C   UNL A   1      31.663  25.253  26.534  1.00  0.00     0.225 C 
ATOM      5  O   UNL A   1      31.293  24.316  27.244  1.00  0.00    -0.275 OA
ATOM      6  H   UNL A   1      30.653  26.532  27.678  1.00  0.00     0.163 HD
BRANCH   4   7
ATOM      7  C   UNL A   1      32.513  25.062  25.278  1.00  0.00     0.102 C 
ATOM      8  C   UNL A   1      32.720  23.497  23.298  1.00  0.00     0.032 C 
ATOM      9  C   UNL A   1      32.477  23.586  24.811  1.00  0.00     0.096 C 
ATOM     10  N   UNL A   1      33.561  22.944  25.569  1.00  0.00    -0.321 N 
ATOM     11  C   UNL A   1      34.007  25.278  25.512  1.00  0.00     0.037 C 
ATOM     12  C   UNL A   1      34.448  23.962  26.117  1.00  0.00     0.122 C 
BRANCH  10  13
ATOM     13  C   UNL A   1      33.812  21.661  25.972  1.00  0.00     0.320 C 
ATOM     14  O   UNL A   1      33.521  21.361  27.140  1.00  0.00    -0.248 OA
BRANCH  13  15
ATOM     15  N   UNL A   1      34.417  20.721  25.173  1.00  0.00    -0.323 N 
ATOM     16  C   UNL A   1      35.813  20.357  24.996  1.00  0.00     0.149 C 
BRANCH  15  17
ATOM     17  C   UNL A   1      33.503  19.951  24.323  1.00  0.00     0.157 C 
BRANCH  17  18
ATOM     18  C   UNL A   1      33.509  18.477  24.663  1.00  0.00    -0.018 A 
ATOM     19  C   UNL A   1      34.540  17.579  24.220  1.00  0.00     0.017 A 
ATOM     20  C   UNL A   1      32.549  17.779  25.379  1.00  0.00     0.070 A 
ATOM     21  C   UNL A   1      34.315  16.273  24.593  1.00  0.00     0.065 A 
ATOM     22  S   UNL A   1      32.876  16.105  25.495  1.00  0.00    -0.152 S 
ENDBRANCH  17  18
ENDBRANCH  15  17
ENDBRANCH  13  15
ENDBRANCH  10  13
ENDBRANCH   4   7
ENDBRANCH   2   3
ENDBRANCH   1   2
BRANCH   1  23
ATOM     23  C   UNL A   1      33.366  29.270  27.113  1.00  0.00     0.002 C 
BRANCH  23  24
ATOM     24  C   UNL A   1      33.704  30.668  27.639  1.00  0.00     0.002 C 
BRANCH  24  25
ATOM     25  C   UNL A   1      32.598  31.717  27.522  1.00  0.00     0.021 C 
BRANCH  25  26
ATOM     26  C   UNL A   1      32.998  33.031  26.863  1.00  0.00     0.116 C 
BRANCH  26  27
ATOM     27  N   UNL A   1      32.588  34.198  27.622  1.00  0.00    -0.352 N 
ATOM     28  C   UNL A   1      33.077  34.687  28.807  1.00  0.00     0.251 C 
ATOM     29  H   UNL A   1      31.849  34.716  27.229  1.00  0.00     0.163 HD
ATOM     30  O   UNL A   1      32.524  35.636  29.352  1.00  0.00    -0.269 OA
BRANCH  28  31
ATOM     31  C   UNL A   1      34.253  34.058  29.452  1.00  0.00     0.039 A 
ATOM     32  C   UNL A   1      34.030  33.118  30.462  1.00  0.00     0.014 A 
ATOM     33  C   UNL A   1      35.561  34.403  29.096  1.00  0.00     0.014 A 
ATOM     34  C   UNL A   1      35.114  32.490  31.081  1.00  0.00     0.010 A 
ATOM     35  C   UNL A   1      36.639  33.726  29.665  1.00  0.00     0.010 A 
ATOM     36  C   UNL A   1      36.426  32.770  30.669  1.00  0.00    -0.014 A 
BRANCH  36  37
ATOM     37  C   UNL A   1      37.581  32.079  31.297  1.00  0.00     0.031 A 
ATOM     38  C   UNL A   1      38.320  31.003  30.550  1.00  0.00     0.074 A 
ATOM     39  C   UNL A   1      37.943  32.395  32.555  1.00  0.00     0.049 A 
ATOM     40  N   UNL A   1      39.338  30.276  30.937  1.00  0.00    -0.248 NA
ATOM     41  C   UNL A   1      37.837  30.686  29.197  1.00  0.00     0.031 C 
ATOM     42  C   UNL A   1      37.277  33.386  33.401  1.00  0.00     0.029 A 
ATOM     43  N   UNL A   1      38.959  31.915  33.343  1.00  0.00    -0.354 N 
ATOM     44  C   UNL A   1      39.610  29.413  29.884  1.00  0.00     0.074 A 
ATOM     45  C   UNL A   1      38.617  29.668  28.863  1.00  0.00     0.031 C 
ATOM     46  C   UNL A   1      37.917  33.460  34.580  1.00  0.00     0.029 A 
ATOM     47  C   UNL A   1      39.018  32.500  34.584  1.00  0.00     0.049 A 
ATOM     48  H   UNL A   1      39.586  31.216  33.047  1.00  0.00     0.167 HD
ATOM     49  C   UNL A   1      40.611  28.508  29.768  1.00  0.00     0.037 A 
ATOM     50  C   UNL A   1      39.866  32.288  35.608  1.00  0.00     0.037 A 
ATOM     51  C   UNL A   1      41.615  28.275  30.773  1.00  0.00     0.049 A 
ATOM     52  C   UNL A   1      40.970  31.278  35.453  1.00  0.00     0.074 A 
ATOM     53  C   UNL A   1      42.705  27.425  30.723  1.00  0.00     0.029 A 
ATOM     54  N   UNL A   1      41.648  28.896  32.013  1.00  0.00    -0.354 N 
ATOM     55  N   UNL A   1      41.260  30.521  34.423  1.00  0.00    -0.248 NA
ATOM     56  C   UNL A   1      41.871  31.101  36.600  1.00  0.00     0.031 C 
ATOM     57  C   UNL A   1      43.375  27.500  31.949  1.00  0.00     0.029 A 
ATOM     58  C   UNL A   1      42.728  28.431  32.746  1.00  0.00     0.049 A 
ATOM     59  H   UNL A   1      41.000  29.568  32.326  1.00  0.00     0.167 HD
ATOM     60  C   UNL A   1      42.387  29.797  34.788  1.00  0.00     0.074 A 
ATOM     61  C   UNL A   1      42.740  30.219  36.127  1.00  0.00     0.031 C 
ATOM     62  C   UNL A   1      43.067  28.864  34.077  1.00  0.00     0.037 A 
BRANCH  49  63
ATOM     63  C   UNL A   1      40.676  27.705  28.501  1.00  0.00     0.064 A 
ATOM     64  C   UNL A   1      41.415  28.143  27.390  1.00  0.00     0.173 A 
ATOM     65  C   UNL A   1      40.025  26.466  28.407  1.00  0.00     0.173 A 
ATOM     66  F   UNL A   1      42.047  29.326  27.424  1.00  0.00    -0.203 F 
ATOM     67  C   UNL A   1      41.474  27.385  26.224  1.00  0.00     0.198 A 
ATOM     68  C   UNL A   1      40.111  25.696  27.250  1.00  0.00     0.198 A 
ATOM     69  F   UNL A   1      39.309  25.998  29.442  1.00  0.00    -0.203 F 
ATOM     70  F   UNL A   1      42.145  27.846  25.161  1.00  0.00    -0.200 F 
ATOM     71  C   UNL A   1      40.829  26.159  26.158  1.00  0.00     0.200 A 
ATOM     72  F   UNL A   1      39.497  24.507  27.191  1.00  0.00    -0.200 F 
ATOM     73  F   UNL A   1      40.893  25.427  25.037  1.00  0.00    -0.200 F 
ENDBRANCH  49  63
BRANCH  50  74
ATOM     74  C   UNL A   1      39.722  33.070  36.864  1.00  0.00     0.064 A 
ATOM     75  C   UNL A   1      38.801  32.685  37.848  1.00  0.00     0.173 A 
ATOM     76  C   UNL A   1      40.493  34.216  37.104  1.00  0.00     0.173 A 
ATOM     77  F   UNL A   1      38.026  31.607  37.655  1.00  0.00    -0.203 F 
ATOM     78  C   UNL A   1      38.643  33.429  39.016  1.00  0.00     0.198 A 
ATOM     79  C   UNL A   1      40.353  34.943  38.283  1.00  0.00     0.198 A 
ATOM     80  F   UNL A   1      41.391  34.623  36.194  1.00  0.00    -0.203 F 
ATOM     81  F   UNL A   1      37.723  33.064  39.920  1.00  0.00    -0.200 F 
ATOM     82  C   UNL A   1      39.422  34.554  39.235  1.00  0.00     0.200 A 
ATOM     83  F   UNL A   1      41.117  36.023  38.497  1.00  0.00    -0.200 F 
ATOM     84  F   UNL A   1      39.271  35.268  40.359  1.00  0.00    -0.200 F 
ENDBRANCH  50  74
BRANCH  62  85
ATOM     85  C   UNL A   1      44.275  28.255  34.725  1.00  0.00     0.064 A 
ATOM     86  C   UNL A   1      44.191  27.069  35.468  1.00  0.00     0.173 A 
ATOM     87  C   UNL A   1      45.539  28.848  34.572  1.00  0.00     0.173 A 
ATOM     88  F   UNL A   1      43.004  26.473  35.657  1.00  0.00    -0.203 F 
ATOM     89  C   UNL A   1      45.323  26.511  36.057  1.00  0.00     0.198 A 
ATOM     90  C   UNL A   1      46.673  28.271  35.137  1.00  0.00     0.198 A 
ATOM     91  F   UNL A   1      45.674  29.979  33.866  1.00  0.00    -0.203 F 
ATOM     92  F   UNL A   1      45.212  25.404  36.803  1.00  0.00    -0.200 F 
ATOM     93  C   UNL A   1      46.563  27.109  35.885  1.00  0.00     0.200 A 
ATOM     94  F   UNL A   1      47.872  28.843  34.960  1.00  0.00    -0.200 F 
ATOM     95  F   UNL A   1      47.653  26.568  36.448  1.00  0.00    -0.200 F 
ENDBRANCH  62  85
ENDBRANCH  36  37
ENDBRANCH  28  31
ENDBRANCH  26  27
ENDBRANCH  25  26
ENDBRANCH  24  25
ENDBRANCH  23  24
ENDBRANCH   1  23
TORSDOF 17
ENDMDL
