MODEL 1
REMARK VINA RESULT:      -8.5      0.000      0.000
REMARK SMILES NS(=O)(=O)c1ccc(-n2nc(NC(=O)NCCCCCCCCCCC(=O)NCCCCCCNC(=O)c3ccc(-c4c5nc(c(-c6c(F)c(F)c(F)c(F)c6F)c6ccc([nH]6)c(-c6c(F)c(F)c(F)c(F)c6F)c6nc(c(-c7c(F)c(F)c(F)c(F)c7F)c7ccc4[nH]7)C=C6)C=C5)cc3)cc2-c2ccccc2)cc1
REMARK SMILES IDX 23 1 22 2 21 3 20 4 19 5 18 6 17 7 16 8 15 9 12 10 13 11
REMARK SMILES IDX 14 13 11 15 9 16 10 17 102 18 101 19 8 20 5 21 6 22 110 23
REMARK SMILES IDX 7 24 109 25 2 26 3 27 4 28 1 29 103 32 104 33 108 34 105 35
REMARK SMILES IDX 107 36 106 37 24 38 25 39 26 40 27 41 28 42 29 44 30 45
REMARK SMILES IDX 31 46 32 47 33 48 34 49 35 50 36 51 37 53 38 54 39 55 100 56
REMARK SMILES IDX 40 57 99 58 41 59 42 60 43 61 93 62 44 63 98 64 92 65 94 66
REMARK SMILES IDX 45 67 97 68 91 69 90 70 46 72 78 73 58 74 77 75 59 76 62 77
REMARK SMILES IDX 76 78 95 79 60 80 61 81 75 83 96 84 63 85 47 86 48 87 56 88
REMARK SMILES IDX 49 89 50 90 54 91 57 92 51 93 52 94 55 95 53 96 79 97 80 98
REMARK SMILES IDX 88 99 81 100 82 101 86 102 89 103 83 104 84 105 87 106
REMARK SMILES IDX 85 107 64 108 65 109 73 110 66 111 67 112 71 113 74 114
REMARK SMILES IDX 68 115 69 116 72 117 70 118
REMARK H PARENT 12 12 15 14 1 30 1 31 28 43 35 52 94 71 62 82
REMARK Flexibility Score: inf
ROOT
ATOM      1  C   UNL A   1      42.823  34.251  31.203  1.00  0.00     0.001 C 
ENDROOT
BRANCH   1   2
ATOM      2  C   UNL A   1      43.285  35.388  30.284  1.00  0.00     0.000 C 
BRANCH   2   3
ATOM      3  C   UNL A   1      42.404  35.578  29.066  1.00  0.00     0.000 C 
BRANCH   3   4
ATOM      4  C   UNL A   1      42.933  34.890  27.813  1.00  0.00     0.000 C 
BRANCH   4   5
ATOM      5  C   UNL A   1      43.051  35.749  26.549  1.00  0.00     0.000 C 
BRANCH   5   6
ATOM      6  C   UNL A   1      42.604  37.210  26.669  1.00  0.00     0.002 C 
BRANCH   6   7
ATOM      7  C   UNL A   1      43.618  38.195  27.252  1.00  0.00     0.021 C 
BRANCH   7   8
ATOM      8  C   UNL A   1      43.179  39.648  27.333  1.00  0.00     0.117 C 
BRANCH   8   9
ATOM      9  N   UNL A   1      41.859  39.952  26.847  1.00  0.00    -0.338 N 
ATOM     10  N   UNL A   1      42.296  41.959  25.633  1.00  0.00    -0.291 N 
ATOM     11  C   UNL A   1      41.459  40.997  26.087  1.00  0.00     0.320 C 
ATOM     12  H   UNL A   1      41.841  42.801  25.405  1.00  0.00     0.173 HD
ATOM     13  O   UNL A   1      40.244  41.133  25.903  1.00  0.00    -0.248 OA
ATOM     14  H   UNL A   1      41.154  39.313  27.101  1.00  0.00     0.165 HD
BRANCH  10  15
ATOM     15  C   UNL A   1      43.661  41.993  25.429  1.00  0.00     0.157 A 
ATOM     16  N   UNL A   1      45.693  41.388  25.381  1.00  0.00    -0.231 N 
ATOM     17  N   UNL A   1      44.439  40.943  25.154  1.00  0.00    -0.149 NA
ATOM     18  C   UNL A   1      45.750  42.773  25.338  1.00  0.00     0.076 A 
ATOM     19  C   UNL A   1      44.432  43.182  25.427  1.00  0.00     0.078 A 
BRANCH  16  20
ATOM     20  C   UNL A   1      46.737  40.478  25.705  1.00  0.00     0.065 A 
ATOM     21  C   UNL A   1      48.779  38.692  26.352  1.00  0.00     0.082 A 
ATOM     22  C   UNL A   1      48.568  39.813  27.156  1.00  0.00     0.024 A 
ATOM     23  C   UNL A   1      47.975  38.455  25.231  1.00  0.00     0.024 A 
ATOM     24  C   UNL A   1      47.553  40.713  26.825  1.00  0.00     0.030 A 
ATOM     25  C   UNL A   1      46.934  39.337  24.921  1.00  0.00     0.030 A 
BRANCH  21  26
ATOM     26  S   UNL A   1      50.066  37.552  26.765  1.00  0.00     0.238 S 
ATOM     27  O   UNL A   1      50.390  36.766  25.589  1.00  0.00    -0.207 OA
ATOM     28  O   UNL A   1      49.765  36.959  28.037  1.00  0.00    -0.207 OA
BRANCH  26  29
ATOM     29  N   UNL A   1      51.398  38.549  27.002  1.00  0.00    -0.225 NA
ATOM     30  H   UNL A   1      51.835  38.326  27.896  1.00  0.00     0.137 HD
ATOM     31  H   UNL A   1      51.099  39.523  27.003  1.00  0.00     0.137 HD
ENDBRANCH  26  29
ENDBRANCH  21  26
ENDBRANCH  16  20
BRANCH  18  32
ATOM     32  C   UNL A   1      47.000  43.510  25.189  1.00  0.00     0.000 A 
ATOM     33  C   UNL A   1      47.547  44.156  26.312  1.00  0.00     0.010 A 
ATOM     34  C   UNL A   1      47.617  43.664  23.946  1.00  0.00     0.010 A 
ATOM     35  C   UNL A   1      48.659  44.983  26.186  1.00  0.00     0.001 A 
ATOM     36  C   UNL A   1      48.737  44.490  23.823  1.00  0.00     0.001 A 
ATOM     37  C   UNL A   1      49.249  45.155  24.939  1.00  0.00     0.000 A 
ENDBRANCH  18  32
ENDBRANCH  10  15
ENDBRANCH   8   9
ENDBRANCH   7   8
ENDBRANCH   6   7
ENDBRANCH   5   6
ENDBRANCH   4   5
ENDBRANCH   3   4
ENDBRANCH   2   3
ENDBRANCH   1   2
BRANCH   1  38
ATOM     38  C   UNL A   1      41.518  34.527  31.949  1.00  0.00     0.010 C 
BRANCH  38  39
ATOM     39  C   UNL A   1      41.433  34.002  33.384  1.00  0.00     0.100 C 
BRANCH  39  40
ATOM     40  C   UNL A   1      41.177  35.065  34.437  1.00  0.00     0.219 C 
ATOM     41  O   UNL A   1      42.092  35.788  34.833  1.00  0.00    -0.275 OA
ATOM     42  N   UNL A   1      39.933  35.269  34.952  1.00  0.00    -0.356 N 
ATOM     43  H   UNL A   1      39.872  36.012  35.595  1.00  0.00     0.163 HD
BRANCH  42  44
ATOM     44  C   UNL A   1      38.684  34.574  34.711  1.00  0.00     0.116 C 
BRANCH  44  45
ATOM     45  C   UNL A   1      38.735  33.132  35.231  1.00  0.00     0.021 C 
BRANCH  45  46
ATOM     46  C   UNL A   1      37.518  32.285  34.859  1.00  0.00     0.002 C 
BRANCH  46  47
ATOM     47  C   UNL A   1      37.115  32.323  33.379  1.00  0.00     0.002 C 
BRANCH  47  48
ATOM     48  C   UNL A   1      35.803  33.046  33.039  1.00  0.00     0.021 C 
BRANCH  48  49
ATOM     49  C   UNL A   1      35.992  34.349  32.277  1.00  0.00     0.116 C 
BRANCH  49  50
ATOM     50  N   UNL A   1      35.366  34.319  30.956  1.00  0.00    -0.352 N 
ATOM     51  C   UNL A   1      35.879  33.906  29.745  1.00  0.00     0.251 C 
ATOM     52  H   UNL A   1      34.437  34.641  30.927  1.00  0.00     0.163 HD
ATOM     53  O   UNL A   1      35.351  34.256  28.694  1.00  0.00    -0.269 OA
BRANCH  51  54
ATOM     54  C   UNL A   1      37.072  33.042  29.714  1.00  0.00     0.039 A 
ATOM     55  C   UNL A   1      38.351  33.568  29.914  1.00  0.00     0.014 A 
ATOM     56  C   UNL A   1      36.901  31.683  29.466  1.00  0.00     0.014 A 
ATOM     57  C   UNL A   1      39.440  32.701  29.923  1.00  0.00     0.010 A 
ATOM     58  C   UNL A   1      37.938  30.813  29.661  1.00  0.00     0.010 A 
ATOM     59  C   UNL A   1      39.219  31.318  29.809  1.00  0.00    -0.014 A 
BRANCH  59  60
ATOM     60  C   UNL A   1      40.313  30.367  29.945  1.00  0.00     0.031 A 
ATOM     61  C   UNL A   1      40.723  30.128  31.352  1.00  0.00     0.074 A 
ATOM     62  C   UNL A   1      40.758  29.606  28.922  1.00  0.00     0.049 A 
ATOM     63  N   UNL A   1      41.837  30.458  31.915  1.00  0.00    -0.248 NA
ATOM     64  C   UNL A   1      39.717  29.593  32.286  1.00  0.00     0.031 C 
ATOM     65  C   UNL A   1      40.211  29.489  27.564  1.00  0.00     0.029 A 
ATOM     66  N   UNL A   1      41.752  28.678  28.916  1.00  0.00    -0.354 N 
ATOM     67  C   UNL A   1      41.756  29.986  33.221  1.00  0.00     0.074 A 
ATOM     68  C   UNL A   1      40.375  29.654  33.446  1.00  0.00     0.031 C 
ATOM     69  C   UNL A   1      40.722  28.394  26.959  1.00  0.00     0.029 A 
ATOM     70  C   UNL A   1      41.755  27.834  27.811  1.00  0.00     0.049 A 
ATOM     71  H   UNL A   1      42.418  28.608  29.638  1.00  0.00     0.167 HD
ATOM     72  C   UNL A   1      42.886  29.655  33.906  1.00  0.00     0.037 A 
ATOM     73  C   UNL A   1      42.533  26.736  27.636  1.00  0.00     0.037 A 
ATOM     74  C   UNL A   1      44.051  30.234  33.280  1.00  0.00     0.049 A 
ATOM     75  C   UNL A   1      43.664  26.849  28.591  1.00  0.00     0.074 A 
ATOM     76  C   UNL A   1      44.455  31.521  32.974  1.00  0.00     0.029 A 
ATOM     77  N   UNL A   1      44.836  29.409  32.511  1.00  0.00    -0.354 N 
ATOM     78  N   UNL A   1      44.613  27.736  28.495  1.00  0.00    -0.248 NA
ATOM     79  C   UNL A   1      43.490  26.255  29.908  1.00  0.00     0.031 C 
ATOM     80  C   UNL A   1      45.094  31.415  31.703  1.00  0.00     0.029 A 
ATOM     81  C   UNL A   1      45.115  30.067  31.342  1.00  0.00     0.049 A 
ATOM     82  H   UNL A   1      45.144  28.507  32.757  1.00  0.00     0.167 HD
ATOM     83  C   UNL A   1      44.848  28.136  29.801  1.00  0.00     0.074 A 
ATOM     84  C   UNL A   1      44.198  27.125  30.633  1.00  0.00     0.031 C 
ATOM     85  C   UNL A   1      45.288  29.398  30.076  1.00  0.00     0.037 A 
BRANCH  72  86
ATOM     86  C   UNL A   1      42.991  28.490  34.869  1.00  0.00     0.064 A 
ATOM     87  C   UNL A   1      43.693  28.675  36.077  1.00  0.00     0.173 A 
ATOM     88  C   UNL A   1      42.721  27.145  34.529  1.00  0.00     0.173 A 
ATOM     89  F   UNL A   1      44.018  29.907  36.498  1.00  0.00    -0.203 F 
ATOM     90  C   UNL A   1      44.178  27.599  36.824  1.00  0.00     0.198 A 
ATOM     91  C   UNL A   1      43.157  26.075  35.308  1.00  0.00     0.198 A 
ATOM     92  F   UNL A   1      42.140  26.797  33.376  1.00  0.00    -0.203 F 
ATOM     93  F   UNL A   1      44.971  27.828  37.880  1.00  0.00    -0.200 F 
ATOM     94  C   UNL A   1      43.917  26.299  36.435  1.00  0.00     0.200 A 
ATOM     95  F   UNL A   1      42.919  24.820  34.900  1.00  0.00    -0.200 F 
ATOM     96  F   UNL A   1      44.444  25.267  37.107  1.00  0.00    -0.200 F 
ENDBRANCH  72  86
BRANCH  73  97
ATOM     97  C   UNL A   1      42.242  25.464  26.932  1.00  0.00     0.064 A 
ATOM     98  C   UNL A   1      43.027  25.058  25.838  1.00  0.00     0.173 A 
ATOM     99  C   UNL A   1      41.410  24.481  27.502  1.00  0.00     0.173 A 
ATOM    100  F   UNL A   1      43.870  25.923  25.255  1.00  0.00    -0.203 F 
ATOM    101  C   UNL A   1      43.023  23.737  25.380  1.00  0.00     0.198 A 
ATOM    102  C   UNL A   1      41.402  23.164  27.039  1.00  0.00     0.198 A 
ATOM    103  F   UNL A   1      40.668  24.753  28.586  1.00  0.00    -0.203 F 
ATOM    104  F   UNL A   1      43.848  23.372  24.388  1.00  0.00    -0.200 F 
ATOM    105  C   UNL A   1      42.224  22.788  25.991  1.00  0.00     0.200 A 
ATOM    106  F   UNL A   1      40.650  22.245  27.660  1.00  0.00    -0.200 F 
ATOM    107  F   UNL A   1      42.276  21.505  25.604  1.00  0.00    -0.200 F 
ENDBRANCH  73  97
BRANCH  85 108
ATOM    108  C   UNL A   1      45.796  30.227  28.929  1.00  0.00     0.064 A 
ATOM    109  C   UNL A   1      44.997  31.072  28.138  1.00  0.00     0.173 A 
ATOM    110  C   UNL A   1      47.180  30.258  28.707  1.00  0.00     0.173 A 
ATOM    111  F   UNL A   1      43.679  31.177  28.349  1.00  0.00    -0.203 F 
ATOM    112  C   UNL A   1      45.558  31.870  27.141  1.00  0.00     0.198 A 
ATOM    113  C   UNL A   1      47.740  31.085  27.738  1.00  0.00     0.198 A 
ATOM    114  F   UNL A   1      47.997  29.510  29.464  1.00  0.00    -0.203 F 
ATOM    115  F   UNL A   1      44.773  32.654  26.384  1.00  0.00    -0.200 F 
ATOM    116  C   UNL A   1      46.929  31.882  26.947  1.00  0.00     0.200 A 
ATOM    117  F   UNL A   1      49.071  31.125  27.589  1.00  0.00    -0.200 F 
ATOM    118  F   UNL A   1      47.473  32.676  26.015  1.00  0.00    -0.200 F 
ENDBRANCH  85 108
ENDBRANCH  59  60
ENDBRANCH  51  54
ENDBRANCH  49  50
ENDBRANCH  48  49
ENDBRANCH  47  48
ENDBRANCH  46  47
ENDBRANCH  45  46
ENDBRANCH  44  45
ENDBRANCH  42  44
ENDBRANCH  39  40
ENDBRANCH  38  39
ENDBRANCH   1  38
TORSDOF 28
ENDMDL
MODEL 2
REMARK VINA RESULT:      -8.4      1.596      2.215
REMARK SMILES NS(=O)(=O)c1ccc(-n2nc(NC(=O)NCCCCCCCCCCC(=O)NCCCCCCNC(=O)c3ccc(-c4c5nc(c(-c6c(F)c(F)c(F)c(F)c6F)c6ccc([nH]6)c(-c6c(F)c(F)c(F)c(F)c6F)c6nc(c(-c7c(F)c(F)c(F)c(F)c7F)c7ccc4[nH]7)C=C6)C=C5)cc3)cc2-c2ccccc2)cc1
REMARK SMILES IDX 23 1 22 2 21 3 20 4 19 5 18 6 17 7 16 8 15 9 12 10 13 11
REMARK SMILES IDX 14 13 11 15 9 16 10 17 102 18 101 19 8 20 5 21 6 22 110 23
REMARK SMILES IDX 7 24 109 25 2 26 3 27 4 28 1 29 103 32 104 33 108 34 105 35
REMARK SMILES IDX 107 36 106 37 24 38 25 39 26 40 27 41 28 42 29 44 30 45
REMARK SMILES IDX 31 46 32 47 33 48 34 49 35 50 36 51 37 53 38 54 39 55 100 56
REMARK SMILES IDX 40 57 99 58 41 59 42 60 43 61 93 62 44 63 98 64 92 65 94 66
REMARK SMILES IDX 45 67 97 68 91 69 90 70 46 72 78 73 58 74 77 75 59 76 62 77
REMARK SMILES IDX 76 78 95 79 60 80 61 81 75 83 96 84 63 85 47 86 48 87 56 88
REMARK SMILES IDX 49 89 50 90 54 91 57 92 51 93 52 94 55 95 53 96 79 97 80 98
REMARK SMILES IDX 88 99 81 100 82 101 86 102 89 103 83 104 84 105 87 106
REMARK SMILES IDX 85 107 64 108 65 109 73 110 66 111 67 112 71 113 74 114
REMARK SMILES IDX 68 115 69 116 72 117 70 118
REMARK H PARENT 12 12 15 14 1 30 1 31 28 43 35 52 94 71 62 82
REMARK Flexibility Score: inf
ROOT
ATOM      1  C   UNL A   1      42.774  34.261  31.176  1.00  0.00     0.001 C 
ENDROOT
BRANCH   1   2
ATOM      2  C   UNL A   1      43.288  35.430  30.329  1.00  0.00     0.000 C 
BRANCH   2   3
ATOM      3  C   UNL A   1      42.450  35.700  29.096  1.00  0.00     0.000 C 
BRANCH   3   4
ATOM      4  C   UNL A   1      42.959  34.999  27.842  1.00  0.00     0.000 C 
BRANCH   4   5
ATOM      5  C   UNL A   1      43.047  35.842  26.565  1.00  0.00     0.000 C 
BRANCH   5   6
ATOM      6  C   UNL A   1      42.597  37.303  26.676  1.00  0.00     0.002 C 
BRANCH   6   7
ATOM      7  C   UNL A   1      43.674  38.331  27.020  1.00  0.00     0.021 C 
BRANCH   7   8
ATOM      8  C   UNL A   1      43.237  39.788  27.043  1.00  0.00     0.117 C 
BRANCH   8   9
ATOM      9  N   UNL A   1      41.852  40.049  26.749  1.00  0.00    -0.338 N 
ATOM     10  N   UNL A   1      42.053  42.051  25.465  1.00  0.00    -0.291 N 
ATOM     11  C   UNL A   1      41.318  41.073  26.045  1.00  0.00     0.320 C 
ATOM     12  H   UNL A   1      41.547  42.878  25.297  1.00  0.00     0.173 HD
ATOM     13  O   UNL A   1      40.086  41.175  26.036  1.00  0.00    -0.248 OA
ATOM     14  H   UNL A   1      41.209  39.396  27.109  1.00  0.00     0.165 HD
BRANCH  10  15
ATOM     15  C   UNL A   1      43.373  42.118  25.066  1.00  0.00     0.157 A 
ATOM     16  N   UNL A   1      45.476  42.378  25.143  1.00  0.00    -0.231 N 
ATOM     17  N   UNL A   1      44.437  41.858  25.830  1.00  0.00    -0.149 NA
ATOM     18  C   UNL A   1      45.165  42.532  23.801  1.00  0.00     0.076 A 
ATOM     19  C   UNL A   1      43.787  42.421  23.745  1.00  0.00     0.078 A 
BRANCH  16  20
ATOM     20  C   UNL A   1      46.666  42.771  25.816  1.00  0.00     0.065 A 
ATOM     21  C   UNL A   1      48.993  43.552  27.141  1.00  0.00     0.082 A 
ATOM     22  C   UNL A   1      48.379  44.437  26.253  1.00  0.00     0.024 A 
ATOM     23  C   UNL A   1      48.451  42.284  27.375  1.00  0.00     0.024 A 
ATOM     24  C   UNL A   1      47.221  44.041  25.581  1.00  0.00     0.030 A 
ATOM     25  C   UNL A   1      47.269  41.901  26.730  1.00  0.00     0.030 A 
BRANCH  21  26
ATOM     26  S   UNL A   1      50.463  44.048  27.990  1.00  0.00     0.238 S 
ATOM     27  O   UNL A   1      51.176  42.860  28.422  1.00  0.00    -0.207 OA
ATOM     28  O   UNL A   1      50.139  45.127  28.880  1.00  0.00    -0.207 OA
BRANCH  26  29
ATOM     29  N   UNL A   1      51.410  44.702  26.765  1.00  0.00    -0.225 NA
ATOM     30  H   UNL A   1      50.810  45.010  26.000  1.00  0.00     0.137 HD
ATOM     31  H   UNL A   1      52.062  43.997  26.424  1.00  0.00     0.137 HD
ENDBRANCH  26  29
ENDBRANCH  21  26
ENDBRANCH  16  20
BRANCH  18  32
ATOM     32  C   UNL A   1      46.177  42.724  22.769  1.00  0.00     0.000 A 
ATOM     33  C   UNL A   1      46.304  43.989  22.167  1.00  0.00     0.010 A 
ATOM     34  C   UNL A   1      46.959  41.665  22.303  1.00  0.00     0.010 A 
ATOM     35  C   UNL A   1      47.159  44.180  21.086  1.00  0.00     0.001 A 
ATOM     36  C   UNL A   1      47.820  41.861  21.220  1.00  0.00     0.001 A 
ATOM     37  C   UNL A   1      47.912  43.113  20.608  1.00  0.00     0.000 A 
ENDBRANCH  18  32
ENDBRANCH  10  15
ENDBRANCH   8   9
ENDBRANCH   7   8
ENDBRANCH   6   7
ENDBRANCH   5   6
ENDBRANCH   4   5
ENDBRANCH   3   4
ENDBRANCH   2   3
ENDBRANCH   1   2
BRANCH   1  38
ATOM     38  C   UNL A   1      41.423  34.507  31.847  1.00  0.00     0.010 C 
BRANCH  38  39
ATOM     39  C   UNL A   1      41.211  33.842  33.208  1.00  0.00     0.100 C 
BRANCH  39  40
ATOM     40  C   UNL A   1      40.925  34.802  34.348  1.00  0.00     0.219 C 
ATOM     41  O   UNL A   1      41.838  35.439  34.877  1.00  0.00    -0.275 OA
ATOM     42  N   UNL A   1      39.658  35.010  34.801  1.00  0.00    -0.356 N 
ATOM     43  H   UNL A   1      39.582  35.685  35.513  1.00  0.00     0.163 HD
BRANCH  42  44
ATOM     44  C   UNL A   1      38.402  34.402  34.409  1.00  0.00     0.116 C 
BRANCH  44  45
ATOM     45  C   UNL A   1      38.320  32.940  34.866  1.00  0.00     0.021 C 
BRANCH  45  46
ATOM     46  C   UNL A   1      37.030  32.226  34.462  1.00  0.00     0.002 C 
BRANCH  46  47
ATOM     47  C   UNL A   1      36.636  32.359  32.985  1.00  0.00     0.002 C 
BRANCH  47  48
ATOM     48  C   UNL A   1      35.348  33.141  32.683  1.00  0.00     0.021 C 
BRANCH  48  49
ATOM     49  C   UNL A   1      35.577  34.453  31.949  1.00  0.00     0.116 C 
BRANCH  49  50
ATOM     50  N   UNL A   1      35.038  34.433  30.589  1.00  0.00    -0.352 N 
ATOM     51  C   UNL A   1      35.618  34.000  29.416  1.00  0.00     0.251 C 
ATOM     52  H   UNL A   1      34.122  34.782  30.498  1.00  0.00     0.163 HD
ATOM     53  O   UNL A   1      35.170  34.359  28.331  1.00  0.00    -0.269 OA
BRANCH  51  54
ATOM     54  C   UNL A   1      36.785  33.103  29.467  1.00  0.00     0.039 A 
ATOM     55  C   UNL A   1      38.063  33.594  29.749  1.00  0.00     0.014 A 
ATOM     56  C   UNL A   1      36.592  31.748  29.212  1.00  0.00     0.014 A 
ATOM     57  C   UNL A   1      39.124  32.696  29.833  1.00  0.00     0.010 A 
ATOM     58  C   UNL A   1      37.590  30.850  29.478  1.00  0.00     0.010 A 
ATOM     59  C   UNL A   1      38.872  31.320  29.709  1.00  0.00    -0.014 A 
BRANCH  59  60
ATOM     60  C   UNL A   1      39.927  30.340  29.919  1.00  0.00     0.031 A 
ATOM     61  C   UNL A   1      40.234  30.093  31.351  1.00  0.00     0.074 A 
ATOM     62  C   UNL A   1      40.419  29.563  28.930  1.00  0.00     0.049 A 
ATOM     63  N   UNL A   1      41.316  30.393  31.988  1.00  0.00    -0.248 NA
ATOM     64  C   UNL A   1      39.153  29.589  32.216  1.00  0.00     0.031 C 
ATOM     65  C   UNL A   1      39.962  29.458  27.538  1.00  0.00     0.029 A 
ATOM     66  N   UNL A   1      41.385  28.608  28.992  1.00  0.00    -0.354 N 
ATOM     67  C   UNL A   1      41.134  29.929  33.286  1.00  0.00     0.074 A 
ATOM     68  C   UNL A   1      39.732  29.635  33.417  1.00  0.00     0.031 C 
ATOM     69  C   UNL A   1      40.483  28.347  26.970  1.00  0.00     0.029 A 
ATOM     70  C   UNL A   1      41.439  27.761  27.890  1.00  0.00     0.049 A 
ATOM     71  H   UNL A   1      41.998  28.522  29.757  1.00  0.00     0.167 HD
ATOM     72  C   UNL A   1      42.205  29.568  34.047  1.00  0.00     0.037 A 
ATOM     73  C   UNL A   1      42.197  26.641  27.770  1.00  0.00     0.037 A 
ATOM     74  C   UNL A   1      43.425  30.113  33.500  1.00  0.00     0.049 A 
ATOM     75  C   UNL A   1      43.263  26.726  28.799  1.00  0.00     0.074 A 
ATOM     76  C   UNL A   1      43.885  31.387  33.221  1.00  0.00     0.029 A 
ATOM     77  N   UNL A   1      44.237  29.264  32.788  1.00  0.00    -0.354 N 
ATOM     78  N   UNL A   1      44.241  27.586  28.767  1.00  0.00    -0.248 NA
ATOM     79  C   UNL A   1      42.984  26.141  30.102  1.00  0.00     0.031 C 
ATOM     80  C   UNL A   1      44.606  31.260  31.996  1.00  0.00     0.029 A 
ATOM     81  C   UNL A   1      44.613  29.911  31.639  1.00  0.00     0.049 A 
ATOM     82  H   UNL A   1      44.503  28.355  33.054  1.00  0.00     0.167 HD
ATOM     83  C   UNL A   1      44.398  27.983  30.086  1.00  0.00     0.074 A 
ATOM     84  C   UNL A   1      43.664  26.993  30.872  1.00  0.00     0.031 C 
ATOM     85  C   UNL A   1      44.853  29.234  30.388  1.00  0.00     0.037 A 
BRANCH  72  86
ATOM     86  C   UNL A   1      42.212  28.403  35.016  1.00  0.00     0.064 A 
ATOM     87  C   UNL A   1      42.997  28.502  36.182  1.00  0.00     0.173 A 
ATOM     88  C   UNL A   1      41.753  27.102  34.706  1.00  0.00     0.173 A 
ATOM     89  F   UNL A   1      43.500  29.683  36.571  1.00  0.00    -0.203 F 
ATOM     90  C   UNL A   1      43.380  27.375  36.914  1.00  0.00     0.198 A 
ATOM     91  C   UNL A   1      42.090  25.989  35.472  1.00  0.00     0.198 A 
ATOM     92  F   UNL A   1      41.071  26.827  33.590  1.00  0.00    -0.203 F 
ATOM     93  F   UNL A   1      44.252  27.504  37.923  1.00  0.00    -0.200 F 
ATOM     94  C   UNL A   1      42.934  26.118  36.554  1.00  0.00     0.200 A 
ATOM     95  F   UNL A   1      41.672  24.773  35.091  1.00  0.00    -0.200 F 
ATOM     96  F   UNL A   1      43.360  25.030  37.208  1.00  0.00    -0.200 F 
ENDBRANCH  72  86
BRANCH  73  97
ATOM     97  C   UNL A   1      41.919  25.376  27.049  1.00  0.00     0.064 A 
ATOM     98  C   UNL A   1      42.812  24.900  26.072  1.00  0.00     0.173 A 
ATOM     99  C   UNL A   1      40.959  24.458  27.518  1.00  0.00     0.173 A 
ATOM    100  F   UNL A   1      43.777  25.699  25.595  1.00  0.00    -0.203 F 
ATOM    101  C   UNL A   1      42.783  23.573  25.633  1.00  0.00     0.198 A 
ATOM    102  C   UNL A   1      40.927  23.135  27.073  1.00  0.00     0.198 A 
ATOM    103  F   UNL A   1      40.101  24.798  28.491  1.00  0.00    -0.203 F 
ATOM    104  F   UNL A   1      43.704  23.137  24.762  1.00  0.00    -0.200 F 
ATOM    105  C   UNL A   1      41.851  22.687  26.146  1.00  0.00     0.200 A 
ATOM    106  F   UNL A   1      40.043  22.277  27.601  1.00  0.00    -0.200 F 
ATOM    107  F   UNL A   1      41.872  21.397  25.785  1.00  0.00    -0.200 F 
ENDBRANCH  73  97
BRANCH  85 108
ATOM    108  C   UNL A   1      45.461  30.045  29.277  1.00  0.00     0.064 A 
ATOM    109  C   UNL A   1      46.800  29.949  28.858  1.00  0.00     0.173 A 
ATOM    110  C   UNL A   1      44.608  30.864  28.525  1.00  0.00     0.173 A 
ATOM    111  F   UNL A   1      47.657  29.116  29.461  1.00  0.00    -0.203 F 
ATOM    112  C   UNL A   1      47.268  30.680  27.767  1.00  0.00     0.198 A 
ATOM    113  C   UNL A   1      45.070  31.561  27.412  1.00  0.00     0.198 A 
ATOM    114  F   UNL A   1      43.309  30.957  28.847  1.00  0.00    -0.203 F 
ATOM    115  F   UNL A   1      48.556  30.588  27.398  1.00  0.00    -0.200 F 
ATOM    116  C   UNL A   1      46.401  31.479  27.040  1.00  0.00     0.200 A 
ATOM    117  F   UNL A   1      44.215  32.295  26.687  1.00  0.00    -0.200 F 
ATOM    118  F   UNL A   1      46.842  32.152  25.968  1.00  0.00    -0.200 F 
ENDBRANCH  85 108
ENDBRANCH  59  60
ENDBRANCH  51  54
ENDBRANCH  49  50
ENDBRANCH  48  49
ENDBRANCH  47  48
ENDBRANCH  46  47
ENDBRANCH  45  46
ENDBRANCH  44  45
ENDBRANCH  42  44
ENDBRANCH  39  40
ENDBRANCH  38  39
ENDBRANCH   1  38
TORSDOF 28
ENDMDL
MODEL 3
REMARK VINA RESULT:      -8.2      6.612     14.652
REMARK SMILES NS(=O)(=O)c1ccc(-n2nc(NC(=O)NCCCCCCCCCCC(=O)NCCCCCCNC(=O)c3ccc(-c4c5nc(c(-c6c(F)c(F)c(F)c(F)c6F)c6ccc([nH]6)c(-c6c(F)c(F)c(F)c(F)c6F)c6nc(c(-c7c(F)c(F)c(F)c(F)c7F)c7ccc4[nH]7)C=C6)C=C5)cc3)cc2-c2ccccc2)cc1
REMARK SMILES IDX 23 1 22 2 21 3 20 4 19 5 18 6 17 7 16 8 15 9 12 10 13 11
REMARK SMILES IDX 14 13 11 15 9 16 10 17 102 18 101 19 8 20 5 21 6 22 110 23
REMARK SMILES IDX 7 24 109 25 2 26 3 27 4 28 1 29 103 32 104 33 108 34 105 35
REMARK SMILES IDX 107 36 106 37 24 38 25 39 26 40 27 41 28 42 29 44 30 45
REMARK SMILES IDX 31 46 32 47 33 48 34 49 35 50 36 51 37 53 38 54 39 55 100 56
REMARK SMILES IDX 40 57 99 58 41 59 42 60 43 61 93 62 44 63 98 64 92 65 94 66
REMARK SMILES IDX 45 67 97 68 91 69 90 70 46 72 78 73 58 74 77 75 59 76 62 77
REMARK SMILES IDX 76 78 95 79 60 80 61 81 75 83 96 84 63 85 47 86 48 87 56 88
REMARK SMILES IDX 49 89 50 90 54 91 57 92 51 93 52 94 55 95 53 96 79 97 80 98
REMARK SMILES IDX 88 99 81 100 82 101 86 102 89 103 83 104 84 105 87 106
REMARK SMILES IDX 85 107 64 108 65 109 73 110 66 111 67 112 71 113 74 114
REMARK SMILES IDX 68 115 69 116 72 117 70 118
REMARK H PARENT 12 12 15 14 1 30 1 31 28 43 35 52 94 71 62 82
REMARK Flexibility Score: inf
ROOT
ATOM      1  C   UNL A   1      43.913  23.778  33.330  1.00  0.00     0.001 C 
ENDROOT
BRANCH   1   2
ATOM      2  C   UNL A   1      44.974  22.803  33.855  1.00  0.00     0.000 C 
BRANCH   2   3
ATOM      3  C   UNL A   1      46.252  23.482  34.303  1.00  0.00     0.000 C 
BRANCH   3   4
ATOM      4  C   UNL A   1      47.017  22.709  35.369  1.00  0.00     0.000 C 
BRANCH   4   5
ATOM      5  C   UNL A   1      48.532  22.930  35.433  1.00  0.00     0.000 C 
BRANCH   5   6
ATOM      6  C   UNL A   1      49.159  23.717  34.276  1.00  0.00     0.002 C 
BRANCH   6   7
ATOM      7  C   UNL A   1      50.368  23.084  33.588  1.00  0.00     0.021 C 
BRANCH   7   8
ATOM      8  C   UNL A   1      50.467  21.568  33.655  1.00  0.00     0.117 C 
BRANCH   8   9
ATOM      9  N   UNL A   1      51.556  20.960  32.936  1.00  0.00    -0.338 N 
ATOM     10  N   UNL A   1      53.189  20.809  34.669  1.00  0.00    -0.291 N 
ATOM     11  C   UNL A   1      52.785  20.625  33.390  1.00  0.00     0.320 C 
ATOM     12  H   UNL A   1      54.166  20.848  34.773  1.00  0.00     0.173 HD
ATOM     13  O   UNL A   1      53.613  20.240  32.558  1.00  0.00    -0.248 OA
ATOM     14  H   UNL A   1      51.383  20.762  31.986  1.00  0.00     0.165 HD
BRANCH  10  15
ATOM     15  C   UNL A   1      52.500  20.955  35.857  1.00  0.00     0.157 A 
ATOM     16  N   UNL A   1      51.080  20.635  37.399  1.00  0.00    -0.231 N 
ATOM     17  N   UNL A   1      51.876  19.982  36.526  1.00  0.00    -0.149 NA
ATOM     18  C   UNL A   1      51.521  21.932  37.609  1.00  0.00     0.076 A 
ATOM     19  C   UNL A   1      52.407  22.174  36.575  1.00  0.00     0.078 A 
BRANCH  16  20
ATOM     20  C   UNL A   1      49.908  20.015  37.914  1.00  0.00     0.065 A 
ATOM     21  C   UNL A   1      47.609  18.809  38.935  1.00  0.00     0.082 A 
ATOM     22  C   UNL A   1      48.765  18.854  39.716  1.00  0.00     0.024 A 
ATOM     23  C   UNL A   1      47.592  19.365  37.651  1.00  0.00     0.024 A 
ATOM     24  C   UNL A   1      49.919  19.447  39.200  1.00  0.00     0.030 A 
ATOM     25  C   UNL A   1      48.737  19.993  37.148  1.00  0.00     0.030 A 
BRANCH  21  26
ATOM     26  S   UNL A   1      46.147  18.053  39.583  1.00  0.00     0.238 S 
ATOM     27  O   UNL A   1      45.494  18.991  40.477  1.00  0.00    -0.207 OA
ATOM     28  O   UNL A   1      46.456  16.703  39.961  1.00  0.00    -0.207 OA
BRANCH  26  29
ATOM     29  N   UNL A   1      45.140  17.957  38.241  1.00  0.00    -0.225 NA
ATOM     30  H   UNL A   1      45.066  16.986  37.940  1.00  0.00     0.137 HD
ATOM     31  H   UNL A   1      45.526  18.520  37.483  1.00  0.00     0.137 HD
ENDBRANCH  26  29
ENDBRANCH  21  26
ENDBRANCH  16  20
BRANCH  18  32
ATOM     32  C   UNL A   1      51.091  22.742  38.744  1.00  0.00     0.000 A 
ATOM     33  C   UNL A   1      49.911  23.498  38.631  1.00  0.00     0.010 A 
ATOM     34  C   UNL A   1      51.866  22.855  39.900  1.00  0.00     0.010 A 
ATOM     35  C   UNL A   1      49.538  24.389  39.633  1.00  0.00     0.001 A 
ATOM     36  C   UNL A   1      51.486  23.747  40.906  1.00  0.00     0.001 A 
ATOM     37  C   UNL A   1      50.331  24.518  40.768  1.00  0.00     0.000 A 
ENDBRANCH  18  32
ENDBRANCH  10  15
ENDBRANCH   8   9
ENDBRANCH   7   8
ENDBRANCH   6   7
ENDBRANCH   5   6
ENDBRANCH   4   5
ENDBRANCH   3   4
ENDBRANCH   2   3
ENDBRANCH   1   2
BRANCH   1  38
ATOM     38  C   UNL A   1      43.464  24.833  34.340  1.00  0.00     0.010 C 
BRANCH  38  39
ATOM     39  C   UNL A   1      42.899  24.310  35.662  1.00  0.00     0.100 C 
BRANCH  39  40
ATOM     40  C   UNL A   1      42.708  25.366  36.735  1.00  0.00     0.219 C 
ATOM     41  O   UNL A   1      41.751  26.140  36.691  1.00  0.00    -0.275 OA
ATOM     42  N   UNL A   1      43.567  25.473  37.787  1.00  0.00    -0.356 N 
ATOM     43  H   UNL A   1      43.324  26.163  38.446  1.00  0.00     0.163 HD
BRANCH  42  44
ATOM     44  C   UNL A   1      44.778  24.740  38.098  1.00  0.00     0.116 C 
BRANCH  44  45
ATOM     45  C   UNL A   1      46.018  25.440  37.528  1.00  0.00     0.021 C 
BRANCH  45  46
ATOM     46  C   UNL A   1      46.187  26.890  37.982  1.00  0.00     0.002 C 
BRANCH  46  47
ATOM     47  C   UNL A   1      47.232  27.121  39.082  1.00  0.00     0.002 C 
BRANCH  47  48
ATOM     48  C   UNL A   1      48.523  27.843  38.667  1.00  0.00     0.021 C 
BRANCH  48  49
ATOM     49  C   UNL A   1      48.566  28.240  37.199  1.00  0.00     0.116 C 
BRANCH  49  50
ATOM     50  N   UNL A   1      49.798  27.808  36.540  1.00  0.00    -0.352 N 
ATOM     51  C   UNL A   1      49.983  27.249  35.293  1.00  0.00     0.251 C 
ATOM     52  H   UNL A   1      50.619  27.935  37.066  1.00  0.00     0.163 HD
ATOM     53  O   UNL A   1      51.017  26.643  35.031  1.00  0.00    -0.269 OA
BRANCH  51  54
ATOM     54  C   UNL A   1      48.931  27.381  34.271  1.00  0.00     0.039 A 
ATOM     55  C   UNL A   1      47.657  26.843  34.472  1.00  0.00     0.014 A 
ATOM     56  C   UNL A   1      49.236  28.044  33.086  1.00  0.00     0.014 A 
ATOM     57  C   UNL A   1      46.683  27.037  33.495  1.00  0.00     0.010 A 
ATOM     58  C   UNL A   1      48.238  28.395  32.218  1.00  0.00     0.010 A 
ATOM     59  C   UNL A   1      46.983  27.829  32.375  1.00  0.00    -0.014 A 
BRANCH  59  60
ATOM     60  C   UNL A   1      45.959  28.167  31.396  1.00  0.00     0.031 A 
ATOM     61  C   UNL A   1      46.008  27.330  30.170  1.00  0.00     0.074 A 
ATOM     62  C   UNL A   1      44.927  28.995  31.665  1.00  0.00     0.049 A 
ATOM     63  N   UNL A   1      46.317  27.703  28.973  1.00  0.00    -0.248 NA
ATOM     64  C   UNL A   1      45.842  25.874  30.317  1.00  0.00     0.031 C 
ATOM     65  C   UNL A   1      44.565  29.618  32.945  1.00  0.00     0.029 A 
ATOM     66  N   UNL A   1      43.906  29.380  30.855  1.00  0.00    -0.354 N 
ATOM     67  C   UNL A   1      46.181  26.571  28.176  1.00  0.00     0.074 A 
ATOM     68  C   UNL A   1      46.090  25.452  29.076  1.00  0.00     0.031 C 
ATOM     69  C   UNL A   1      43.302  30.094  32.878  1.00  0.00     0.029 A 
ATOM     70  C   UNL A   1      42.832  29.971  31.512  1.00  0.00     0.049 A 
ATOM     71  H   UNL A   1      43.924  29.251  29.879  1.00  0.00     0.167 HD
ATOM     72  C   UNL A   1      45.880  26.691  26.854  1.00  0.00     0.037 A 
ATOM     73  C   UNL A   1      41.633  30.299  30.965  1.00  0.00     0.037 A 
ATOM     74  C   UNL A   1      46.141  28.033  26.390  1.00  0.00     0.049 A 
ATOM     75  C   UNL A   1      41.823  30.338  29.494  1.00  0.00     0.074 A 
ATOM     76  C   UNL A   1      47.257  28.848  26.345  1.00  0.00     0.029 A 
ATOM     77  N   UNL A   1      45.065  28.872  26.232  1.00  0.00    -0.354 N 
ATOM     78  N   UNL A   1      42.534  31.237  28.874  1.00  0.00    -0.248 NA
ATOM     79  C   UNL A   1      41.584  29.108  28.754  1.00  0.00     0.031 C 
ATOM     80  C   UNL A   1      46.774  30.153  26.659  1.00  0.00     0.029 A 
ATOM     81  C   UNL A   1      45.388  30.077  26.800  1.00  0.00     0.049 A 
ATOM     82  H   UNL A   1      44.215  28.649  25.790  1.00  0.00     0.167 HD
ATOM     83  C   UNL A   1      43.197  30.532  27.882  1.00  0.00     0.074 A 
ATOM     84  C   UNL A   1      42.503  29.249  27.796  1.00  0.00     0.031 C 
ATOM     85  C   UNL A   1      44.423  30.938  27.438  1.00  0.00     0.037 A 
BRANCH  72  86
ATOM     86  C   UNL A   1      44.971  25.745  26.095  1.00  0.00     0.064 A 
ATOM     87  C   UNL A   1      43.631  25.615  26.516  1.00  0.00     0.173 A 
ATOM     88  C   UNL A   1      45.421  24.745  25.203  1.00  0.00     0.173 A 
ATOM     89  F   UNL A   1      43.095  26.497  27.373  1.00  0.00    -0.203 F 
ATOM     90  C   UNL A   1      42.846  24.517  26.159  1.00  0.00     0.198 A 
ATOM     91  C   UNL A   1      44.615  23.681  24.803  1.00  0.00     0.198 A 
ATOM     92  F   UNL A   1      46.687  24.677  24.780  1.00  0.00    -0.203 F 
ATOM     93  F   UNL A   1      41.633  24.361  26.708  1.00  0.00    -0.200 F 
ATOM     94  C   UNL A   1      43.341  23.546  25.309  1.00  0.00     0.200 A 
ATOM     95  F   UNL A   1      45.121  22.734  24.001  1.00  0.00    -0.200 F 
ATOM     96  F   UNL A   1      42.617  22.455  25.025  1.00  0.00    -0.200 F 
ENDBRANCH  72  86
BRANCH  73  97
ATOM     97  C   UNL A   1      40.279  30.299  31.568  1.00  0.00     0.064 A 
ATOM     98  C   UNL A   1      39.443  31.423  31.445  1.00  0.00     0.173 A 
ATOM     99  C   UNL A   1      39.663  29.105  31.992  1.00  0.00     0.173 A 
ATOM    100  F   UNL A   1      39.942  32.591  31.018  1.00  0.00    -0.203 F 
ATOM    101  C   UNL A   1      38.065  31.344  31.676  1.00  0.00     0.198 A 
ATOM    102  C   UNL A   1      38.289  29.030  32.229  1.00  0.00     0.198 A 
ATOM    103  F   UNL A   1      40.363  27.965  32.083  1.00  0.00    -0.203 F 
ATOM    104  F   UNL A   1      37.290  32.418  31.467  1.00  0.00    -0.200 F 
ATOM    105  C   UNL A   1      37.488  30.144  32.052  1.00  0.00     0.200 A 
ATOM    106  F   UNL A   1      37.734  27.855  32.559  1.00  0.00    -0.200 F 
ATOM    107  F   UNL A   1      36.159  30.048  32.198  1.00  0.00    -0.200 F 
ENDBRANCH  73  97
BRANCH  85 108
ATOM    108  C   UNL A   1      44.886  32.316  27.825  1.00  0.00     0.064 A 
ATOM    109  C   UNL A   1      45.679  32.606  28.949  1.00  0.00     0.173 A 
ATOM    110  C   UNL A   1      44.614  33.369  26.941  1.00  0.00     0.173 A 
ATOM    111  F   UNL A   1      46.066  31.640  29.792  1.00  0.00    -0.203 F 
ATOM    112  C   UNL A   1      46.134  33.901  29.197  1.00  0.00     0.198 A 
ATOM    113  C   UNL A   1      45.103  34.651  27.170  1.00  0.00     0.198 A 
ATOM    114  F   UNL A   1      43.903  33.142  25.825  1.00  0.00    -0.203 F 
ATOM    115  F   UNL A   1      46.873  34.157  30.287  1.00  0.00    -0.200 F 
ATOM    116  C   UNL A   1      45.853  34.920  28.303  1.00  0.00     0.200 A 
ATOM    117  F   UNL A   1      44.866  35.621  26.277  1.00  0.00    -0.200 F 
ATOM    118  F   UNL A   1      46.322  36.156  28.520  1.00  0.00    -0.200 F 
ENDBRANCH  85 108
ENDBRANCH  59  60
ENDBRANCH  51  54
ENDBRANCH  49  50
ENDBRANCH  48  49
ENDBRANCH  47  48
ENDBRANCH  46  47
ENDBRANCH  45  46
ENDBRANCH  44  45
ENDBRANCH  42  44
ENDBRANCH  39  40
ENDBRANCH  38  39
ENDBRANCH   1  38
TORSDOF 28
ENDMDL
