MODEL 1
REMARK VINA RESULT:     -13.0      0.000      0.000
REMARK SMILES C[C@]12C[C@@H]3C[C@](C)(C1)C[C@@](NC(=O)CC(=O)NCCCCCCNC(=O)c1ccc(-c4c5nc(c(-c6c(F)c(F)c(F)c(F)c6F)c6ccc([nH]6)c(-c6c(F)c(F)c(F)c(F)c6F)c6nc(c(-c7c(F)c(F)c(F)c(F)c7F)c7ccc4[nH]7)C=C6)C=C5)cc1)(C3)C2
REMARK SMILES IDX 20 1 19 2 18 3 17 4 15 5 16 6 14 8 12 9 11 10 13 12 10 13
REMARK SMILES IDX 7 14 6 15 5 16 9 17 8 18 4 19 2 20 90 21 3 22 91 23 1 24
REMARK SMILES IDX 21 25 22 26 23 27 24 28 25 29 26 31 27 32 28 33 89 34 29 35
REMARK SMILES IDX 88 36 30 37 31 38 32 39 82 40 33 41 87 42 81 43 83 44 34 45
REMARK SMILES IDX 86 46 80 47 79 48 35 50 67 51 47 52 66 53 48 54 51 55 65 56
REMARK SMILES IDX 84 57 49 58 50 59 64 61 85 62 52 63 36 64 37 65 45 66 38 67
REMARK SMILES IDX 39 68 43 69 46 70 40 71 41 72 44 73 42 74 68 75 69 76 77 77
REMARK SMILES IDX 70 78 71 79 75 80 78 81 72 82 73 83 76 84 74 85 53 86 54 87
REMARK SMILES IDX 62 88 55 89 56 90 60 91 63 92 57 93 58 94 61 95 59 96
REMARK H PARENT 17 7 11 11 24 30 83 49 51 60
REMARK Flexibility Score: inf
ROOT
ATOM      1  C   UNL A   1      35.771  21.036  25.262  1.00  0.00     0.002 C 
ENDROOT
BRANCH   1   2
ATOM      2  C   UNL A   1      35.443  22.204  26.202  1.00  0.00     0.021 C 
BRANCH   2   3
ATOM      3  C   UNL A   1      34.266  21.966  27.145  1.00  0.00     0.116 C 
BRANCH   3   4
ATOM      4  N   UNL A   1      33.230  21.149  26.555  1.00  0.00    -0.356 N 
ATOM      5  C   UNL A   1      32.235  21.537  25.714  1.00  0.00     0.229 C 
ATOM      6  O   UNL A   1      31.667  20.658  25.058  1.00  0.00    -0.275 OA
ATOM      7  H   UNL A   1      33.246  20.195  26.792  1.00  0.00     0.163 HD
BRANCH   5   8
ATOM      8  C   UNL A   1      31.873  22.987  25.539  1.00  0.00     0.199 C 
BRANCH   8   9
ATOM      9  C   UNL A   1      31.239  23.705  26.701  1.00  0.00     0.229 C 
ATOM     10  N   UNL A   1      31.234  25.048  26.882  1.00  0.00    -0.350 N 
ATOM     11  H   UNL A   1      30.771  25.296  27.715  1.00  0.00     0.164 HD
ATOM     12  O   UNL A   1      30.701  23.044  27.601  1.00  0.00    -0.275 OA
BRANCH  10  13
ATOM     13  C   UNL A   1      31.735  26.239  26.169  1.00  0.00     0.041 C 
ATOM     14  C   UNL A   1      30.773  27.665  22.661  1.00  0.00     0.011 C 
ATOM     15  C   UNL A   1      31.530  27.553  23.988  1.00  0.00    -0.030 C 
ATOM     16  C   UNL A   1      33.036  27.328  23.722  1.00  0.00     0.010 C 
ATOM     17  C   UNL A   1      30.985  26.368  24.820  1.00  0.00     0.035 C 
ATOM     18  C   UNL A   1      31.361  28.854  24.805  1.00  0.00     0.013 C 
ATOM     19  C   UNL A   1      33.803  27.208  25.048  1.00  0.00    -0.008 C 
ATOM     20  C   UNL A   1      32.136  28.762  26.134  1.00  0.00    -0.030 C 
ATOM     21  C   UNL A   1      33.239  26.026  25.857  1.00  0.00     0.032 C 
ATOM     22  C   UNL A   1      33.631  28.511  25.844  1.00  0.00     0.010 C 
ATOM     23  C   UNL A   1      31.600  27.562  26.931  1.00  0.00     0.035 C 
ATOM     24  C   UNL A   1      31.951  30.038  26.961  1.00  0.00     0.011 C 
ENDBRANCH  10  13
ENDBRANCH   8   9
ENDBRANCH   5   8
ENDBRANCH   3   4
ENDBRANCH   2   3
ENDBRANCH   1   2
BRANCH   1  25
ATOM     25  C   UNL A   1      37.170  21.055  24.636  1.00  0.00     0.002 C 
BRANCH  25  26
ATOM     26  C   UNL A   1      38.074  19.875  25.003  1.00  0.00     0.021 C 
BRANCH  26  27
ATOM     27  C   UNL A   1      39.277  20.236  25.863  1.00  0.00     0.116 C 
BRANCH  27  28
ATOM     28  N   UNL A   1      40.249  19.157  25.925  1.00  0.00    -0.352 N 
ATOM     29  C   UNL A   1      41.611  19.223  26.089  1.00  0.00     0.251 C 
ATOM     30  H   UNL A   1      39.877  18.249  25.840  1.00  0.00     0.163 HD
ATOM     31  O   UNL A   1      42.305  18.228  25.923  1.00  0.00    -0.269 OA
BRANCH  29  32
ATOM     32  C   UNL A   1      42.242  20.514  26.440  1.00  0.00     0.039 A 
ATOM     33  C   UNL A   1      42.778  21.302  25.419  1.00  0.00     0.014 A 
ATOM     34  C   UNL A   1      42.291  20.951  27.766  1.00  0.00     0.014 A 
ATOM     35  C   UNL A   1      43.293  22.565  25.720  1.00  0.00     0.010 A 
ATOM     36  C   UNL A   1      42.733  22.239  28.054  1.00  0.00     0.010 A 
ATOM     37  C   UNL A   1      43.232  23.062  27.033  1.00  0.00    -0.014 A 
BRANCH  37  38
ATOM     38  C   UNL A   1      43.657  24.449  27.353  1.00  0.00     0.031 A 
ATOM     39  C   UNL A   1      42.652  25.462  27.821  1.00  0.00     0.074 A 
ATOM     40  C   UNL A   1      44.938  24.813  27.146  1.00  0.00     0.049 A 
ATOM     41  N   UNL A   1      42.817  26.737  28.071  1.00  0.00    -0.248 NA
ATOM     42  C   UNL A   1      41.274  24.987  28.014  1.00  0.00     0.031 C 
ATOM     43  C   UNL A   1      45.997  23.933  26.650  1.00  0.00     0.029 A 
ATOM     44  N   UNL A   1      45.565  26.025  27.312  1.00  0.00    -0.354 N 
ATOM     45  C   UNL A   1      41.565  27.215  28.436  1.00  0.00     0.074 A 
ATOM     46  C   UNL A   1      40.642  26.108  28.327  1.00  0.00     0.031 C 
ATOM     47  C   UNL A   1      47.145  24.626  26.571  1.00  0.00     0.029 A 
ATOM     48  C   UNL A   1      46.893  26.009  26.961  1.00  0.00     0.049 A 
ATOM     49  H   UNL A   1      45.106  26.827  27.649  1.00  0.00     0.167 HD
ATOM     50  C   UNL A   1      41.225  28.461  28.846  1.00  0.00     0.037 A 
ATOM     51  C   UNL A   1      47.803  27.003  26.940  1.00  0.00     0.037 A 
ATOM     52  C   UNL A   1      42.153  29.556  28.966  1.00  0.00     0.049 A 
ATOM     53  C   UNL A   1      47.389  28.385  27.368  1.00  0.00     0.074 A 
ATOM     54  C   UNL A   1      41.918  30.838  29.433  1.00  0.00     0.029 A 
ATOM     55  N   UNL A   1      43.491  29.502  28.605  1.00  0.00    -0.354 N 
ATOM     56  N   UNL A   1      46.221  28.807  27.788  1.00  0.00    -0.248 NA
ATOM     57  C   UNL A   1      48.422  29.429  27.323  1.00  0.00     0.031 C 
ATOM     58  C   UNL A   1      43.097  31.576  29.296  1.00  0.00     0.029 A 
ATOM     59  C   UNL A   1      44.085  30.738  28.804  1.00  0.00     0.049 A 
ATOM     60  H   UNL A   1      43.951  28.703  28.258  1.00  0.00     0.167 HD
ATOM     61  C   UNL A   1      46.384  30.154  28.081  1.00  0.00     0.074 A 
ATOM     62  C   UNL A   1      47.769  30.475  27.809  1.00  0.00     0.031 C 
ATOM     63  C   UNL A   1      45.468  31.045  28.533  1.00  0.00     0.037 A 
BRANCH  50  64
ATOM     64  C   UNL A   1      39.784  28.714  29.189  1.00  0.00     0.064 A 
ATOM     65  C   UNL A   1      39.285  28.500  30.483  1.00  0.00     0.173 A 
ATOM     66  C   UNL A   1      38.901  29.220  28.223  1.00  0.00     0.173 A 
ATOM     67  F   UNL A   1      40.084  28.009  31.443  1.00  0.00    -0.203 F 
ATOM     68  C   UNL A   1      37.951  28.756  30.789  1.00  0.00     0.198 A 
ATOM     69  C   UNL A   1      37.576  29.508  28.542  1.00  0.00     0.198 A 
ATOM     70  F   UNL A   1      39.326  29.451  26.971  1.00  0.00    -0.203 F 
ATOM     71  F   UNL A   1      37.486  28.497  32.019  1.00  0.00    -0.200 F 
ATOM     72  C   UNL A   1      37.100  29.268  29.821  1.00  0.00     0.200 A 
ATOM     73  F   UNL A   1      36.760  30.018  27.608  1.00  0.00    -0.200 F 
ATOM     74  F   UNL A   1      35.819  29.524  30.120  1.00  0.00    -0.200 F 
ENDBRANCH  50  64
BRANCH  51  75
ATOM     75  C   UNL A   1      49.196  26.726  26.498  1.00  0.00     0.064 A 
ATOM     76  C   UNL A   1      49.574  26.887  25.158  1.00  0.00     0.173 A 
ATOM     77  C   UNL A   1      50.174  26.285  27.401  1.00  0.00     0.173 A 
ATOM     78  F   UNL A   1      48.670  27.287  24.251  1.00  0.00    -0.203 F 
ATOM     79  C   UNL A   1      50.869  26.596  24.734  1.00  0.00     0.198 A 
ATOM     80  C   UNL A   1      51.477  26.025  26.983  1.00  0.00     0.198 A 
ATOM     81  F   UNL A   1      49.868  26.118  28.697  1.00  0.00    -0.203 F 
ATOM     82  F   UNL A   1      51.188  26.710  23.438  1.00  0.00    -0.200 F 
ATOM     83  C   UNL A   1      51.821  26.172  25.648  1.00  0.00     0.200 A 
ATOM     84  F   UNL A   1      52.399  25.632  27.873  1.00  0.00    -0.200 F 
ATOM     85  F   UNL A   1      53.068  25.895  25.240  1.00  0.00    -0.200 F 
ENDBRANCH  51  75
BRANCH  63  86
ATOM     86  C   UNL A   1      45.936  32.448  28.791  1.00  0.00     0.064 A 
ATOM     87  C   UNL A   1      45.844  33.448  27.813  1.00  0.00     0.173 A 
ATOM     88  C   UNL A   1      46.437  32.809  30.053  1.00  0.00     0.173 A 
ATOM     89  F   UNL A   1      45.388  33.153  26.586  1.00  0.00    -0.203 F 
ATOM     90  C   UNL A   1      46.258  34.751  28.079  1.00  0.00     0.198 A 
ATOM     91  C   UNL A   1      46.817  34.119  30.326  1.00  0.00     0.198 A 
ATOM     92  F   UNL A   1      46.539  31.892  31.027  1.00  0.00    -0.203 F 
ATOM     93  F   UNL A   1      46.206  35.679  27.113  1.00  0.00    -0.200 F 
ATOM     94  C   UNL A   1      46.735  35.087  29.338  1.00  0.00     0.200 A 
ATOM     95  F   UNL A   1      47.261  34.445  31.547  1.00  0.00    -0.200 F 
ATOM     96  F   UNL A   1      47.120  36.344  29.595  1.00  0.00    -0.200 F 
ENDBRANCH  63  86
ENDBRANCH  37  38
ENDBRANCH  29  32
ENDBRANCH  27  28
ENDBRANCH  26  27
ENDBRANCH  25  26
ENDBRANCH   1  25
TORSDOF 15
ENDMDL
MODEL 2
REMARK VINA RESULT:     -12.8      5.577     11.005
REMARK SMILES C[C@]12C[C@@H]3C[C@](C)(C1)C[C@@](NC(=O)CC(=O)NCCCCCCNC(=O)c1ccc(-c4c5nc(c(-c6c(F)c(F)c(F)c(F)c6F)c6ccc([nH]6)c(-c6c(F)c(F)c(F)c(F)c6F)c6nc(c(-c7c(F)c(F)c(F)c(F)c7F)c7ccc4[nH]7)C=C6)C=C5)cc1)(C3)C2
REMARK SMILES IDX 20 1 19 2 18 3 17 4 15 5 16 6 14 8 12 9 11 10 13 12 10 13
REMARK SMILES IDX 7 14 6 15 5 16 9 17 8 18 4 19 2 20 90 21 3 22 91 23 1 24
REMARK SMILES IDX 21 25 22 26 23 27 24 28 25 29 26 31 27 32 28 33 89 34 29 35
REMARK SMILES IDX 88 36 30 37 31 38 32 39 82 40 33 41 87 42 81 43 83 44 34 45
REMARK SMILES IDX 86 46 80 47 79 48 35 50 67 51 47 52 66 53 48 54 51 55 65 56
REMARK SMILES IDX 84 57 49 58 50 59 64 61 85 62 52 63 36 64 37 65 45 66 38 67
REMARK SMILES IDX 39 68 43 69 46 70 40 71 41 72 44 73 42 74 68 75 69 76 77 77
REMARK SMILES IDX 70 78 71 79 75 80 78 81 72 82 73 83 76 84 74 85 53 86 54 87
REMARK SMILES IDX 62 88 55 89 56 90 60 91 63 92 57 93 58 94 61 95 59 96
REMARK H PARENT 17 7 11 11 24 30 83 49 51 60
REMARK Flexibility Score: inf
ROOT
ATOM      1  C   UNL A   1      32.143  29.401  26.951  1.00  0.00     0.002 C 
ENDROOT
BRANCH   1   2
ATOM      2  C   UNL A   1      31.774  28.020  26.394  1.00  0.00     0.021 C 
BRANCH   2   3
ATOM      3  C   UNL A   1      32.416  27.670  25.055  1.00  0.00     0.116 C 
BRANCH   3   4
ATOM      4  N   UNL A   1      31.533  27.893  23.933  1.00  0.00    -0.356 N 
ATOM      5  C   UNL A   1      31.653  27.419  22.664  1.00  0.00     0.229 C 
ATOM      6  O   UNL A   1      30.645  27.432  21.952  1.00  0.00    -0.275 OA
ATOM      7  H   UNL A   1      30.748  28.459  24.108  1.00  0.00     0.163 HD
BRANCH   5   8
ATOM      8  C   UNL A   1      32.949  26.843  22.160  1.00  0.00     0.199 C 
BRANCH   8   9
ATOM      9  C   UNL A   1      32.893  25.579  21.345  1.00  0.00     0.229 C 
ATOM     10  N   UNL A   1      32.884  24.321  21.851  1.00  0.00    -0.350 N 
ATOM     11  H   UNL A   1      32.856  23.646  21.135  1.00  0.00     0.164 HD
ATOM     12  O   UNL A   1      32.892  25.654  20.108  1.00  0.00    -0.275 OA
BRANCH  10  13
ATOM     13  C   UNL A   1      32.905  23.690  23.185  1.00  0.00     0.041 C 
ATOM     14  C   UNL A   1      35.703  23.654  25.913  1.00  0.00     0.011 C 
ATOM     15  C   UNL A   1      34.367  23.312  25.246  1.00  0.00    -0.030 C 
ATOM     16  C   UNL A   1      34.257  21.785  25.031  1.00  0.00     0.010 C 
ATOM     17  C   UNL A   1      34.252  24.020  23.875  1.00  0.00     0.035 C 
ATOM     18  C   UNL A   1      33.195  23.770  26.143  1.00  0.00     0.013 C 
ATOM     19  C   UNL A   1      32.923  21.432  24.357  1.00  0.00    -0.008 C 
ATOM     20  C   UNL A   1      31.844  23.411  25.492  1.00  0.00    -0.030 C 
ATOM     21  C   UNL A   1      32.832  22.152  22.999  1.00  0.00     0.032 C 
ATOM     22  C   UNL A   1      31.769  21.887  25.264  1.00  0.00     0.010 C 
ATOM     23  C   UNL A   1      31.763  24.101  24.121  1.00  0.00     0.035 C 
ATOM     24  C   UNL A   1      30.677  23.887  26.363  1.00  0.00     0.011 C 
ENDBRANCH  10  13
ENDBRANCH   8   9
ENDBRANCH   5   8
ENDBRANCH   3   4
ENDBRANCH   2   3
ENDBRANCH   1   2
BRANCH   1  25
ATOM     25  C   UNL A   1      31.765  30.599  26.073  1.00  0.00     0.002 C 
BRANCH  25  26
ATOM     26  C   UNL A   1      31.473  31.902  26.821  1.00  0.00     0.021 C 
BRANCH  26  27
ATOM     27  C   UNL A   1      32.708  32.660  27.289  1.00  0.00     0.116 C 
BRANCH  27  28
ATOM     28  N   UNL A   1      32.419  34.055  27.577  1.00  0.00    -0.352 N 
ATOM     29  C   UNL A   1      32.970  34.878  28.528  1.00  0.00     0.251 C 
ATOM     30  H   UNL A   1      31.730  34.468  27.008  1.00  0.00     0.163 HD
ATOM     31  O   UNL A   1      32.474  35.971  28.765  1.00  0.00    -0.269 OA
BRANCH  29  32
ATOM     32  C   UNL A   1      34.156  34.425  29.287  1.00  0.00     0.039 A 
ATOM     33  C   UNL A   1      33.967  33.783  30.513  1.00  0.00     0.014 A 
ATOM     34  C   UNL A   1      35.446  34.617  28.784  1.00  0.00     0.014 A 
ATOM     35  C   UNL A   1      35.068  33.265  31.198  1.00  0.00     0.010 A 
ATOM     36  C   UNL A   1      36.533  34.034  29.429  1.00  0.00     0.010 A 
ATOM     37  C   UNL A   1      36.355  33.346  30.638  1.00  0.00    -0.014 A 
BRANCH  37  38
ATOM     38  C   UNL A   1      37.520  32.691  31.287  1.00  0.00     0.031 A 
ATOM     39  C   UNL A   1      38.210  31.535  30.621  1.00  0.00     0.074 A 
ATOM     40  C   UNL A   1      37.907  33.094  32.514  1.00  0.00     0.049 A 
ATOM     41  N   UNL A   1      39.188  30.787  31.067  1.00  0.00    -0.248 NA
ATOM     42  C   UNL A   1      37.722  31.153  29.288  1.00  0.00     0.031 C 
ATOM     43  C   UNL A   1      37.287  34.175  33.283  1.00  0.00     0.029 A 
ATOM     44  N   UNL A   1      38.904  32.631  33.338  1.00  0.00    -0.354 N 
ATOM     45  C   UNL A   1      39.422  29.842  30.077  1.00  0.00     0.074 A 
ATOM     46  C   UNL A   1      38.452  30.078  29.030  1.00  0.00     0.031 C 
ATOM     47  C   UNL A   1      37.929  34.305  34.456  1.00  0.00     0.029 A 
ATOM     48  C   UNL A   1      38.970  33.286  34.543  1.00  0.00     0.049 A 
ATOM     49  H   UNL A   1      39.512  31.898  33.089  1.00  0.00     0.167 HD
ATOM     50  C   UNL A   1      40.375  28.880  30.037  1.00  0.00     0.037 A 
ATOM     51  C   UNL A   1      39.770  33.079  35.608  1.00  0.00     0.037 A 
ATOM     52  C   UNL A   1      41.347  28.660  31.077  1.00  0.00     0.049 A 
ATOM     53  C   UNL A   1      40.798  31.981  35.550  1.00  0.00     0.074 A 
ATOM     54  C   UNL A   1      42.392  27.753  31.101  1.00  0.00     0.029 A 
ATOM     55  N   UNL A   1      41.386  29.347  32.281  1.00  0.00    -0.354 N 
ATOM     56  N   UNL A   1      41.062  31.146  34.575  1.00  0.00    -0.248 NA
ATOM     57  C   UNL A   1      41.641  31.800  36.740  1.00  0.00     0.031 C 
ATOM     58  C   UNL A   1      43.024  27.847  32.344  1.00  0.00     0.029 A 
ATOM     59  C   UNL A   1      42.415  28.858  33.072  1.00  0.00     0.049 A 
ATOM     60  H   UNL A   1      40.773  30.074  32.538  1.00  0.00     0.167 HD
ATOM     61  C   UNL A   1      42.116  30.359  35.022  1.00  0.00     0.074 A 
ATOM     62  C   UNL A   1      42.455  30.830  36.349  1.00  0.00     0.031 C 
ATOM     63  C   UNL A   1      42.745  29.338  34.390  1.00  0.00     0.037 A 
BRANCH  50  64
ATOM     64  C   UNL A   1      40.411  27.983  28.833  1.00  0.00     0.064 A 
ATOM     65  C   UNL A   1      41.174  28.300  27.698  1.00  0.00     0.173 A 
ATOM     66  C   UNL A   1      39.710  26.767  28.830  1.00  0.00     0.173 A 
ATOM     67  F   UNL A   1      41.857  29.454  27.645  1.00  0.00    -0.203 F 
ATOM     68  C   UNL A   1      41.212  27.448  26.597  1.00  0.00     0.198 A 
ATOM     69  C   UNL A   1      39.777  25.902  27.741  1.00  0.00     0.198 A 
ATOM     70  F   UNL A   1      38.970  26.410  29.891  1.00  0.00    -0.203 F 
ATOM     71  F   UNL A   1      41.908  27.796  25.507  1.00  0.00    -0.200 F 
ATOM     72  C   UNL A   1      40.520  26.246  26.623  1.00  0.00     0.200 A 
ATOM     73  F   UNL A   1      39.121  24.733  27.774  1.00  0.00    -0.200 F 
ATOM     74  F   UNL A   1      40.566  25.423  25.567  1.00  0.00    -0.200 F 
ENDBRANCH  50  64
BRANCH  51  75
ATOM     75  C   UNL A   1      39.631  33.931  36.819  1.00  0.00     0.064 A 
ATOM     76  C   UNL A   1      40.303  35.157  36.919  1.00  0.00     0.173 A 
ATOM     77  C   UNL A   1      38.836  33.535  37.904  1.00  0.00     0.173 A 
ATOM     78  F   UNL A   1      41.092  35.572  35.917  1.00  0.00    -0.203 F 
ATOM     79  C   UNL A   1      40.204  35.942  38.066  1.00  0.00     0.198 A 
ATOM     80  C   UNL A   1      38.711  34.335  39.037  1.00  0.00     0.198 A 
ATOM     81  F   UNL A   1      38.167  32.372  37.859  1.00  0.00    -0.203 F 
ATOM     82  F   UNL A   1      40.897  37.085  38.155  1.00  0.00    -0.200 F 
ATOM     83  C   UNL A   1      39.403  35.534  39.121  1.00  0.00     0.200 A 
ATOM     84  F   UNL A   1      37.922  33.945  40.048  1.00  0.00    -0.200 F 
ATOM     85  F   UNL A   1      39.304  36.291  40.223  1.00  0.00    -0.200 F 
ENDBRANCH  51  75
BRANCH  63  86
ATOM     86  C   UNL A   1      43.883  28.675  35.110  1.00  0.00     0.064 A 
ATOM     87  C   UNL A   1      43.681  27.577  35.958  1.00  0.00     0.173 A 
ATOM     88  C   UNL A   1      45.202  29.114  34.910  1.00  0.00     0.173 A 
ATOM     89  F   UNL A   1      42.439  27.128  36.196  1.00  0.00    -0.203 F 
ATOM     90  C   UNL A   1      44.752  26.957  36.597  1.00  0.00     0.198 A 
ATOM     91  C   UNL A   1      46.273  28.471  35.522  1.00  0.00     0.198 A 
ATOM     92  F   UNL A   1      45.453  30.156  34.103  1.00  0.00    -0.203 F 
ATOM     93  F   UNL A   1      44.529  25.940  37.441  1.00  0.00    -0.200 F 
ATOM     94  C   UNL A   1      46.048  27.398  36.371  1.00  0.00     0.200 A 
ATOM     95  F   UNL A   1      47.525  28.888  35.290  1.00  0.00    -0.200 F 
ATOM     96  F   UNL A   1      47.078  26.792  36.977  1.00  0.00    -0.200 F 
ENDBRANCH  63  86
ENDBRANCH  37  38
ENDBRANCH  29  32
ENDBRANCH  27  28
ENDBRANCH  26  27
ENDBRANCH  25  26
ENDBRANCH   1  25
TORSDOF 15
ENDMDL
MODEL 3
REMARK VINA RESULT:     -12.7      5.825     11.043
REMARK SMILES C[C@]12C[C@@H]3C[C@](C)(C1)C[C@@](NC(=O)CC(=O)NCCCCCCNC(=O)c1ccc(-c4c5nc(c(-c6c(F)c(F)c(F)c(F)c6F)c6ccc([nH]6)c(-c6c(F)c(F)c(F)c(F)c6F)c6nc(c(-c7c(F)c(F)c(F)c(F)c7F)c7ccc4[nH]7)C=C6)C=C5)cc1)(C3)C2
REMARK SMILES IDX 20 1 19 2 18 3 17 4 15 5 16 6 14 8 12 9 11 10 13 12 10 13
REMARK SMILES IDX 7 14 6 15 5 16 9 17 8 18 4 19 2 20 90 21 3 22 91 23 1 24
REMARK SMILES IDX 21 25 22 26 23 27 24 28 25 29 26 31 27 32 28 33 89 34 29 35
REMARK SMILES IDX 88 36 30 37 31 38 32 39 82 40 33 41 87 42 81 43 83 44 34 45
REMARK SMILES IDX 86 46 80 47 79 48 35 50 67 51 47 52 66 53 48 54 51 55 65 56
REMARK SMILES IDX 84 57 49 58 50 59 64 61 85 62 52 63 36 64 37 65 45 66 38 67
REMARK SMILES IDX 39 68 43 69 46 70 40 71 41 72 44 73 42 74 68 75 69 76 77 77
REMARK SMILES IDX 70 78 71 79 75 80 78 81 72 82 73 83 76 84 74 85 53 86 54 87
REMARK SMILES IDX 62 88 55 89 56 90 60 91 63 92 57 93 58 94 61 95 59 96
REMARK H PARENT 17 7 11 11 24 30 83 49 51 60
REMARK Flexibility Score: inf
ROOT
ATOM      1  C   UNL A   1      31.611  29.883  25.279  1.00  0.00     0.002 C 
ENDROOT
BRANCH   1   2
ATOM      2  C   UNL A   1      32.774  28.976  24.856  1.00  0.00     0.021 C 
BRANCH   2   3
ATOM      3  C   UNL A   1      32.963  28.826  23.349  1.00  0.00     0.116 C 
BRANCH   3   4
ATOM      4  N   UNL A   1      31.798  29.225  22.594  1.00  0.00    -0.356 N 
ATOM      5  C   UNL A   1      30.661  28.513  22.369  1.00  0.00     0.229 C 
ATOM      6  O   UNL A   1      29.661  29.137  22.001  1.00  0.00    -0.275 OA
ATOM      7  H   UNL A   1      31.831  30.122  22.192  1.00  0.00     0.163 HD
BRANCH   5   8
ATOM      8  C   UNL A   1      30.600  27.030  22.616  1.00  0.00     0.199 C 
BRANCH   8   9
ATOM      9  C   UNL A   1      29.641  26.524  23.659  1.00  0.00     0.229 C 
ATOM     10  N   UNL A   1      29.880  25.495  24.509  1.00  0.00    -0.350 N 
ATOM     11  H   UNL A   1      29.110  25.330  25.099  1.00  0.00     0.164 HD
ATOM     12  O   UNL A   1      28.518  27.040  23.752  1.00  0.00    -0.275 OA
BRANCH  10  13
ATOM     13  C   UNL A   1      30.984  24.557  24.790  1.00  0.00     0.041 C 
ATOM     14  C   UNL A   1      32.181  21.407  22.810  1.00  0.00     0.011 C 
ATOM     15  C   UNL A   1      32.133  22.437  23.943  1.00  0.00    -0.030 C 
ATOM     16  C   UNL A   1      31.807  21.738  25.283  1.00  0.00     0.010 C 
ATOM     17  C   UNL A   1      31.047  23.502  23.658  1.00  0.00     0.035 C 
ATOM     18  C   UNL A   1      33.500  23.145  24.074  1.00  0.00     0.013 C 
ATOM     19  C   UNL A   1      31.751  22.764  26.425  1.00  0.00    -0.008 C 
ATOM     20  C   UNL A   1      33.471  24.169  25.226  1.00  0.00    -0.030 C 
ATOM     21  C   UNL A   1      30.667  23.812  26.114  1.00  0.00     0.032 C 
ATOM     22  C   UNL A   1      33.119  23.452  26.546  1.00  0.00     0.010 C 
ATOM     23  C   UNL A   1      32.368  25.199  24.936  1.00  0.00     0.035 C 
ATOM     24  C   UNL A   1      34.816  24.893  25.344  1.00  0.00     0.011 C 
ENDBRANCH  10  13
ENDBRANCH   8   9
ENDBRANCH   5   8
ENDBRANCH   3   4
ENDBRANCH   2   3
ENDBRANCH   1   2
BRANCH   1  25
ATOM     25  C   UNL A   1      31.729  30.515  26.671  1.00  0.00     0.002 C 
BRANCH  25  26
ATOM     26  C   UNL A   1      31.576  32.037  26.721  1.00  0.00     0.021 C 
BRANCH  26  27
ATOM     27  C   UNL A   1      32.772  32.780  27.302  1.00  0.00     0.116 C 
BRANCH  27  28
ATOM     28  N   UNL A   1      32.454  34.161  27.625  1.00  0.00    -0.352 N 
ATOM     29  C   UNL A   1      32.981  34.967  28.604  1.00  0.00     0.251 C 
ATOM     30  H   UNL A   1      31.764  34.578  27.060  1.00  0.00     0.163 HD
ATOM     31  O   UNL A   1      32.463  36.044  28.867  1.00  0.00    -0.269 OA
BRANCH  29  32
ATOM     32  C   UNL A   1      34.166  34.513  29.364  1.00  0.00     0.039 A 
ATOM     33  C   UNL A   1      33.985  33.979  30.642  1.00  0.00     0.014 A 
ATOM     34  C   UNL A   1      35.447  34.599  28.812  1.00  0.00     0.014 A 
ATOM     35  C   UNL A   1      35.081  33.460  31.335  1.00  0.00     0.010 A 
ATOM     36  C   UNL A   1      36.525  34.012  29.470  1.00  0.00     0.010 A 
ATOM     37  C   UNL A   1      36.351  33.431  30.735  1.00  0.00    -0.014 A 
BRANCH  37  38
ATOM     38  C   UNL A   1      37.502  32.770  31.401  1.00  0.00     0.031 A 
ATOM     39  C   UNL A   1      38.184  31.598  30.754  1.00  0.00     0.074 A 
ATOM     40  C   UNL A   1      37.883  33.181  32.627  1.00  0.00     0.049 A 
ATOM     41  N   UNL A   1      39.150  30.843  31.215  1.00  0.00    -0.248 NA
ATOM     42  C   UNL A   1      37.704  31.207  29.420  1.00  0.00     0.031 C 
ATOM     43  C   UNL A   1      37.270  34.277  33.378  1.00  0.00     0.029 A 
ATOM     44  N   UNL A   1      38.867  32.714  33.465  1.00  0.00    -0.354 N 
ATOM     45  C   UNL A   1      39.381  29.885  30.238  1.00  0.00     0.074 A 
ATOM     46  C   UNL A   1      38.423  30.121  29.180  1.00  0.00     0.031 C 
ATOM     47  C   UNL A   1      37.903  34.412  34.556  1.00  0.00     0.029 A 
ATOM     48  C   UNL A   1      38.931  33.382  34.663  1.00  0.00     0.049 A 
ATOM     49  H   UNL A   1      39.469  31.972  33.229  1.00  0.00     0.167 HD
ATOM     50  C   UNL A   1      40.323  28.912  30.217  1.00  0.00     0.037 A 
ATOM     51  C   UNL A   1      39.719  33.177  35.737  1.00  0.00     0.037 A 
ATOM     52  C   UNL A   1      41.283  28.691  31.267  1.00  0.00     0.049 A 
ATOM     53  C   UNL A   1      40.734  32.067  35.700  1.00  0.00     0.074 A 
ATOM     54  C   UNL A   1      42.317  27.772  31.311  1.00  0.00     0.029 A 
ATOM     55  N   UNL A   1      41.320  29.390  32.465  1.00  0.00    -0.354 N 
ATOM     56  N   UNL A   1      40.997  31.218  34.737  1.00  0.00    -0.248 NA
ATOM     57  C   UNL A   1      41.565  31.888  36.899  1.00  0.00     0.031 C 
ATOM     58  C   UNL A   1      42.939  27.872  32.558  1.00  0.00     0.029 A 
ATOM     59  C   UNL A   1      42.336  28.898  33.269  1.00  0.00     0.049 A 
ATOM     60  H   UNL A   1      40.713  30.127  32.709  1.00  0.00     0.167 HD
ATOM     61  C   UNL A   1      42.037  30.423  35.201  1.00  0.00     0.074 A 
ATOM     62  C   UNL A   1      42.370  30.904  36.525  1.00  0.00     0.031 C 
ATOM     63  C   UNL A   1      42.660  29.388  34.586  1.00  0.00     0.037 A 
BRANCH  50  64
ATOM     64  C   UNL A   1      40.359  28.001  29.022  1.00  0.00     0.064 A 
ATOM     65  C   UNL A   1      39.628  26.804  28.982  1.00  0.00     0.173 A 
ATOM     66  C   UNL A   1      41.100  28.353  27.883  1.00  0.00     0.173 A 
ATOM     67  F   UNL A   1      38.909  26.417  30.048  1.00  0.00    -0.203 F 
ATOM     68  C   UNL A   1      39.658  25.981  27.860  1.00  0.00     0.198 A 
ATOM     69  C   UNL A   1      41.101  27.544  26.750  1.00  0.00     0.198 A 
ATOM     70  F   UNL A   1      41.813  29.490  27.863  1.00  0.00    -0.203 F 
ATOM     71  F   UNL A   1      38.990  24.820  27.865  1.00  0.00    -0.200 F 
ATOM     72  C   UNL A   1      40.388  26.355  26.742  1.00  0.00     0.200 A 
ATOM     73  F   UNL A   1      41.794  27.915  25.663  1.00  0.00    -0.200 F 
ATOM     74  F   UNL A   1      40.408  25.567  25.658  1.00  0.00    -0.200 F 
ENDBRANCH  50  64
BRANCH  51  75
ATOM     75  C   UNL A   1      39.580  34.044  36.938  1.00  0.00     0.064 A 
ATOM     76  C   UNL A   1      40.234  35.281  37.014  1.00  0.00     0.173 A 
ATOM     77  C   UNL A   1      38.802  33.650  38.037  1.00  0.00     0.173 A 
ATOM     78  F   UNL A   1      41.006  35.694  35.998  1.00  0.00    -0.203 F 
ATOM     79  C   UNL A   1      40.135  36.080  38.151  1.00  0.00     0.198 A 
ATOM     80  C   UNL A   1      38.677  34.464  39.160  1.00  0.00     0.198 A 
ATOM     81  F   UNL A   1      38.151  32.477  38.015  1.00  0.00    -0.203 F 
ATOM     82  F   UNL A   1      40.811  37.235  38.217  1.00  0.00    -0.200 F 
ATOM     83  C   UNL A   1      39.351  35.674  39.220  1.00  0.00     0.200 A 
ATOM     84  F   UNL A   1      37.904  34.076  40.184  1.00  0.00    -0.200 F 
ATOM     85  F   UNL A   1      39.252  36.445  40.312  1.00  0.00    -0.200 F 
ENDBRANCH  51  75
BRANCH  63  86
ATOM     86  C   UNL A   1      43.784  28.720  35.323  1.00  0.00     0.064 A 
ATOM     87  C   UNL A   1      43.554  27.670  36.224  1.00  0.00     0.173 A 
ATOM     88  C   UNL A   1      45.114  29.101  35.087  1.00  0.00     0.173 A 
ATOM     89  F   UNL A   1      42.301  27.277  36.497  1.00  0.00    -0.203 F 
ATOM     90  C   UNL A   1      44.612  27.043  36.879  1.00  0.00     0.198 A 
ATOM     91  C   UNL A   1      46.170  28.450  35.716  1.00  0.00     0.198 A 
ATOM     92  F   UNL A   1      45.390  30.096  34.229  1.00  0.00    -0.203 F 
ATOM     93  F   UNL A   1      44.365  26.075  37.772  1.00  0.00    -0.200 F 
ATOM     94  C   UNL A   1      45.919  27.427  36.617  1.00  0.00     0.200 A 
ATOM     95  F   UNL A   1      47.433  28.812  35.450  1.00  0.00    -0.200 F 
ATOM     96  F   UNL A   1      46.935  26.814  37.238  1.00  0.00    -0.200 F 
ENDBRANCH  63  86
ENDBRANCH  37  38
ENDBRANCH  29  32
ENDBRANCH  27  28
ENDBRANCH  26  27
ENDBRANCH  25  26
ENDBRANCH   1  25
TORSDOF 15
ENDMDL
