MODEL 1
REMARK VINA RESULT:     -12.5      0.000      0.000
REMARK SMILES O=C(NCCCCCCNC(=O)c1ccc2nc(-c3c[nH]nc3-c3ccc(F)cc3F)[nH]c2c1)c1ccc(-c2c3nc(c(-c4c(F)c(F)c(F)c(F)c4F)c4ccc([nH]4)c(-c4c(F)c(F)c(F)c(F)c4F)c4nc(c(-c5c(F)c(F)c(F)c(F)c5F)c5ccc2[nH]5)C=C4)C=C3)cc1
REMARK SMILES IDX 6 1 5 2 4 3 3 4 1 5 2 6 35 8 36 9 97 10 37 11 96 12 38 13
REMARK SMILES IDX 39 14 40 15 90 16 41 17 95 18 89 19 91 20 42 21 94 22 88 23
REMARK SMILES IDX 87 24 43 26 75 27 55 28 74 29 56 30 59 31 73 32 92 33 57 34
REMARK SMILES IDX 58 35 72 37 93 38 60 39 44 40 45 41 53 42 46 43 47 44 51 45
REMARK SMILES IDX 54 46 48 47 49 48 52 49 50 50 76 51 77 52 85 53 78 54 79 55
REMARK SMILES IDX 83 56 86 57 80 58 81 59 84 60 82 61 61 62 62 63 70 64 63 65
REMARK SMILES IDX 64 66 68 67 71 68 65 69 66 70 69 71 67 72 7 73 8 74 9 75
REMARK SMILES IDX 10 76 11 77 12 79 13 80 14 81 34 82 15 83 33 84 16 85 32 86
REMARK SMILES IDX 17 87 18 88 19 90 20 91 23 92 21 93 22 94 24 96 25 97 30 98
REMARK SMILES IDX 26 99 29 100 31 101 27 102 28 103
REMARK H PARENT 3 7 91 25 59 36 10 78 32 89 21 95
REMARK Flexibility Score: inf
ROOT
ATOM      1  C   UNL A   1      35.318  22.114  24.818  1.00  0.00     0.002 C 
ENDROOT
BRANCH   1   2
ATOM      2  C   UNL A   1      35.946  23.507  24.745  1.00  0.00     0.021 C 
BRANCH   2   3
ATOM      3  C   UNL A   1      36.895  23.836  25.893  1.00  0.00     0.116 C 
BRANCH   3   4
ATOM      4  N   UNL A   1      37.992  22.888  25.984  1.00  0.00    -0.352 N 
ATOM      5  O   UNL A   1      40.130  22.219  26.224  1.00  0.00    -0.269 OA
ATOM      6  C   UNL A   1      39.282  23.088  26.401  1.00  0.00     0.251 C 
ATOM      7  H   UNL A   1      37.777  21.968  25.705  1.00  0.00     0.163 HD
BRANCH   6   8
ATOM      8  C   UNL A   1      39.657  24.359  27.051  1.00  0.00     0.039 A 
ATOM      9  C   UNL A   1      39.346  24.600  28.393  1.00  0.00     0.014 A 
ATOM     10  C   UNL A   1      40.363  25.311  26.311  1.00  0.00     0.014 A 
ATOM     11  C   UNL A   1      39.646  25.834  28.964  1.00  0.00     0.010 A 
ATOM     12  C   UNL A   1      40.725  26.521  26.906  1.00  0.00     0.010 A 
ATOM     13  C   UNL A   1      40.354  26.799  28.232  1.00  0.00    -0.014 A 
BRANCH  13  14
ATOM     14  C   UNL A   1      40.768  28.075  28.869  1.00  0.00     0.031 A 
ATOM     15  C   UNL A   1      42.181  28.274  29.338  1.00  0.00     0.074 A 
ATOM     16  C   UNL A   1      39.849  29.044  29.049  1.00  0.00     0.049 A 
ATOM     17  N   UNL A   1      42.690  29.262  30.029  1.00  0.00    -0.248 NA
ATOM     18  C   UNL A   1      43.151  27.224  28.989  1.00  0.00     0.031 C 
ATOM     19  C   UNL A   1      38.451  28.973  28.618  1.00  0.00     0.029 A 
ATOM     20  N   UNL A   1      39.948  30.273  29.649  1.00  0.00    -0.354 N 
ATOM     21  C   UNL A   1      44.031  28.953  30.205  1.00  0.00     0.074 A 
ATOM     22  C   UNL A   1      44.257  27.670  29.573  1.00  0.00     0.031 C 
ATOM     23  C   UNL A   1      37.828  30.111  28.954  1.00  0.00     0.029 A 
ATOM     24  C   UNL A   1      38.760  30.962  29.684  1.00  0.00     0.049 A 
ATOM     25  H   UNL A   1      40.789  30.627  30.019  1.00  0.00     0.167 HD
ATOM     26  C   UNL A   1      44.986  29.682  30.832  1.00  0.00     0.037 A 
ATOM     27  C   UNL A   1      38.448  32.132  30.273  1.00  0.00     0.037 A 
ATOM     28  C   UNL A   1      44.755  30.961  31.453  1.00  0.00     0.049 A 
ATOM     29  C   UNL A   1      39.515  32.876  31.027  1.00  0.00     0.074 A 
ATOM     30  C   UNL A   1      45.661  31.776  32.110  1.00  0.00     0.029 A 
ATOM     31  N   UNL A   1      43.532  31.615  31.492  1.00  0.00    -0.354 N 
ATOM     32  N   UNL A   1      40.781  32.577  31.184  1.00  0.00    -0.248 NA
ATOM     33  C   UNL A   1      39.106  34.123  31.687  1.00  0.00     0.031 C 
ATOM     34  C   UNL A   1      44.980  32.898  32.587  1.00  0.00     0.029 A 
ATOM     35  C   UNL A   1      43.659  32.814  32.178  1.00  0.00     0.049 A 
ATOM     36  H   UNL A   1      42.698  31.278  31.092  1.00  0.00     0.167 HD
ATOM     37  C   UNL A   1      41.324  33.609  31.937  1.00  0.00     0.074 A 
ATOM     38  C   UNL A   1      40.257  34.558  32.177  1.00  0.00     0.031 C 
ATOM     39  C   UNL A   1      42.591  33.754  32.399  1.00  0.00     0.037 A 
BRANCH  26  40
ATOM     40  C   UNL A   1      46.382  29.133  30.884  1.00  0.00     0.064 A 
ATOM     41  C   UNL A   1      47.278  29.363  29.828  1.00  0.00     0.173 A 
ATOM     42  C   UNL A   1      46.792  28.277  31.917  1.00  0.00     0.173 A 
ATOM     43  F   UNL A   1      46.933  30.170  28.814  1.00  0.00    -0.203 F 
ATOM     44  C   UNL A   1      48.519  28.733  29.789  1.00  0.00     0.198 A 
ATOM     45  C   UNL A   1      48.045  27.668  31.888  1.00  0.00     0.198 A 
ATOM     46  F   UNL A   1      45.979  28.033  32.955  1.00  0.00    -0.203 F 
ATOM     47  F   UNL A   1      49.338  28.932  28.747  1.00  0.00    -0.200 F 
ATOM     48  C   UNL A   1      48.900  27.885  30.817  1.00  0.00     0.200 A 
ATOM     49  F   UNL A   1      48.420  26.863  32.891  1.00  0.00    -0.200 F 
ATOM     50  F   UNL A   1      50.091  27.272  30.776  1.00  0.00    -0.200 F 
ENDBRANCH  26  40
BRANCH  27  51
ATOM     51  C   UNL A   1      37.062  32.667  30.190  1.00  0.00     0.064 A 
ATOM     52  C   UNL A   1      36.125  32.437  31.209  1.00  0.00     0.173 A 
ATOM     53  C   UNL A   1      36.658  33.447  29.098  1.00  0.00     0.173 A 
ATOM     54  F   UNL A   1      36.457  31.696  32.276  1.00  0.00    -0.203 F 
ATOM     55  C   UNL A   1      34.836  32.960  31.134  1.00  0.00     0.198 A 
ATOM     56  C   UNL A   1      35.381  34.001  29.043  1.00  0.00     0.198 A 
ATOM     57  F   UNL A   1      37.523  33.713  28.110  1.00  0.00    -0.203 F 
ATOM     58  F   UNL A   1      33.952  32.703  32.108  1.00  0.00    -0.200 F 
ATOM     59  C   UNL A   1      34.469  33.753  30.057  1.00  0.00     0.200 A 
ATOM     60  F   UNL A   1      35.044  34.795  28.017  1.00  0.00    -0.200 F 
ATOM     61  F   UNL A   1      33.241  34.287  30.002  1.00  0.00    -0.200 F 
ENDBRANCH  27  51
BRANCH  39  62
ATOM     62  C   UNL A   1      42.900  35.001  33.179  1.00  0.00     0.064 A 
ATOM     63  C   UNL A   1      42.743  35.025  34.574  1.00  0.00     0.173 A 
ATOM     64  C   UNL A   1      43.326  36.179  32.548  1.00  0.00     0.173 A 
ATOM     65  F   UNL A   1      42.328  33.929  35.228  1.00  0.00    -0.203 F 
ATOM     66  C   UNL A   1      43.001  36.181  35.305  1.00  0.00     0.198 A 
ATOM     67  C   UNL A   1      43.621  37.321  33.286  1.00  0.00     0.198 A 
ATOM     68  F   UNL A   1      43.505  36.205  31.218  1.00  0.00    -0.203 F 
ATOM     69  F   UNL A   1      42.818  36.187  36.632  1.00  0.00    -0.200 F 
ATOM     70  C   UNL A   1      43.451  37.324  34.663  1.00  0.00     0.200 A 
ATOM     71  F   UNL A   1      44.088  38.414  32.667  1.00  0.00    -0.200 F 
ATOM     72  F   UNL A   1      43.730  38.426  35.371  1.00  0.00    -0.200 F 
ENDBRANCH  39  62
ENDBRANCH  13  14
ENDBRANCH   6   8
ENDBRANCH   3   4
ENDBRANCH   2   3
ENDBRANCH   1   2
BRANCH   1  73
ATOM     73  C   UNL A   1      34.465  21.850  26.064  1.00  0.00     0.002 C 
BRANCH  73  74
ATOM     74  C   UNL A   1      33.520  20.648  25.962  1.00  0.00     0.021 C 
BRANCH  74  75
ATOM     75  C   UNL A   1      32.204  20.935  25.243  1.00  0.00     0.116 C 
BRANCH  75  76
ATOM     76  N   UNL A   1      32.189  20.356  23.911  1.00  0.00    -0.352 N 
ATOM     77  C   UNL A   1      32.057  20.995  22.709  1.00  0.00     0.251 C 
ATOM     78  H   UNL A   1      32.284  19.377  23.868  1.00  0.00     0.163 HD
ATOM     79  O   UNL A   1      31.848  20.363  21.676  1.00  0.00    -0.269 OA
BRANCH  77  80
ATOM     80  C   UNL A   1      32.157  22.464  22.662  1.00  0.00     0.042 A 
ATOM     81  C   UNL A   1      33.290  23.064  22.092  1.00  0.00     0.016 A 
ATOM     82  C   UNL A   1      31.096  23.217  23.185  1.00  0.00     0.042 A 
ATOM     83  C   UNL A   1      33.397  24.456  22.031  1.00  0.00     0.031 A 
ATOM     84  C   UNL A   1      31.247  24.603  23.132  1.00  0.00     0.067 A 
ATOM     85  C   UNL A   1      32.342  25.227  22.540  1.00  0.00     0.089 A 
ATOM     86  N   UNL A   1      30.471  25.643  23.578  1.00  0.00    -0.338 N 
ATOM     87  N   UNL A   1      32.178  26.582  22.524  1.00  0.00    -0.228 NA
ATOM     88  C   UNL A   1      31.043  26.811  23.148  1.00  0.00     0.142 A 
ATOM     89  H   UNL A   1      29.647  25.563  24.111  1.00  0.00     0.168 HD
BRANCH  88  90
ATOM     90  C   UNL A   1      30.453  28.157  23.293  1.00  0.00     0.063 A 
ATOM     91  C   UNL A   1      29.506  28.736  22.484  1.00  0.00     0.117 A 
ATOM     92  C   UNL A   1      30.766  29.126  24.285  1.00  0.00     0.106 A 
ATOM     93  N   UNL A   1      29.232  29.941  23.066  1.00  0.00    -0.284 N 
ATOM     94  N   UNL A   1      30.016  30.227  24.118  1.00  0.00    -0.175 NA
ATOM     95  H   UNL A   1      28.525  30.545  22.743  1.00  0.00     0.189 HD
BRANCH  92  96
ATOM     96  C   UNL A   1      31.855  29.074  25.254  1.00  0.00     0.039 A 
ATOM     97  C   UNL A   1      31.553  28.889  26.616  1.00  0.00     0.016 A 
ATOM     98  C   UNL A   1      33.189  29.217  24.871  1.00  0.00     0.135 A 
ATOM     99  C   UNL A   1      32.573  28.865  27.570  1.00  0.00     0.040 A 
ATOM    100  C   UNL A   1      34.211  29.187  25.818  1.00  0.00     0.079 A 
ATOM    101  F   UNL A   1      33.520  29.413  23.584  1.00  0.00    -0.206 F 
ATOM    102  C   UNL A   1      33.891  29.014  27.159  1.00  0.00     0.126 A 
ATOM    103  F   UNL A   1      34.869  28.992  28.073  1.00  0.00    -0.207 F 
ENDBRANCH  92  96
ENDBRANCH  88  90
ENDBRANCH  77  80
ENDBRANCH  75  76
ENDBRANCH  74  75
ENDBRANCH  73  74
ENDBRANCH   1  73
TORSDOF 15
ENDMDL
MODEL 2
REMARK VINA RESULT:     -12.5      3.281      8.640
REMARK SMILES O=C(NCCCCCCNC(=O)c1ccc2nc(-c3c[nH]nc3-c3ccc(F)cc3F)[nH]c2c1)c1ccc(-c2c3nc(c(-c4c(F)c(F)c(F)c(F)c4F)c4ccc([nH]4)c(-c4c(F)c(F)c(F)c(F)c4F)c4nc(c(-c5c(F)c(F)c(F)c(F)c5F)c5ccc2[nH]5)C=C4)C=C3)cc1
REMARK SMILES IDX 6 1 5 2 4 3 3 4 1 5 2 6 35 8 36 9 97 10 37 11 96 12 38 13
REMARK SMILES IDX 39 14 40 15 90 16 41 17 95 18 89 19 91 20 42 21 94 22 88 23
REMARK SMILES IDX 87 24 43 26 75 27 55 28 74 29 56 30 59 31 73 32 92 33 57 34
REMARK SMILES IDX 58 35 72 37 93 38 60 39 44 40 45 41 53 42 46 43 47 44 51 45
REMARK SMILES IDX 54 46 48 47 49 48 52 49 50 50 76 51 77 52 85 53 78 54 79 55
REMARK SMILES IDX 83 56 86 57 80 58 81 59 84 60 82 61 61 62 62 63 70 64 63 65
REMARK SMILES IDX 64 66 68 67 71 68 65 69 66 70 69 71 67 72 7 73 8 74 9 75
REMARK SMILES IDX 10 76 11 77 12 79 13 80 14 81 34 82 15 83 33 84 16 85 32 86
REMARK SMILES IDX 17 87 18 88 19 90 20 91 23 92 21 93 22 94 24 96 25 97 30 98
REMARK SMILES IDX 26 99 29 100 31 101 27 102 28 103
REMARK H PARENT 3 7 91 25 59 36 10 78 32 89 21 95
REMARK Flexibility Score: inf
ROOT
ATOM      1  C   UNL A   1      33.677  28.760  24.740  1.00  0.00     0.002 C 
ENDROOT
BRANCH   1   2
ATOM      2  C   UNL A   1      33.911  27.698  25.816  1.00  0.00     0.021 C 
BRANCH   2   3
ATOM      3  C   UNL A   1      33.709  28.187  27.245  1.00  0.00     0.116 C 
BRANCH   3   4
ATOM      4  N   UNL A   1      33.579  29.633  27.315  1.00  0.00    -0.352 N 
ATOM      5  O   UNL A   1      34.084  31.723  27.990  1.00  0.00    -0.269 OA
ATOM      6  C   UNL A   1      34.445  30.560  27.835  1.00  0.00     0.251 C 
ATOM      7  H   UNL A   1      32.748  29.999  26.935  1.00  0.00     0.163 HD
BRANCH   6   8
ATOM      8  C   UNL A   1      35.811  30.156  28.223  1.00  0.00     0.039 A 
ATOM      9  C   UNL A   1      36.870  30.234  27.314  1.00  0.00     0.014 A 
ATOM     10  C   UNL A   1      36.038  29.724  29.532  1.00  0.00     0.014 A 
ATOM     11  C   UNL A   1      38.134  29.780  27.680  1.00  0.00     0.010 A 
ATOM     12  C   UNL A   1      37.322  29.335  29.919  1.00  0.00     0.010 A 
ATOM     13  C   UNL A   1      38.376  29.343  28.991  1.00  0.00    -0.014 A 
BRANCH  13  14
ATOM     14  C   UNL A   1      39.745  28.957  29.417  1.00  0.00     0.031 A 
ATOM     15  C   UNL A   1      40.566  29.873  30.280  1.00  0.00     0.074 A 
ATOM     16  C   UNL A   1      40.255  27.784  28.992  1.00  0.00     0.049 A 
ATOM     17  N   UNL A   1      41.820  29.764  30.640  1.00  0.00    -0.248 NA
ATOM     18  C   UNL A   1      39.893  31.070  30.807  1.00  0.00     0.031 C 
ATOM     19  C   UNL A   1      39.546  26.805  28.167  1.00  0.00     0.029 A 
ATOM     20  N   UNL A   1      41.490  27.221  29.188  1.00  0.00    -0.354 N 
ATOM     21  C   UNL A   1      42.089  30.877  31.424  1.00  0.00     0.074 A 
ATOM     22  C   UNL A   1      40.877  31.667  31.469  1.00  0.00     0.031 C 
ATOM     23  C   UNL A   1      40.350  25.757  27.939  1.00  0.00     0.029 A 
ATOM     24  C   UNL A   1      41.652  26.020  28.540  1.00  0.00     0.049 A 
ATOM     25  H   UNL A   1      42.193  27.637  29.738  1.00  0.00     0.167 HD
ATOM     26  C   UNL A   1      43.244  31.201  32.054  1.00  0.00     0.037 A 
ATOM     27  C   UNL A   1      42.740  25.238  28.413  1.00  0.00     0.037 A 
ATOM     28  C   UNL A   1      44.444  30.405  32.011  1.00  0.00     0.049 A 
ATOM     29  C   UNL A   1      44.027  25.668  29.062  1.00  0.00     0.074 A 
ATOM     30  C   UNL A   1      45.663  30.650  32.621  1.00  0.00     0.029 A 
ATOM     31  N   UNL A   1      44.578  29.208  31.322  1.00  0.00    -0.354 N 
ATOM     32  N   UNL A   1      44.270  26.720  29.805  1.00  0.00    -0.248 NA
ATOM     33  C   UNL A   1      45.193  24.799  28.852  1.00  0.00     0.031 C 
ATOM     34  C   UNL A   1      46.547  29.629  32.264  1.00  0.00     0.029 A 
ATOM     35  C   UNL A   1      45.865  28.714  31.479  1.00  0.00     0.049 A 
ATOM     36  H   UNL A   1      43.865  28.774  30.800  1.00  0.00     0.167 HD
ATOM     37  C   UNL A   1      45.606  26.625  30.172  1.00  0.00     0.074 A 
ATOM     38  C   UNL A   1      46.111  25.396  29.597  1.00  0.00     0.031 C 
ATOM     39  C   UNL A   1      46.351  27.485  30.910  1.00  0.00     0.037 A 
BRANCH  26  40
ATOM     40  C   UNL A   1      43.285  32.466  32.860  1.00  0.00     0.064 A 
ATOM     41  C   UNL A   1      42.853  32.475  34.196  1.00  0.00     0.173 A 
ATOM     42  C   UNL A   1      43.633  33.693  32.276  1.00  0.00     0.173 A 
ATOM     43  F   UNL A   1      42.504  31.330  34.800  1.00  0.00    -0.203 F 
ATOM     44  C   UNL A   1      42.738  33.668  34.905  1.00  0.00     0.198 A 
ATOM     45  C   UNL A   1      43.542  34.882  32.997  1.00  0.00     0.198 A 
ATOM     46  F   UNL A   1      44.064  33.737  31.006  1.00  0.00    -0.203 F 
ATOM     47  F   UNL A   1      42.277  33.656  36.164  1.00  0.00    -0.200 F 
ATOM     48  C   UNL A   1      43.081  34.869  34.305  1.00  0.00     0.200 A 
ATOM     49  F   UNL A   1      43.891  36.040  32.421  1.00  0.00    -0.200 F 
ATOM     50  F   UNL A   1      42.963  36.018  34.985  1.00  0.00    -0.200 F 
ENDBRANCH  26  40
BRANCH  27  51
ATOM     51  C   UNL A   1      42.670  23.977  27.627  1.00  0.00     0.064 A 
ATOM     52  C   UNL A   1      42.238  22.774  28.206  1.00  0.00     0.173 A 
ATOM     53  C   UNL A   1      43.007  23.960  26.266  1.00  0.00     0.173 A 
ATOM     54  F   UNL A   1      41.905  22.732  29.504  1.00  0.00    -0.203 F 
ATOM     55  C   UNL A   1      42.154  21.603  27.456  1.00  0.00     0.198 A 
ATOM     56  C   UNL A   1      42.886  22.797  25.509  1.00  0.00     0.198 A 
ATOM     57  F   UNL A   1      43.405  25.089  25.662  1.00  0.00    -0.203 F 
ATOM     58  F   UNL A   1      41.765  20.462  28.040  1.00  0.00    -0.200 F 
ATOM     59  C   UNL A   1      42.466  21.619  26.105  1.00  0.00     0.200 A 
ATOM     60  F   UNL A   1      43.155  22.826  24.196  1.00  0.00    -0.200 F 
ATOM     61  F   UNL A   1      42.350  20.500  25.375  1.00  0.00    -0.200 F 
ENDBRANCH  27  51
BRANCH  39  62
ATOM     62  C   UNL A   1      47.783  27.106  31.167  1.00  0.00     0.064 A 
ATOM     63  C   UNL A   1      48.117  26.281  32.252  1.00  0.00     0.173 A 
ATOM     64  C   UNL A   1      48.826  27.579  30.358  1.00  0.00     0.173 A 
ATOM     65  F   UNL A   1      47.160  25.808  33.065  1.00  0.00    -0.203 F 
ATOM     66  C   UNL A   1      49.442  25.944  32.516  1.00  0.00     0.198 A 
ATOM     67  C   UNL A   1      50.145  27.209  30.600  1.00  0.00     0.198 A 
ATOM     68  F   UNL A   1      48.559  28.360  29.300  1.00  0.00    -0.203 F 
ATOM     69  F   UNL A   1      49.739  25.177  33.573  1.00  0.00    -0.200 F 
ATOM     70  C   UNL A   1      50.453  26.398  31.683  1.00  0.00     0.200 A 
ATOM     71  F   UNL A   1      51.118  27.621  29.775  1.00  0.00    -0.200 F 
ATOM     72  F   UNL A   1      51.725  26.047  31.918  1.00  0.00    -0.200 F 
ENDBRANCH  39  62
ENDBRANCH  13  14
ENDBRANCH   6   8
ENDBRANCH   3   4
ENDBRANCH   2   3
ENDBRANCH   1   2
BRANCH   1  73
ATOM     73  C   UNL A   1      32.900  28.280  23.511  1.00  0.00     0.002 C 
BRANCH  73  74
ATOM     74  C   UNL A   1      31.553  28.973  23.280  1.00  0.00     0.021 C 
BRANCH  74  75
ATOM     75  C   UNL A   1      30.620  28.244  22.317  1.00  0.00     0.116 C 
BRANCH  75  76
ATOM     76  N   UNL A   1      29.282  28.115  22.867  1.00  0.00    -0.352 N 
ATOM     77  C   UNL A   1      28.778  27.110  23.647  1.00  0.00     0.251 C 
ATOM     78  H   UNL A   1      28.657  28.844  22.650  1.00  0.00     0.163 HD
ATOM     79  O   UNL A   1      27.573  27.023  23.865  1.00  0.00    -0.269 OA
BRANCH  77  80
ATOM     80  C   UNL A   1      29.701  26.115  24.222  1.00  0.00     0.042 A 
ATOM     81  C   UNL A   1      30.210  26.307  25.515  1.00  0.00     0.016 A 
ATOM     82  C   UNL A   1      30.031  24.993  23.447  1.00  0.00     0.042 A 
ATOM     83  C   UNL A   1      31.078  25.368  26.078  1.00  0.00     0.031 A 
ATOM     84  C   UNL A   1      30.921  24.090  24.030  1.00  0.00     0.067 A 
ATOM     85  C   UNL A   1      31.412  24.235  25.324  1.00  0.00     0.089 A 
ATOM     86  N   UNL A   1      31.504  22.934  23.577  1.00  0.00    -0.338 N 
ATOM     87  N   UNL A   1      32.167  23.154  25.679  1.00  0.00    -0.228 NA
ATOM     88  C   UNL A   1      32.204  22.380  24.616  1.00  0.00     0.142 A 
ATOM     89  H   UNL A   1      31.432  22.567  22.666  1.00  0.00     0.168 HD
BRANCH  88  90
ATOM     90  C   UNL A   1      32.866  21.060  24.595  1.00  0.00     0.063 A 
ATOM     91  C   UNL A   1      32.257  19.831  24.531  1.00  0.00     0.117 A 
ATOM     92  C   UNL A   1      34.263  20.803  24.659  1.00  0.00     0.106 A 
ATOM     93  N   UNL A   1      33.283  18.931  24.461  1.00  0.00    -0.284 N 
ATOM     94  N   UNL A   1      34.500  19.483  24.593  1.00  0.00    -0.175 NA
ATOM     95  H   UNL A   1      33.142  17.967  24.325  1.00  0.00     0.189 HD
BRANCH  92  96
ATOM     96  C   UNL A   1      35.324  21.764  24.941  1.00  0.00     0.039 A 
ATOM     97  C   UNL A   1      36.113  22.245  23.880  1.00  0.00     0.016 A 
ATOM     98  C   UNL A   1      35.588  22.209  26.237  1.00  0.00     0.135 A 
ATOM     99  C   UNL A   1      37.154  23.143  24.124  1.00  0.00     0.040 A 
ATOM    100  C   UNL A   1      36.622  23.110  26.484  1.00  0.00     0.079 A 
ATOM    101  F   UNL A   1      34.871  21.762  27.280  1.00  0.00    -0.206 F 
ATOM    102  C   UNL A   1      37.397  23.565  25.425  1.00  0.00     0.126 A 
ATOM    103  F   UNL A   1      38.396  24.425  25.659  1.00  0.00    -0.207 F 
ENDBRANCH  92  96
ENDBRANCH  88  90
ENDBRANCH  77  80
ENDBRANCH  75  76
ENDBRANCH  74  75
ENDBRANCH  73  74
ENDBRANCH   1  73
TORSDOF 15
ENDMDL
MODEL 3
REMARK VINA RESULT:     -12.4      3.406      8.768
REMARK SMILES O=C(NCCCCCCNC(=O)c1ccc2nc(-c3c[nH]nc3-c3ccc(F)cc3F)[nH]c2c1)c1ccc(-c2c3nc(c(-c4c(F)c(F)c(F)c(F)c4F)c4ccc([nH]4)c(-c4c(F)c(F)c(F)c(F)c4F)c4nc(c(-c5c(F)c(F)c(F)c(F)c5F)c5ccc2[nH]5)C=C4)C=C3)cc1
REMARK SMILES IDX 6 1 5 2 4 3 3 4 1 5 2 6 35 8 36 9 97 10 37 11 96 12 38 13
REMARK SMILES IDX 39 14 40 15 90 16 41 17 95 18 89 19 91 20 42 21 94 22 88 23
REMARK SMILES IDX 87 24 43 26 75 27 55 28 74 29 56 30 59 31 73 32 92 33 57 34
REMARK SMILES IDX 58 35 72 37 93 38 60 39 44 40 45 41 53 42 46 43 47 44 51 45
REMARK SMILES IDX 54 46 48 47 49 48 52 49 50 50 76 51 77 52 85 53 78 54 79 55
REMARK SMILES IDX 83 56 86 57 80 58 81 59 84 60 82 61 61 62 62 63 70 64 63 65
REMARK SMILES IDX 64 66 68 67 71 68 65 69 66 70 69 71 67 72 7 73 8 74 9 75
REMARK SMILES IDX 10 76 11 77 12 79 13 80 14 81 34 82 15 83 33 84 16 85 32 86
REMARK SMILES IDX 17 87 18 88 19 90 20 91 23 92 21 93 22 94 24 96 25 97 30 98
REMARK SMILES IDX 26 99 29 100 31 101 27 102 28 103
REMARK H PARENT 3 7 91 25 59 36 10 78 32 89 21 95
REMARK Flexibility Score: inf
ROOT
ATOM      1  C   UNL A   1      33.311  29.248  24.907  1.00  0.00     0.002 C 
ENDROOT
BRANCH   1   2
ATOM      2  C   UNL A   1      34.025  28.224  25.791  1.00  0.00     0.021 C 
BRANCH   2   3
ATOM      3  C   UNL A   1      33.938  28.507  27.287  1.00  0.00     0.116 C 
BRANCH   3   4
ATOM      4  N   UNL A   1      33.823  29.927  27.569  1.00  0.00    -0.352 N 
ATOM      5  O   UNL A   1      34.346  31.889  28.546  1.00  0.00    -0.269 OA
ATOM      6  C   UNL A   1      34.696  30.758  28.222  1.00  0.00     0.251 C 
ATOM      7  H   UNL A   1      32.997  30.355  27.244  1.00  0.00     0.163 HD
BRANCH   6   8
ATOM      8  C   UNL A   1      36.055  30.286  28.552  1.00  0.00     0.039 A 
ATOM      9  C   UNL A   1      37.113  30.459  27.654  1.00  0.00     0.014 A 
ATOM     10  C   UNL A   1      36.278  29.691  29.796  1.00  0.00     0.014 A 
ATOM     11  C   UNL A   1      38.371  29.941  27.956  1.00  0.00     0.010 A 
ATOM     12  C   UNL A   1      37.555  29.236  30.126  1.00  0.00     0.010 A 
ATOM     13  C   UNL A   1      38.608  29.341  29.202  1.00  0.00    -0.014 A 
BRANCH  13  14
ATOM     14  C   UNL A   1      39.971  28.882  29.570  1.00  0.00     0.031 A 
ATOM     15  C   UNL A   1      40.864  29.739  30.421  1.00  0.00     0.074 A 
ATOM     16  C   UNL A   1      40.409  27.696  29.105  1.00  0.00     0.049 A 
ATOM     17  N   UNL A   1      42.123  29.564  30.734  1.00  0.00    -0.248 NA
ATOM     18  C   UNL A   1      40.268  30.956  30.996  1.00  0.00     0.031 C 
ATOM     19  C   UNL A   1      39.626  26.769  28.287  1.00  0.00     0.029 A 
ATOM     20  N   UNL A   1      41.622  27.071  29.244  1.00  0.00    -0.354 N 
ATOM     21  C   UNL A   1      42.472  30.646  31.530  1.00  0.00     0.074 A 
ATOM     22  C   UNL A   1      41.302  31.491  31.634  1.00  0.00     0.031 C 
ATOM     23  C   UNL A   1      40.371  25.689  28.009  1.00  0.00     0.029 A 
ATOM     24  C   UNL A   1      41.704  25.878  28.568  1.00  0.00     0.049 A 
ATOM     25  H   UNL A   1      42.363  27.442  29.777  1.00  0.00     0.167 HD
ATOM     26  C   UNL A   1      43.663  30.901  32.124  1.00  0.00     0.037 A 
ATOM     27  C   UNL A   1      42.748  25.048  28.387  1.00  0.00     0.037 A 
ATOM     28  C   UNL A   1      44.821  30.051  32.022  1.00  0.00     0.049 A 
ATOM     29  C   UNL A   1      44.076  25.403  28.997  1.00  0.00     0.074 A 
ATOM     30  C   UNL A   1      46.071  30.226  32.593  1.00  0.00     0.029 A 
ATOM     31  N   UNL A   1      44.874  28.864  31.306  1.00  0.00    -0.354 N 
ATOM     32  N   UNL A   1      44.395  26.427  29.752  1.00  0.00    -0.248 NA
ATOM     33  C   UNL A   1      45.191  24.485  28.729  1.00  0.00     0.031 C 
ATOM     34  C   UNL A   1      46.893  29.173  32.184  1.00  0.00     0.029 A 
ATOM     35  C   UNL A   1      46.140  28.308  31.406  1.00  0.00     0.049 A 
ATOM     36  H   UNL A   1      44.124  28.475  30.801  1.00  0.00     0.167 HD
ATOM     37  C   UNL A   1      45.736  26.261  30.068  1.00  0.00     0.074 A 
ATOM     38  C   UNL A   1      46.162  25.023  29.451  1.00  0.00     0.031 C 
ATOM     39  C   UNL A   1      46.547  27.069  30.796  1.00  0.00     0.037 A 
BRANCH  26  40
ATOM     40  C   UNL A   1      43.792  32.146  32.953  1.00  0.00     0.064 A 
ATOM     41  C   UNL A   1      44.292  33.330  32.387  1.00  0.00     0.173 A 
ATOM     42  C   UNL A   1      43.540  32.135  34.333  1.00  0.00     0.173 A 
ATOM     43  F   UNL A   1      44.554  33.392  31.073  1.00  0.00    -0.203 F 
ATOM     44  C   UNL A   1      44.565  34.444  33.176  1.00  0.00     0.198 A 
ATOM     45  C   UNL A   1      43.789  33.260  35.115  1.00  0.00     0.198 A 
ATOM     46  F   UNL A   1      43.050  31.034  34.920  1.00  0.00    -0.203 F 
ATOM     47  F   UNL A   1      45.087  35.547  32.621  1.00  0.00    -0.200 F 
ATOM     48  C   UNL A   1      44.314  34.408  34.539  1.00  0.00     0.200 A 
ATOM     49  F   UNL A   1      43.530  33.230  36.429  1.00  0.00    -0.200 F 
ATOM     50  F   UNL A   1      44.584  35.477  35.300  1.00  0.00    -0.200 F 
ENDBRANCH  26  40
BRANCH  27  51
ATOM     51  C   UNL A   1      42.590  23.809  27.579  1.00  0.00     0.064 A 
ATOM     52  C   UNL A   1      42.890  23.784  26.208  1.00  0.00     0.173 A 
ATOM     53  C   UNL A   1      42.164  22.614  28.174  1.00  0.00     0.173 A 
ATOM     54  F   UNL A   1      43.301  24.898  25.587  1.00  0.00    -0.203 F 
ATOM     55  C   UNL A   1      42.760  22.613  25.464  1.00  0.00     0.198 A 
ATOM     56  C   UNL A   1      42.072  21.436  27.437  1.00  0.00     0.198 A 
ATOM     57  F   UNL A   1      41.886  22.582  29.485  1.00  0.00    -0.203 F 
ATOM     58  F   UNL A   1      43.027  22.623  24.151  1.00  0.00    -0.200 F 
ATOM     59  C   UNL A   1      42.364  21.437  26.082  1.00  0.00     0.200 A 
ATOM     60  F   UNL A   1      41.722  20.294  28.047  1.00  0.00    -0.200 F 
ATOM     61  F   UNL A   1      42.274  20.302  25.374  1.00  0.00    -0.200 F 
ENDBRANCH  27  51
BRANCH  39  62
ATOM     62  C   UNL A   1      47.967  26.618  30.994  1.00  0.00     0.064 A 
ATOM     63  C   UNL A   1      48.973  27.024  30.103  1.00  0.00     0.173 A 
ATOM     64  C   UNL A   1      48.330  25.766  32.047  1.00  0.00     0.173 A 
ATOM     65  F   UNL A   1      48.681  27.832  29.072  1.00  0.00    -0.203 F 
ATOM     66  C   UNL A   1      50.287  26.593  30.261  1.00  0.00     0.198 A 
ATOM     67  C   UNL A   1      49.651  25.368  32.225  1.00  0.00     0.198 A 
ATOM     68  F   UNL A   1      47.409  25.359  32.934  1.00  0.00    -0.203 F 
ATOM     69  F   UNL A   1      51.225  26.973  29.382  1.00  0.00    -0.200 F 
ATOM     70  C   UNL A   1      50.628  25.776  31.327  1.00  0.00     0.200 A 
ATOM     71  F   UNL A   1      49.985  24.606  33.276  1.00  0.00    -0.200 F 
ATOM     72  F   UNL A   1      51.899  25.387  31.497  1.00  0.00    -0.200 F 
ENDBRANCH  39  62
ENDBRANCH  13  14
ENDBRANCH   6   8
ENDBRANCH   3   4
ENDBRANCH   2   3
ENDBRANCH   1   2
BRANCH   1  73
ATOM     73  C   UNL A   1      32.836  28.718  23.551  1.00  0.00     0.002 C 
BRANCH  73  74
ATOM     74  C   UNL A   1      31.486  29.266  23.075  1.00  0.00     0.021 C 
BRANCH  74  75
ATOM     75  C   UNL A   1      30.637  28.268  22.291  1.00  0.00     0.116 C 
BRANCH  75  76
ATOM     76  N   UNL A   1      29.304  28.146  22.855  1.00  0.00    -0.352 N 
ATOM     77  C   UNL A   1      28.806  27.148  23.646  1.00  0.00     0.251 C 
ATOM     78  H   UNL A   1      28.679  28.874  22.639  1.00  0.00     0.163 HD
ATOM     79  O   UNL A   1      27.602  27.064  23.876  1.00  0.00    -0.269 OA
BRANCH  77  80
ATOM     80  C   UNL A   1      29.732  26.155  24.219  1.00  0.00     0.042 A 
ATOM     81  C   UNL A   1      30.283  26.373  25.491  1.00  0.00     0.016 A 
ATOM     82  C   UNL A   1      30.022  25.008  23.466  1.00  0.00     0.042 A 
ATOM     83  C   UNL A   1      31.156  25.437  26.052  1.00  0.00     0.031 A 
ATOM     84  C   UNL A   1      30.917  24.108  24.045  1.00  0.00     0.067 A 
ATOM     85  C   UNL A   1      31.450  24.279  25.319  1.00  0.00     0.089 A 
ATOM     86  N   UNL A   1      31.470  22.931  23.606  1.00  0.00    -0.338 N 
ATOM     87  N   UNL A   1      32.200  23.197  25.680  1.00  0.00    -0.228 NA
ATOM     88  C   UNL A   1      32.194  22.395  24.638  1.00  0.00     0.142 A 
ATOM     89  H   UNL A   1      31.364  22.542  22.708  1.00  0.00     0.168 HD
BRANCH  88  90
ATOM     90  C   UNL A   1      32.837  21.065  24.632  1.00  0.00     0.063 A 
ATOM     91  C   UNL A   1      32.210  19.844  24.616  1.00  0.00     0.117 A 
ATOM     92  C   UNL A   1      34.232  20.790  24.664  1.00  0.00     0.106 A 
ATOM     93  N   UNL A   1      33.220  18.928  24.541  1.00  0.00    -0.284 N 
ATOM     94  N   UNL A   1      34.448  19.465  24.625  1.00  0.00    -0.175 NA
ATOM     95  H   UNL A   1      33.062  17.962  24.434  1.00  0.00     0.189 HD
BRANCH  92  96
ATOM     96  C   UNL A   1      35.313  21.742  24.891  1.00  0.00     0.039 A 
ATOM     97  C   UNL A   1      35.987  21.734  26.126  1.00  0.00     0.016 A 
ATOM     98  C   UNL A   1      35.690  22.672  23.920  1.00  0.00     0.135 A 
ATOM     99  C   UNL A   1      37.006  22.653  26.381  1.00  0.00     0.040 A 
ATOM    100  C   UNL A   1      36.711  23.586  24.168  1.00  0.00     0.079 A 
ATOM    101  F   UNL A   1      35.063  22.724  22.735  1.00  0.00    -0.206 F 
ATOM    102  C   UNL A   1      37.357  23.570  25.398  1.00  0.00     0.126 A 
ATOM    103  F   UNL A   1      38.333  24.452  25.643  1.00  0.00    -0.207 F 
ENDBRANCH  92  96
ENDBRANCH  88  90
ENDBRANCH  77  80
ENDBRANCH  75  76
ENDBRANCH  74  75
ENDBRANCH  73  74
ENDBRANCH   1  73
TORSDOF 15
ENDMDL
