MODEL 1
REMARK VINA RESULT:     -11.2      0.000      0.000
REMARK SMILES CC(C)Cc1noc(C[NH+]2CCC(CC(=O)NCCCCCCNC(=O)c3ccc(-c4c5nc(c(-c6c(F)c(F)c(F)c(F)c6F)c6ccc([nH]6)c(-c6c(F)c(F)c(F)c(F)c6F)c6nc(c(-c7c(F)c(F)c(F)c(F)c7F)c7ccc4[nH]7)C=C6)C=C5)cc3)CC2)n1
REMARK SMILES IDX 19 1 18 2 17 3 15 4 16 5 14 7 13 8 10 9 11 10 91 11 12 13
REMARK SMILES IDX 90 14 9 15 8 16 5 17 6 18 92 19 7 20 4 21 2 22 1 23 3 24
REMARK SMILES IDX 20 25 21 26 22 27 23 28 24 29 25 30 26 32 27 33 28 34 89 35
REMARK SMILES IDX 29 36 88 37 30 38 31 39 32 40 82 41 33 42 87 43 81 44 83 45
REMARK SMILES IDX 34 46 86 47 80 48 79 49 35 51 67 52 47 53 66 54 48 55 51 56
REMARK SMILES IDX 65 57 84 58 49 59 50 60 64 62 85 63 52 64 36 65 37 66 45 67
REMARK SMILES IDX 38 68 39 69 43 70 46 71 40 72 41 73 44 74 42 75 68 76 69 77
REMARK SMILES IDX 77 78 70 79 71 80 75 81 78 82 72 83 73 84 76 85 74 86 53 87
REMARK SMILES IDX 54 88 62 89 55 90 56 91 60 92 63 93 57 94 58 95 61 96 59 97
REMARK H PARENT 17 6 10 12 24 31 83 50 51 61
REMARK Flexibility Score: inf
ROOT
ATOM      1  C   UNL A   1      34.015  31.377  27.553  1.00  0.00     0.021 C 
ENDROOT
BRANCH   1   2
ATOM      2  C   UNL A   1      34.434  29.900  27.557  1.00  0.00     0.116 C 
BRANCH   2   3
ATOM      3  N   UNL A   1      33.326  29.046  27.950  1.00  0.00    -0.356 N 
ATOM      4  C   UNL A   1      32.368  28.420  27.208  1.00  0.00     0.220 C 
ATOM      5  O   UNL A   1      31.471  27.824  27.808  1.00  0.00    -0.275 OA
ATOM      6  H   UNL A   1      33.254  28.892  28.920  1.00  0.00     0.163 HD
BRANCH   4   7
ATOM      7  C   UNL A   1      32.393  28.450  25.686  1.00  0.00     0.104 C 
BRANCH   7   8
ATOM      8  C   UNL A   1      33.329  27.396  25.065  1.00  0.00     0.009 C 
ATOM      9  N   UNL A   1      33.600  24.595  24.198  1.00  0.00    -0.327 N 
ATOM     10  C   UNL A   1      34.265  25.048  25.421  1.00  0.00     0.262 C 
ATOM     11  C   UNL A   1      33.585  25.668  23.199  1.00  0.00     0.262 C 
ATOM     12  H   UNL A   1      32.627  24.374  24.410  1.00  0.00     0.348 HD
ATOM     13  C   UNL A   1      33.530  26.226  26.024  1.00  0.00     0.066 C 
ATOM     14  C   UNL A   1      32.787  26.874  23.723  1.00  0.00     0.066 C 
BRANCH   9  15
ATOM     15  C   UNL A   1      34.202  23.336  23.697  1.00  0.00     0.364 C 
BRANCH  15  16
ATOM     16  C   UNL A   1      33.604  22.075  24.228  1.00  0.00     0.281 A 
ATOM     17  C   UNL A   1      33.098  20.110  24.723  1.00  0.00     0.172 A 
ATOM     18  N   UNL A   1      31.929  20.758  24.817  1.00  0.00    -0.062 NA
ATOM     19  N   UNL A   1      34.168  20.895  24.383  1.00  0.00    -0.191 NA
ATOM     20  O   UNL A   1      32.264  22.073  24.484  1.00  0.00    -0.333 OA
BRANCH  17  21
ATOM     21  C   UNL A   1      33.233  18.648  24.954  1.00  0.00     0.084 C 
BRANCH  21  22
ATOM     22  C   UNL A   1      33.583  17.851  23.683  1.00  0.00    -0.010 C 
ATOM     23  C   UNL A   1      33.837  16.369  23.977  1.00  0.00     0.008 C 
ATOM     24  C   UNL A   1      32.450  17.980  22.662  1.00  0.00     0.008 C 
ENDBRANCH  21  22
ENDBRANCH  17  21
ENDBRANCH  15  16
ENDBRANCH   9  15
ENDBRANCH   7   8
ENDBRANCH   4   7
ENDBRANCH   2   3
ENDBRANCH   1   2
BRANCH   1  25
ATOM     25  C   UNL A   1      34.443  32.176  28.782  1.00  0.00     0.002 C 
BRANCH  25  26
ATOM     26  C   UNL A   1      34.509  33.691  28.584  1.00  0.00     0.002 C 
BRANCH  26  27
ATOM     27  C   UNL A   1      33.217  34.458  28.879  1.00  0.00     0.021 C 
BRANCH  27  28
ATOM     28  C   UNL A   1      33.402  35.886  29.393  1.00  0.00     0.116 C 
BRANCH  28  29
ATOM     29  N   UNL A   1      32.575  36.166  30.556  1.00  0.00    -0.352 N 
ATOM     30  C   UNL A   1      32.685  35.709  31.844  1.00  0.00     0.251 C 
ATOM     31  H   UNL A   1      31.821  36.777  30.392  1.00  0.00     0.163 HD
ATOM     32  O   UNL A   1      31.771  35.892  32.644  1.00  0.00    -0.269 OA
BRANCH  30  33
ATOM     33  C   UNL A   1      33.897  34.981  32.277  1.00  0.00     0.039 A 
ATOM     34  C   UNL A   1      33.766  33.674  32.754  1.00  0.00     0.014 A 
ATOM     35  C   UNL A   1      35.152  35.594  32.246  1.00  0.00     0.014 A 
ATOM     36  C   UNL A   1      34.900  32.962  33.148  1.00  0.00     0.010 A 
ATOM     37  C   UNL A   1      36.290  34.862  32.579  1.00  0.00     0.010 A 
ATOM     38  C   UNL A   1      36.175  33.541  33.037  1.00  0.00    -0.014 A 
BRANCH  38  39
ATOM     39  C   UNL A   1      37.398  32.781  33.400  1.00  0.00     0.031 A 
ATOM     40  C   UNL A   1      38.123  33.082  34.682  1.00  0.00     0.074 A 
ATOM     41  C   UNL A   1      37.889  31.864  32.546  1.00  0.00     0.049 A 
ATOM     42  N   UNL A   1      39.243  32.581  35.139  1.00  0.00    -0.248 NA
ATOM     43  C   UNL A   1      37.523  34.103  35.555  1.00  0.00     0.031 C 
ATOM     44  C   UNL A   1      37.301  31.513  31.252  1.00  0.00     0.029 A 
ATOM     45  N   UNL A   1      39.005  31.068  32.630  1.00  0.00    -0.354 N 
ATOM     46  C   UNL A   1      39.488  33.234  36.339  1.00  0.00     0.074 A 
ATOM     47  C   UNL A   1      38.427  34.202  36.518  1.00  0.00     0.031 C 
ATOM     48  C   UNL A   1      38.050  30.561  30.672  1.00  0.00     0.029 A 
ATOM     49  C   UNL A   1      39.189  30.260  31.535  1.00  0.00     0.049 A 
ATOM     50  H   UNL A   1      39.615  31.076  33.403  1.00  0.00     0.167 HD
ATOM     51  C   UNL A   1      40.495  33.030  37.222  1.00  0.00     0.037 A 
ATOM     52  C   UNL A   1      40.170  29.381  31.256  1.00  0.00     0.037 A 
ATOM     53  C   UNL A   1      41.533  32.047  37.053  1.00  0.00     0.049 A 
ATOM     54  C   UNL A   1      41.277  29.173  32.254  1.00  0.00     0.074 A 
ATOM     55  C   UNL A   1      42.563  31.721  37.919  1.00  0.00     0.029 A 
ATOM     56  N   UNL A   1      41.674  31.231  35.941  1.00  0.00    -0.354 N 
ATOM     57  N   UNL A   1      41.462  29.749  33.416  1.00  0.00    -0.248 NA
ATOM     58  C   UNL A   1      42.307  28.185  31.903  1.00  0.00     0.031 C 
ATOM     59  C   UNL A   1      43.350  30.738  37.313  1.00  0.00     0.029 A 
ATOM     60  C   UNL A   1      42.785  30.416  36.089  1.00  0.00     0.049 A 
ATOM     61  H   UNL A   1      41.073  31.232  35.160  1.00  0.00     0.167 HD
ATOM     62  C   UNL A   1      42.610  29.177  33.947  1.00  0.00     0.074 A 
ATOM     63  C   UNL A   1      43.072  28.198  32.986  1.00  0.00     0.031 C 
ATOM     64  C   UNL A   1      43.226  29.441  35.126  1.00  0.00     0.037 A 
BRANCH  51  65
ATOM     65  C   UNL A   1      40.520  33.885  38.455  1.00  0.00     0.064 A 
ATOM     66  C   UNL A   1      41.248  35.084  38.503  1.00  0.00     0.173 A 
ATOM     67  C   UNL A   1      39.781  33.521  39.590  1.00  0.00     0.173 A 
ATOM     68  F   UNL A   1      41.981  35.472  37.448  1.00  0.00    -0.203 F 
ATOM     69  C   UNL A   1      41.259  35.871  39.652  1.00  0.00     0.198 A 
ATOM     70  C   UNL A   1      39.770  34.326  40.727  1.00  0.00     0.198 A 
ATOM     71  F   UNL A   1      39.062  32.389  39.595  1.00  0.00    -0.203 F 
ATOM     72  F   UNL A   1      42.000  36.987  39.690  1.00  0.00    -0.200 F 
ATOM     73  C   UNL A   1      40.514  35.496  40.759  1.00  0.00     0.200 A 
ATOM     74  F   UNL A   1      39.039  33.969  41.792  1.00  0.00    -0.200 F 
ATOM     75  F   UNL A   1      40.519  36.258  41.862  1.00  0.00    -0.200 F 
ENDBRANCH  51  65
BRANCH  52  76
ATOM     76  C   UNL A   1      40.136  28.612  29.986  1.00  0.00     0.064 A 
ATOM     77  C   UNL A   1      39.516  27.356  29.922  1.00  0.00     0.173 A 
ATOM     78  C   UNL A   1      40.721  29.110  28.813  1.00  0.00     0.173 A 
ATOM     79  F   UNL A   1      38.960  26.828  31.023  1.00  0.00    -0.203 F 
ATOM     80  C   UNL A   1      39.498  26.621  28.740  1.00  0.00     0.198 A 
ATOM     81  C   UNL A   1      40.680  28.386  27.623  1.00  0.00     0.198 A 
ATOM     82  F   UNL A   1      41.324  30.309  28.819  1.00  0.00    -0.203 F 
ATOM     83  F   UNL A   1      38.937  25.404  28.718  1.00  0.00    -0.200 F 
ATOM     84  C   UNL A   1      40.075  27.138  27.590  1.00  0.00     0.200 A 
ATOM     85  F   UNL A   1      41.226  28.895  26.511  1.00  0.00    -0.200 F 
ATOM     86  F   UNL A   1      40.055  26.432  26.451  1.00  0.00    -0.200 F 
ENDBRANCH  52  76
BRANCH  64  87
ATOM     87  C   UNL A   1      44.448  28.634  35.458  1.00  0.00     0.064 A 
ATOM     88  C   UNL A   1      44.361  27.422  36.156  1.00  0.00     0.173 A 
ATOM     89  C   UNL A   1      45.716  29.063  35.037  1.00  0.00     0.173 A 
ATOM     90  F   UNL A   1      43.173  26.978  36.594  1.00  0.00    -0.203 F 
ATOM     91  C   UNL A   1      45.504  26.678  36.441  1.00  0.00     0.198 A 
ATOM     92  C   UNL A   1      46.852  28.303  35.299  1.00  0.00     0.198 A 
ATOM     93  F   UNL A   1      45.851  30.214  34.360  1.00  0.00    -0.203 F 
ATOM     94  F   UNL A   1      45.403  25.544  37.150  1.00  0.00    -0.200 F 
ATOM     95  C   UNL A   1      46.746  27.116  36.006  1.00  0.00     0.200 A 
ATOM     96  F   UNL A   1      48.050  28.721  34.867  1.00  0.00    -0.200 F 
ATOM     97  F   UNL A   1      47.843  26.395  36.276  1.00  0.00    -0.200 F 
ENDBRANCH  64  87
ENDBRANCH  38  39
ENDBRANCH  30  33
ENDBRANCH  28  29
ENDBRANCH  27  28
ENDBRANCH  26  27
ENDBRANCH  25  26
ENDBRANCH   1  25
TORSDOF 18
ENDMDL
MODEL 2
REMARK VINA RESULT:     -11.2      4.630      9.951
REMARK SMILES CC(C)Cc1noc(C[NH+]2CCC(CC(=O)NCCCCCCNC(=O)c3ccc(-c4c5nc(c(-c6c(F)c(F)c(F)c(F)c6F)c6ccc([nH]6)c(-c6c(F)c(F)c(F)c(F)c6F)c6nc(c(-c7c(F)c(F)c(F)c(F)c7F)c7ccc4[nH]7)C=C6)C=C5)cc3)CC2)n1
REMARK SMILES IDX 19 1 18 2 17 3 15 4 16 5 14 7 13 8 10 9 11 10 91 11 12 13
REMARK SMILES IDX 90 14 9 15 8 16 5 17 6 18 92 19 7 20 4 21 2 22 1 23 3 24
REMARK SMILES IDX 20 25 21 26 22 27 23 28 24 29 25 30 26 32 27 33 28 34 89 35
REMARK SMILES IDX 29 36 88 37 30 38 31 39 32 40 82 41 33 42 87 43 81 44 83 45
REMARK SMILES IDX 34 46 86 47 80 48 79 49 35 51 67 52 47 53 66 54 48 55 51 56
REMARK SMILES IDX 65 57 84 58 49 59 50 60 64 62 85 63 52 64 36 65 37 66 45 67
REMARK SMILES IDX 38 68 39 69 43 70 46 71 40 72 41 73 44 74 42 75 68 76 69 77
REMARK SMILES IDX 77 78 70 79 71 80 75 81 78 82 72 83 73 84 76 85 74 86 53 87
REMARK SMILES IDX 54 88 62 89 55 90 56 91 60 92 63 93 57 94 58 95 61 96 59 97
REMARK H PARENT 17 6 10 12 24 31 83 50 51 61
REMARK Flexibility Score: inf
ROOT
ATOM      1  C   UNL A   1      32.506  21.689  24.111  1.00  0.00     0.021 C 
ENDROOT
BRANCH   1   2
ATOM      2  C   UNL A   1      32.339  21.230  25.567  1.00  0.00     0.116 C 
BRANCH   2   3
ATOM      3  N   UNL A   1      31.151  21.817  26.164  1.00  0.00    -0.356 N 
ATOM      4  C   UNL A   1      30.961  23.012  26.796  1.00  0.00     0.220 C 
ATOM      5  O   UNL A   1      29.858  23.227  27.303  1.00  0.00    -0.275 OA
ATOM      6  H   UNL A   1      30.344  21.257  26.102  1.00  0.00     0.163 HD
BRANCH   4   7
ATOM      7  C   UNL A   1      32.067  24.054  26.878  1.00  0.00     0.104 C 
BRANCH   7   8
ATOM      8  C   UNL A   1      32.237  24.875  25.586  1.00  0.00     0.009 C 
ATOM      9  N   UNL A   1      32.204  27.568  24.396  1.00  0.00    -0.327 N 
ATOM     10  C   UNL A   1      31.099  26.643  24.138  1.00  0.00     0.262 C 
ATOM     11  C   UNL A   1      33.469  26.835  24.502  1.00  0.00     0.262 C 
ATOM     12  H   UNL A   1      32.052  28.027  25.294  1.00  0.00     0.348 HD
ATOM     13  C   UNL A   1      30.961  25.648  25.271  1.00  0.00     0.066 C 
ATOM     14  C   UNL A   1      33.420  25.854  25.686  1.00  0.00     0.066 C 
BRANCH   9  15
ATOM     15  C   UNL A   1      32.239  28.653  23.386  1.00  0.00     0.364 C 
BRANCH  15  16
ATOM     16  C   UNL A   1      30.912  29.212  22.989  1.00  0.00     0.281 A 
ATOM     17  C   UNL A   1      29.016  30.082  22.885  1.00  0.00     0.172 A 
ATOM     18  N   UNL A   1      29.019  29.232  21.849  1.00  0.00    -0.062 NA
ATOM     19  N   UNL A   1      30.180  30.118  23.605  1.00  0.00    -0.191 NA
ATOM     20  O   UNL A   1      30.286  28.647  21.918  1.00  0.00    -0.333 OA
BRANCH  17  21
ATOM     21  C   UNL A   1      27.840  30.916  23.243  1.00  0.00     0.084 C 
BRANCH  21  22
ATOM     22  C   UNL A   1      27.855  32.316  22.599  1.00  0.00    -0.010 C 
ATOM     23  C   UNL A   1      28.994  33.191  23.131  1.00  0.00     0.008 C 
ATOM     24  C   UNL A   1      27.980  32.185  21.079  1.00  0.00     0.008 C 
ENDBRANCH  21  22
ENDBRANCH  17  21
ENDBRANCH  15  16
ENDBRANCH   9  15
ENDBRANCH   7   8
ENDBRANCH   4   7
ENDBRANCH   2   3
ENDBRANCH   1   2
BRANCH   1  25
ATOM     25  C   UNL A   1      33.859  22.314  23.779  1.00  0.00     0.002 C 
BRANCH  25  26
ATOM     26  C   UNL A   1      35.020  21.863  24.666  1.00  0.00     0.002 C 
BRANCH  26  27
ATOM     27  C   UNL A   1      35.414  22.827  25.788  1.00  0.00     0.021 C 
BRANCH  27  28
ATOM     28  C   UNL A   1      36.793  23.473  25.648  1.00  0.00     0.116 C 
BRANCH  28  29
ATOM     29  N   UNL A   1      37.871  22.542  25.938  1.00  0.00    -0.352 N 
ATOM     30  C   UNL A   1      39.136  22.780  26.411  1.00  0.00     0.251 C 
ATOM     31  H   UNL A   1      37.660  21.596  25.768  1.00  0.00     0.163 HD
ATOM     32  O   UNL A   1      39.978  21.887  26.398  1.00  0.00    -0.269 OA
BRANCH  30  33
ATOM     33  C   UNL A   1      39.499  24.117  26.927  1.00  0.00     0.039 A 
ATOM     34  C   UNL A   1      39.224  24.424  28.262  1.00  0.00     0.014 A 
ATOM     35  C   UNL A   1      40.076  25.077  26.091  1.00  0.00     0.014 A 
ATOM     36  C   UNL A   1      39.578  25.673  28.775  1.00  0.00     0.010 A 
ATOM     37  C   UNL A   1      40.487  26.300  26.619  1.00  0.00     0.010 A 
ATOM     38  C   UNL A   1      40.237  26.611  27.964  1.00  0.00    -0.014 A 
BRANCH  38  39
ATOM     39  C   UNL A   1      40.670  27.925  28.506  1.00  0.00     0.031 A 
ATOM     40  C   UNL A   1      42.111  28.157  28.863  1.00  0.00     0.074 A 
ATOM     41  C   UNL A   1      39.755  28.885  28.733  1.00  0.00     0.049 A 
ATOM     42  N   UNL A   1      42.671  29.206  29.414  1.00  0.00    -0.248 NA
ATOM     43  C   UNL A   1      43.046  27.054  28.590  1.00  0.00     0.031 C 
ATOM     44  C   UNL A   1      38.320  28.765  28.468  1.00  0.00     0.029 A 
ATOM     45  N   UNL A   1      39.892  30.149  29.252  1.00  0.00    -0.354 N 
ATOM     46  C   UNL A   1      44.012  28.883  29.566  1.00  0.00     0.074 A 
ATOM     47  C   UNL A   1      44.176  27.524  29.095  1.00  0.00     0.031 C 
ATOM     48  C   UNL A   1      37.712  29.913  28.810  1.00  0.00     0.029 A 
ATOM     49  C   UNL A   1      38.706  30.836  29.348  1.00  0.00     0.049 A 
ATOM     50  H   UNL A   1      40.758  30.527  29.528  1.00  0.00     0.167 HD
ATOM     51  C   UNL A   1      45.019  29.656  30.036  1.00  0.00     0.037 A 
ATOM     52  C   UNL A   1      38.451  32.069  29.826  1.00  0.00     0.037 A 
ATOM     53  C   UNL A   1      44.857  31.017  30.478  1.00  0.00     0.049 A 
ATOM     54  C   UNL A   1      39.588  32.908  30.342  1.00  0.00     0.074 A 
ATOM     55  C   UNL A   1      45.826  31.905  30.914  1.00  0.00     0.029 A 
ATOM     56  N   UNL A   1      43.644  31.687  30.541  1.00  0.00    -0.354 N 
ATOM     57  N   UNL A   1      40.863  32.616  30.420  1.00  0.00    -0.248 NA
ATOM     58  C   UNL A   1      39.249  34.253  30.829  1.00  0.00     0.031 C 
ATOM     59  C   UNL A   1      45.193  33.097  31.280  1.00  0.00     0.029 A 
ATOM     60  C   UNL A   1      43.837  32.970  31.028  1.00  0.00     0.049 A 
ATOM     61  H   UNL A   1      42.775  31.306  30.279  1.00  0.00     0.167 HD
ATOM     62  C   UNL A   1      41.482  33.745  30.937  1.00  0.00     0.074 A 
ATOM     63  C   UNL A   1      40.444  34.734  31.143  1.00  0.00     0.031 C 
ATOM     64  C   UNL A   1      42.794  33.945  31.218  1.00  0.00     0.037 A 
BRANCH  51  65
ATOM     65  C   UNL A   1      46.392  29.051  30.093  1.00  0.00     0.064 A 
ATOM     66  C   UNL A   1      47.337  29.277  29.081  1.00  0.00     0.173 A 
ATOM     67  C   UNL A   1      46.779  28.265  31.188  1.00  0.00     0.173 A 
ATOM     68  F   UNL A   1      47.013  30.012  28.006  1.00  0.00    -0.203 F 
ATOM     69  C   UNL A   1      48.609  28.714  29.149  1.00  0.00     0.198 A 
ATOM     70  C   UNL A   1      48.062  27.729  31.268  1.00  0.00     0.198 A 
ATOM     71  F   UNL A   1      45.916  28.024  32.187  1.00  0.00    -0.203 F 
ATOM     72  F   UNL A   1      49.478  28.904  28.148  1.00  0.00    -0.200 F 
ATOM     73  C   UNL A   1      48.973  27.948  30.245  1.00  0.00     0.200 A 
ATOM     74  F   UNL A   1      48.417  26.998  32.335  1.00  0.00    -0.200 F 
ATOM     75  F   UNL A   1      50.200  27.412  30.313  1.00  0.00    -0.200 F 
ENDBRANCH  51  65
BRANCH  52  76
ATOM     76  C   UNL A   1      37.061  32.594  29.814  1.00  0.00     0.064 A 
ATOM     77  C   UNL A   1      36.569  33.300  28.706  1.00  0.00     0.173 A 
ATOM     78  C   UNL A   1      36.198  32.405  30.903  1.00  0.00     0.173 A 
ATOM     79  F   UNL A   1      37.364  33.524  27.650  1.00  0.00    -0.203 F 
ATOM     80  C   UNL A   1      35.275  33.813  28.697  1.00  0.00     0.198 A 
ATOM     81  C   UNL A   1      34.894  32.895  30.882  1.00  0.00     0.198 A 
ATOM     82  F   UNL A   1      36.619  31.733  31.985  1.00  0.00    -0.203 F 
ATOM     83  F   UNL A   1      34.845  34.522  27.644  1.00  0.00    -0.200 F 
ATOM     84  C   UNL A   1      34.436  33.605  29.782  1.00  0.00     0.200 A 
ATOM     85  F   UNL A   1      34.083  32.681  31.926  1.00  0.00    -0.200 F 
ATOM     86  F   UNL A   1      33.189  34.096  29.771  1.00  0.00    -0.200 F 
ENDBRANCH  52  76
BRANCH  64  87
ATOM     87  C   UNL A   1      43.186  35.294  31.745  1.00  0.00     0.064 A 
ATOM     88  C   UNL A   1      43.126  35.595  33.113  1.00  0.00     0.173 A 
ATOM     89  C   UNL A   1      43.664  36.284  30.874  1.00  0.00     0.173 A 
ATOM     90  F   UNL A   1      42.660  34.687  33.985  1.00  0.00    -0.203 F 
ATOM     91  C   UNL A   1      43.510  36.847  33.587  1.00  0.00     0.198 A 
ATOM     92  C   UNL A   1      44.074  37.524  31.354  1.00  0.00     0.198 A 
ATOM     93  F   UNL A   1      43.746  36.043  29.556  1.00  0.00    -0.203 F 
ATOM     94  F   UNL A   1      43.401  37.128  34.894  1.00  0.00    -0.200 F 
ATOM     95  C   UNL A   1      43.989  37.807  32.709  1.00  0.00     0.200 A 
ATOM     96  F   UNL A   1      44.548  38.446  30.506  1.00  0.00    -0.200 F 
ATOM     97  F   UNL A   1      44.365  39.008  33.168  1.00  0.00    -0.200 F 
ENDBRANCH  64  87
ENDBRANCH  38  39
ENDBRANCH  30  33
ENDBRANCH  28  29
ENDBRANCH  27  28
ENDBRANCH  26  27
ENDBRANCH  25  26
ENDBRANCH   1  25
TORSDOF 18
ENDMDL
MODEL 3
REMARK VINA RESULT:     -11.2      4.772      8.566
REMARK SMILES CC(C)Cc1noc(C[NH+]2CCC(CC(=O)NCCCCCCNC(=O)c3ccc(-c4c5nc(c(-c6c(F)c(F)c(F)c(F)c6F)c6ccc([nH]6)c(-c6c(F)c(F)c(F)c(F)c6F)c6nc(c(-c7c(F)c(F)c(F)c(F)c7F)c7ccc4[nH]7)C=C6)C=C5)cc3)CC2)n1
REMARK SMILES IDX 19 1 18 2 17 3 15 4 16 5 14 7 13 8 10 9 11 10 91 11 12 13
REMARK SMILES IDX 90 14 9 15 8 16 5 17 6 18 92 19 7 20 4 21 2 22 1 23 3 24
REMARK SMILES IDX 20 25 21 26 22 27 23 28 24 29 25 30 26 32 27 33 28 34 89 35
REMARK SMILES IDX 29 36 88 37 30 38 31 39 32 40 82 41 33 42 87 43 81 44 83 45
REMARK SMILES IDX 34 46 86 47 80 48 79 49 35 51 67 52 47 53 66 54 48 55 51 56
REMARK SMILES IDX 65 57 84 58 49 59 50 60 64 62 85 63 52 64 36 65 37 66 45 67
REMARK SMILES IDX 38 68 39 69 43 70 46 71 40 72 41 73 44 74 42 75 68 76 69 77
REMARK SMILES IDX 77 78 70 79 71 80 75 81 78 82 72 83 73 84 76 85 74 86 53 87
REMARK SMILES IDX 54 88 62 89 55 90 56 91 60 92 63 93 57 94 58 95 61 96 59 97
REMARK H PARENT 17 6 10 12 24 31 83 50 51 61
REMARK Flexibility Score: inf
ROOT
ATOM      1  C   UNL A   1      37.219  33.813  31.216  1.00  0.00     0.021 C 
ENDROOT
BRANCH   1   2
ATOM      2  C   UNL A   1      38.063  34.389  32.362  1.00  0.00     0.116 C 
BRANCH   2   3
ATOM      3  N   UNL A   1      37.315  34.389  33.609  1.00  0.00    -0.356 N 
ATOM      4  C   UNL A   1      36.833  33.362  34.366  1.00  0.00     0.220 C 
ATOM      5  O   UNL A   1      36.138  33.643  35.345  1.00  0.00    -0.275 OA
ATOM      6  H   UNL A   1      37.124  35.285  33.970  1.00  0.00     0.163 HD
BRANCH   4   7
ATOM      7  C   UNL A   1      37.136  31.910  34.024  1.00  0.00     0.104 C 
BRANCH   7   8
ATOM      8  C   UNL A   1      38.604  31.512  34.269  1.00  0.00     0.009 C 
ATOM      9  N   UNL A   1      40.418  29.635  35.631  1.00  0.00    -0.327 N 
ATOM     10  C   UNL A   1      40.290  31.010  36.118  1.00  0.00     0.262 C 
ATOM     11  C   UNL A   1      40.295  29.599  34.170  1.00  0.00     0.262 C 
ATOM     12  H   UNL A   1      39.653  29.076  36.006  1.00  0.00     0.348 HD
ATOM     13  C   UNL A   1      38.936  31.581  35.757  1.00  0.00     0.066 C 
ATOM     14  C   UNL A   1      38.906  30.100  33.739  1.00  0.00     0.066 C 
BRANCH   9  15
ATOM     15  C   UNL A   1      41.664  29.005  36.129  1.00  0.00     0.364 C 
BRANCH  15  16
ATOM     16  C   UNL A   1      41.621  27.520  36.288  1.00  0.00     0.281 A 
ATOM     17  C   UNL A   1      41.656  25.445  36.059  1.00  0.00     0.172 A 
ATOM     18  N   UNL A   1      40.806  25.624  37.078  1.00  0.00    -0.062 NA
ATOM     19  N   UNL A   1      42.203  26.594  35.554  1.00  0.00    -0.191 NA
ATOM     20  O   UNL A   1      40.778  27.013  37.232  1.00  0.00    -0.333 OA
BRANCH  17  21
ATOM     21  C   UNL A   1      41.978  24.106  35.501  1.00  0.00     0.084 C 
BRANCH  21  22
ATOM     22  C   UNL A   1      43.387  24.015  34.884  1.00  0.00    -0.010 C 
ATOM     23  C   UNL A   1      44.460  23.683  35.927  1.00  0.00     0.008 C 
ATOM     24  C   UNL A   1      43.403  22.953  33.781  1.00  0.00     0.008 C 
ENDBRANCH  21  22
ENDBRANCH  17  21
ENDBRANCH  15  16
ENDBRANCH   9  15
ENDBRANCH   7   8
ENDBRANCH   4   7
ENDBRANCH   2   3
ENDBRANCH   1   2
BRANCH   1  25
ATOM     25  C   UNL A   1      37.679  34.203  29.812  1.00  0.00     0.002 C 
BRANCH  25  26
ATOM     26  C   UNL A   1      37.204  33.278  28.691  1.00  0.00     0.002 C 
BRANCH  26  27
ATOM     27  C   UNL A   1      35.745  33.451  28.258  1.00  0.00     0.021 C 
BRANCH  27  28
ATOM     28  C   UNL A   1      34.711  32.735  29.128  1.00  0.00     0.116 C 
BRANCH  28  29
ATOM     29  N   UNL A   1      34.024  31.676  28.408  1.00  0.00    -0.352 N 
ATOM     30  C   UNL A   1      34.512  30.501  27.895  1.00  0.00     0.251 C 
ATOM     31  H   UNL A   1      33.061  31.825  28.268  1.00  0.00     0.163 HD
ATOM     32  O   UNL A   1      33.821  29.825  27.138  1.00  0.00    -0.269 OA
BRANCH  30  33
ATOM     33  C   UNL A   1      35.876  30.047  28.237  1.00  0.00     0.039 A 
ATOM     34  C   UNL A   1      36.866  30.079  27.251  1.00  0.00     0.014 A 
ATOM     35  C   UNL A   1      36.171  29.558  29.512  1.00  0.00     0.014 A 
ATOM     36  C   UNL A   1      38.165  29.674  27.559  1.00  0.00     0.010 A 
ATOM     37  C   UNL A   1      37.482  29.214  29.837  1.00  0.00     0.010 A 
ATOM     38  C   UNL A   1      38.491  29.264  28.862  1.00  0.00    -0.014 A 
BRANCH  38  39
ATOM     39  C   UNL A   1      39.879  28.881  29.224  1.00  0.00     0.031 A 
ATOM     40  C   UNL A   1      40.736  29.815  30.031  1.00  0.00     0.074 A 
ATOM     41  C   UNL A   1      40.388  27.719  28.772  1.00  0.00     0.049 A 
ATOM     42  N   UNL A   1      41.991  29.694  30.384  1.00  0.00    -0.248 NA
ATOM     43  C   UNL A   1      40.106  31.067  30.480  1.00  0.00     0.031 C 
ATOM     44  C   UNL A   1      39.671  26.748  27.944  1.00  0.00     0.029 A 
ATOM     45  N   UNL A   1      41.633  27.163  28.933  1.00  0.00    -0.354 N 
ATOM     46  C   UNL A   1      42.302  30.855  31.079  1.00  0.00     0.074 A 
ATOM     47  C   UNL A   1      41.121  31.690  31.057  1.00  0.00     0.031 C 
ATOM     48  C   UNL A   1      40.481  25.709  27.684  1.00  0.00     0.029 A 
ATOM     49  C   UNL A   1      41.783  25.956  28.297  1.00  0.00     0.049 A 
ATOM     50  H   UNL A   1      42.350  27.590  29.455  1.00  0.00     0.167 HD
ATOM     51  C   UNL A   1      43.462  31.184  31.697  1.00  0.00     0.037 A 
ATOM     52  C   UNL A   1      42.854  25.143  28.211  1.00  0.00     0.037 A 
ATOM     53  C   UNL A   1      44.626  30.338  31.740  1.00  0.00     0.049 A 
ATOM     54  C   UNL A   1      44.130  25.533  28.907  1.00  0.00     0.074 A 
ATOM     55  C   UNL A   1      45.828  30.554  32.392  1.00  0.00     0.029 A 
ATOM     56  N   UNL A   1      44.733  29.111  31.102  1.00  0.00    -0.354 N 
ATOM     57  N   UNL A   1      44.392  26.602  29.617  1.00  0.00    -0.248 NA
ATOM     58  C   UNL A   1      45.257  24.595  28.796  1.00  0.00     0.031 C 
ATOM     59  C   UNL A   1      46.676  29.478  32.114  1.00  0.00     0.029 A 
ATOM     60  C   UNL A   1      45.988  28.568  31.328  1.00  0.00     0.049 A 
ATOM     61  H   UNL A   1      44.023  28.689  30.567  1.00  0.00     0.167 HD
ATOM     62  C   UNL A   1      45.699  26.456  30.059  1.00  0.00     0.074 A 
ATOM     63  C   UNL A   1      46.174  25.187  29.549  1.00  0.00     0.031 C 
ATOM     64  C   UNL A   1      46.441  27.299  30.819  1.00  0.00     0.037 A 
BRANCH  51  65
ATOM     65  C   UNL A   1      43.528  32.518  32.384  1.00  0.00     0.064 A 
ATOM     66  C   UNL A   1      43.801  33.697  31.673  1.00  0.00     0.173 A 
ATOM     67  C   UNL A   1      43.282  32.624  33.760  1.00  0.00     0.173 A 
ATOM     68  F   UNL A   1      44.055  33.648  30.356  1.00  0.00    -0.203 F 
ATOM     69  C   UNL A   1      43.854  34.928  32.321  1.00  0.00     0.198 A 
ATOM     70  C   UNL A   1      43.306  33.861  34.399  1.00  0.00     0.198 A 
ATOM     71  F   UNL A   1      43.009  31.529  34.485  1.00  0.00    -0.203 F 
ATOM     72  F   UNL A   1      44.164  36.033  31.630  1.00  0.00    -0.200 F 
ATOM     73  C   UNL A   1      43.599  35.010  33.681  1.00  0.00     0.200 A 
ATOM     74  F   UNL A   1      43.046  33.941  35.712  1.00  0.00    -0.200 F 
ATOM     75  F   UNL A   1      43.643  36.197  34.302  1.00  0.00    -0.200 F 
ENDBRANCH  51  65
BRANCH  52  76
ATOM     76  C   UNL A   1      42.757  23.867  27.457  1.00  0.00     0.064 A 
ATOM     77  C   UNL A   1      42.272  22.704  28.072  1.00  0.00     0.173 A 
ATOM     78  C   UNL A   1      43.146  23.780  26.113  1.00  0.00     0.173 A 
ATOM     79  F   UNL A   1      41.907  22.733  29.363  1.00  0.00    -0.203 F 
ATOM     80  C   UNL A   1      42.198  21.500  27.377  1.00  0.00     0.198 A 
ATOM     81  C   UNL A   1      43.046  22.581  25.410  1.00  0.00     0.198 A 
ATOM     82  F   UNL A   1      43.613  24.865  25.477  1.00  0.00    -0.203 F 
ATOM     83  F   UNL A   1      41.771  20.393  28.002  1.00  0.00    -0.200 F 
ATOM     84  C   UNL A   1      42.579  21.440  26.046  1.00  0.00     0.200 A 
ATOM     85  F   UNL A   1      43.403  22.531  24.120  1.00  0.00    -0.200 F 
ATOM     86  F   UNL A   1      42.505  20.282  25.376  1.00  0.00    -0.200 F 
ENDBRANCH  52  76
BRANCH  64  87
ATOM     87  C   UNL A   1      47.832  26.861  31.175  1.00  0.00     0.064 A 
ATOM     88  C   UNL A   1      48.077  25.992  32.247  1.00  0.00     0.173 A 
ATOM     89  C   UNL A   1      48.927  27.285  30.407  1.00  0.00     0.173 A 
ATOM     90  F   UNL A   1      47.065  25.571  33.021  1.00  0.00    -0.203 F 
ATOM     91  C   UNL A   1      49.373  25.582  32.553  1.00  0.00     0.198 A 
ATOM     92  C   UNL A   1      50.216  26.851  30.698  1.00  0.00     0.198 A 
ATOM     93  F   UNL A   1      48.743  28.112  29.366  1.00  0.00    -0.203 F 
ATOM     94  F   UNL A   1      49.590  24.787  33.611  1.00  0.00    -0.200 F 
ATOM     95  C   UNL A   1      50.439  26.006  31.774  1.00  0.00     0.200 A 
ATOM     96  F   UNL A   1      51.244  27.251  29.937  1.00  0.00    -0.200 F 
ATOM     97  F   UNL A   1      51.684  25.604  32.066  1.00  0.00    -0.200 F 
ENDBRANCH  64  87
ENDBRANCH  38  39
ENDBRANCH  30  33
ENDBRANCH  28  29
ENDBRANCH  27  28
ENDBRANCH  26  27
ENDBRANCH  25  26
ENDBRANCH   1  25
TORSDOF 18
ENDMDL
