MODEL 1
REMARK VINA RESULT:     -11.8      0.000      0.000
REMARK SMILES O=C(NCCCCCCNC(=O)[C@@H]1CSCN1C(=O)c1cccc(Cl)c1)c1ccc(-c2c3nc(c(-c4c(F)c(F)c(F)c(F)c4F)c4ccc([nH]4)c(-c4c(F)c(F)c(F)c(F)c4F)c4nc(c(-c5c(F)c(F)c(F)c(F)c5F)c5ccc2[nH]5)C=C4)C=C3)cc1
REMARK SMILES IDX 6 1 5 2 4 3 3 4 1 5 2 6 27 8 28 9 89 10 29 11 88 12 30 13
REMARK SMILES IDX 31 14 32 15 82 16 33 17 87 18 81 19 83 20 34 21 86 22 80 23
REMARK SMILES IDX 79 24 35 26 67 27 47 28 66 29 48 30 51 31 65 32 84 33 49 34
REMARK SMILES IDX 50 35 64 37 85 38 52 39 36 40 37 41 45 42 38 43 39 44 43 45
REMARK SMILES IDX 46 46 40 47 41 48 44 49 42 50 68 51 69 52 77 53 70 54 71 55
REMARK SMILES IDX 75 56 78 57 72 58 73 59 76 60 74 61 53 62 54 63 62 64 55 65
REMARK SMILES IDX 56 66 60 67 63 68 57 69 58 70 61 71 59 72 7 73 8 74 9 75
REMARK SMILES IDX 10 76 11 77 12 79 13 80 14 81 17 82 15 83 16 84 18 85 19 86
REMARK SMILES IDX 20 87 21 88 26 89 22 90 24 91 23 92 25 93
REMARK H PARENT 3 7 83 25 51 36 10 78
REMARK Flexibility Score: inf
ROOT
ATOM      1  C   UNL A   1      31.606  30.803  26.649  1.00  0.00     0.002 C 
ENDROOT
BRANCH   1   2
ATOM      2  C   UNL A   1      31.389  32.304  26.851  1.00  0.00     0.021 C 
BRANCH   2   3
ATOM      3  C   UNL A   1      32.678  33.096  27.019  1.00  0.00     0.116 C 
BRANCH   3   4
ATOM      4  N   UNL A   1      32.444  34.383  27.656  1.00  0.00    -0.352 N 
ATOM      5  O   UNL A   1      32.545  35.904  29.321  1.00  0.00    -0.269 OA
ATOM      6  C   UNL A   1      33.010  34.903  28.794  1.00  0.00     0.251 C 
ATOM      7  H   UNL A   1      31.786  34.963  27.207  1.00  0.00     0.163 HD
BRANCH   6   8
ATOM      8  C   UNL A   1      34.186  34.233  29.385  1.00  0.00     0.039 A 
ATOM      9  C   UNL A   1      34.019  33.276  30.388  1.00  0.00     0.014 A 
ATOM     10  C   UNL A   1      35.465  34.557  28.925  1.00  0.00     0.014 A 
ATOM     11  C   UNL A   1      35.132  32.745  31.026  1.00  0.00     0.010 A 
ATOM     12  C   UNL A   1      36.582  33.949  29.504  1.00  0.00     0.010 A 
ATOM     13  C   UNL A   1      36.424  33.054  30.574  1.00  0.00    -0.014 A 
BRANCH  13  14
ATOM     14  C   UNL A   1      37.585  32.360  31.185  1.00  0.00     0.031 A 
ATOM     15  C   UNL A   1      38.054  32.696  32.571  1.00  0.00     0.074 A 
ATOM     16  C   UNL A   1      38.197  31.394  30.473  1.00  0.00     0.049 A 
ATOM     17  N   UNL A   1      39.045  32.177  33.253  1.00  0.00    -0.248 NA
ATOM     18  C   UNL A   1      37.324  33.754  33.285  1.00  0.00     0.031 C 
ATOM     19  C   UNL A   1      37.830  30.993  29.112  1.00  0.00     0.029 A 
ATOM     20  N   UNL A   1      39.240  30.565  30.792  1.00  0.00    -0.354 N 
ATOM     21  C   UNL A   1      39.064  32.848  34.468  1.00  0.00     0.074 A 
ATOM     22  C   UNL A   1      38.007  33.837  34.419  1.00  0.00     0.031 C 
ATOM     23  C   UNL A   1      38.603  29.967  28.731  1.00  0.00     0.029 A 
ATOM     24  C   UNL A   1      39.566  29.687  29.788  1.00  0.00     0.049 A 
ATOM     25  H   UNL A   1      39.710  30.595  31.656  1.00  0.00     0.167 HD
ATOM     26  C   UNL A   1      39.882  32.645  35.530  1.00  0.00     0.037 A 
ATOM     27  C   UNL A   1      40.550  28.772  29.714  1.00  0.00     0.037 A 
ATOM     28  C   UNL A   1      40.932  31.657  35.566  1.00  0.00     0.049 A 
ATOM     29  C   UNL A   1      41.473  28.609  30.887  1.00  0.00     0.074 A 
ATOM     30  C   UNL A   1      41.806  31.362  36.597  1.00  0.00     0.029 A 
ATOM     31  N   UNL A   1      41.256  30.808  34.515  1.00  0.00    -0.354 N 
ATOM     32  N   UNL A   1      41.459  29.223  32.044  1.00  0.00    -0.248 NA
ATOM     33  C   UNL A   1      42.551  27.622  30.743  1.00  0.00     0.031 C 
ATOM     34  C   UNL A   1      42.691  30.374  36.154  1.00  0.00     0.029 A 
ATOM     35  C   UNL A   1      42.332  30.006  34.869  1.00  0.00     0.049 A 
ATOM     36  H   UNL A   1      40.791  30.780  33.648  1.00  0.00     0.167 HD
ATOM     37  C   UNL A   1      42.507  28.685  32.774  1.00  0.00     0.074 A 
ATOM     38  C   UNL A   1      43.121  27.675  31.938  1.00  0.00     0.031 C 
ATOM     39  C   UNL A   1      42.927  29.000  34.024  1.00  0.00     0.037 A 
BRANCH  26  40
ATOM     40  C   UNL A   1      39.688  33.517  36.739  1.00  0.00     0.064 A 
ATOM     41  C   UNL A   1      38.807  33.161  37.770  1.00  0.00     0.173 A 
ATOM     42  C   UNL A   1      40.432  34.697  36.894  1.00  0.00     0.173 A 
ATOM     43  F   UNL A   1      38.064  32.048  37.670  1.00  0.00    -0.203 F 
ATOM     44  C   UNL A   1      38.657  33.966  38.897  1.00  0.00     0.198 A 
ATOM     45  C   UNL A   1      40.303  35.484  38.036  1.00  0.00     0.198 A 
ATOM     46  F   UNL A   1      41.296  35.082  35.942  1.00  0.00    -0.203 F 
ATOM     47  F   UNL A   1      37.775  33.628  39.848  1.00  0.00    -0.200 F 
ATOM     48  C   UNL A   1      39.412  35.122  39.033  1.00  0.00     0.200 A 
ATOM     49  F   UNL A   1      41.045  36.593  38.171  1.00  0.00    -0.200 F 
ATOM     50  F   UNL A   1      39.274  35.890  40.122  1.00  0.00    -0.200 F 
ENDBRANCH  26  40
BRANCH  27  51
ATOM     51  C   UNL A   1      40.716  27.959  28.482  1.00  0.00     0.064 A 
ATOM     52  C   UNL A   1      40.114  26.700  28.359  1.00  0.00     0.173 A 
ATOM     53  C   UNL A   1      41.487  28.422  27.404  1.00  0.00     0.173 A 
ATOM     54  F   UNL A   1      39.381  26.207  29.368  1.00  0.00    -0.203 F 
ATOM     55  C   UNL A   1      40.296  25.925  27.216  1.00  0.00     0.198 A 
ATOM     56  C   UNL A   1      41.638  27.661  26.247  1.00  0.00     0.198 A 
ATOM     57  F   UNL A   1      42.080  29.624  27.467  1.00  0.00    -0.203 F 
ATOM     58  F   UNL A   1      39.752  24.703  27.146  1.00  0.00    -0.200 F 
ATOM     59  C   UNL A   1      41.052  26.409  26.158  1.00  0.00     0.200 A 
ATOM     60  F   UNL A   1      42.353  28.142  25.221  1.00  0.00    -0.200 F 
ATOM     61  F   UNL A   1      41.222  25.663  25.058  1.00  0.00    -0.200 F 
ENDBRANCH  27  51
BRANCH  39  62
ATOM     62  C   UNL A   1      44.082  28.214  34.574  1.00  0.00     0.064 A 
ATOM     63  C   UNL A   1      45.407  28.655  34.440  1.00  0.00     0.173 A 
ATOM     64  C   UNL A   1      43.856  27.010  35.259  1.00  0.00     0.173 A 
ATOM     65  F   UNL A   1      45.678  29.789  33.778  1.00  0.00    -0.203 F 
ATOM     66  C   UNL A   1      46.464  27.903  34.943  1.00  0.00     0.198 A 
ATOM     67  C   UNL A   1      44.913  26.279  35.791  1.00  0.00     0.198 A 
ATOM     68  F   UNL A   1      42.607  26.546  35.419  1.00  0.00    -0.203 F 
ATOM     69  F   UNL A   1      47.726  28.312  34.752  1.00  0.00    -0.200 F 
ATOM     70  C   UNL A   1      46.217  26.720  35.625  1.00  0.00     0.200 A 
ATOM     71  F   UNL A   1      44.671  25.143  36.461  1.00  0.00    -0.200 F 
ATOM     72  F   UNL A   1      47.237  25.999  36.111  1.00  0.00    -0.200 F 
ENDBRANCH  39  62
ENDBRANCH  13  14
ENDBRANCH   6   8
ENDBRANCH   3   4
ENDBRANCH   2   3
ENDBRANCH   1   2
BRANCH   1  73
ATOM     73  C   UNL A   1      33.043  30.320  26.881  1.00  0.00     0.002 C 
BRANCH  73  74
ATOM     74  C   UNL A   1      33.178  28.841  27.259  1.00  0.00     0.021 C 
BRANCH  74  75
ATOM     75  C   UNL A   1      33.951  28.025  26.230  1.00  0.00     0.116 C 
BRANCH  75  76
ATOM     76  N   UNL A   1      34.065  28.723  24.971  1.00  0.00    -0.354 N 
ATOM     77  C   UNL A   1      33.664  28.361  23.718  1.00  0.00     0.243 C 
ATOM     78  H   UNL A   1      34.503  29.602  25.026  1.00  0.00     0.163 HD
ATOM     79  O   UNL A   1      33.685  29.250  22.859  1.00  0.00    -0.273 OA
BRANCH  77  80
ATOM     80  C   UNL A   1      32.984  27.003  23.421  1.00  0.00     0.185 C 
ATOM     81  C   UNL A   1      33.798  26.310  22.328  1.00  0.00     0.106 C 
ATOM     82  N   UNL A   1      31.556  27.038  23.069  1.00  0.00    -0.317 N 
ATOM     83  S   UNL A   1      32.639  25.605  21.135  1.00  0.00    -0.138 SA
ATOM     84  C   UNL A   1      31.205  26.463  21.789  1.00  0.00     0.190 C 
BRANCH  82  85
ATOM     85  C   UNL A   1      30.655  27.466  24.039  1.00  0.00     0.255 C 
ATOM     86  O   UNL A   1      30.753  27.157  25.223  1.00  0.00    -0.269 OA
BRANCH  85  87
ATOM     87  C   UNL A   1      29.568  28.400  23.669  1.00  0.00     0.041 A 
ATOM     88  C   UNL A   1      28.285  27.949  23.339  1.00  0.00     0.014 A 
ATOM     89  C   UNL A   1      29.841  29.771  23.711  1.00  0.00     0.034 A 
ATOM     90  C   UNL A   1      27.308  28.862  22.943  1.00  0.00     0.002 A 
ATOM     91  C   UNL A   1      28.852  30.677  23.337  1.00  0.00     0.041 A 
ATOM     92  C   UNL A   1      27.596  30.227  22.931  1.00  0.00     0.020 A 
ATOM     93  Cl  UNL A   1      29.188  32.364  23.362  1.00  0.00    -0.084 Cl
ENDBRANCH  85  87
ENDBRANCH  82  85
ENDBRANCH  77  80
ENDBRANCH  75  76
ENDBRANCH  74  75
ENDBRANCH  73  74
ENDBRANCH   1  73
TORSDOF 15
ENDMDL
MODEL 2
REMARK VINA RESULT:     -11.7      0.140      1.599
REMARK SMILES O=C(NCCCCCCNC(=O)[C@@H]1CSCN1C(=O)c1cccc(Cl)c1)c1ccc(-c2c3nc(c(-c4c(F)c(F)c(F)c(F)c4F)c4ccc([nH]4)c(-c4c(F)c(F)c(F)c(F)c4F)c4nc(c(-c5c(F)c(F)c(F)c(F)c5F)c5ccc2[nH]5)C=C4)C=C3)cc1
REMARK SMILES IDX 6 1 5 2 4 3 3 4 1 5 2 6 27 8 28 9 89 10 29 11 88 12 30 13
REMARK SMILES IDX 31 14 32 15 82 16 33 17 87 18 81 19 83 20 34 21 86 22 80 23
REMARK SMILES IDX 79 24 35 26 67 27 47 28 66 29 48 30 51 31 65 32 84 33 49 34
REMARK SMILES IDX 50 35 64 37 85 38 52 39 36 40 37 41 45 42 38 43 39 44 43 45
REMARK SMILES IDX 46 46 40 47 41 48 44 49 42 50 68 51 69 52 77 53 70 54 71 55
REMARK SMILES IDX 75 56 78 57 72 58 73 59 76 60 74 61 53 62 54 63 62 64 55 65
REMARK SMILES IDX 56 66 60 67 63 68 57 69 58 70 61 71 59 72 7 73 8 74 9 75
REMARK SMILES IDX 10 76 11 77 12 79 13 80 14 81 17 82 15 83 16 84 18 85 19 86
REMARK SMILES IDX 20 87 21 88 26 89 22 90 24 91 23 92 25 93
REMARK H PARENT 3 7 83 25 51 36 10 78
REMARK Flexibility Score: inf
ROOT
ATOM      1  C   UNL A   1      31.630  30.742  26.581  1.00  0.00     0.002 C 
ENDROOT
BRANCH   1   2
ATOM      2  C   UNL A   1      31.419  32.244  26.776  1.00  0.00     0.021 C 
BRANCH   2   3
ATOM      3  C   UNL A   1      32.709  33.027  26.976  1.00  0.00     0.116 C 
BRANCH   3   4
ATOM      4  N   UNL A   1      32.471  34.307  27.625  1.00  0.00    -0.352 N 
ATOM      5  O   UNL A   1      32.561  35.811  29.306  1.00  0.00    -0.269 OA
ATOM      6  C   UNL A   1      33.029  34.815  28.772  1.00  0.00     0.251 C 
ATOM      7  H   UNL A   1      31.816  34.892  27.179  1.00  0.00     0.163 HD
BRANCH   6   8
ATOM      8  C   UNL A   1      34.202  34.139  29.363  1.00  0.00     0.039 A 
ATOM      9  C   UNL A   1      34.027  33.149  30.333  1.00  0.00     0.014 A 
ATOM     10  C   UNL A   1      35.485  34.492  28.937  1.00  0.00     0.014 A 
ATOM     11  C   UNL A   1      35.134  32.610  30.974  1.00  0.00     0.010 A 
ATOM     12  C   UNL A   1      36.598  33.877  29.516  1.00  0.00     0.010 A 
ATOM     13  C   UNL A   1      36.431  32.947  30.555  1.00  0.00    -0.014 A 
BRANCH  13  14
ATOM     14  C   UNL A   1      37.588  32.247  31.165  1.00  0.00     0.031 A 
ATOM     15  C   UNL A   1      38.054  32.572  32.554  1.00  0.00     0.074 A 
ATOM     16  C   UNL A   1      38.200  31.284  30.449  1.00  0.00     0.049 A 
ATOM     17  N   UNL A   1      39.041  32.046  33.236  1.00  0.00    -0.248 NA
ATOM     18  C   UNL A   1      37.324  33.626  33.274  1.00  0.00     0.031 C 
ATOM     19  C   UNL A   1      37.837  30.893  29.084  1.00  0.00     0.029 A 
ATOM     20  N   UNL A   1      39.241  30.450  30.765  1.00  0.00    -0.354 N 
ATOM     21  C   UNL A   1      39.058  32.708  34.457  1.00  0.00     0.074 A 
ATOM     22  C   UNL A   1      38.003  33.700  34.410  1.00  0.00     0.031 C 
ATOM     23  C   UNL A   1      38.609  29.868  28.698  1.00  0.00     0.029 A 
ATOM     24  C   UNL A   1      39.569  29.578  29.756  1.00  0.00     0.049 A 
ATOM     25  H   UNL A   1      39.708  30.474  31.631  1.00  0.00     0.167 HD
ATOM     26  C   UNL A   1      39.872  32.496  35.519  1.00  0.00     0.037 A 
ATOM     27  C   UNL A   1      40.551  28.662  29.679  1.00  0.00     0.037 A 
ATOM     28  C   UNL A   1      40.920  31.506  35.552  1.00  0.00     0.049 A 
ATOM     29  C   UNL A   1      41.469  28.488  30.854  1.00  0.00     0.074 A 
ATOM     30  C   UNL A   1      41.790  31.202  36.584  1.00  0.00     0.029 A 
ATOM     31  N   UNL A   1      41.246  30.664  34.497  1.00  0.00    -0.354 N 
ATOM     32  N   UNL A   1      41.453  29.095  32.015  1.00  0.00    -0.248 NA
ATOM     33  C   UNL A   1      42.545  27.500  30.707  1.00  0.00     0.031 C 
ATOM     34  C   UNL A   1      42.674  30.215  36.137  1.00  0.00     0.029 A 
ATOM     35  C   UNL A   1      42.318  29.857  34.848  1.00  0.00     0.049 A 
ATOM     36  H   UNL A   1      40.783  30.643  33.628  1.00  0.00     0.167 HD
ATOM     37  C   UNL A   1      42.498  28.550  32.745  1.00  0.00     0.074 A 
ATOM     38  C   UNL A   1      43.112  27.544  31.904  1.00  0.00     0.031 C 
ATOM     39  C   UNL A   1      42.914  28.855  33.999  1.00  0.00     0.037 A 
BRANCH  26  40
ATOM     40  C   UNL A   1      39.677  33.361  36.733  1.00  0.00     0.064 A 
ATOM     41  C   UNL A   1      40.359  34.577  36.889  1.00  0.00     0.173 A 
ATOM     42  C   UNL A   1      38.758  32.996  37.729  1.00  0.00     0.173 A 
ATOM     43  F   UNL A   1      41.256  34.970  35.972  1.00  0.00    -0.203 F 
ATOM     44  C   UNL A   1      40.148  35.381  38.007  1.00  0.00     0.198 A 
ATOM     45  C   UNL A   1      38.527  33.816  38.831  1.00  0.00     0.198 A 
ATOM     46  F   UNL A   1      38.071  31.847  37.628  1.00  0.00    -0.203 F 
ATOM     47  F   UNL A   1      40.846  36.515  38.155  1.00  0.00    -0.200 F 
ATOM     48  C   UNL A   1      39.226  35.004  38.972  1.00  0.00     0.200 A 
ATOM     49  F   UNL A   1      37.623  33.457  39.754  1.00  0.00    -0.200 F 
ATOM     50  F   UNL A   1      39.017  35.783  40.042  1.00  0.00    -0.200 F 
ENDBRANCH  26  40
BRANCH  27  51
ATOM     51  C   UNL A   1      40.719  27.857  28.442  1.00  0.00     0.064 A 
ATOM     52  C   UNL A   1      40.105  26.605  28.304  1.00  0.00     0.173 A 
ATOM     53  C   UNL A   1      41.503  28.320  27.374  1.00  0.00     0.173 A 
ATOM     54  F   UNL A   1      39.358  26.112  29.303  1.00  0.00    -0.203 F 
ATOM     55  C   UNL A   1      40.288  25.837  27.157  1.00  0.00     0.198 A 
ATOM     56  C   UNL A   1      41.657  27.567  26.213  1.00  0.00     0.198 A 
ATOM     57  F   UNL A   1      42.108  29.515  27.452  1.00  0.00    -0.203 F 
ATOM     58  F   UNL A   1      39.732  24.621  27.073  1.00  0.00    -0.200 F 
ATOM     59  C   UNL A   1      41.058  26.321  26.109  1.00  0.00     0.200 A 
ATOM     60  F   UNL A   1      42.384  28.049  25.197  1.00  0.00    -0.200 F 
ATOM     61  F   UNL A   1      41.230  25.583  25.005  1.00  0.00    -0.200 F 
ENDBRANCH  27  51
BRANCH  39  62
ATOM     62  C   UNL A   1      44.065  28.063  34.547  1.00  0.00     0.064 A 
ATOM     63  C   UNL A   1      43.873  26.844  35.214  1.00  0.00     0.173 A 
ATOM     64  C   UNL A   1      45.381  28.523  34.385  1.00  0.00     0.173 A 
ATOM     65  F   UNL A   1      42.634  26.370  35.411  1.00  0.00    -0.203 F 
ATOM     66  C   UNL A   1      44.954  26.133  35.728  1.00  0.00     0.198 A 
ATOM     67  C   UNL A   1      46.461  27.792  34.870  1.00  0.00     0.198 A 
ATOM     68  F   UNL A   1      45.620  29.681  33.750  1.00  0.00    -0.203 F 
ATOM     69  F   UNL A   1      44.742  25.002  36.415  1.00  0.00    -0.200 F 
ATOM     70  C   UNL A   1      46.246  26.602  35.549  1.00  0.00     0.200 A 
ATOM     71  F   UNL A   1      47.710  28.240  34.684  1.00  0.00    -0.200 F 
ATOM     72  F   UNL A   1      47.285  25.914  36.042  1.00  0.00    -0.200 F 
ENDBRANCH  39  62
ENDBRANCH  13  14
ENDBRANCH   6   8
ENDBRANCH   3   4
ENDBRANCH   2   3
ENDBRANCH   1   2
BRANCH   1  73
ATOM     73  C   UNL A   1      33.063  30.253  26.824  1.00  0.00     0.002 C 
BRANCH  73  74
ATOM     74  C   UNL A   1      33.185  28.783  27.241  1.00  0.00     0.021 C 
BRANCH  74  75
ATOM     75  C   UNL A   1      33.851  27.910  26.184  1.00  0.00     0.116 C 
BRANCH  75  76
ATOM     76  N   UNL A   1      34.008  28.614  24.933  1.00  0.00    -0.354 N 
ATOM     77  C   UNL A   1      33.616  28.275  23.670  1.00  0.00     0.243 C 
ATOM     78  H   UNL A   1      34.472  29.479  25.002  1.00  0.00     0.163 HD
ATOM     79  O   UNL A   1      33.679  29.169  22.819  1.00  0.00    -0.273 OA
BRANCH  77  80
ATOM     80  C   UNL A   1      32.897  26.941  23.353  1.00  0.00     0.185 C 
ATOM     81  C   UNL A   1      33.704  26.232  22.264  1.00  0.00     0.106 C 
ATOM     82  N   UNL A   1      31.476  27.024  22.982  1.00  0.00    -0.317 N 
ATOM     83  S   UNL A   1      32.540  25.574  21.049  1.00  0.00    -0.138 SA
ATOM     84  C   UNL A   1      31.125  26.471  21.691  1.00  0.00     0.190 C 
BRANCH  82  85
ATOM     85  C   UNL A   1      30.576  27.472  23.942  1.00  0.00     0.255 C 
ATOM     86  O   UNL A   1      30.640  27.141  25.123  1.00  0.00    -0.269 OA
BRANCH  85  87
ATOM     87  C   UNL A   1      29.533  28.454  23.570  1.00  0.00     0.041 A 
ATOM     88  C   UNL A   1      28.255  28.057  23.160  1.00  0.00     0.014 A 
ATOM     89  C   UNL A   1      29.841  29.813  23.692  1.00  0.00     0.034 A 
ATOM     90  C   UNL A   1      27.323  29.017  22.765  1.00  0.00     0.002 A 
ATOM     91  C   UNL A   1      28.896  30.764  23.317  1.00  0.00     0.041 A 
ATOM     92  C   UNL A   1      27.648  30.372  22.833  1.00  0.00     0.020 A 
ATOM     93  Cl  UNL A   1      29.276  32.438  23.440  1.00  0.00    -0.084 Cl
ENDBRANCH  85  87
ENDBRANCH  82  85
ENDBRANCH  77  80
ENDBRANCH  75  76
ENDBRANCH  74  75
ENDBRANCH  73  74
ENDBRANCH   1  73
TORSDOF 15
ENDMDL
MODEL 3
REMARK VINA RESULT:     -11.6      6.404     10.310
REMARK SMILES O=C(NCCCCCCNC(=O)[C@@H]1CSCN1C(=O)c1cccc(Cl)c1)c1ccc(-c2c3nc(c(-c4c(F)c(F)c(F)c(F)c4F)c4ccc([nH]4)c(-c4c(F)c(F)c(F)c(F)c4F)c4nc(c(-c5c(F)c(F)c(F)c(F)c5F)c5ccc2[nH]5)C=C4)C=C3)cc1
REMARK SMILES IDX 6 1 5 2 4 3 3 4 1 5 2 6 27 8 28 9 89 10 29 11 88 12 30 13
REMARK SMILES IDX 31 14 32 15 82 16 33 17 87 18 81 19 83 20 34 21 86 22 80 23
REMARK SMILES IDX 79 24 35 26 67 27 47 28 66 29 48 30 51 31 65 32 84 33 49 34
REMARK SMILES IDX 50 35 64 37 85 38 52 39 36 40 37 41 45 42 38 43 39 44 43 45
REMARK SMILES IDX 46 46 40 47 41 48 44 49 42 50 68 51 69 52 77 53 70 54 71 55
REMARK SMILES IDX 75 56 78 57 72 58 73 59 76 60 74 61 53 62 54 63 62 64 55 65
REMARK SMILES IDX 56 66 60 67 63 68 57 69 58 70 61 71 59 72 7 73 8 74 9 75
REMARK SMILES IDX 10 76 11 77 12 79 13 80 14 81 17 82 15 83 16 84 18 85 19 86
REMARK SMILES IDX 20 87 21 88 26 89 22 90 24 91 23 92 25 93
REMARK H PARENT 3 7 83 25 51 36 10 78
REMARK Flexibility Score: inf
ROOT
ATOM      1  C   UNL A   1      37.517  20.571  24.582  1.00  0.00     0.002 C 
ENDROOT
BRANCH   1   2
ATOM      2  C   UNL A   1      38.397  19.401  25.025  1.00  0.00     0.021 C 
BRANCH   2   3
ATOM      3  C   UNL A   1      39.423  19.768  26.087  1.00  0.00     0.116 C 
BRANCH   3   4
ATOM      4  N   UNL A   1      40.573  18.878  26.061  1.00  0.00    -0.352 N 
ATOM      5  O   UNL A   1      42.747  18.331  25.793  1.00  0.00    -0.269 OA
ATOM      6  C   UNL A   1      41.910  19.189  26.038  1.00  0.00     0.251 C 
ATOM      7  H   UNL A   1      40.362  17.916  26.058  1.00  0.00     0.163 HD
BRANCH   6   8
ATOM      8  C   UNL A   1      42.332  20.580  26.304  1.00  0.00     0.039 A 
ATOM      9  C   UNL A   1      42.524  21.016  27.617  1.00  0.00     0.014 A 
ATOM     10  C   UNL A   1      42.545  21.450  25.232  1.00  0.00     0.014 A 
ATOM     11  C   UNL A   1      42.794  22.355  27.865  1.00  0.00     0.010 A 
ATOM     12  C   UNL A   1      42.913  22.775  25.481  1.00  0.00     0.010 A 
ATOM     13  C   UNL A   1      43.019  23.242  26.800  1.00  0.00    -0.014 A 
BRANCH  13  14
ATOM     14  C   UNL A   1      43.446  24.631  27.101  1.00  0.00     0.031 A 
ATOM     15  C   UNL A   1      42.498  25.626  27.706  1.00  0.00     0.074 A 
ATOM     16  C   UNL A   1      44.722  24.977  26.843  1.00  0.00     0.049 A 
ATOM     17  N   UNL A   1      42.715  26.874  28.038  1.00  0.00    -0.248 NA
ATOM     18  C   UNL A   1      41.126  25.167  27.969  1.00  0.00     0.031 C 
ATOM     19  C   UNL A   1      45.726  24.092  26.246  1.00  0.00     0.029 A 
ATOM     20  N   UNL A   1      45.399  26.148  27.059  1.00  0.00    -0.354 N 
ATOM     21  C   UNL A   1      41.511  27.352  28.539  1.00  0.00     0.074 A 
ATOM     22  C   UNL A   1      40.555  26.269  28.435  1.00  0.00     0.031 C 
ATOM     23  C   UNL A   1      46.901  24.735  26.185  1.00  0.00     0.029 A 
ATOM     24  C   UNL A   1      46.716  26.097  26.669  1.00  0.00     0.049 A 
ATOM     25  H   UNL A   1      44.984  26.947  27.454  1.00  0.00     0.167 HD
ATOM     26  C   UNL A   1      41.237  28.577  29.049  1.00  0.00     0.037 A 
ATOM     27  C   UNL A   1      47.664  27.051  26.676  1.00  0.00     0.037 A 
ATOM     28  C   UNL A   1      42.199  29.648  29.144  1.00  0.00     0.049 A 
ATOM     29  C   UNL A   1      47.314  28.414  27.198  1.00  0.00     0.074 A 
ATOM     30  C   UNL A   1      42.026  30.922  29.658  1.00  0.00     0.029 A 
ATOM     31  N   UNL A   1      43.514  29.571  28.707  1.00  0.00    -0.354 N 
ATOM     32  N   UNL A   1      46.183  28.843  27.702  1.00  0.00    -0.248 NA
ATOM     33  C   UNL A   1      48.375  29.429  27.152  1.00  0.00     0.031 C 
ATOM     34  C   UNL A   1      43.218  31.631  29.483  1.00  0.00     0.029 A 
ATOM     35  C   UNL A   1      44.156  30.783  28.918  1.00  0.00     0.049 A 
ATOM     36  H   UNL A   1      43.930  28.774  28.305  1.00  0.00     0.167 HD
ATOM     37  C   UNL A   1      46.400  30.166  28.053  1.00  0.00     0.074 A 
ATOM     38  C   UNL A   1      47.779  30.462  27.728  1.00  0.00     0.031 C 
ATOM     39  C   UNL A   1      45.533  31.058  28.594  1.00  0.00     0.037 A 
BRANCH  26  40
ATOM     40  C   UNL A   1      39.837  28.838  29.530  1.00  0.00     0.064 A 
ATOM     41  C   UNL A   1      38.846  29.339  28.673  1.00  0.00     0.173 A 
ATOM     42  C   UNL A   1      39.467  28.533  30.849  1.00  0.00     0.173 A 
ATOM     43  F   UNL A   1      39.146  29.656  27.404  1.00  0.00    -0.203 F 
ATOM     44  C   UNL A   1      37.545  29.551  29.126  1.00  0.00     0.198 A 
ATOM     45  C   UNL A   1      38.159  28.718  31.290  1.00  0.00     0.198 A 
ATOM     46  F   UNL A   1      40.373  28.044  31.710  1.00  0.00    -0.203 F 
ATOM     47  F   UNL A   1      36.628  30.074  28.301  1.00  0.00    -0.200 F 
ATOM     48  C   UNL A   1      37.201  29.232  30.431  1.00  0.00     0.200 A 
ATOM     49  F   UNL A   1      37.825  28.393  32.547  1.00  0.00    -0.200 F 
ATOM     50  F   UNL A   1      35.947  29.427  30.862  1.00  0.00    -0.200 F 
ENDBRANCH  26  40
BRANCH  27  51
ATOM     51  C   UNL A   1      49.024  26.748  26.159  1.00  0.00     0.064 A 
ATOM     52  C   UNL A   1      49.371  27.024  24.830  1.00  0.00     0.173 A 
ATOM     53  C   UNL A   1      50.003  26.170  26.982  1.00  0.00     0.173 A 
ATOM     54  F   UNL A   1      48.465  27.562  23.998  1.00  0.00    -0.203 F 
ATOM     55  C   UNL A   1      50.636  26.711  24.337  1.00  0.00     0.198 A 
ATOM     56  C   UNL A   1      51.279  25.891  26.498  1.00  0.00     0.198 A 
ATOM     57  F   UNL A   1      49.725  25.893  28.265  1.00  0.00    -0.203 F 
ATOM     58  F   UNL A   1      50.924  26.937  23.048  1.00  0.00    -0.200 F 
ATOM     59  C   UNL A   1      51.591  26.152  25.173  1.00  0.00     0.200 A 
ATOM     60  F   UNL A   1      52.202  25.370  27.316  1.00  0.00    -0.200 F 
ATOM     61  F   UNL A   1      52.808  25.855  24.699  1.00  0.00    -0.200 F 
ENDBRANCH  27  51
BRANCH  39  62
ATOM     62  C   UNL A   1      46.069  32.426  28.903  1.00  0.00     0.064 A 
ATOM     63  C   UNL A   1      45.992  33.477  27.977  1.00  0.00     0.173 A 
ATOM     64  C   UNL A   1      46.653  32.692  30.152  1.00  0.00     0.173 A 
ATOM     65  F   UNL A   1      45.461  33.270  26.763  1.00  0.00    -0.203 F 
ATOM     66  C   UNL A   1      46.509  34.734  28.278  1.00  0.00     0.198 A 
ATOM     67  C   UNL A   1      47.137  33.959  30.461  1.00  0.00     0.198 A 
ATOM     68  F   UNL A   1      46.746  31.723  31.075  1.00  0.00    -0.203 F 
ATOM     69  F   UNL A   1      46.479  35.706  27.356  1.00  0.00    -0.200 F 
ATOM     70  C   UNL A   1      47.074  34.977  29.521  1.00  0.00     0.200 A 
ATOM     71  F   UNL A   1      47.670  34.196  31.668  1.00  0.00    -0.200 F 
ATOM     72  F   UNL A   1      47.568  36.189  29.810  1.00  0.00    -0.200 F 
ENDBRANCH  39  62
ENDBRANCH  13  14
ENDBRANCH   6   8
ENDBRANCH   3   4
ENDBRANCH   2   3
ENDBRANCH   1   2
BRANCH   1  73
ATOM     73  C   UNL A   1      37.772  21.889  25.324  1.00  0.00     0.002 C 
BRANCH  73  74
ATOM     74  C   UNL A   1      37.007  23.100  24.777  1.00  0.00     0.021 C 
BRANCH  74  75
ATOM     75  C   UNL A   1      36.125  23.776  25.820  1.00  0.00     0.116 C 
BRANCH  75  76
ATOM     76  N   UNL A   1      35.579  22.822  26.756  1.00  0.00    -0.354 N 
ATOM     77  C   UNL A   1      34.289  22.432  26.974  1.00  0.00     0.243 C 
ATOM     78  H   UNL A   1      36.245  22.381  27.331  1.00  0.00     0.163 HD
ATOM     79  O   UNL A   1      34.132  21.432  27.683  1.00  0.00    -0.273 OA
BRANCH  77  80
ATOM     80  C   UNL A   1      33.096  23.032  26.192  1.00  0.00     0.185 C 
ATOM     81  C   UNL A   1      32.119  23.609  27.217  1.00  0.00     0.106 C 
ATOM     82  N   UNL A   1      32.402  22.139  25.251  1.00  0.00    -0.317 N 
ATOM     83  S   UNL A   1      30.447  23.137  26.718  1.00  0.00    -0.138 SA
ATOM     84  C   UNL A   1      30.985  21.954  25.481  1.00  0.00     0.190 C 
BRANCH  82  85
ATOM     85  C   UNL A   1      33.109  21.679  24.145  1.00  0.00     0.255 C 
ATOM     86  O   UNL A   1      33.783  22.416  23.431  1.00  0.00    -0.269 OA
BRANCH  85  87
ATOM     87  C   UNL A   1      33.133  20.231  23.840  1.00  0.00     0.041 A 
ATOM     88  C   UNL A   1      32.261  19.656  22.909  1.00  0.00     0.014 A 
ATOM     89  C   UNL A   1      34.102  19.446  24.473  1.00  0.00     0.034 A 
ATOM     90  C   UNL A   1      32.283  18.278  22.695  1.00  0.00     0.002 A 
ATOM     91  C   UNL A   1      34.132  18.074  24.236  1.00  0.00     0.041 A 
ATOM     92  C   UNL A   1      33.212  17.484  23.368  1.00  0.00     0.020 A 
ATOM     93  Cl  UNL A   1      35.304  17.097  25.029  1.00  0.00    -0.084 Cl
ENDBRANCH  85  87
ENDBRANCH  82  85
ENDBRANCH  77  80
ENDBRANCH  75  76
ENDBRANCH  74  75
ENDBRANCH  73  74
ENDBRANCH   1  73
TORSDOF 15
ENDMDL
