MODEL 1
REMARK VINA RESULT:     -13.4      0.000      0.000
REMARK SMILES O=C(NCCCCCCNC(=O)c1ccc(-c2c3nc(c(-c4c(F)c(F)c(F)c(F)c4F)c4ccc([nH]4)c(-c4c(F)c(F)c(F)c(F)c4F)c4nc(c(-c5c(F)c(F)c(F)c(F)c5F)c5ccc2[nH]5)C=C4)C=C3)cc1)C1=Cc2cc(S(F)(F)(F)(F)F)ccc2O[C@@H]1C(F)(F)F
REMARK SMILES IDX 7 1 6 2 5 3 4 4 3 5 1 6 2 7 76 9 77 10 91 11 78 12 90 13
REMARK SMILES IDX 79 14 89 15 80 16 88 17 87 18 92 19 93 20 94 21 95 22 81 23
REMARK SMILES IDX 82 24 83 25 84 26 85 27 86 28 8 29 9 30 10 31 11 32 12 34
REMARK SMILES IDX 13 35 14 36 75 37 15 38 74 39 16 40 17 41 18 42 68 43 19 44
REMARK SMILES IDX 73 45 67 46 69 47 20 48 72 49 66 50 65 51 21 53 53 54 33 55
REMARK SMILES IDX 52 56 34 57 37 58 51 59 70 60 35 61 36 62 50 64 71 65 38 66
REMARK SMILES IDX 22 67 23 68 31 69 24 70 25 71 29 72 32 73 26 74 27 75 30 76
REMARK SMILES IDX 28 77 54 78 55 79 63 80 56 81 57 82 61 83 64 84 58 85 59 86
REMARK SMILES IDX 62 87 60 88 39 89 40 90 48 91 41 92 42 93 46 94 49 95 43 96
REMARK SMILES IDX 44 97 47 98 45 99
REMARK H PARENT 3 8 10 33 69 52 37 63
REMARK Flexibility Score: inf
ROOT
ATOM      1  C   UNL A   1      31.795  30.793  26.306  1.00  0.00     0.002 C 
ENDROOT
BRANCH   1   2
ATOM      2  C   UNL A   1      32.834  30.217  27.253  1.00  0.00     0.002 C 
BRANCH   2   3
ATOM      3  C   UNL A   1      34.018  29.699  26.453  1.00  0.00     0.021 C 
BRANCH   3   4
ATOM      4  C   UNL A   1      34.003  28.180  26.452  1.00  0.00     0.116 C 
BRANCH   4   5
ATOM      5  N   UNL A   1      32.799  27.700  27.145  1.00  0.00    -0.352 N 
ATOM      6  O   UNL A   1      30.637  26.732  26.972  1.00  0.00    -0.270 OA
ATOM      7  C   UNL A   1      31.678  27.146  26.373  1.00  0.00     0.251 C 
ATOM      8  H   UNL A   1      32.744  27.749  28.127  1.00  0.00     0.163 HD
BRANCH   7   9
ATOM      9  C   UNL A   1      31.763  27.071  24.856  1.00  0.00     0.067 C 
ATOM     10  C   UNL A   1      32.486  26.082  24.265  1.00  0.00     0.025 C 
ATOM     11  C   UNL A   1      31.040  28.099  24.002  1.00  0.00     0.314 C 
ATOM     12  C   UNL A   1      33.208  25.053  25.119  1.00  0.00     0.019 A 
ATOM     13  O   UNL A   1      31.300  24.989  26.533  1.00  0.00    -0.475 OA
ATOM     14  C   UNL A   1      34.515  24.711  24.811  1.00  0.00     0.036 A 
ATOM     15  C   UNL A   1      32.576  24.502  26.148  1.00  0.00     0.128 A 
ATOM     16  C   UNL A   1      34.978  23.554  25.482  1.00  0.00     0.107 A 
ATOM     17  C   UNL A   1      33.146  23.463  26.844  1.00  0.00     0.048 A 
ATOM     18  C   UNL A   1      34.412  23.034  26.556  1.00  0.00     0.028 A 
BRANCH  11  19
ATOM     19  C   UNL A   1      30.035  27.397  23.104  1.00  0.00     0.429 C 
ATOM     20  F   UNL A   1      29.084  28.256  22.746  1.00  0.00    -0.167 F 
ATOM     21  F   UNL A   1      30.653  26.941  22.019  1.00  0.00    -0.167 F 
ATOM     22  F   UNL A   1      29.487  26.380  23.764  1.00  0.00    -0.167 F 
ENDBRANCH  11  19
BRANCH  16  23
ATOM     23  S   UNL A   1      36.447  22.729  24.821  1.00  0.00     0.310 S 
ATOM     24  F   UNL A   1      36.301  23.455  23.417  1.00  0.00    -0.094 F 
ATOM     25  F   UNL A   1      35.519  21.590  24.253  1.00  0.00    -0.094 F 
ATOM     26  F   UNL A   1      37.710  22.021  24.254  1.00  0.00    -0.094 F 
ATOM     27  F   UNL A   1      37.344  23.948  25.274  1.00  0.00    -0.094 F 
ATOM     28  F   UNL A   1      35.163  23.514  25.302  1.00  0.00    -0.094 F 
ENDBRANCH  16  23
ENDBRANCH   7   9
ENDBRANCH   4   5
ENDBRANCH   3   4
ENDBRANCH   2   3
ENDBRANCH   1   2
BRANCH   1  29
ATOM     29  C   UNL A   1      31.404  32.187  26.768  1.00  0.00     0.021 C 
BRANCH  29  30
ATOM     30  C   UNL A   1      32.643  32.930  27.239  1.00  0.00     0.116 C 
BRANCH  30  31
ATOM     31  N   UNL A   1      32.273  34.295  27.641  1.00  0.00    -0.352 N 
ATOM     32  C   UNL A   1      33.041  34.986  28.687  1.00  0.00     0.251 C 
ATOM     33  H   UNL A   1      31.512  34.746  27.209  1.00  0.00     0.163 HD
ATOM     34  O   UNL A   1      32.722  36.166  29.034  1.00  0.00    -0.269 OA
BRANCH  32  35
ATOM     35  C   UNL A   1      34.216  34.289  29.353  1.00  0.00     0.039 A 
ATOM     36  C   UNL A   1      35.500  34.540  28.899  1.00  0.00     0.014 A 
ATOM     37  C   UNL A   1      33.993  33.452  30.360  1.00  0.00     0.014 A 
ATOM     38  C   UNL A   1      36.468  33.631  29.387  1.00  0.00     0.010 A 
ATOM     39  C   UNL A   1      35.013  32.693  30.878  1.00  0.00     0.010 A 
ATOM     40  C   UNL A   1      36.298  32.847  30.436  1.00  0.00    -0.014 A 
BRANCH  40  41
ATOM     41  C   UNL A   1      37.467  32.151  31.114  1.00  0.00     0.031 A 
ATOM     42  C   UNL A   1      37.814  32.557  32.403  1.00  0.00     0.074 A 
ATOM     43  C   UNL A   1      38.124  31.154  30.413  1.00  0.00     0.049 A 
ATOM     44  N   UNL A   1      38.777  32.061  33.182  1.00  0.00    -0.248 NA
ATOM     45  C   UNL A   1      37.140  33.639  33.136  1.00  0.00     0.031 C 
ATOM     46  C   UNL A   1      37.775  30.732  29.115  1.00  0.00     0.029 A 
ATOM     47  N   UNL A   1      39.205  30.404  30.824  1.00  0.00    -0.354 N 
ATOM     48  C   UNL A   1      38.792  32.694  34.356  1.00  0.00     0.074 A 
ATOM     49  C   UNL A   1      37.745  33.724  34.341  1.00  0.00     0.031 C 
ATOM     50  C   UNL A   1      38.640  29.751  28.744  1.00  0.00     0.029 A 
ATOM     51  C   UNL A   1      39.543  29.542  29.804  1.00  0.00     0.049 A 
ATOM     52  H   UNL A   1      39.656  30.472  31.695  1.00  0.00     0.167 HD
ATOM     53  C   UNL A   1      39.639  32.453  35.439  1.00  0.00     0.037 A 
ATOM     54  C   UNL A   1      40.577  28.621  29.779  1.00  0.00     0.037 A 
ATOM     55  C   UNL A   1      40.647  31.501  35.431  1.00  0.00     0.049 A 
ATOM     56  C   UNL A   1      41.462  28.420  30.842  1.00  0.00     0.074 A 
ATOM     57  C   UNL A   1      41.503  31.240  36.517  1.00  0.00     0.029 A 
ATOM     58  N   UNL A   1      41.000  30.656  34.402  1.00  0.00    -0.354 N 
ATOM     59  N   UNL A   1      41.453  29.026  32.030  1.00  0.00    -0.248 NA
ATOM     60  C   UNL A   1      42.581  27.469  30.815  1.00  0.00     0.031 C 
ATOM     61  C   UNL A   1      42.368  30.259  36.146  1.00  0.00     0.029 A 
ATOM     62  C   UNL A   1      42.066  29.891  34.820  1.00  0.00     0.049 A 
ATOM     63  H   UNL A   1      40.566  30.609  33.519  1.00  0.00     0.167 HD
ATOM     64  C   UNL A   1      42.442  28.557  32.792  1.00  0.00     0.074 A 
ATOM     65  C   UNL A   1      43.187  27.554  32.019  1.00  0.00     0.031 C 
ATOM     66  C   UNL A   1      42.751  28.923  34.104  1.00  0.00     0.037 A 
BRANCH  53  67
ATOM     67  C   UNL A   1      39.445  33.281  36.699  1.00  0.00     0.064 A 
ATOM     68  C   UNL A   1      38.593  32.778  37.669  1.00  0.00     0.173 A 
ATOM     69  C   UNL A   1      40.078  34.436  36.871  1.00  0.00     0.173 A 
ATOM     70  F   UNL A   1      38.141  31.527  37.659  1.00  0.00    -0.203 F 
ATOM     71  C   UNL A   1      38.248  33.715  38.671  1.00  0.00     0.198 A 
ATOM     72  C   UNL A   1      39.787  35.239  37.946  1.00  0.00     0.198 A 
ATOM     73  F   UNL A   1      41.001  34.818  35.992  1.00  0.00    -0.203 F 
ATOM     74  F   UNL A   1      37.181  33.454  39.421  1.00  0.00    -0.200 F 
ATOM     75  C   UNL A   1      38.911  34.831  38.913  1.00  0.00     0.200 A 
ATOM     76  F   UNL A   1      40.368  36.432  38.049  1.00  0.00    -0.200 F 
ATOM     77  F   UNL A   1      38.735  35.522  40.036  1.00  0.00    -0.200 F 
ENDBRANCH  53  67
BRANCH  54  78
ATOM     78  C   UNL A   1      40.759  27.782  28.526  1.00  0.00     0.064 A 
ATOM     79  C   UNL A   1      41.582  28.212  27.497  1.00  0.00     0.173 A 
ATOM     80  C   UNL A   1      40.084  26.642  28.436  1.00  0.00     0.173 A 
ATOM     81  F   UNL A   1      42.462  29.199  27.637  1.00  0.00    -0.203 F 
ATOM     82  C   UNL A   1      41.401  27.506  26.284  1.00  0.00     0.198 A 
ATOM     83  C   UNL A   1      40.060  25.932  27.259  1.00  0.00     0.198 A 
ATOM     84  F   UNL A   1      39.423  26.183  29.495  1.00  0.00    -0.203 F 
ATOM     85  F   UNL A   1      41.864  28.062  25.169  1.00  0.00    -0.200 F 
ATOM     86  C   UNL A   1      40.804  26.332  26.183  1.00  0.00     0.200 A 
ATOM     87  F   UNL A   1      39.305  24.842  27.165  1.00  0.00    -0.200 F 
ATOM     88  F   UNL A   1      40.918  25.579  25.092  1.00  0.00    -0.200 F 
ENDBRANCH  54  78
BRANCH  66  89
ATOM     89  C   UNL A   1      43.910  28.216  34.787  1.00  0.00     0.064 A 
ATOM     90  C   UNL A   1      43.681  27.027  35.459  1.00  0.00     0.173 A 
ATOM     91  C   UNL A   1      45.124  28.750  34.728  1.00  0.00     0.173 A 
ATOM     92  F   UNL A   1      42.555  26.329  35.335  1.00  0.00    -0.203 F 
ATOM     93  C   UNL A   1      44.753  26.621  36.289  1.00  0.00     0.198 A 
ATOM     94  C   UNL A   1      46.158  28.220  35.461  1.00  0.00     0.198 A 
ATOM     95  F   UNL A   1      45.342  29.808  33.951  1.00  0.00    -0.203 F 
ATOM     96  F   UNL A   1      44.498  25.716  37.230  1.00  0.00    -0.200 F 
ATOM     97  C   UNL A   1      45.987  27.079  36.196  1.00  0.00     0.200 A 
ATOM     98  F   UNL A   1      47.343  28.825  35.457  1.00  0.00    -0.200 F 
ATOM     99  F   UNL A   1      47.009  26.465  36.785  1.00  0.00    -0.200 F 
ENDBRANCH  66  89
ENDBRANCH  40  41
ENDBRANCH  32  35
ENDBRANCH  30  31
ENDBRANCH  29  30
ENDBRANCH   1  29
TORSDOF 15
ENDMDL
MODEL 2
REMARK VINA RESULT:     -13.3      5.483      9.579
REMARK SMILES O=C(NCCCCCCNC(=O)c1ccc(-c2c3nc(c(-c4c(F)c(F)c(F)c(F)c4F)c4ccc([nH]4)c(-c4c(F)c(F)c(F)c(F)c4F)c4nc(c(-c5c(F)c(F)c(F)c(F)c5F)c5ccc2[nH]5)C=C4)C=C3)cc1)C1=Cc2cc(S(F)(F)(F)(F)F)ccc2O[C@@H]1C(F)(F)F
REMARK SMILES IDX 7 1 6 2 5 3 4 4 3 5 1 6 2 7 76 9 77 10 91 11 78 12 90 13
REMARK SMILES IDX 79 14 89 15 80 16 88 17 87 18 92 19 93 20 94 21 95 22 81 23
REMARK SMILES IDX 82 24 83 25 84 26 85 27 86 28 8 29 9 30 10 31 11 32 12 34
REMARK SMILES IDX 13 35 14 36 75 37 15 38 74 39 16 40 17 41 18 42 68 43 19 44
REMARK SMILES IDX 73 45 67 46 69 47 20 48 72 49 66 50 65 51 21 53 53 54 33 55
REMARK SMILES IDX 52 56 34 57 37 58 51 59 70 60 35 61 36 62 50 64 71 65 38 66
REMARK SMILES IDX 22 67 23 68 31 69 24 70 25 71 29 72 32 73 26 74 27 75 30 76
REMARK SMILES IDX 28 77 54 78 55 79 63 80 56 81 57 82 61 83 64 84 58 85 59 86
REMARK SMILES IDX 62 87 60 88 39 89 40 90 48 91 41 92 42 93 46 94 49 95 43 96
REMARK SMILES IDX 44 97 47 98 45 99
REMARK H PARENT 3 8 10 33 69 52 37 63
REMARK Flexibility Score: inf
ROOT
ATOM      1  C   UNL A   1      37.127  20.556  25.134  1.00  0.00     0.002 C 
ENDROOT
BRANCH   1   2
ATOM      2  C   UNL A   1      37.759  21.930  24.990  1.00  0.00     0.002 C 
BRANCH   2   3
ATOM      3  C   UNL A   1      37.315  22.815  26.142  1.00  0.00     0.021 C 
BRANCH   3   4
ATOM      4  C   UNL A   1      36.455  23.949  25.608  1.00  0.00     0.116 C 
BRANCH   4   5
ATOM      5  N   UNL A   1      36.324  23.820  24.150  1.00  0.00    -0.352 N 
ATOM      6  O   UNL A   1      34.964  23.192  22.306  1.00  0.00    -0.270 OA
ATOM      7  C   UNL A   1      35.078  23.304  23.567  1.00  0.00     0.251 C 
ATOM      8  H   UNL A   1      37.071  24.080  23.564  1.00  0.00     0.163 HD
BRANCH   7   9
ATOM      9  C   UNL A   1      33.924  22.903  24.472  1.00  0.00     0.067 C 
ATOM     10  C   UNL A   1      33.140  23.859  25.038  1.00  0.00     0.025 C 
ATOM     11  C   UNL A   1      33.647  21.433  24.744  1.00  0.00     0.314 C 
ATOM     12  C   UNL A   1      33.416  25.328  24.765  1.00  0.00     0.019 A 
ATOM     13  O   UNL A   1      33.829  24.758  22.495  1.00  0.00    -0.475 OA
ATOM     14  C   UNL A   1      33.406  26.228  25.818  1.00  0.00     0.036 A 
ATOM     15  C   UNL A   1      33.667  25.724  23.523  1.00  0.00     0.128 A 
ATOM     16  C   UNL A   1      33.388  27.584  25.413  1.00  0.00     0.107 A 
ATOM     17  C   UNL A   1      33.771  27.061  23.222  1.00  0.00     0.048 A 
ATOM     18  C   UNL A   1      33.711  28.010  24.205  1.00  0.00     0.028 A 
BRANCH  11  19
ATOM     19  C   UNL A   1      32.245  21.085  24.270  1.00  0.00     0.429 C 
ATOM     20  F   UNL A   1      32.167  19.777  24.040  1.00  0.00    -0.167 F 
ATOM     21  F   UNL A   1      31.364  21.424  25.207  1.00  0.00    -0.167 F 
ATOM     22  F   UNL A   1      31.979  21.749  23.149  1.00  0.00    -0.167 F 
ENDBRANCH  11  19
BRANCH  16  23
ATOM     23  S   UNL A   1      32.885  28.821  26.635  1.00  0.00     0.310 S 
ATOM     24  F   UNL A   1      32.277  27.716  27.597  1.00  0.00    -0.094 F 
ATOM     25  F   UNL A   1      31.472  28.894  25.940  1.00  0.00    -0.094 F 
ATOM     26  F   UNL A   1      32.454  29.884  27.684  1.00  0.00    -0.094 F 
ATOM     27  F   UNL A   1      34.253  28.632  27.400  1.00  0.00    -0.094 F 
ATOM     28  F   UNL A   1      33.295  27.660  25.645  1.00  0.00    -0.094 F 
ENDBRANCH  16  23
ENDBRANCH   7   9
ENDBRANCH   4   5
ENDBRANCH   3   4
ENDBRANCH   2   3
ENDBRANCH   1   2
BRANCH   1  29
ATOM     29  C   UNL A   1      38.195  19.486  24.974  1.00  0.00     0.021 C 
BRANCH  29  30
ATOM     30  C   UNL A   1      39.401  19.844  25.826  1.00  0.00     0.116 C 
BRANCH  30  31
ATOM     31  N   UNL A   1      40.391  18.761  25.755  1.00  0.00    -0.352 N 
ATOM     32  C   UNL A   1      41.805  19.037  26.050  1.00  0.00     0.251 C 
ATOM     33  H   UNL A   1      40.108  17.850  25.509  1.00  0.00     0.163 HD
ATOM     34  O   UNL A   1      42.662  18.099  25.989  1.00  0.00    -0.269 OA
BRANCH  32  35
ATOM     35  C   UNL A   1      42.243  20.442  26.429  1.00  0.00     0.039 A 
ATOM     36  C   UNL A   1      42.251  20.814  27.763  1.00  0.00     0.014 A 
ATOM     37  C   UNL A   1      42.609  21.290  25.475  1.00  0.00     0.014 A 
ATOM     38  C   UNL A   1      42.390  22.206  27.969  1.00  0.00     0.010 A 
ATOM     39  C   UNL A   1      42.859  22.608  25.770  1.00  0.00     0.010 A 
ATOM     40  C   UNL A   1      42.829  23.058  27.061  1.00  0.00    -0.014 A 
BRANCH  40  41
ATOM     41  C   UNL A   1      43.275  24.463  27.430  1.00  0.00     0.031 A 
ATOM     42  C   UNL A   1      42.291  25.409  27.721  1.00  0.00     0.074 A 
ATOM     43  C   UNL A   1      44.634  24.727  27.456  1.00  0.00     0.049 A 
ATOM     44  N   UNL A   1      42.466  26.677  28.097  1.00  0.00    -0.248 NA
ATOM     45  C   UNL A   1      40.847  25.141  27.662  1.00  0.00     0.031 C 
ATOM     46  C   UNL A   1      45.634  23.776  27.173  1.00  0.00     0.029 A 
ATOM     47  N   UNL A   1      45.258  25.919  27.752  1.00  0.00    -0.354 N 
ATOM     48  C   UNL A   1      41.286  27.263  28.305  1.00  0.00     0.074 A 
ATOM     49  C   UNL A   1      40.227  26.286  28.021  1.00  0.00     0.031 C 
ATOM     50  C   UNL A   1      46.842  24.389  27.283  1.00  0.00     0.029 A 
ATOM     51  C   UNL A   1      46.619  25.732  27.640  1.00  0.00     0.049 A 
ATOM     52  H   UNL A   1      44.810  26.759  28.001  1.00  0.00     0.167 HD
ATOM     53  C   UNL A   1      41.051  28.575  28.722  1.00  0.00     0.037 A 
ATOM     54  C   UNL A   1      47.622  26.668  27.831  1.00  0.00     0.037 A 
ATOM     55  C   UNL A   1      42.058  29.499  28.955  1.00  0.00     0.049 A 
ATOM     56  C   UNL A   1      47.385  27.997  28.191  1.00  0.00     0.074 A 
ATOM     57  C   UNL A   1      41.838  30.823  29.383  1.00  0.00     0.029 A 
ATOM     58  N   UNL A   1      43.417  29.319  28.819  1.00  0.00    -0.354 N 
ATOM     59  N   UNL A   1      46.207  28.573  28.437  1.00  0.00    -0.248 NA
ATOM     60  C   UNL A   1      48.439  29.006  28.365  1.00  0.00     0.031 C 
ATOM     61  C   UNL A   1      43.047  31.435  29.494  1.00  0.00     0.029 A 
ATOM     62  C   UNL A   1      44.042  30.505  29.136  1.00  0.00     0.049 A 
ATOM     63  H   UNL A   1      43.864  28.487  28.541  1.00  0.00     0.167 HD
ATOM     64  C   UNL A   1      46.382  29.852  28.772  1.00  0.00     0.074 A 
ATOM     65  C   UNL A   1      47.819  30.152  28.724  1.00  0.00     0.031 C 
ATOM     66  C   UNL A   1      45.400  30.781  29.121  1.00  0.00     0.037 A 
BRANCH  53  67
ATOM     67  C   UNL A   1      39.612  29.014  28.932  1.00  0.00     0.064 A 
ATOM     68  C   UNL A   1      39.118  28.990  30.226  1.00  0.00     0.173 A 
ATOM     69  C   UNL A   1      38.858  29.418  27.915  1.00  0.00     0.173 A 
ATOM     70  F   UNL A   1      39.896  28.840  31.295  1.00  0.00    -0.203 F 
ATOM     71  C   UNL A   1      37.714  29.139  30.308  1.00  0.00     0.198 A 
ATOM     72  C   UNL A   1      37.521  29.677  28.096  1.00  0.00     0.198 A 
ATOM     73  F   UNL A   1      39.403  29.572  26.712  1.00  0.00    -0.203 F 
ATOM     74  F   UNL A   1      37.118  28.775  31.440  1.00  0.00    -0.200 F 
ATOM     75  C   UNL A   1      36.954  29.615  29.339  1.00  0.00     0.200 A 
ATOM     76  F   UNL A   1      36.767  29.993  27.047  1.00  0.00    -0.200 F 
ATOM     77  F   UNL A   1      35.704  30.012  29.559  1.00  0.00    -0.200 F 
ENDBRANCH  53  67
BRANCH  54  78
ATOM     78  C   UNL A   1      49.062  26.224  27.638  1.00  0.00     0.064 A 
ATOM     79  C   UNL A   1      49.849  25.875  28.724  1.00  0.00     0.173 A 
ATOM     80  C   UNL A   1      49.549  26.210  26.402  1.00  0.00     0.173 A 
ATOM     81  F   UNL A   1      49.350  25.630  29.931  1.00  0.00    -0.203 F 
ATOM     82  C   UNL A   1      51.232  25.802  28.431  1.00  0.00     0.198 A 
ATOM     83  C   UNL A   1      50.888  25.998  26.180  1.00  0.00     0.198 A 
ATOM     84  F   UNL A   1      48.733  26.404  25.371  1.00  0.00    -0.203 F 
ATOM     85  F   UNL A   1      52.083  25.833  29.451  1.00  0.00    -0.200 F 
ATOM     86  C   UNL A   1      51.735  25.706  27.213  1.00  0.00     0.200 A 
ATOM     87  F   UNL A   1      51.369  26.079  24.942  1.00  0.00    -0.200 F 
ATOM     88  F   UNL A   1      52.999  25.345  27.004  1.00  0.00    -0.200 F 
ENDBRANCH  54  78
BRANCH  66  89
ATOM     89  C   UNL A   1      45.847  32.181  29.506  1.00  0.00     0.064 A 
ATOM     90  C   UNL A   1      46.161  32.456  30.826  1.00  0.00     0.173 A 
ATOM     91  C   UNL A   1      45.930  33.119  28.569  1.00  0.00     0.173 A 
ATOM     92  F   UNL A   1      46.339  31.507  31.742  1.00  0.00    -0.203 F 
ATOM     93  C   UNL A   1      46.278  33.837  31.114  1.00  0.00     0.198 A 
ATOM     94  C   UNL A   1      46.181  34.427  28.909  1.00  0.00     0.198 A 
ATOM     95  F   UNL A   1      45.768  32.790  27.290  1.00  0.00    -0.203 F 
ATOM     96  F   UNL A   1      46.217  34.210  32.388  1.00  0.00    -0.200 F 
ATOM     97  C   UNL A   1      46.442  34.779  30.204  1.00  0.00     0.200 A 
ATOM     98  F   UNL A   1      46.170  35.363  27.964  1.00  0.00    -0.200 F 
ATOM     99  F   UNL A   1      46.840  36.006  30.530  1.00  0.00    -0.200 F 
ENDBRANCH  66  89
ENDBRANCH  40  41
ENDBRANCH  32  35
ENDBRANCH  30  31
ENDBRANCH  29  30
ENDBRANCH   1  29
TORSDOF 15
ENDMDL
MODEL 3
REMARK VINA RESULT:     -13.3      5.558     10.570
REMARK SMILES O=C(NCCCCCCNC(=O)c1ccc(-c2c3nc(c(-c4c(F)c(F)c(F)c(F)c4F)c4ccc([nH]4)c(-c4c(F)c(F)c(F)c(F)c4F)c4nc(c(-c5c(F)c(F)c(F)c(F)c5F)c5ccc2[nH]5)C=C4)C=C3)cc1)C1=Cc2cc(S(F)(F)(F)(F)F)ccc2O[C@@H]1C(F)(F)F
REMARK SMILES IDX 7 1 6 2 5 3 4 4 3 5 1 6 2 7 76 9 77 10 91 11 78 12 90 13
REMARK SMILES IDX 79 14 89 15 80 16 88 17 87 18 92 19 93 20 94 21 95 22 81 23
REMARK SMILES IDX 82 24 83 25 84 26 85 27 86 28 8 29 9 30 10 31 11 32 12 34
REMARK SMILES IDX 13 35 14 36 75 37 15 38 74 39 16 40 17 41 18 42 68 43 19 44
REMARK SMILES IDX 73 45 67 46 69 47 20 48 72 49 66 50 65 51 21 53 53 54 33 55
REMARK SMILES IDX 52 56 34 57 37 58 51 59 70 60 35 61 36 62 50 64 71 65 38 66
REMARK SMILES IDX 22 67 23 68 31 69 24 70 25 71 29 72 32 73 26 74 27 75 30 76
REMARK SMILES IDX 28 77 54 78 55 79 63 80 56 81 57 82 61 83 64 84 58 85 59 86
REMARK SMILES IDX 62 87 60 88 39 89 40 90 48 91 41 92 42 93 46 94 49 95 43 96
REMARK SMILES IDX 44 97 47 98 45 99
REMARK H PARENT 3 8 10 33 69 52 37 63
REMARK Flexibility Score: inf
ROOT
ATOM      1  C   UNL A   1      37.111  20.662  25.135  1.00  0.00     0.002 C 
ENDROOT
BRANCH   1   2
ATOM      2  C   UNL A   1      37.787  22.012  24.967  1.00  0.00     0.002 C 
BRANCH   2   3
ATOM      3  C   UNL A   1      37.395  22.921  26.120  1.00  0.00     0.021 C 
BRANCH   3   4
ATOM      4  C   UNL A   1      36.420  23.977  25.625  1.00  0.00     0.116 C 
BRANCH   4   5
ATOM      5  N   UNL A   1      36.266  23.856  24.168  1.00  0.00    -0.352 N 
ATOM      6  O   UNL A   1      34.869  23.260  22.341  1.00  0.00    -0.270 OA
ATOM      7  C   UNL A   1      35.002  23.364  23.601  1.00  0.00     0.251 C 
ATOM      8  H   UNL A   1      37.009  24.106  23.572  1.00  0.00     0.163 HD
BRANCH   7   9
ATOM      9  C   UNL A   1      33.855  22.978  24.521  1.00  0.00     0.067 C 
ATOM     10  C   UNL A   1      33.079  23.944  25.081  1.00  0.00     0.025 C 
ATOM     11  C   UNL A   1      33.576  21.513  24.814  1.00  0.00     0.314 C 
ATOM     12  C   UNL A   1      33.358  25.409  24.788  1.00  0.00     0.019 A 
ATOM     13  O   UNL A   1      33.749  24.808  22.522  1.00  0.00    -0.475 OA
ATOM     14  C   UNL A   1      33.359  26.322  25.830  1.00  0.00     0.036 A 
ATOM     15  C   UNL A   1      33.599  25.788  23.538  1.00  0.00     0.128 A 
ATOM     16  C   UNL A   1      33.342  27.673  25.407  1.00  0.00     0.107 A 
ATOM     17  C   UNL A   1      33.704  27.121  23.220  1.00  0.00     0.048 A 
ATOM     18  C   UNL A   1      33.656  28.082  24.192  1.00  0.00     0.028 A 
BRANCH  11  19
ATOM     19  C   UNL A   1      32.169  21.163  24.357  1.00  0.00     0.429 C 
ATOM     20  F   UNL A   1      31.868  21.870  23.271  1.00  0.00    -0.167 F 
ATOM     21  F   UNL A   1      32.104  19.866  24.075  1.00  0.00    -0.167 F 
ATOM     22  F   UNL A   1      31.304  21.451  25.326  1.00  0.00    -0.167 F 
ENDBRANCH  11  19
BRANCH  16  23
ATOM     23  S   UNL A   1      32.853  28.927  26.618  1.00  0.00     0.310 S 
ATOM     24  F   UNL A   1      32.197  27.842  27.571  1.00  0.00    -0.094 F 
ATOM     25  F   UNL A   1      31.457  29.040  25.897  1.00  0.00    -0.094 F 
ATOM     26  F   UNL A   1      32.435  30.004  27.657  1.00  0.00    -0.094 F 
ATOM     27  F   UNL A   1      34.202  28.700  27.408  1.00  0.00    -0.094 F 
ATOM     28  F   UNL A   1      33.247  27.752  25.637  1.00  0.00    -0.094 F 
ENDBRANCH  16  23
ENDBRANCH   7   9
ENDBRANCH   4   5
ENDBRANCH   3   4
ENDBRANCH   2   3
ENDBRANCH   1   2
BRANCH   1  29
ATOM     29  C   UNL A   1      38.147  19.557  25.008  1.00  0.00     0.021 C 
BRANCH  29  30
ATOM     30  C   UNL A   1      39.380  19.923  25.817  1.00  0.00     0.116 C 
BRANCH  30  31
ATOM     31  N   UNL A   1      40.335  18.806  25.789  1.00  0.00    -0.352 N 
ATOM     32  C   UNL A   1      41.751  19.042  26.106  1.00  0.00     0.251 C 
ATOM     33  H   UNL A   1      40.026  17.900  25.559  1.00  0.00     0.163 HD
ATOM     34  O   UNL A   1      42.576  18.076  26.083  1.00  0.00    -0.269 OA
BRANCH  32  35
ATOM     35  C   UNL A   1      42.228  20.441  26.462  1.00  0.00     0.039 A 
ATOM     36  C   UNL A   1      42.238  20.838  27.789  1.00  0.00     0.014 A 
ATOM     37  C   UNL A   1      42.626  21.259  25.495  1.00  0.00     0.014 A 
ATOM     38  C   UNL A   1      42.416  22.229  27.969  1.00  0.00     0.010 A 
ATOM     39  C   UNL A   1      42.914  22.574  25.766  1.00  0.00     0.010 A 
ATOM     40  C   UNL A   1      42.888  23.050  27.048  1.00  0.00    -0.014 A 
BRANCH  40  41
ATOM     41  C   UNL A   1      43.374  24.448  27.394  1.00  0.00     0.031 A 
ATOM     42  C   UNL A   1      44.747  24.694  27.355  1.00  0.00     0.074 A 
ATOM     43  C   UNL A   1      42.427  25.400  27.731  1.00  0.00     0.049 A 
ATOM     44  N   UNL A   1      45.375  25.848  27.588  1.00  0.00    -0.248 NA
ATOM     45  C   UNL A   1      45.758  23.676  27.030  1.00  0.00     0.031 C 
ATOM     46  C   UNL A   1      41.038  25.163  27.765  1.00  0.00     0.029 A 
ATOM     47  N   UNL A   1      42.638  26.714  28.086  1.00  0.00    -0.354 N 
ATOM     48  C   UNL A   1      46.691  25.695  27.435  1.00  0.00     0.074 A 
ATOM     49  C   UNL A   1      46.957  24.295  27.080  1.00  0.00     0.031 C 
ATOM     50  C   UNL A   1      40.423  26.313  28.146  1.00  0.00     0.029 A 
ATOM     51  C   UNL A   1      41.415  27.289  28.355  1.00  0.00     0.049 A 
ATOM     52  H   UNL A   1      43.511  27.165  28.137  1.00  0.00     0.167 HD
ATOM     53  C   UNL A   1      47.681  26.670  27.575  1.00  0.00     0.037 A 
ATOM     54  C   UNL A   1      41.161  28.588  28.764  1.00  0.00     0.037 A 
ATOM     55  C   UNL A   1      47.421  27.981  27.942  1.00  0.00     0.049 A 
ATOM     56  C   UNL A   1      42.156  29.549  28.961  1.00  0.00     0.074 A 
ATOM     57  C   UNL A   1      48.406  28.978  28.080  1.00  0.00     0.029 A 
ATOM     58  N   UNL A   1      46.201  28.549  28.235  1.00  0.00    -0.354 N 
ATOM     59  N   UNL A   1      43.469  29.407  28.770  1.00  0.00    -0.248 NA
ATOM     60  C   UNL A   1      41.900  30.919  29.425  1.00  0.00     0.031 C 
ATOM     61  C   UNL A   1      47.791  30.129  28.461  1.00  0.00     0.029 A 
ATOM     62  C   UNL A   1      46.411  29.870  28.568  1.00  0.00     0.049 A 
ATOM     63  H   UNL A   1      45.330  28.091  28.212  1.00  0.00     0.167 HD
ATOM     64  C   UNL A   1      44.099  30.551  29.044  1.00  0.00     0.074 A 
ATOM     65  C   UNL A   1      43.100  31.538  29.477  1.00  0.00     0.031 C 
ATOM     66  C   UNL A   1      45.467  30.811  28.947  1.00  0.00     0.037 A 
BRANCH  53  67
ATOM     67  C   UNL A   1      49.123  26.272  27.310  1.00  0.00     0.064 A 
ATOM     68  C   UNL A   1      49.892  25.891  28.398  1.00  0.00     0.173 A 
ATOM     69  C   UNL A   1      49.625  26.276  26.080  1.00  0.00     0.173 A 
ATOM     70  F   UNL A   1      49.373  25.629  29.595  1.00  0.00    -0.203 F 
ATOM     71  C   UNL A   1      51.276  25.806  28.120  1.00  0.00     0.198 A 
ATOM     72  C   UNL A   1      50.964  26.051  25.871  1.00  0.00     0.198 A 
ATOM     73  F   UNL A   1      48.825  26.502  25.042  1.00  0.00    -0.203 F 
ATOM     74  F   UNL A   1      52.115  25.805  29.153  1.00  0.00    -0.200 F 
ATOM     75  C   UNL A   1      51.794  25.727  26.909  1.00  0.00     0.200 A 
ATOM     76  F   UNL A   1      51.461  26.149  24.641  1.00  0.00    -0.200 F 
ATOM     77  F   UNL A   1      53.054  25.354  26.708  1.00  0.00    -0.200 F 
ENDBRANCH  53  67
BRANCH  54  78
ATOM     78  C   UNL A   1      39.716  28.991  29.012  1.00  0.00     0.064 A 
ATOM     79  C   UNL A   1      39.175  28.942  30.286  1.00  0.00     0.173 A 
ATOM     80  C   UNL A   1      38.986  29.360  27.966  1.00  0.00     0.173 A 
ATOM     81  F   UNL A   1      39.916  28.828  31.385  1.00  0.00    -0.203 F 
ATOM     82  C   UNL A   1      37.762  29.027  30.313  1.00  0.00     0.198 A 
ATOM     83  C   UNL A   1      37.631  29.557  28.093  1.00  0.00     0.198 A 
ATOM     84  F   UNL A   1      39.569  29.541  26.786  1.00  0.00    -0.203 F 
ATOM     85  F   UNL A   1      37.139  28.635  31.420  1.00  0.00    -0.200 F 
ATOM     86  C   UNL A   1      37.020  29.468  29.314  1.00  0.00     0.200 A 
ATOM     87  F   UNL A   1      36.905  29.838  27.016  1.00  0.00    -0.200 F 
ATOM     88  F   UNL A   1      35.744  29.806  29.485  1.00  0.00    -0.200 F 
ENDBRANCH  54  78
BRANCH  66  89
ATOM     89  C   UNL A   1      45.951  32.214  29.278  1.00  0.00     0.064 A 
ATOM     90  C   UNL A   1      45.966  33.179  28.285  1.00  0.00     0.173 A 
ATOM     91  C   UNL A   1      46.350  32.490  30.514  1.00  0.00     0.173 A 
ATOM     92  F   UNL A   1      45.348  33.029  27.117  1.00  0.00    -0.203 F 
ATOM     93  C   UNL A   1      46.699  34.341  28.627  1.00  0.00     0.198 A 
ATOM     94  C   UNL A   1      46.935  33.698  30.806  1.00  0.00     0.198 A 
ATOM     95  F   UNL A   1      46.182  31.589  31.478  1.00  0.00    -0.203 F 
ATOM     96  F   UNL A   1      47.072  35.149  27.638  1.00  0.00    -0.200 F 
ATOM     97  C   UNL A   1      47.038  34.678  29.857  1.00  0.00     0.200 A 
ATOM     98  F   UNL A   1      47.410  33.918  32.029  1.00  0.00    -0.200 F 
ATOM     99  F   UNL A   1      47.456  35.904  30.158  1.00  0.00    -0.200 F 
ENDBRANCH  66  89
ENDBRANCH  40  41
ENDBRANCH  32  35
ENDBRANCH  30  31
ENDBRANCH  29  30
ENDBRANCH   1  29
TORSDOF 15
ENDMDL
