MODEL 1
REMARK VINA RESULT:     -12.9      0.000      0.000
REMARK SMILES CCc1ccc(C(=O)N2Cc3nc[nH]c3C[C@@H]2C(=O)NCCCCCCNC(=O)c2ccc(-c3c4nc(c(-c5c(F)c(F)c(F)c(F)c5F)c5ccc([nH]5)c(-c5c(F)c(F)c(F)c(F)c5F)c5nc(c(-c6c(F)c(F)c(F)c(F)c6F)c6ccc3[nH]6)C=C5)C=C4)cc2)o1
REMARK SMILES IDX 23 1 22 2 21 3 20 4 18 5 19 6 17 8 9 9 10 10 11 11 16 12
REMARK SMILES IDX 12 13 15 14 13 15 14 16 7 18 8 19 6 20 3 21 4 22 93 23 5 24
REMARK SMILES IDX 2 25 1 26 24 27 25 28 26 29 27 30 28 31 29 33 30 34 31 35
REMARK SMILES IDX 92 36 32 37 91 38 33 39 34 40 35 41 85 42 36 43 90 44 84 45
REMARK SMILES IDX 86 46 37 47 89 48 83 49 82 50 38 52 70 53 50 54 69 55 51 56
REMARK SMILES IDX 54 57 68 58 87 59 52 60 53 61 67 63 88 64 55 65 39 66 40 67
REMARK SMILES IDX 48 68 41 69 42 70 46 71 49 72 43 73 44 74 47 75 45 76 71 77
REMARK SMILES IDX 72 78 80 79 73 80 74 81 78 82 81 83 75 84 76 85 79 86 77 87
REMARK SMILES IDX 56 88 57 89 65 90 58 91 59 92 63 93 66 94 60 95 61 96 64 97
REMARK SMILES IDX 62 98
REMARK H PARENT 20 7 14 17 27 32 86 51 54 62
REMARK Flexibility Score: inf
ROOT
ATOM      1  C   UNL A   1      32.144  29.180  26.804  1.00  0.00     0.002 C 
ENDROOT
BRANCH   1   2
ATOM      2  C   UNL A   1      31.425  27.854  27.073  1.00  0.00     0.021 C 
BRANCH   2   3
ATOM      3  C   UNL A   1      31.718  26.734  26.081  1.00  0.00     0.116 C 
BRANCH   3   4
ATOM      4  N   UNL A   1      31.293  25.430  26.554  1.00  0.00    -0.354 N 
ATOM      5  C   UNL A   1      31.987  24.252  26.583  1.00  0.00     0.243 C 
ATOM      6  O   UNL A   1      31.576  23.373  27.338  1.00  0.00    -0.273 OA
ATOM      7  H   UNL A   1      30.375  25.387  26.904  1.00  0.00     0.163 HD
BRANCH   5   8
ATOM      8  C   UNL A   1      33.291  24.128  25.772  1.00  0.00     0.181 C 
ATOM      9  N   UNL A   1      33.309  23.364  24.482  1.00  0.00    -0.318 N 
ATOM     10  C   UNL A   1      34.593  23.246  23.758  1.00  0.00     0.179 C 
ATOM     11  C   UNL A   1      35.741  23.259  24.707  1.00  0.00     0.081 A 
ATOM     12  C   UNL A   1      34.342  23.565  26.781  1.00  0.00     0.091 C 
ATOM     13  N   UNL A   1      37.063  23.195  24.352  1.00  0.00    -0.240 NA
ATOM     14  C   UNL A   1      35.622  23.407  26.066  1.00  0.00     0.042 A 
ATOM     15  C   UNL A   1      37.727  23.257  25.489  1.00  0.00     0.197 A 
ATOM     16  N   UNL A   1      36.888  23.385  26.566  1.00  0.00    -0.348 N 
ATOM     17  H   UNL A   1      37.150  23.446  27.513  1.00  0.00     0.167 HD
BRANCH   9  18
ATOM     18  C   UNL A   1      32.265  22.551  24.039  1.00  0.00     0.290 C 
ATOM     19  O   UNL A   1      31.227  23.052  23.608  1.00  0.00    -0.265 OA
BRANCH  18  20
ATOM     20  C   UNL A   1      32.405  21.127  24.308  1.00  0.00     0.191 A 
ATOM     21  C   UNL A   1      32.540  18.996  23.749  1.00  0.00     0.104 A 
ATOM     22  C   UNL A   1      32.591  19.038  25.125  1.00  0.00     0.046 A 
ATOM     23  O   UNL A   1      32.410  20.256  23.249  1.00  0.00    -0.456 OA
ATOM     24  C   UNL A   1      32.483  20.402  25.485  1.00  0.00     0.056 A 
BRANCH  21  25
ATOM     25  C   UNL A   1      32.618  17.894  22.754  1.00  0.00     0.072 C 
ATOM     26  C   UNL A   1      33.833  17.006  22.971  1.00  0.00     0.012 C 
ENDBRANCH  21  25
ENDBRANCH  18  20
ENDBRANCH   9  18
ENDBRANCH   5   8
ENDBRANCH   3   4
ENDBRANCH   2   3
ENDBRANCH   1   2
BRANCH   1  27
ATOM     27  C   UNL A   1      31.511  30.125  25.770  1.00  0.00     0.002 C 
BRANCH  27  28
ATOM     28  C   UNL A   1      31.317  31.595  26.167  1.00  0.00     0.021 C 
BRANCH  28  29
ATOM     29  C   UNL A   1      32.309  32.107  27.194  1.00  0.00     0.116 C 
BRANCH  29  30
ATOM     30  N   UNL A   1      32.247  33.559  27.419  1.00  0.00    -0.352 N 
ATOM     31  C   UNL A   1      32.961  34.340  28.327  1.00  0.00     0.251 C 
ATOM     32  H   UNL A   1      31.611  34.048  26.849  1.00  0.00     0.163 HD
ATOM     33  O   UNL A   1      32.570  35.443  28.661  1.00  0.00    -0.269 OA
BRANCH  31  34
ATOM     34  C   UNL A   1      34.223  33.800  28.870  1.00  0.00     0.039 A 
ATOM     35  C   UNL A   1      34.377  33.264  30.153  1.00  0.00     0.014 A 
ATOM     36  C   UNL A   1      35.291  33.803  27.996  1.00  0.00     0.014 A 
ATOM     37  C   UNL A   1      35.627  32.746  30.498  1.00  0.00     0.010 A 
ATOM     38  C   UNL A   1      36.280  32.897  28.179  1.00  0.00     0.010 A 
ATOM     39  C   UNL A   1      36.583  32.598  29.487  1.00  0.00    -0.014 A 
BRANCH  39  40
ATOM     40  C   UNL A   1      37.955  32.174  29.685  1.00  0.00     0.031 A 
ATOM     41  C   UNL A   1      38.241  30.792  29.254  1.00  0.00     0.074 A 
ATOM     42  C   UNL A   1      38.940  33.068  29.940  1.00  0.00     0.049 A 
ATOM     43  N   UNL A   1      38.557  29.789  29.998  1.00  0.00    -0.248 NA
ATOM     44  C   UNL A   1      38.020  30.450  27.842  1.00  0.00     0.031 C 
ATOM     45  C   UNL A   1      38.879  34.538  30.021  1.00  0.00     0.029 A 
ATOM     46  N   UNL A   1      40.268  32.828  30.092  1.00  0.00    -0.354 N 
ATOM     47  C   UNL A   1      38.731  28.712  29.136  1.00  0.00     0.074 A 
ATOM     48  C   UNL A   1      38.213  29.130  27.860  1.00  0.00     0.031 C 
ATOM     49  C   UNL A   1      40.131  35.051  30.000  1.00  0.00     0.029 A 
ATOM     50  C   UNL A   1      41.078  33.957  30.069  1.00  0.00     0.049 A 
ATOM     51  H   UNL A   1      40.630  31.920  30.211  1.00  0.00     0.167 HD
ATOM     52  C   UNL A   1      39.480  27.635  29.501  1.00  0.00     0.037 A 
ATOM     53  C   UNL A   1      42.435  33.958  30.071  1.00  0.00     0.037 A 
ATOM     54  C   UNL A   1      39.765  27.663  30.914  1.00  0.00     0.049 A 
ATOM     55  C   UNL A   1      42.866  32.622  30.566  1.00  0.00     0.074 A 
ATOM     56  C   UNL A   1      38.983  27.606  32.053  1.00  0.00     0.029 A 
ATOM     57  N   UNL A   1      40.972  28.186  31.316  1.00  0.00    -0.354 N 
ATOM     58  N   UNL A   1      42.658  32.207  31.788  1.00  0.00    -0.248 NA
ATOM     59  C   UNL A   1      43.061  31.570  29.576  1.00  0.00     0.031 C 
ATOM     60  C   UNL A   1      39.570  28.549  32.947  1.00  0.00     0.029 A 
ATOM     61  C   UNL A   1      40.715  29.066  32.338  1.00  0.00     0.049 A 
ATOM     62  H   UNL A   1      41.855  27.969  30.941  1.00  0.00     0.167 HD
ATOM     63  C   UNL A   1      42.291  30.874  31.657  1.00  0.00     0.074 A 
ATOM     64  C   UNL A   1      42.620  30.522  30.278  1.00  0.00     0.031 C 
ATOM     65  C   UNL A   1      41.481  30.269  32.576  1.00  0.00     0.037 A 
BRANCH  52  66
ATOM     66  C   UNL A   1      40.229  26.731  28.558  1.00  0.00     0.064 A 
ATOM     67  C   UNL A   1      39.809  25.393  28.420  1.00  0.00     0.173 A 
ATOM     68  C   UNL A   1      41.488  27.034  28.002  1.00  0.00     0.173 A 
ATOM     69  F   UNL A   1      38.628  24.990  28.915  1.00  0.00    -0.203 F 
ATOM     70  C   UNL A   1      40.628  24.417  27.846  1.00  0.00     0.198 A 
ATOM     71  C   UNL A   1      42.279  26.070  27.379  1.00  0.00     0.198 A 
ATOM     72  F   UNL A   1      42.057  28.238  28.133  1.00  0.00    -0.203 F 
ATOM     73  F   UNL A   1      40.239  23.136  27.852  1.00  0.00    -0.200 F 
ATOM     74  C   UNL A   1      41.865  24.756  27.332  1.00  0.00     0.200 A 
ATOM     75  F   UNL A   1      43.482  26.417  26.897  1.00  0.00    -0.200 F 
ATOM     76  F   UNL A   1      42.679  23.814  26.837  1.00  0.00    -0.200 F 
ENDBRANCH  52  66
BRANCH  53  77
ATOM     77  C   UNL A   1      43.350  34.897  29.376  1.00  0.00     0.064 A 
ATOM     78  C   UNL A   1      43.712  34.712  28.031  1.00  0.00     0.173 A 
ATOM     79  C   UNL A   1      43.674  36.145  29.942  1.00  0.00     0.173 A 
ATOM     80  F   UNL A   1      43.402  33.570  27.403  1.00  0.00    -0.203 F 
ATOM     81  C   UNL A   1      44.343  35.724  27.294  1.00  0.00     0.198 A 
ATOM     82  C   UNL A   1      44.304  37.152  29.208  1.00  0.00     0.198 A 
ATOM     83  F   UNL A   1      43.302  36.448  31.195  1.00  0.00    -0.203 F 
ATOM     84  F   UNL A   1      44.624  35.531  25.998  1.00  0.00    -0.200 F 
ATOM     85  C   UNL A   1      44.628  36.946  27.880  1.00  0.00     0.200 A 
ATOM     86  F   UNL A   1      44.540  38.342  29.779  1.00  0.00    -0.200 F 
ATOM     87  F   UNL A   1      45.175  37.935  27.160  1.00  0.00    -0.200 F 
ENDBRANCH  53  77
BRANCH  65  88
ATOM     88  C   UNL A   1      41.163  31.020  33.842  1.00  0.00     0.064 A 
ATOM     89  C   UNL A   1      40.035  31.845  34.000  1.00  0.00     0.173 A 
ATOM     90  C   UNL A   1      41.918  30.744  34.988  1.00  0.00     0.173 A 
ATOM     91  F   UNL A   1      39.205  32.079  32.980  1.00  0.00    -0.203 F 
ATOM     92  C   UNL A   1      39.698  32.389  35.239  1.00  0.00     0.198 A 
ATOM     93  C   UNL A   1      41.562  31.259  36.232  1.00  0.00     0.198 A 
ATOM     94  F   UNL A   1      42.972  29.916  34.912  1.00  0.00    -0.203 F 
ATOM     95  F   UNL A   1      38.613  33.169  35.358  1.00  0.00    -0.200 F 
ATOM     96  C   UNL A   1      40.457  32.087  36.356  1.00  0.00     0.200 A 
ATOM     97  F   UNL A   1      42.269  30.922  37.318  1.00  0.00    -0.200 F 
ATOM     98  F   UNL A   1      40.106  32.567  37.558  1.00  0.00    -0.200 F 
ENDBRANCH  65  88
ENDBRANCH  39  40
ENDBRANCH  31  34
ENDBRANCH  29  30
ENDBRANCH  28  29
ENDBRANCH  27  28
ENDBRANCH   1  27
TORSDOF 16
ENDMDL
MODEL 2
REMARK VINA RESULT:     -12.8      2.975      8.006
REMARK SMILES CCc1ccc(C(=O)N2Cc3nc[nH]c3C[C@@H]2C(=O)NCCCCCCNC(=O)c2ccc(-c3c4nc(c(-c5c(F)c(F)c(F)c(F)c5F)c5ccc([nH]5)c(-c5c(F)c(F)c(F)c(F)c5F)c5nc(c(-c6c(F)c(F)c(F)c(F)c6F)c6ccc3[nH]6)C=C5)C=C4)cc2)o1
REMARK SMILES IDX 23 1 22 2 21 3 20 4 18 5 19 6 17 8 9 9 10 10 11 11 16 12
REMARK SMILES IDX 12 13 15 14 13 15 14 16 7 18 8 19 6 20 3 21 4 22 93 23 5 24
REMARK SMILES IDX 2 25 1 26 24 27 25 28 26 29 27 30 28 31 29 33 30 34 31 35
REMARK SMILES IDX 92 36 32 37 91 38 33 39 34 40 35 41 85 42 36 43 90 44 84 45
REMARK SMILES IDX 86 46 37 47 89 48 83 49 82 50 38 52 70 53 50 54 69 55 51 56
REMARK SMILES IDX 54 57 68 58 87 59 52 60 53 61 67 63 88 64 55 65 39 66 40 67
REMARK SMILES IDX 48 68 41 69 42 70 46 71 49 72 43 73 44 74 47 75 45 76 71 77
REMARK SMILES IDX 72 78 80 79 73 80 74 81 78 82 81 83 75 84 76 85 79 86 77 87
REMARK SMILES IDX 56 88 57 89 65 90 58 91 59 92 63 93 66 94 60 95 61 96 64 97
REMARK SMILES IDX 62 98
REMARK H PARENT 20 7 14 17 27 32 86 51 54 62
REMARK Flexibility Score: inf
ROOT
ATOM      1  C   UNL A   1      36.719  23.309  24.355  1.00  0.00     0.002 C 
ENDROOT
BRANCH   1   2
ATOM      2  C   UNL A   1      35.648  24.065  25.149  1.00  0.00     0.021 C 
BRANCH   2   3
ATOM      3  C   UNL A   1      34.205  23.703  24.818  1.00  0.00     0.116 C 
BRANCH   3   4
ATOM      4  N   UNL A   1      33.713  24.361  23.621  1.00  0.00    -0.354 N 
ATOM      5  C   UNL A   1      33.309  25.656  23.450  1.00  0.00     0.243 C 
ATOM      6  O   UNL A   1      33.274  26.088  22.300  1.00  0.00    -0.273 OA
ATOM      7  H   UNL A   1      33.663  23.794  22.819  1.00  0.00     0.163 HD
BRANCH   5   8
ATOM      8  C   UNL A   1      33.037  26.528  24.690  1.00  0.00     0.181 C 
ATOM      9  N   UNL A   1      31.636  26.941  25.030  1.00  0.00    -0.318 N 
ATOM     10  C   UNL A   1      31.431  27.807  26.212  1.00  0.00     0.179 C 
ATOM     11  C   UNL A   1      32.612  28.686  26.439  1.00  0.00     0.081 A 
ATOM     12  C   UNL A   1      33.971  27.768  24.524  1.00  0.00     0.091 C 
ATOM     13  N   UNL A   1      32.748  29.581  27.466  1.00  0.00    -0.240 NA
ATOM     14  C   UNL A   1      33.754  28.661  25.678  1.00  0.00     0.042 A 
ATOM     15  C   UNL A   1      33.938  30.121  27.297  1.00  0.00     0.197 A 
ATOM     16  N   UNL A   1      34.590  29.592  26.214  1.00  0.00    -0.348 N 
ATOM     17  H   UNL A   1      35.487  29.838  25.888  1.00  0.00     0.167 HD
BRANCH   9  18
ATOM     18  C   UNL A   1      30.543  26.776  24.180  1.00  0.00     0.290 C 
ATOM     19  O   UNL A   1      30.041  25.663  24.022  1.00  0.00    -0.265 OA
BRANCH  18  20
ATOM     20  C   UNL A   1      30.185  27.928  23.366  1.00  0.00     0.191 A 
ATOM     21  C   UNL A   1      28.824  29.497  22.618  1.00  0.00     0.104 A 
ATOM     22  C   UNL A   1      30.007  29.652  21.930  1.00  0.00     0.046 A 
ATOM     23  O   UNL A   1      28.920  28.444  23.477  1.00  0.00    -0.456 OA
ATOM     24  C   UNL A   1      30.873  28.634  22.393  1.00  0.00     0.056 A 
BRANCH  21  25
ATOM     25  C   UNL A   1      27.534  30.236  22.619  1.00  0.00     0.072 C 
ATOM     26  C   UNL A   1      27.564  31.448  23.538  1.00  0.00     0.012 C 
ENDBRANCH  21  25
ENDBRANCH  18  20
ENDBRANCH   9  18
ENDBRANCH   5   8
ENDBRANCH   3   4
ENDBRANCH   2   3
ENDBRANCH   1   2
BRANCH   1  27
ATOM     27  C   UNL A   1      36.787  21.785  24.542  1.00  0.00     0.002 C 
BRANCH  27  28
ATOM     28  C   UNL A   1      38.013  21.206  25.261  1.00  0.00     0.021 C 
BRANCH  28  29
ATOM     29  C   UNL A   1      38.779  22.206  26.105  1.00  0.00     0.116 C 
BRANCH  29  30
ATOM     30  N   UNL A   1      40.212  21.904  26.242  1.00  0.00    -0.352 N 
ATOM     31  C   UNL A   1      41.287  22.782  26.385  1.00  0.00     0.251 C 
ATOM     32  H   UNL A   1      40.446  20.949  26.231  1.00  0.00     0.163 HD
ATOM     33  O   UNL A   1      42.426  22.439  26.131  1.00  0.00    -0.269 OA
BRANCH  31  34
ATOM     34  C   UNL A   1      41.011  24.148  26.872  1.00  0.00     0.039 A 
ATOM     35  C   UNL A   1      39.802  24.829  26.699  1.00  0.00     0.014 A 
ATOM     36  C   UNL A   1      42.035  24.740  27.584  1.00  0.00     0.014 A 
ATOM     37  C   UNL A   1      39.681  26.101  27.265  1.00  0.00     0.010 A 
ATOM     38  C   UNL A   1      41.725  25.701  28.486  1.00  0.00     0.010 A 
ATOM     39  C   UNL A   1      40.684  26.530  28.142  1.00  0.00    -0.014 A 
BRANCH  39  40
ATOM     40  C   UNL A   1      40.769  27.849  28.737  1.00  0.00     0.031 A 
ATOM     41  C   UNL A   1      41.858  28.694  28.212  1.00  0.00     0.074 A 
ATOM     42  C   UNL A   1      39.749  28.361  29.468  1.00  0.00     0.049 A 
ATOM     43  N   UNL A   1      42.905  29.105  28.841  1.00  0.00    -0.248 NA
ATOM     44  C   UNL A   1      41.855  29.010  26.776  1.00  0.00     0.031 C 
ATOM     45  C   UNL A   1      38.425  27.787  29.765  1.00  0.00     0.029 A 
ATOM     46  N   UNL A   1      39.662  29.591  30.036  1.00  0.00    -0.354 N 
ATOM     47  C   UNL A   1      43.625  29.869  27.929  1.00  0.00     0.074 A 
ATOM     48  C   UNL A   1      43.033  29.623  26.641  1.00  0.00     0.031 C 
ATOM     49  C   UNL A   1      37.613  28.745  30.272  1.00  0.00     0.029 A 
ATOM     50  C   UNL A   1      38.397  29.945  30.487  1.00  0.00     0.049 A 
ATOM     51  H   UNL A   1      40.440  30.189  30.122  1.00  0.00     0.167 HD
ATOM     52  C   UNL A   1      44.524  30.801  28.350  1.00  0.00     0.037 A 
ATOM     53  C   UNL A   1      38.038  31.163  30.967  1.00  0.00     0.037 A 
ATOM     54  C   UNL A   1      44.801  30.648  29.757  1.00  0.00     0.049 A 
ATOM     55  C   UNL A   1      39.296  31.860  31.353  1.00  0.00     0.074 A 
ATOM     56  C   UNL A   1      45.366  29.643  30.520  1.00  0.00     0.029 A 
ATOM     57  N   UNL A   1      44.107  31.442  30.639  1.00  0.00    -0.354 N 
ATOM     58  N   UNL A   1      40.062  31.468  32.336  1.00  0.00    -0.248 NA
ATOM     59  C   UNL A   1      39.953  32.670  30.335  1.00  0.00     0.031 C 
ATOM     60  C   UNL A   1      44.576  29.600  31.707  1.00  0.00     0.029 A 
ATOM     61  C   UNL A   1      43.633  30.626  31.635  1.00  0.00     0.049 A 
ATOM     62  H   UNL A   1      43.974  32.415  30.568  1.00  0.00     0.167 HD
ATOM     63  C   UNL A   1      41.359  31.624  31.864  1.00  0.00     0.074 A 
ATOM     64  C   UNL A   1      41.230  32.429  30.651  1.00  0.00     0.031 C 
ATOM     65  C   UNL A   1      42.379  30.842  32.325  1.00  0.00     0.037 A 
BRANCH  52  66
ATOM     66  C   UNL A   1      44.912  32.044  27.595  1.00  0.00     0.064 A 
ATOM     67  C   UNL A   1      46.184  32.107  26.993  1.00  0.00     0.173 A 
ATOM     68  C   UNL A   1      44.212  33.266  27.668  1.00  0.00     0.173 A 
ATOM     69  F   UNL A   1      46.940  31.005  26.873  1.00  0.00    -0.203 F 
ATOM     70  C   UNL A   1      46.746  33.317  26.576  1.00  0.00     0.198 A 
ATOM     71  C   UNL A   1      44.752  34.462  27.199  1.00  0.00     0.198 A 
ATOM     72  F   UNL A   1      43.034  33.380  28.291  1.00  0.00    -0.203 F 
ATOM     73  F   UNL A   1      48.007  33.343  26.127  1.00  0.00    -0.200 F 
ATOM     74  C   UNL A   1      46.032  34.494  26.686  1.00  0.00     0.200 A 
ATOM     75  F   UNL A   1      44.048  35.597  27.326  1.00  0.00    -0.200 F 
ATOM     76  F   UNL A   1      46.589  35.663  26.346  1.00  0.00    -0.200 F 
ENDBRANCH  52  66
BRANCH  53  77
ATOM     77  C   UNL A   1      36.741  31.865  30.805  1.00  0.00     0.064 A 
ATOM     78  C   UNL A   1      35.900  32.119  31.901  1.00  0.00     0.173 A 
ATOM     79  C   UNL A   1      36.427  32.538  29.608  1.00  0.00     0.173 A 
ATOM     80  F   UNL A   1      36.154  31.553  33.089  1.00  0.00    -0.203 F 
ATOM     81  C   UNL A   1      34.821  33.009  31.808  1.00  0.00     0.198 A 
ATOM     82  C   UNL A   1      35.351  33.423  29.516  1.00  0.00     0.198 A 
ATOM     83  F   UNL A   1      37.214  32.423  28.529  1.00  0.00    -0.203 F 
ATOM     84  F   UNL A   1      34.073  33.268  32.889  1.00  0.00    -0.200 F 
ATOM     85  C   UNL A   1      34.555  33.668  30.619  1.00  0.00     0.200 A 
ATOM     86  F   UNL A   1      35.129  34.081  28.369  1.00  0.00    -0.200 F 
ATOM     87  F   UNL A   1      33.562  34.565  30.546  1.00  0.00    -0.200 F 
ENDBRANCH  53  77
BRANCH  65  88
ATOM     88  C   UNL A   1      42.107  29.945  33.504  1.00  0.00     0.064 A 
ATOM     89  C   UNL A   1      41.743  28.592  33.390  1.00  0.00     0.173 A 
ATOM     90  C   UNL A   1      42.411  30.419  34.785  1.00  0.00     0.173 A 
ATOM     91  F   UNL A   1      41.534  28.033  32.194  1.00  0.00    -0.203 F 
ATOM     92  C   UNL A   1      41.659  27.763  34.508  1.00  0.00     0.198 A 
ATOM     93  C   UNL A   1      42.360  29.583  35.898  1.00  0.00     0.198 A 
ATOM     94  F   UNL A   1      42.821  31.687  34.951  1.00  0.00    -0.203 F 
ATOM     95  F   UNL A   1      41.313  26.475  34.367  1.00  0.00    -0.200 F 
ATOM     96  C   UNL A   1      41.977  28.258  35.760  1.00  0.00     0.200 A 
ATOM     97  F   UNL A   1      42.719  30.053  37.100  1.00  0.00    -0.200 F 
ATOM     98  F   UNL A   1      41.948  27.451  36.831  1.00  0.00    -0.200 F 
ENDBRANCH  65  88
ENDBRANCH  39  40
ENDBRANCH  31  34
ENDBRANCH  29  30
ENDBRANCH  28  29
ENDBRANCH  27  28
ENDBRANCH   1  27
TORSDOF 16
ENDMDL
MODEL 3
REMARK VINA RESULT:     -12.7      3.064      7.861
REMARK SMILES CCc1ccc(C(=O)N2Cc3nc[nH]c3C[C@@H]2C(=O)NCCCCCCNC(=O)c2ccc(-c3c4nc(c(-c5c(F)c(F)c(F)c(F)c5F)c5ccc([nH]5)c(-c5c(F)c(F)c(F)c(F)c5F)c5nc(c(-c6c(F)c(F)c(F)c(F)c6F)c6ccc3[nH]6)C=C5)C=C4)cc2)o1
REMARK SMILES IDX 23 1 22 2 21 3 20 4 18 5 19 6 17 8 9 9 10 10 11 11 16 12
REMARK SMILES IDX 12 13 15 14 13 15 14 16 7 18 8 19 6 20 3 21 4 22 93 23 5 24
REMARK SMILES IDX 2 25 1 26 24 27 25 28 26 29 27 30 28 31 29 33 30 34 31 35
REMARK SMILES IDX 92 36 32 37 91 38 33 39 34 40 35 41 85 42 36 43 90 44 84 45
REMARK SMILES IDX 86 46 37 47 89 48 83 49 82 50 38 52 70 53 50 54 69 55 51 56
REMARK SMILES IDX 54 57 68 58 87 59 52 60 53 61 67 63 88 64 55 65 39 66 40 67
REMARK SMILES IDX 48 68 41 69 42 70 46 71 49 72 43 73 44 74 47 75 45 76 71 77
REMARK SMILES IDX 72 78 80 79 73 80 74 81 78 82 81 83 75 84 76 85 79 86 77 87
REMARK SMILES IDX 56 88 57 89 65 90 58 91 59 92 63 93 66 94 60 95 61 96 64 97
REMARK SMILES IDX 62 98
REMARK H PARENT 20 7 14 17 27 32 86 51 54 62
REMARK Flexibility Score: inf
ROOT
ATOM      1  C   UNL A   1      34.603  22.856  23.795  1.00  0.00     0.002 C 
ENDROOT
BRANCH   1   2
ATOM      2  C   UNL A   1      33.812  22.975  22.489  1.00  0.00     0.021 C 
BRANCH   2   3
ATOM      3  C   UNL A   1      32.684  23.999  22.493  1.00  0.00     0.116 C 
BRANCH   3   4
ATOM      4  N   UNL A   1      32.093  24.189  23.805  1.00  0.00    -0.354 N 
ATOM      5  C   UNL A   1      31.243  25.169  24.238  1.00  0.00     0.243 C 
ATOM      6  O   UNL A   1      30.595  24.943  25.258  1.00  0.00    -0.273 OA
ATOM      7  H   UNL A   1      32.340  23.516  24.480  1.00  0.00     0.163 HD
BRANCH   5   8
ATOM      8  C   UNL A   1      31.055  26.433  23.380  1.00  0.00     0.181 C 
ATOM      9  N   UNL A   1      32.091  27.518  23.395  1.00  0.00    -0.318 N 
ATOM     10  C   UNL A   1      31.848  28.727  22.579  1.00  0.00     0.179 C 
ATOM     11  C   UNL A   1      30.389  29.003  22.460  1.00  0.00     0.081 A 
ATOM     12  C   UNL A   1      29.649  26.985  23.776  1.00  0.00     0.091 C 
ATOM     13  N   UNL A   1      29.833  30.033  21.747  1.00  0.00    -0.240 NA
ATOM     14  C   UNL A   1      29.404  28.213  22.997  1.00  0.00     0.042 A 
ATOM     15  C   UNL A   1      28.531  29.889  21.894  1.00  0.00     0.197 A 
ATOM     16  N   UNL A   1      28.220  28.791  22.653  1.00  0.00    -0.348 N 
ATOM     17  H   UNL A   1      27.318  28.483  22.902  1.00  0.00     0.167 HD
BRANCH   9  18
ATOM     18  C   UNL A   1      33.145  27.581  24.307  1.00  0.00     0.290 C 
ATOM     19  O   UNL A   1      34.068  26.769  24.247  1.00  0.00    -0.265 OA
BRANCH  18  20
ATOM     20  C   UNL A   1      32.975  28.506  25.417  1.00  0.00     0.191 A 
ATOM     21  C   UNL A   1      33.682  29.806  27.056  1.00  0.00     0.104 A 
ATOM     22  C   UNL A   1      32.306  29.859  27.087  1.00  0.00     0.046 A 
ATOM     23  O   UNL A   1      34.093  28.975  26.058  1.00  0.00    -0.456 OA
ATOM     24  C   UNL A   1      31.851  29.010  26.051  1.00  0.00     0.056 A 
BRANCH  21  25
ATOM     25  C   UNL A   1      34.751  30.466  27.850  1.00  0.00     0.072 C 
ATOM     26  C   UNL A   1      36.143  30.119  27.345  1.00  0.00     0.012 C 
ENDBRANCH  21  25
ENDBRANCH  18  20
ENDBRANCH   9  18
ENDBRANCH   5   8
ENDBRANCH   3   4
ENDBRANCH   2   3
ENDBRANCH   1   2
BRANCH   1  27
ATOM     27  C   UNL A   1      36.131  23.007  23.708  1.00  0.00     0.002 C 
BRANCH  27  28
ATOM     28  C   UNL A   1      36.995  22.022  24.506  1.00  0.00     0.021 C 
BRANCH  28  29
ATOM     29  C   UNL A   1      37.614  22.602  25.764  1.00  0.00     0.116 C 
BRANCH  29  30
ATOM     30  N   UNL A   1      38.863  21.945  26.178  1.00  0.00    -0.352 N 
ATOM     31  C   UNL A   1      40.064  22.520  26.593  1.00  0.00     0.251 C 
ATOM     32  H   UNL A   1      38.849  20.962  26.159  1.00  0.00     0.163 HD
ATOM     33  O   UNL A   1      41.110  21.900  26.561  1.00  0.00    -0.269 OA
BRANCH  31  34
ATOM     34  C   UNL A   1      40.036  23.910  27.091  1.00  0.00     0.039 A 
ATOM     35  C   UNL A   1      38.909  24.737  27.088  1.00  0.00     0.014 A 
ATOM     36  C   UNL A   1      41.220  24.367  27.633  1.00  0.00     0.014 A 
ATOM     37  C   UNL A   1      39.034  26.013  27.643  1.00  0.00     0.010 A 
ATOM     38  C   UNL A   1      41.171  25.357  28.555  1.00  0.00     0.010 A 
ATOM     39  C   UNL A   1      40.202  26.312  28.355  1.00  0.00    -0.014 A 
BRANCH  39  40
ATOM     40  C   UNL A   1      40.538  27.609  28.907  1.00  0.00     0.031 A 
ATOM     41  C   UNL A   1      41.741  28.234  28.325  1.00  0.00     0.074 A 
ATOM     42  C   UNL A   1      39.650  28.311  29.652  1.00  0.00     0.049 A 
ATOM     43  N   UNL A   1      42.864  28.469  28.912  1.00  0.00    -0.248 NA
ATOM     44  C   UNL A   1      41.745  28.511  26.882  1.00  0.00     0.031 C 
ATOM     45  C   UNL A   1      38.256  27.989  30.005  1.00  0.00     0.029 A 
ATOM     46  N   UNL A   1      39.801  29.550  30.185  1.00  0.00    -0.354 N 
ATOM     47  C   UNL A   1      43.677  29.070  27.957  1.00  0.00     0.074 A 
ATOM     48  C   UNL A   1      43.007  28.902  26.695  1.00  0.00     0.031 C 
ATOM     49  C   UNL A   1      37.644  29.086  30.506  1.00  0.00     0.029 A 
ATOM     50  C   UNL A   1      38.634  30.134  30.662  1.00  0.00     0.049 A 
ATOM     51  H   UNL A   1      40.675  30.003  30.231  1.00  0.00     0.167 HD
ATOM     52  C   UNL A   1      44.740  29.838  28.323  1.00  0.00     0.037 A 
ATOM     53  C   UNL A   1      38.512  31.407  31.116  1.00  0.00     0.037 A 
ATOM     54  C   UNL A   1      45.033  29.672  29.726  1.00  0.00     0.049 A 
ATOM     55  C   UNL A   1      39.886  31.880  31.444  1.00  0.00     0.074 A 
ATOM     56  C   UNL A   1      45.437  28.602  30.502  1.00  0.00     0.029 A 
ATOM     57  N   UNL A   1      44.520  30.598  30.604  1.00  0.00    -0.354 N 
ATOM     58  N   UNL A   1      40.604  31.381  32.416  1.00  0.00    -0.248 NA
ATOM     59  C   UNL A   1      40.641  32.535  30.384  1.00  0.00     0.031 C 
ATOM     60  C   UNL A   1      44.693  28.728  31.712  1.00  0.00     0.029 A 
ATOM     61  C   UNL A   1      43.943  29.903  31.637  1.00  0.00     0.049 A 
ATOM     62  H   UNL A   1      44.559  31.577  30.508  1.00  0.00     0.167 HD
ATOM     63  C   UNL A   1      41.891  31.294  31.902  1.00  0.00     0.074 A 
ATOM     64  C   UNL A   1      41.864  32.079  30.670  1.00  0.00     0.031 C 
ATOM     65  C   UNL A   1      42.772  30.354  32.356  1.00  0.00     0.037 A 
BRANCH  52  66
ATOM     66  C   UNL A   1      45.315  30.974  27.521  1.00  0.00     0.064 A 
ATOM     67  C   UNL A   1      46.682  30.943  27.178  1.00  0.00     0.173 A 
ATOM     68  C   UNL A   1      44.664  32.207  27.313  1.00  0.00     0.173 A 
ATOM     69  F   UNL A   1      47.403  29.822  27.338  1.00  0.00    -0.203 F 
ATOM     70  C   UNL A   1      47.361  32.084  26.743  1.00  0.00     0.198 A 
ATOM     71  C   UNL A   1      45.331  33.329  26.825  1.00  0.00     0.198 A 
ATOM     72  F   UNL A   1      43.392  32.414  27.674  1.00  0.00    -0.203 F 
ATOM     73  F   UNL A   1      48.685  32.036  26.551  1.00  0.00    -0.200 F 
ATOM     74  C   UNL A   1      46.686  33.278  26.574  1.00  0.00     0.200 A 
ATOM     75  F   UNL A   1      44.661  34.482  26.678  1.00  0.00    -0.200 F 
ATOM     76  F   UNL A   1      47.344  34.388  26.217  1.00  0.00    -0.200 F 
ENDBRANCH  52  66
BRANCH  53  77
ATOM     77  C   UNL A   1      37.355  32.324  30.971  1.00  0.00     0.064 A 
ATOM     78  C   UNL A   1      37.069  32.962  29.753  1.00  0.00     0.173 A 
ATOM     79  C   UNL A   1      36.348  32.380  31.955  1.00  0.00     0.173 A 
ATOM     80  F   UNL A   1      37.954  32.918  28.748  1.00  0.00    -0.203 F 
ATOM     81  C   UNL A   1      35.842  33.601  29.528  1.00  0.00     0.198 A 
ATOM     82  C   UNL A   1      35.127  33.019  31.731  1.00  0.00     0.198 A 
ATOM     83  F   UNL A   1      36.493  31.736  33.123  1.00  0.00    -0.203 F 
ATOM     84  F   UNL A   1      35.584  34.153  28.334  1.00  0.00    -0.200 F 
ATOM     85  C   UNL A   1      34.869  33.619  30.514  1.00  0.00     0.200 A 
ATOM     86  F   UNL A   1      34.181  32.996  32.682  1.00  0.00    -0.200 F 
ATOM     87  F   UNL A   1      33.673  34.176  30.279  1.00  0.00    -0.200 F 
ENDBRANCH  53  77
BRANCH  65  88
ATOM     88  C   UNL A   1      42.386  29.549  33.569  1.00  0.00     0.064 A 
ATOM     89  C   UNL A   1      41.766  28.288  33.506  1.00  0.00     0.173 A 
ATOM     90  C   UNL A   1      42.829  29.981  34.824  1.00  0.00     0.173 A 
ATOM     91  F   UNL A   1      41.403  27.757  32.335  1.00  0.00    -0.203 F 
ATOM     92  C   UNL A   1      41.575  27.512  34.648  1.00  0.00     0.198 A 
ATOM     93  C   UNL A   1      42.669  29.191  35.960  1.00  0.00     0.198 A 
ATOM     94  F   UNL A   1      43.479  31.149  34.939  1.00  0.00    -0.203 F 
ATOM     95  F   UNL A   1      40.985  26.311  34.555  1.00  0.00    -0.200 F 
ATOM     96  C   UNL A   1      42.036  27.961  35.874  1.00  0.00     0.200 A 
ATOM     97  F   UNL A   1      43.163  29.607  37.134  1.00  0.00    -0.200 F 
ATOM     98  F   UNL A   1      41.900  27.195  36.966  1.00  0.00    -0.200 F 
ENDBRANCH  65  88
ENDBRANCH  39  40
ENDBRANCH  31  34
ENDBRANCH  29  30
ENDBRANCH  28  29
ENDBRANCH  27  28
ENDBRANCH   1  27
TORSDOF 16
ENDMDL
