MODEL 1
REMARK VINA RESULT:     -12.7      0.000      0.000
REMARK SMILES CC(C)CSc1cc2c(cc1Cl)C=C(C(=O)NCCCCCCNC(=O)c1ccc(-c3c4nc(c(-c5c(F)c(F)c(F)c(F)c5F)c5ccc([nH]5)c(-c5c(F)c(F)c(F)c(F)c5F)c5nc(c(-c6c(F)c(F)c(F)c(F)c6F)c6ccc3[nH]6)C=C5)C=C4)cc1)[C@@H](C(F)(F)F)O2
REMARK SMILES IDX 20 1 19 2 18 3 17 4 15 5 16 6 14 8 6 9 7 10 11 11 8 12 10 13
REMARK SMILES IDX 12 14 9 15 95 16 13 17 90 18 5 19 4 20 2 21 1 22 3 23 91 24
REMARK SMILES IDX 92 25 93 26 94 27 21 28 22 29 23 30 24 31 25 32 26 34 27 35
REMARK SMILES IDX 28 36 89 37 29 38 88 39 30 40 31 41 32 42 82 43 33 44 87 45
REMARK SMILES IDX 81 46 83 47 34 48 86 49 80 50 79 51 35 53 67 54 47 55 66 56
REMARK SMILES IDX 48 57 51 58 65 59 84 60 49 61 50 62 64 64 85 65 52 66 36 67
REMARK SMILES IDX 37 68 45 69 38 70 39 71 43 72 46 73 40 74 41 75 44 76 42 77
REMARK SMILES IDX 68 78 69 79 77 80 70 81 71 82 75 83 78 84 72 85 73 86 76 87
REMARK SMILES IDX 74 88 53 89 54 90 62 91 55 92 56 93 60 94 63 95 57 96 58 97
REMARK SMILES IDX 61 98 59 99
REMARK H PARENT 17 7 24 33 83 52 51 63
REMARK Flexibility Score: inf
ROOT
ATOM      1  C   UNL A   1      36.701  21.962  24.060  1.00  0.00     0.002 C 
ENDROOT
BRANCH   1   2
ATOM      2  C   UNL A   1      36.598  23.396  24.591  1.00  0.00     0.021 C 
BRANCH   2   3
ATOM      3  C   UNL A   1      36.667  23.524  26.109  1.00  0.00     0.116 C 
BRANCH   3   4
ATOM      4  N   UNL A   1      35.463  23.044  26.760  1.00  0.00    -0.352 N 
ATOM      5  C   UNL A   1      34.129  23.234  26.634  1.00  0.00     0.251 C 
ATOM      6  O   UNL A   1      33.429  22.571  27.406  1.00  0.00    -0.270 OA
ATOM      7  H   UNL A   1      35.671  22.412  27.487  1.00  0.00     0.163 HD
BRANCH   5   8
ATOM      8  C   UNL A   1      33.472  24.162  25.662  1.00  0.00     0.067 C 
ATOM      9  C   UNL A   1      31.289  28.248  23.609  1.00  0.00     0.030 A 
ATOM     10  C   UNL A   1      31.655  26.979  23.136  1.00  0.00     0.063 A 
ATOM     11  C   UNL A   1      31.642  28.592  24.924  1.00  0.00     0.055 A 
ATOM     12  C   UNL A   1      32.282  26.053  23.971  1.00  0.00     0.129 A 
ATOM     13  C   UNL A   1      32.263  27.654  25.762  1.00  0.00     0.033 A 
ATOM     14  Cl  UNL A   1      31.404  30.173  25.584  1.00  0.00    -0.083 Cl
ATOM     15  C   UNL A   1      32.579  26.378  25.288  1.00  0.00     0.019 A 
ATOM     16  O   UNL A   1      32.602  24.858  23.405  1.00  0.00    -0.475 OA
ATOM     17  C   UNL A   1      33.245  25.401  26.135  1.00  0.00     0.025 C 
ATOM     18  C   UNL A   1      33.027  23.774  24.276  1.00  0.00     0.314 C 
BRANCH   9  19
ATOM     19  S   UNL A   1      30.441  29.285  22.423  1.00  0.00    -0.124 SA
BRANCH  19  20
ATOM     20  C   UNL A   1      28.668  28.963  22.757  1.00  0.00     0.078 C 
BRANCH  20  21
ATOM     21  C   UNL A   1      27.672  30.099  22.458  1.00  0.00    -0.007 C 
ATOM     22  C   UNL A   1      27.662  31.215  23.504  1.00  0.00     0.008 C 
ATOM     23  C   UNL A   1      28.028  30.710  21.096  1.00  0.00     0.008 C 
ENDBRANCH  20  21
ENDBRANCH  19  20
ENDBRANCH   9  19
BRANCH  18  24
ATOM     24  C   UNL A   1      31.923  22.704  24.265  1.00  0.00     0.429 C 
ATOM     25  F   UNL A   1      31.193  22.791  23.124  1.00  0.00    -0.167 F 
ATOM     26  F   UNL A   1      32.410  21.443  24.306  1.00  0.00    -0.167 F 
ATOM     27  F   UNL A   1      31.068  22.836  25.305  1.00  0.00    -0.167 F 
ENDBRANCH  18  24
ENDBRANCH   5   8
ENDBRANCH   3   4
ENDBRANCH   2   3
ENDBRANCH   1   2
BRANCH   1  28
ATOM     28  C   UNL A   1      36.862  20.860  25.117  1.00  0.00     0.002 C 
BRANCH  28  29
ATOM     29  C   UNL A   1      38.056  19.921  24.935  1.00  0.00     0.021 C 
BRANCH  29  30
ATOM     30  C   UNL A   1      39.286  20.262  25.767  1.00  0.00     0.116 C 
BRANCH  30  31
ATOM     31  N   UNL A   1      40.239  19.168  25.849  1.00  0.00    -0.352 N 
ATOM     32  C   UNL A   1      41.590  19.219  26.098  1.00  0.00     0.251 C 
ATOM     33  H   UNL A   1      39.865  18.267  25.709  1.00  0.00     0.163 HD
ATOM     34  O   UNL A   1      42.281  18.209  26.018  1.00  0.00    -0.269 OA
BRANCH  32  35
ATOM     35  C   UNL A   1      42.217  20.519  26.422  1.00  0.00     0.039 A 
ATOM     36  C   UNL A   1      42.320  20.946  27.747  1.00  0.00     0.014 A 
ATOM     37  C   UNL A   1      42.661  21.336  25.379  1.00  0.00     0.014 A 
ATOM     38  C   UNL A   1      42.711  22.254  28.018  1.00  0.00     0.010 A 
ATOM     39  C   UNL A   1      43.124  22.625  25.660  1.00  0.00     0.010 A 
ATOM     40  C   UNL A   1      43.103  23.112  26.976  1.00  0.00    -0.014 A 
BRANCH  40  41
ATOM     41  C   UNL A   1      43.463  24.519  27.286  1.00  0.00     0.031 A 
ATOM     42  C   UNL A   1      44.832  25.050  26.959  1.00  0.00     0.074 A 
ATOM     43  C   UNL A   1      42.530  25.339  27.806  1.00  0.00     0.049 A 
ATOM     44  N   UNL A   1      45.315  26.255  27.138  1.00  0.00    -0.248 NA
ATOM     45  C   UNL A   1      45.787  24.109  26.353  1.00  0.00     0.031 C 
ATOM     46  C   UNL A   1      41.164  24.943  28.150  1.00  0.00     0.029 A 
ATOM     47  N   UNL A   1      42.578  26.675  28.109  1.00  0.00    -0.354 N 
ATOM     48  C   UNL A   1      46.628  26.211  26.687  1.00  0.00     0.074 A 
ATOM     49  C   UNL A   1      46.878  24.856  26.246  1.00  0.00     0.031 C 
ATOM     50  C   UNL A   1      40.487  26.025  28.566  1.00  0.00     0.029 A 
ATOM     51  C   UNL A   1      41.385  27.175  28.571  1.00  0.00     0.049 A 
ATOM     52  H   UNL A   1      43.389  27.224  28.006  1.00  0.00     0.167 HD
ATOM     53  C   UNL A   1      47.538  27.214  26.635  1.00  0.00     0.037 A 
ATOM     54  C   UNL A   1      41.054  28.419  28.963  1.00  0.00     0.037 A 
ATOM     55  C   UNL A   1      47.280  28.569  27.047  1.00  0.00     0.049 A 
ATOM     56  C   UNL A   1      42.091  29.504  28.925  1.00  0.00     0.074 A 
ATOM     57  C   UNL A   1      48.133  29.658  27.010  1.00  0.00     0.029 A 
ATOM     58  N   UNL A   1      46.076  29.021  27.567  1.00  0.00    -0.354 N 
ATOM     59  N   UNL A   1      43.329  29.446  28.501  1.00  0.00    -0.248 NA
ATOM     60  C   UNL A   1      41.688  30.823  29.432  1.00  0.00     0.031 C 
ATOM     61  C   UNL A   1      47.458  30.762  27.541  1.00  0.00     0.029 A 
ATOM     62  C   UNL A   1      46.170  30.370  27.871  1.00  0.00     0.049 A 
ATOM     63  H   UNL A   1      45.274  28.466  27.700  1.00  0.00     0.167 HD
ATOM     64  C   UNL A   1      43.854  30.716  28.687  1.00  0.00     0.074 A 
ATOM     65  C   UNL A   1      42.792  31.533  29.239  1.00  0.00     0.031 C 
ATOM     66  C   UNL A   1      45.107  31.164  28.429  1.00  0.00     0.037 A 
BRANCH  53  67
ATOM     67  C   UNL A   1      48.907  26.889  26.116  1.00  0.00     0.064 A 
ATOM     68  C   UNL A   1      49.893  26.334  26.944  1.00  0.00     0.173 A 
ATOM     69  C   UNL A   1      49.215  27.073  24.760  1.00  0.00     0.173 A 
ATOM     70  F   UNL A   1      49.652  26.150  28.251  1.00  0.00    -0.203 F 
ATOM     71  C   UNL A   1      51.142  25.986  26.436  1.00  0.00     0.198 A 
ATOM     72  C   UNL A   1      50.457  26.703  24.250  1.00  0.00     0.198 A 
ATOM     73  F   UNL A   1      48.304  27.596  23.924  1.00  0.00    -0.203 F 
ATOM     74  F   UNL A   1      52.079  25.483  27.251  1.00  0.00    -0.200 F 
ATOM     75  C   UNL A   1      51.420  26.162  25.089  1.00  0.00     0.200 A 
ATOM     76  F   UNL A   1      50.720  26.864  22.946  1.00  0.00    -0.200 F 
ATOM     77  F   UNL A   1      52.617  25.815  24.598  1.00  0.00    -0.200 F 
ENDBRANCH  53  67
BRANCH  54  78
ATOM     78  C   UNL A   1      39.668  28.695  29.417  1.00  0.00     0.064 A 
ATOM     79  C   UNL A   1      39.302  28.513  30.757  1.00  0.00     0.173 A 
ATOM     80  C   UNL A   1      38.695  29.183  28.532  1.00  0.00     0.173 A 
ATOM     81  F   UNL A   1      40.193  28.028  31.635  1.00  0.00    -0.203 F 
ATOM     82  C   UNL A   1      38.013  28.811  31.195  1.00  0.00     0.198 A 
ATOM     83  C   UNL A   1      37.416  29.505  28.976  1.00  0.00     0.198 A 
ATOM     84  F   UNL A   1      39.001  29.377  27.241  1.00  0.00    -0.203 F 
ATOM     85  F   UNL A   1      37.680  28.607  32.478  1.00  0.00    -0.200 F 
ATOM     86  C   UNL A   1      37.075  29.315  30.307  1.00  0.00     0.200 A 
ATOM     87  F   UNL A   1      36.518  30.007  28.119  1.00  0.00    -0.200 F 
ATOM     88  F   UNL A   1      35.841  29.619  30.734  1.00  0.00    -0.200 F 
ENDBRANCH  54  78
BRANCH  66  89
ATOM     89  C   UNL A   1      45.402  32.599  28.741  1.00  0.00     0.064 A 
ATOM     90  C   UNL A   1      45.972  32.975  29.965  1.00  0.00     0.173 A 
ATOM     91  C   UNL A   1      45.167  33.600  27.787  1.00  0.00     0.173 A 
ATOM     92  F   UNL A   1      46.201  32.053  30.913  1.00  0.00    -0.203 F 
ATOM     93  C   UNL A   1      46.284  34.305  30.229  1.00  0.00     0.198 A 
ATOM     94  C   UNL A   1      45.502  34.927  28.045  1.00  0.00     0.198 A 
ATOM     95  F   UNL A   1      44.628  33.289  26.599  1.00  0.00    -0.203 F 
ATOM     96  F   UNL A   1      46.799  34.648  31.418  1.00  0.00    -0.200 F 
ATOM     97  C   UNL A   1      46.056  35.279  29.267  1.00  0.00     0.200 A 
ATOM     98  F   UNL A   1      45.291  35.864  27.111  1.00  0.00    -0.200 F 
ATOM     99  F   UNL A   1      46.367  36.557  29.519  1.00  0.00    -0.200 F 
ENDBRANCH  66  89
ENDBRANCH  40  41
ENDBRANCH  32  35
ENDBRANCH  30  31
ENDBRANCH  29  30
ENDBRANCH  28  29
ENDBRANCH   1  28
TORSDOF 17
ENDMDL
MODEL 2
REMARK VINA RESULT:     -12.5      5.706     11.216
REMARK SMILES CC(C)CSc1cc2c(cc1Cl)C=C(C(=O)NCCCCCCNC(=O)c1ccc(-c3c4nc(c(-c5c(F)c(F)c(F)c(F)c5F)c5ccc([nH]5)c(-c5c(F)c(F)c(F)c(F)c5F)c5nc(c(-c6c(F)c(F)c(F)c(F)c6F)c6ccc3[nH]6)C=C5)C=C4)cc1)[C@@H](C(F)(F)F)O2
REMARK SMILES IDX 20 1 19 2 18 3 17 4 15 5 16 6 14 8 6 9 7 10 11 11 8 12 10 13
REMARK SMILES IDX 12 14 9 15 95 16 13 17 90 18 5 19 4 20 2 21 1 22 3 23 91 24
REMARK SMILES IDX 92 25 93 26 94 27 21 28 22 29 23 30 24 31 25 32 26 34 27 35
REMARK SMILES IDX 28 36 89 37 29 38 88 39 30 40 31 41 32 42 82 43 33 44 87 45
REMARK SMILES IDX 81 46 83 47 34 48 86 49 80 50 79 51 35 53 67 54 47 55 66 56
REMARK SMILES IDX 48 57 51 58 65 59 84 60 49 61 50 62 64 64 85 65 52 66 36 67
REMARK SMILES IDX 37 68 45 69 38 70 39 71 43 72 46 73 40 74 41 75 44 76 42 77
REMARK SMILES IDX 68 78 69 79 77 80 70 81 71 82 75 83 78 84 72 85 73 86 76 87
REMARK SMILES IDX 74 88 53 89 54 90 62 91 55 92 56 93 60 94 63 95 57 96 58 97
REMARK SMILES IDX 61 98 59 99
REMARK H PARENT 17 7 24 33 83 52 51 63
REMARK Flexibility Score: inf
ROOT
ATOM      1  C   UNL A   1      31.623  29.861  25.329  1.00  0.00     0.002 C 
ENDROOT
BRANCH   1   2
ATOM      2  C   UNL A   1      32.861  29.317  24.607  1.00  0.00     0.021 C 
BRANCH   2   3
ATOM      3  C   UNL A   1      32.590  28.730  23.225  1.00  0.00     0.116 C 
BRANCH   3   4
ATOM      4  N   UNL A   1      31.281  28.110  23.134  1.00  0.00    -0.352 N 
ATOM      5  C   UNL A   1      30.746  26.891  23.375  1.00  0.00     0.251 C 
ATOM      6  O   UNL A   1      29.529  26.806  23.188  1.00  0.00    -0.270 OA
ATOM      7  H   UNL A   1      30.601  28.747  22.812  1.00  0.00     0.163 HD
BRANCH   5   8
ATOM      8  C   UNL A   1      31.505  25.685  23.829  1.00  0.00     0.067 C 
ATOM      9  C   UNL A   1      33.267  20.949  24.204  1.00  0.00     0.030 A 
ATOM     10  C   UNL A   1      33.526  22.157  24.870  1.00  0.00     0.063 A 
ATOM     11  C   UNL A   1      32.390  20.971  23.109  1.00  0.00     0.055 A 
ATOM     12  C   UNL A   1      32.872  23.334  24.505  1.00  0.00     0.129 A 
ATOM     13  C   UNL A   1      31.727  22.156  22.753  1.00  0.00     0.033 A 
ATOM     14  Cl  UNL A   1      32.107  19.598  22.096  1.00  0.00    -0.083 Cl
ATOM     15  C   UNL A   1      31.962  23.339  23.456  1.00  0.00     0.019 A 
ATOM     16  O   UNL A   1      33.207  24.447  25.211  1.00  0.00    -0.475 OA
ATOM     17  C   UNL A   1      31.303  24.582  23.086  1.00  0.00     0.025 C 
ATOM     18  C   UNL A   1      32.390  25.640  25.047  1.00  0.00     0.314 C 
BRANCH   9  19
ATOM     19  S   UNL A   1      34.148  19.527  24.841  1.00  0.00    -0.124 SA
BRANCH  19  20
ATOM     20  C   UNL A   1      32.811  18.375  25.334  1.00  0.00     0.078 C 
BRANCH  20  21
ATOM     21  C   UNL A   1      32.740  17.018  24.608  1.00  0.00    -0.007 C 
ATOM     22  C   UNL A   1      33.907  16.755  23.656  1.00  0.00     0.008 C 
ATOM     23  C   UNL A   1      32.713  15.905  25.665  1.00  0.00     0.008 C 
ENDBRANCH  20  21
ENDBRANCH  19  20
ENDBRANCH   9  19
BRANCH  18  24
ATOM     24  C   UNL A   1      31.630  25.871  26.364  1.00  0.00     0.429 C 
ATOM     25  F   UNL A   1      31.870  24.855  27.232  1.00  0.00    -0.167 F 
ATOM     26  F   UNL A   1      32.007  27.004  26.998  1.00  0.00    -0.167 F 
ATOM     27  F   UNL A   1      30.293  25.942  26.181  1.00  0.00    -0.167 F 
ENDBRANCH  18  24
ENDBRANCH   5   8
ENDBRANCH   3   4
ENDBRANCH   2   3
ENDBRANCH   1   2
BRANCH   1  28
ATOM     28  C   UNL A   1      31.867  30.485  26.710  1.00  0.00     0.002 C 
BRANCH  28  29
ATOM     29  C   UNL A   1      31.605  31.988  26.825  1.00  0.00     0.021 C 
BRANCH  29  30
ATOM     30  C   UNL A   1      32.782  32.820  27.318  1.00  0.00     0.116 C 
BRANCH  30  31
ATOM     31  N   UNL A   1      32.413  34.183  27.658  1.00  0.00    -0.352 N 
ATOM     32  C   UNL A   1      32.971  35.017  28.599  1.00  0.00     0.251 C 
ATOM     33  H   UNL A   1      31.662  34.562  27.145  1.00  0.00     0.163 HD
ATOM     34  O   UNL A   1      32.466  36.106  28.849  1.00  0.00    -0.269 OA
BRANCH  32  35
ATOM     35  C   UNL A   1      34.168  34.569  29.343  1.00  0.00     0.039 A 
ATOM     36  C   UNL A   1      35.438  34.664  28.769  1.00  0.00     0.014 A 
ATOM     37  C   UNL A   1      34.006  34.004  30.611  1.00  0.00     0.014 A 
ATOM     38  C   UNL A   1      36.518  34.044  29.389  1.00  0.00     0.010 A 
ATOM     39  C   UNL A   1      35.108  33.447  31.266  1.00  0.00     0.010 A 
ATOM     40  C   UNL A   1      36.362  33.417  30.637  1.00  0.00    -0.014 A 
BRANCH  40  41
ATOM     41  C   UNL A   1      37.519  32.715  31.250  1.00  0.00     0.031 A 
ATOM     42  C   UNL A   1      37.970  33.055  32.645  1.00  0.00     0.074 A 
ATOM     43  C   UNL A   1      38.124  31.723  30.572  1.00  0.00     0.049 A 
ATOM     44  N   UNL A   1      38.943  32.533  33.349  1.00  0.00    -0.248 NA
ATOM     45  C   UNL A   1      37.233  34.121  33.344  1.00  0.00     0.031 C 
ATOM     46  C   UNL A   1      37.766  31.292  29.220  1.00  0.00     0.029 A 
ATOM     47  N   UNL A   1      39.144  30.881  30.931  1.00  0.00    -0.354 N 
ATOM     48  C   UNL A   1      38.950  33.216  34.558  1.00  0.00     0.074 A 
ATOM     49  C   UNL A   1      37.898  34.206  34.489  1.00  0.00     0.031 C 
ATOM     50  C   UNL A   1      38.517  30.231  28.885  1.00  0.00     0.029 A 
ATOM     51  C   UNL A   1      39.445  29.944  29.974  1.00  0.00     0.049 A 
ATOM     52  H   UNL A   1      39.616  30.941  31.793  1.00  0.00     0.167 HD
ATOM     53  C   UNL A   1      39.752  33.023  35.633  1.00  0.00     0.037 A 
ATOM     54  C   UNL A   1      40.371  28.968  29.968  1.00  0.00     0.037 A 
ATOM     55  C   UNL A   1      40.779  32.018  35.712  1.00  0.00     0.049 A 
ATOM     56  C   UNL A   1      41.269  28.799  31.160  1.00  0.00     0.074 A 
ATOM     57  C   UNL A   1      41.628  31.734  36.768  1.00  0.00     0.029 A 
ATOM     58  N   UNL A   1      41.094  31.128  34.696  1.00  0.00    -0.354 N 
ATOM     59  N   UNL A   1      41.267  29.455  32.294  1.00  0.00    -0.248 NA
ATOM     60  C   UNL A   1      42.306  27.761  31.065  1.00  0.00     0.031 C 
ATOM     61  C   UNL A   1      42.480  30.696  36.379  1.00  0.00     0.029 A 
ATOM     62  C   UNL A   1      42.136  30.306  35.094  1.00  0.00     0.049 A 
ATOM     63  H   UNL A   1      40.643  31.087  33.821  1.00  0.00     0.167 HD
ATOM     64  C   UNL A   1      42.296  28.913  33.049  1.00  0.00     0.074 A 
ATOM     65  C   UNL A   1      42.887  27.855  32.255  1.00  0.00     0.031 C 
ATOM     66  C   UNL A   1      42.718  29.265  34.288  1.00  0.00     0.037 A 
BRANCH  53  67
ATOM     67  C   UNL A   1      39.560  33.922  36.818  1.00  0.00     0.064 A 
ATOM     68  C   UNL A   1      38.778  33.533  37.915  1.00  0.00     0.173 A 
ATOM     69  C   UNL A   1      40.222  35.157  36.887  1.00  0.00     0.173 A 
ATOM     70  F   UNL A   1      38.115  32.367  37.892  1.00  0.00    -0.203 F 
ATOM     71  C   UNL A   1      38.653  34.355  39.033  1.00  0.00     0.198 A 
ATOM     72  C   UNL A   1      40.114  35.966  38.016  1.00  0.00     0.198 A 
ATOM     73  F   UNL A   1      40.987  35.572  35.867  1.00  0.00    -0.203 F 
ATOM     74  F   UNL A   1      37.877  33.977  40.057  1.00  0.00    -0.200 F 
ATOM     75  C   UNL A   1      39.328  35.565  39.086  1.00  0.00     0.200 A 
ATOM     76  F   UNL A   1      40.775  37.130  38.071  1.00  0.00    -0.200 F 
ATOM     77  F   UNL A   1      39.219  36.348  40.168  1.00  0.00    -0.200 F 
ENDBRANCH  53  67
BRANCH  54  78
ATOM     78  C   UNL A   1      40.481  28.073  28.789  1.00  0.00     0.064 A 
ATOM     79  C   UNL A   1      39.782  26.860  28.742  1.00  0.00     0.173 A 
ATOM     80  C   UNL A   1      41.250  28.431  27.672  1.00  0.00     0.173 A 
ATOM     81  F   UNL A   1      39.050  26.467  29.795  1.00  0.00    -0.203 F 
ATOM     82  C   UNL A   1      39.849  26.038  27.619  1.00  0.00     0.198 A 
ATOM     83  C   UNL A   1      41.296  27.621  26.542  1.00  0.00     0.198 A 
ATOM     84  F   UNL A   1      41.933  29.585  27.670  1.00  0.00    -0.203 F 
ATOM     85  F   UNL A   1      39.190  24.870  27.607  1.00  0.00    -0.200 F 
ATOM     86  C   UNL A   1      40.597  26.423  26.518  1.00  0.00     0.200 A 
ATOM     87  F   UNL A   1      42.007  28.004  25.474  1.00  0.00    -0.200 F 
ATOM     88  F   UNL A   1      40.647  25.639  25.431  1.00  0.00    -0.200 F 
ENDBRANCH  54  78
BRANCH  66  89
ATOM     89  C   UNL A   1      43.873  28.504  34.863  1.00  0.00     0.064 A 
ATOM     90  C   UNL A   1      45.190  28.964  34.720  1.00  0.00     0.173 A 
ATOM     91  C   UNL A   1      43.659  27.338  35.612  1.00  0.00     0.173 A 
ATOM     92  F   UNL A   1      45.445  30.067  33.999  1.00  0.00    -0.203 F 
ATOM     93  C   UNL A   1      46.253  28.275  35.295  1.00  0.00     0.198 A 
ATOM     94  C   UNL A   1      44.723  26.664  36.206  1.00  0.00     0.198 A 
ATOM     95  F   UNL A   1      42.416  26.862  35.781  1.00  0.00    -0.203 F 
ATOM     96  F   UNL A   1      47.507  28.714  35.120  1.00  0.00    -0.200 F 
ATOM     97  C   UNL A   1      46.019  27.131  36.044  1.00  0.00     0.200 A 
ATOM     98  F   UNL A   1      44.493  25.565  36.937  1.00  0.00    -0.200 F 
ATOM     99  F   UNL A   1      47.043  26.474  36.606  1.00  0.00    -0.200 F 
ENDBRANCH  66  89
ENDBRANCH  40  41
ENDBRANCH  32  35
ENDBRANCH  30  31
ENDBRANCH  29  30
ENDBRANCH  28  29
ENDBRANCH   1  28
TORSDOF 17
ENDMDL
MODEL 3
REMARK VINA RESULT:     -12.3      5.732     10.251
REMARK SMILES CC(C)CSc1cc2c(cc1Cl)C=C(C(=O)NCCCCCCNC(=O)c1ccc(-c3c4nc(c(-c5c(F)c(F)c(F)c(F)c5F)c5ccc([nH]5)c(-c5c(F)c(F)c(F)c(F)c5F)c5nc(c(-c6c(F)c(F)c(F)c(F)c6F)c6ccc3[nH]6)C=C5)C=C4)cc1)[C@@H](C(F)(F)F)O2
REMARK SMILES IDX 20 1 19 2 18 3 17 4 15 5 16 6 14 8 6 9 7 10 11 11 8 12 10 13
REMARK SMILES IDX 12 14 9 15 95 16 13 17 90 18 5 19 4 20 2 21 1 22 3 23 91 24
REMARK SMILES IDX 92 25 93 26 94 27 21 28 22 29 23 30 24 31 25 32 26 34 27 35
REMARK SMILES IDX 28 36 89 37 29 38 88 39 30 40 31 41 32 42 82 43 33 44 87 45
REMARK SMILES IDX 81 46 83 47 34 48 86 49 80 50 79 51 35 53 67 54 47 55 66 56
REMARK SMILES IDX 48 57 51 58 65 59 84 60 49 61 50 62 64 64 85 65 52 66 36 67
REMARK SMILES IDX 37 68 45 69 38 70 39 71 43 72 46 73 40 74 41 75 44 76 42 77
REMARK SMILES IDX 68 78 69 79 77 80 70 81 71 82 75 83 78 84 72 85 73 86 76 87
REMARK SMILES IDX 74 88 53 89 54 90 62 91 55 92 56 93 60 94 63 95 57 96 58 97
REMARK SMILES IDX 61 98 59 99
REMARK H PARENT 17 7 24 33 83 52 51 63
REMARK Flexibility Score: inf
ROOT
ATOM      1  C   UNL A   1      31.565  29.929  25.311  1.00  0.00     0.002 C 
ENDROOT
BRANCH   1   2
ATOM      2  C   UNL A   1      32.783  29.331  24.598  1.00  0.00     0.021 C 
BRANCH   2   3
ATOM      3  C   UNL A   1      32.498  28.760  23.212  1.00  0.00     0.116 C 
BRANCH   3   4
ATOM      4  N   UNL A   1      31.189  28.141  23.128  1.00  0.00    -0.352 N 
ATOM      5  C   UNL A   1      30.653  26.924  23.378  1.00  0.00     0.251 C 
ATOM      6  O   UNL A   1      29.435  26.838  23.193  1.00  0.00    -0.270 OA
ATOM      7  H   UNL A   1      30.508  28.776  22.802  1.00  0.00     0.163 HD
BRANCH   5   8
ATOM      8  C   UNL A   1      31.412  25.721  23.840  1.00  0.00     0.067 C 
ATOM      9  C   UNL A   1      33.209  20.998  24.214  1.00  0.00     0.030 A 
ATOM     10  C   UNL A   1      33.439  22.201  24.898  1.00  0.00     0.063 A 
ATOM     11  C   UNL A   1      32.359  21.022  23.098  1.00  0.00     0.055 A 
ATOM     12  C   UNL A   1      32.783  23.376  24.528  1.00  0.00     0.129 A 
ATOM     13  C   UNL A   1      31.695  22.204  22.736  1.00  0.00     0.033 A 
ATOM     14  Cl  UNL A   1      32.115  19.657  22.065  1.00  0.00    -0.083 Cl
ATOM     15  C   UNL A   1      31.900  23.383  23.456  1.00  0.00     0.019 A 
ATOM     16  O   UNL A   1      33.090  24.485  25.252  1.00  0.00    -0.475 OA
ATOM     17  C   UNL A   1      31.239  24.623  23.081  1.00  0.00     0.025 C 
ATOM     18  C   UNL A   1      32.266  25.672  25.080  1.00  0.00     0.314 C 
BRANCH   9  19
ATOM     19  S   UNL A   1      34.087  19.579  24.860  1.00  0.00    -0.124 SA
BRANCH  19  20
ATOM     20  C   UNL A   1      32.801  18.276  24.945  1.00  0.00     0.078 C 
BRANCH  20  21
ATOM     21  C   UNL A   1      33.151  16.893  24.363  1.00  0.00    -0.007 C 
ATOM     22  C   UNL A   1      33.995  16.945  23.090  1.00  0.00     0.008 C 
ATOM     23  C   UNL A   1      33.921  16.101  25.428  1.00  0.00     0.008 C 
ENDBRANCH  20  21
ENDBRANCH  19  20
ENDBRANCH   9  19
BRANCH  18  24
ATOM     24  C   UNL A   1      31.471  25.883  26.379  1.00  0.00     0.429 C 
ATOM     25  F   UNL A   1      30.149  26.024  26.106  1.00  0.00    -0.167 F 
ATOM     26  F   UNL A   1      31.571  24.840  27.233  1.00  0.00    -0.167 F 
ATOM     27  F   UNL A   1      31.868  26.988  27.049  1.00  0.00    -0.167 F 
ENDBRANCH  18  24
ENDBRANCH   5   8
ENDBRANCH   3   4
ENDBRANCH   2   3
ENDBRANCH   1   2
BRANCH   1  28
ATOM     28  C   UNL A   1      31.825  30.540  26.695  1.00  0.00     0.002 C 
BRANCH  28  29
ATOM     29  C   UNL A   1      31.585  32.046  26.821  1.00  0.00     0.021 C 
BRANCH  29  30
ATOM     30  C   UNL A   1      32.781  32.859  27.300  1.00  0.00     0.116 C 
BRANCH  30  31
ATOM     31  N   UNL A   1      32.440  34.233  27.629  1.00  0.00    -0.352 N 
ATOM     32  C   UNL A   1      32.981  35.046  28.597  1.00  0.00     0.251 C 
ATOM     33  H   UNL A   1      31.725  34.637  27.085  1.00  0.00     0.163 HD
ATOM     34  O   UNL A   1      32.500  36.150  28.829  1.00  0.00    -0.269 OA
BRANCH  32  35
ATOM     35  C   UNL A   1      34.128  34.558  29.393  1.00  0.00     0.039 A 
ATOM     36  C   UNL A   1      35.420  34.579  28.862  1.00  0.00     0.014 A 
ATOM     37  C   UNL A   1      33.896  34.030  30.666  1.00  0.00     0.014 A 
ATOM     38  C   UNL A   1      36.448  33.923  29.532  1.00  0.00     0.010 A 
ATOM     39  C   UNL A   1      34.947  33.437  31.370  1.00  0.00     0.010 A 
ATOM     40  C   UNL A   1      36.218  33.332  30.787  1.00  0.00    -0.014 A 
BRANCH  40  41
ATOM     41  C   UNL A   1      37.318  32.589  31.455  1.00  0.00     0.031 A 
ATOM     42  C   UNL A   1      38.057  31.497  30.730  1.00  0.00     0.074 A 
ATOM     43  C   UNL A   1      37.693  32.944  32.698  1.00  0.00     0.049 A 
ATOM     44  N   UNL A   1      39.055  30.759  31.146  1.00  0.00    -0.248 NA
ATOM     45  C   UNL A   1      37.620  31.192  29.358  1.00  0.00     0.031 C 
ATOM     46  C   UNL A   1      37.064  33.997  33.495  1.00  0.00     0.029 A 
ATOM     47  N   UNL A   1      38.707  32.481  33.496  1.00  0.00    -0.354 N 
ATOM     48  C   UNL A   1      39.351  29.892  30.101  1.00  0.00     0.074 A 
ATOM     49  C   UNL A   1      38.415  30.179  29.037  1.00  0.00     0.031 C 
ATOM     50  C   UNL A   1      37.739  34.138  34.646  1.00  0.00     0.029 A 
ATOM     51  C   UNL A   1      38.812  33.149  34.692  1.00  0.00     0.049 A 
ATOM     52  H   UNL A   1      39.305  31.742  33.237  1.00  0.00     0.167 HD
ATOM     53  C   UNL A   1      40.326  28.953  30.033  1.00  0.00     0.037 A 
ATOM     54  C   UNL A   1      39.669  32.978  35.714  1.00  0.00     0.037 A 
ATOM     55  C   UNL A   1      41.276  28.689  31.080  1.00  0.00     0.049 A 
ATOM     56  C   UNL A   1      40.718  31.908  35.625  1.00  0.00     0.074 A 
ATOM     57  C   UNL A   1      42.312  27.771  31.092  1.00  0.00     0.029 A 
ATOM     58  N   UNL A   1      41.310  29.345  32.302  1.00  0.00    -0.354 N 
ATOM     59  N   UNL A   1      40.983  31.094  34.633  1.00  0.00    -0.248 NA
ATOM     60  C   UNL A   1      41.579  31.725  36.801  1.00  0.00     0.031 C 
ATOM     61  C   UNL A   1      42.951  27.847  32.334  1.00  0.00     0.029 A 
ATOM     62  C   UNL A   1      42.338  28.840  33.081  1.00  0.00     0.049 A 
ATOM     63  H   UNL A   1      40.693  30.064  32.574  1.00  0.00     0.167 HD
ATOM     64  C   UNL A   1      42.039  30.303  35.061  1.00  0.00     0.074 A 
ATOM     65  C   UNL A   1      42.385  30.751  36.395  1.00  0.00     0.031 C 
ATOM     66  C   UNL A   1      42.662  29.291  34.409  1.00  0.00     0.037 A 
BRANCH  53  67
ATOM     67  C   UNL A   1      40.417  28.131  28.781  1.00  0.00     0.064 A 
ATOM     68  C   UNL A   1      41.205  28.533  27.694  1.00  0.00     0.173 A 
ATOM     69  C   UNL A   1      39.762  26.893  28.696  1.00  0.00     0.173 A 
ATOM     70  F   UNL A   1      41.840  29.714  27.722  1.00  0.00    -0.203 F 
ATOM     71  C   UNL A   1      41.324  27.733  26.561  1.00  0.00     0.198 A 
ATOM     72  C   UNL A   1      39.901  26.084  27.571  1.00  0.00     0.198 A 
ATOM     73  F   UNL A   1      39.000  26.459  29.712  1.00  0.00    -0.203 F 
ATOM     74  F   UNL A   1      42.059  28.150  25.521  1.00  0.00    -0.200 F 
ATOM     75  C   UNL A   1      40.680  26.506  26.504  1.00  0.00     0.200 A 
ATOM     76  F   UNL A   1      39.287  24.894  27.522  1.00  0.00    -0.200 F 
ATOM     77  F   UNL A   1      40.806  25.730  25.418  1.00  0.00    -0.200 F 
ENDBRANCH  53  67
BRANCH  54  78
ATOM     78  C   UNL A   1      39.567  33.857  36.906  1.00  0.00     0.064 A 
ATOM     79  C   UNL A   1      40.191  35.111  36.928  1.00  0.00     0.173 A 
ATOM     80  C   UNL A   1      38.812  33.481  38.026  1.00  0.00     0.173 A 
ATOM     81  F   UNL A   1      40.941  35.505  35.887  1.00  0.00    -0.203 F 
ATOM     82  C   UNL A   1      40.062  35.957  38.028  1.00  0.00     0.198 A 
ATOM     83  C   UNL A   1      38.663  34.337  39.113  1.00  0.00     0.198 A 
ATOM     84  F   UNL A   1      38.193  32.291  38.048  1.00  0.00    -0.203 F 
ATOM     85  F   UNL A   1      40.688  37.143  38.035  1.00  0.00    -0.200 F 
ATOM     86  C   UNL A   1      39.291  35.573  39.114  1.00  0.00     0.200 A 
ATOM     87  F   UNL A   1      37.904  33.969  40.154  1.00  0.00    -0.200 F 
ATOM     88  F   UNL A   1      39.154  36.395  40.165  1.00  0.00    -0.200 F 
ENDBRANCH  54  78
BRANCH  66  89
ATOM     89  C   UNL A   1      43.779  28.597  35.126  1.00  0.00     0.064 A 
ATOM     90  C   UNL A   1      45.108  29.020  34.983  1.00  0.00     0.173 A 
ATOM     91  C   UNL A   1      43.514  27.540  36.009  1.00  0.00     0.173 A 
ATOM     92  F   UNL A   1      45.411  30.018  34.139  1.00  0.00    -0.203 F 
ATOM     93  C   UNL A   1      46.135  28.398  35.687  1.00  0.00     0.198 A 
ATOM     94  C   UNL A   1      44.540  26.935  36.729  1.00  0.00     0.198 A 
ATOM     95  F   UNL A   1      42.257  27.104  36.183  1.00  0.00    -0.203 F 
ATOM     96  F   UNL A   1      47.402  28.796  35.512  1.00  0.00    -0.200 F 
ATOM     97  C   UNL A   1      45.850  27.362  36.565  1.00  0.00     0.200 A 
ATOM     98  F   UNL A   1      44.262  25.942  37.584  1.00  0.00    -0.200 F 
ATOM     99  F   UNL A   1      46.838  26.771  37.250  1.00  0.00    -0.200 F 
ENDBRANCH  66  89
ENDBRANCH  40  41
ENDBRANCH  32  35
ENDBRANCH  30  31
ENDBRANCH  29  30
ENDBRANCH  28  29
ENDBRANCH   1  28
TORSDOF 17
ENDMDL
