MODEL 1
REMARK VINA RESULT:     -12.6      0.000      0.000
REMARK SMILES O=C(NCCCCCCNC(=O)c1nccnc1C(=O)N1CCC(Cc2ccccc2)CC1)c1ccc(-c2c3nc(c(-c4c(F)c(F)c(F)c(F)c4F)c4ccc([nH]4)c(-c4c(F)c(F)c(F)c(F)c4F)c4nc(c(-c5c(F)c(F)c(F)c(F)c5F)c5ccc2[nH]5)C=C4)C=C3)cc1
REMARK SMILES IDX 7 1 6 2 5 3 4 4 3 5 1 6 2 7 34 9 35 10 96 11 36 12 95 13
REMARK SMILES IDX 37 14 38 15 39 16 89 17 40 18 94 19 88 20 90 21 41 22 93 23
REMARK SMILES IDX 87 24 86 25 42 27 74 28 54 29 73 30 55 31 58 32 72 33 91 34
REMARK SMILES IDX 56 35 57 36 71 38 92 39 59 40 43 41 44 42 52 43 45 44 46 45
REMARK SMILES IDX 50 46 53 47 47 48 48 49 51 50 49 51 75 52 76 53 84 54 77 55
REMARK SMILES IDX 78 56 82 57 85 58 79 59 80 60 83 61 81 62 60 63 61 64 69 65
REMARK SMILES IDX 62 66 63 67 67 68 70 69 64 70 65 71 68 72 66 73 8 74 9 75
REMARK SMILES IDX 10 76 11 77 12 79 13 80 14 81 18 82 15 83 17 84 16 85 19 86
REMARK SMILES IDX 20 87 21 88 22 89 33 90 23 91 32 92 24 93 25 94 26 95 27 96
REMARK SMILES IDX 31 97 28 98 30 99 29 100
REMARK H PARENT 3 8 90 26 58 37 10 78
REMARK Flexibility Score: inf
ROOT
ATOM      1  C   UNL A   1      37.539  22.143  25.010  1.00  0.00     0.002 C 
ENDROOT
BRANCH   1   2
ATOM      2  C   UNL A   1      37.319  20.785  24.336  1.00  0.00     0.002 C 
BRANCH   2   3
ATOM      3  C   UNL A   1      38.075  19.606  24.950  1.00  0.00     0.021 C 
BRANCH   3   4
ATOM      4  C   UNL A   1      39.113  19.977  26.000  1.00  0.00     0.116 C 
BRANCH   4   5
ATOM      5  N   UNL A   1      40.282  19.115  25.958  1.00  0.00    -0.352 N 
ATOM      6  O   UNL A   1      42.476  18.602  25.839  1.00  0.00    -0.269 OA
ATOM      7  C   UNL A   1      41.611  19.446  26.058  1.00  0.00     0.251 C 
ATOM      8  H   UNL A   1      40.094  18.155  25.840  1.00  0.00     0.163 HD
BRANCH   7   9
ATOM      9  C   UNL A   1      42.006  20.828  26.411  1.00  0.00     0.039 A 
ATOM     10  C   UNL A   1      42.092  21.823  25.435  1.00  0.00     0.014 A 
ATOM     11  C   UNL A   1      42.274  21.136  27.749  1.00  0.00     0.014 A 
ATOM     12  C   UNL A   1      42.571  23.085  25.771  1.00  0.00     0.010 A 
ATOM     13  C   UNL A   1      42.677  22.428  28.099  1.00  0.00     0.010 A 
ATOM     14  C   UNL A   1      42.855  23.406  27.108  1.00  0.00    -0.014 A 
BRANCH  14  15
ATOM     15  C   UNL A   1      43.269  24.790  27.453  1.00  0.00     0.031 A 
ATOM     16  C   UNL A   1      44.670  25.269  27.206  1.00  0.00     0.074 A 
ATOM     17  C   UNL A   1      42.352  25.624  27.978  1.00  0.00     0.049 A 
ATOM     18  N   UNL A   1      45.189  26.451  27.429  1.00  0.00    -0.248 NA
ATOM     19  C   UNL A   1      45.618  24.295  26.645  1.00  0.00     0.031 C 
ATOM     20  C   UNL A   1      40.964  25.265  28.276  1.00  0.00     0.029 A 
ATOM     21  N   UNL A   1      42.439  26.944  28.339  1.00  0.00    -0.354 N 
ATOM     22  C   UNL A   1      46.522  26.361  27.053  1.00  0.00     0.074 A 
ATOM     23  C   UNL A   1      46.741  24.999  26.611  1.00  0.00     0.031 C 
ATOM     24  C   UNL A   1      40.318  26.348  28.732  1.00  0.00     0.029 A 
ATOM     25  C   UNL A   1      41.258  27.460  28.814  1.00  0.00     0.049 A 
ATOM     26  H   UNL A   1      43.267  27.471  28.266  1.00  0.00     0.167 HD
ATOM     27  C   UNL A   1      47.471  27.329  27.068  1.00  0.00     0.037 A 
ATOM     28  C   UNL A   1      40.966  28.689  29.276  1.00  0.00     0.037 A 
ATOM     29  C   UNL A   1      47.242  28.685  27.499  1.00  0.00     0.049 A 
ATOM     30  C   UNL A   1      42.043  29.734  29.305  1.00  0.00     0.074 A 
ATOM     31  C   UNL A   1      48.127  29.750  27.507  1.00  0.00     0.029 A 
ATOM     32  N   UNL A   1      46.042  29.163  28.005  1.00  0.00    -0.354 N 
ATOM     33  N   UNL A   1      43.288  29.648  28.904  1.00  0.00    -0.248 NA
ATOM     34  C   UNL A   1      41.674  31.046  29.852  1.00  0.00     0.031 C 
ATOM     35  C   UNL A   1      47.477  30.857  28.063  1.00  0.00     0.029 A 
ATOM     36  C   UNL A   1      46.171  30.498  28.355  1.00  0.00     0.049 A 
ATOM     37  H   UNL A   1      45.218  28.630  28.101  1.00  0.00     0.167 HD
ATOM     38  C   UNL A   1      43.850  30.894  29.139  1.00  0.00     0.074 A 
ATOM     39  C   UNL A   1      42.802  31.726  29.697  1.00  0.00     0.031 C 
ATOM     40  C   UNL A   1      45.121  31.310  28.915  1.00  0.00     0.037 A 
BRANCH  27  41
ATOM     41  C   UNL A   1      48.855  26.952  26.622  1.00  0.00     0.064 A 
ATOM     42  C   UNL A   1      49.816  26.470  27.523  1.00  0.00     0.173 A 
ATOM     43  C   UNL A   1      49.212  27.036  25.267  1.00  0.00     0.173 A 
ATOM     44  F   UNL A   1      49.530  26.379  28.830  1.00  0.00    -0.203 F 
ATOM     45  C   UNL A   1      51.090  26.113  27.089  1.00  0.00     0.198 A 
ATOM     46  C   UNL A   1      50.479  26.654  24.832  1.00  0.00     0.198 A 
ATOM     47  F   UNL A   1      48.328  27.484  24.361  1.00  0.00    -0.203 F 
ATOM     48  F   UNL A   1      52.006  25.698  27.976  1.00  0.00    -0.200 F 
ATOM     49  C   UNL A   1      51.419  26.200  25.744  1.00  0.00     0.200 A 
ATOM     50  F   UNL A   1      50.789  26.726  23.531  1.00  0.00    -0.200 F 
ATOM     51  F   UNL A   1      52.644  25.852  25.328  1.00  0.00    -0.200 F 
ENDBRANCH  27  41
BRANCH  28  52
ATOM     52  C   UNL A   1      39.588  28.987  29.741  1.00  0.00     0.064 A 
ATOM     53  C   UNL A   1      39.212  28.753  31.070  1.00  0.00     0.173 A 
ATOM     54  C   UNL A   1      38.632  29.540  28.877  1.00  0.00     0.173 A 
ATOM     55  F   UNL A   1      40.087  28.210  31.928  1.00  0.00    -0.203 F 
ATOM     56  C   UNL A   1      37.927  29.057  31.516  1.00  0.00     0.198 A 
ATOM     57  C   UNL A   1      37.358  29.868  29.329  1.00  0.00     0.198 A 
ATOM     58  F   UNL A   1      38.948  29.786  27.596  1.00  0.00    -0.203 F 
ATOM     59  F   UNL A   1      37.582  28.797  32.784  1.00  0.00    -0.200 F 
ATOM     60  C   UNL A   1      37.004  29.622  30.647  1.00  0.00     0.200 A 
ATOM     61  F   UNL A   1      36.475  30.430  28.492  1.00  0.00    -0.200 F 
ATOM     62  F   UNL A   1      35.773  29.927  31.081  1.00  0.00    -0.200 F 
ENDBRANCH  28  52
BRANCH  40  63
ATOM     63  C   UNL A   1      45.439  32.736  29.258  1.00  0.00     0.064 A 
ATOM     64  C   UNL A   1      45.950  33.091  30.514  1.00  0.00     0.173 A 
ATOM     65  C   UNL A   1      45.253  33.753  28.311  1.00  0.00     0.173 A 
ATOM     66  F   UNL A   1      46.127  32.156  31.460  1.00  0.00    -0.203 F 
ATOM     67  C   UNL A   1      46.239  34.419  30.819  1.00  0.00     0.198 A 
ATOM     68  C   UNL A   1      45.569  35.076  28.609  1.00  0.00     0.198 A 
ATOM     69  F   UNL A   1      44.770  33.463  27.093  1.00  0.00    -0.203 F 
ATOM     70  F   UNL A   1      46.680  34.742  32.042  1.00  0.00    -0.200 F 
ATOM     71  C   UNL A   1      46.055  35.407  29.864  1.00  0.00     0.200 A 
ATOM     72  F   UNL A   1      45.400  36.029  27.682  1.00  0.00    -0.200 F 
ATOM     73  F   UNL A   1      46.337  36.684  30.158  1.00  0.00    -0.200 F 
ENDBRANCH  40  63
ENDBRANCH  14  15
ENDBRANCH   7   9
ENDBRANCH   4   5
ENDBRANCH   3   4
ENDBRANCH   2   3
ENDBRANCH   1   2
BRANCH   1  74
ATOM     74  C   UNL A   1      36.906  23.347  24.311  1.00  0.00     0.021 C 
BRANCH  74  75
ATOM     75  C   UNL A   1      35.457  23.650  24.693  1.00  0.00     0.116 C 
BRANCH  75  76
ATOM     76  N   UNL A   1      35.208  23.542  26.121  1.00  0.00    -0.351 N 
ATOM     77  C   UNL A   1      34.436  22.613  26.793  1.00  0.00     0.272 C 
ATOM     78  H   UNL A   1      35.649  24.219  26.684  1.00  0.00     0.163 HD
ATOM     79  O   UNL A   1      34.369  22.639  28.017  1.00  0.00    -0.267 OA
BRANCH  77  80
ATOM     80  C   UNL A   1      33.701  21.602  26.006  1.00  0.00     0.159 A 
ATOM     81  N   UNL A   1      34.428  20.458  25.763  1.00  0.00    -0.247 NA
ATOM     82  C   UNL A   1      32.399  21.771  25.559  1.00  0.00     0.159 A 
ATOM     83  C   UNL A   1      33.792  19.489  25.077  1.00  0.00     0.132 A 
ATOM     84  N   UNL A   1      31.801  20.788  24.809  1.00  0.00    -0.247 NA
ATOM     85  C   UNL A   1      32.510  19.656  24.598  1.00  0.00     0.132 A 
BRANCH  82  86
ATOM     86  C   UNL A   1      31.455  22.829  26.035  1.00  0.00     0.274 C 
ATOM     87  O   UNL A   1      30.952  22.657  27.151  1.00  0.00    -0.267 OA
ATOM     88  N   UNL A   1      31.188  23.997  25.321  1.00  0.00    -0.337 N 
ATOM     89  C   UNL A   1      30.989  25.209  26.108  1.00  0.00     0.120 C 
ATOM     90  C   UNL A   1      31.113  24.152  23.872  1.00  0.00     0.120 C 
ATOM     91  C   UNL A   1      29.701  25.921  25.732  1.00  0.00     0.025 C 
ATOM     92  C   UNL A   1      29.845  24.907  23.448  1.00  0.00     0.025 C 
ATOM     93  C   UNL A   1      29.688  26.231  24.227  1.00  0.00    -0.003 C 
BRANCH  93  94
ATOM     94  C   UNL A   1      28.411  26.984  23.806  1.00  0.00     0.039 C 
BRANCH  94  95
ATOM     95  C   UNL A   1      28.685  28.261  23.040  1.00  0.00    -0.048 A 
ATOM     96  C   UNL A   1      27.637  29.143  22.740  1.00  0.00     0.004 A 
ATOM     97  C   UNL A   1      29.987  28.601  22.646  1.00  0.00     0.004 A 
ATOM     98  C   UNL A   1      27.887  30.344  22.073  1.00  0.00     0.000 A 
ATOM     99  C   UNL A   1      30.236  29.806  21.982  1.00  0.00     0.000 A 
ATOM    100  C   UNL A   1      29.186  30.677  21.697  1.00  0.00     0.000 A 
ENDBRANCH  94  95
ENDBRANCH  93  94
ENDBRANCH  82  86
ENDBRANCH  77  80
ENDBRANCH  75  76
ENDBRANCH  74  75
ENDBRANCH   1  74
TORSDOF 16
ENDMDL
MODEL 2
REMARK VINA RESULT:     -12.6      1.095      2.215
REMARK SMILES O=C(NCCCCCCNC(=O)c1nccnc1C(=O)N1CCC(Cc2ccccc2)CC1)c1ccc(-c2c3nc(c(-c4c(F)c(F)c(F)c(F)c4F)c4ccc([nH]4)c(-c4c(F)c(F)c(F)c(F)c4F)c4nc(c(-c5c(F)c(F)c(F)c(F)c5F)c5ccc2[nH]5)C=C4)C=C3)cc1
REMARK SMILES IDX 7 1 6 2 5 3 4 4 3 5 1 6 2 7 34 9 35 10 96 11 36 12 95 13
REMARK SMILES IDX 37 14 38 15 39 16 89 17 40 18 94 19 88 20 90 21 41 22 93 23
REMARK SMILES IDX 87 24 86 25 42 27 74 28 54 29 73 30 55 31 58 32 72 33 91 34
REMARK SMILES IDX 56 35 57 36 71 38 92 39 59 40 43 41 44 42 52 43 45 44 46 45
REMARK SMILES IDX 50 46 53 47 47 48 48 49 51 50 49 51 75 52 76 53 84 54 77 55
REMARK SMILES IDX 78 56 82 57 85 58 79 59 80 60 83 61 81 62 60 63 61 64 69 65
REMARK SMILES IDX 62 66 63 67 67 68 70 69 64 70 65 71 68 72 66 73 8 74 9 75
REMARK SMILES IDX 10 76 11 77 12 79 13 80 14 81 18 82 15 83 17 84 16 85 19 86
REMARK SMILES IDX 20 87 21 88 22 89 33 90 23 91 32 92 24 93 25 94 26 95 27 96
REMARK SMILES IDX 31 97 28 98 30 99 29 100
REMARK H PARENT 3 8 90 26 58 37 10 78
REMARK Flexibility Score: inf
ROOT
ATOM      1  C   UNL A   1      37.231  22.030  24.838  1.00  0.00     0.002 C 
ENDROOT
BRANCH   1   2
ATOM      2  C   UNL A   1      36.848  20.556  24.673  1.00  0.00     0.002 C 
BRANCH   2   3
ATOM      3  C   UNL A   1      37.951  19.543  24.983  1.00  0.00     0.021 C 
BRANCH   3   4
ATOM      4  C   UNL A   1      39.052  20.045  25.907  1.00  0.00     0.116 C 
BRANCH   4   5
ATOM      5  N   UNL A   1      40.194  19.147  25.953  1.00  0.00    -0.352 N 
ATOM      6  O   UNL A   1      42.374  18.566  25.965  1.00  0.00    -0.269 OA
ATOM      7  C   UNL A   1      41.525  19.442  26.113  1.00  0.00     0.251 C 
ATOM      8  H   UNL A   1      39.982  18.190  25.856  1.00  0.00     0.163 HD
BRANCH   7   9
ATOM      9  C   UNL A   1      41.946  20.823  26.442  1.00  0.00     0.039 A 
ATOM     10  C   UNL A   1      41.953  21.823  25.468  1.00  0.00     0.014 A 
ATOM     11  C   UNL A   1      42.316  21.123  27.757  1.00  0.00     0.014 A 
ATOM     12  C   UNL A   1      42.455  23.085  25.774  1.00  0.00     0.010 A 
ATOM     13  C   UNL A   1      42.744  22.414  28.082  1.00  0.00     0.010 A 
ATOM     14  C   UNL A   1      42.842  23.398  27.087  1.00  0.00    -0.014 A 
BRANCH  14  15
ATOM     15  C   UNL A   1      43.281  24.780  27.407  1.00  0.00     0.031 A 
ATOM     16  C   UNL A   1      44.680  25.240  27.122  1.00  0.00     0.074 A 
ATOM     17  C   UNL A   1      42.385  25.630  27.946  1.00  0.00     0.049 A 
ATOM     18  N   UNL A   1      45.217  26.419  27.320  1.00  0.00    -0.248 NA
ATOM     19  C   UNL A   1      45.603  24.251  26.547  1.00  0.00     0.031 C 
ATOM     20  C   UNL A   1      41.002  25.290  28.282  1.00  0.00     0.029 A 
ATOM     21  N   UNL A   1      42.496  26.952  28.291  1.00  0.00    -0.354 N 
ATOM     22  C   UNL A   1      46.539  26.309  26.912  1.00  0.00     0.074 A 
ATOM     23  C   UNL A   1      46.733  24.941  26.478  1.00  0.00     0.031 C 
ATOM     24  C   UNL A   1      40.380  26.384  28.743  1.00  0.00     0.029 A 
ATOM     25  C   UNL A   1      41.333  27.486  28.790  1.00  0.00     0.049 A 
ATOM     26  H   UNL A   1      43.329  27.469  28.193  1.00  0.00     0.167 HD
ATOM     27  C   UNL A   1      47.500  27.267  26.893  1.00  0.00     0.037 A 
ATOM     28  C   UNL A   1      41.067  28.723  29.246  1.00  0.00     0.037 A 
ATOM     29  C   UNL A   1      47.296  28.630  27.315  1.00  0.00     0.049 A 
ATOM     30  C   UNL A   1      42.155  29.756  29.238  1.00  0.00     0.074 A 
ATOM     31  C   UNL A   1      48.193  29.685  27.291  1.00  0.00     0.029 A 
ATOM     32  N   UNL A   1      46.114  29.126  27.846  1.00  0.00    -0.354 N 
ATOM     33  N   UNL A   1      43.389  29.652  28.808  1.00  0.00    -0.248 NA
ATOM     34  C   UNL A   1      41.815  31.078  29.780  1.00  0.00     0.031 C 
ATOM     35  C   UNL A   1      47.569  30.805  27.851  1.00  0.00     0.029 A 
ATOM     36  C   UNL A   1      46.267  30.464  28.179  1.00  0.00     0.049 A 
ATOM     37  H   UNL A   1      45.288  28.604  27.968  1.00  0.00     0.167 HD
ATOM     38  C   UNL A   1      43.971  30.894  29.016  1.00  0.00     0.074 A 
ATOM     39  C   UNL A   1      42.946  31.743  29.590  1.00  0.00     0.031 C 
ATOM     40  C   UNL A   1      45.240  31.293  28.756  1.00  0.00     0.037 A 
BRANCH  27  41
ATOM     41  C   UNL A   1      48.868  26.870  26.417  1.00  0.00     0.064 A 
ATOM     42  C   UNL A   1      49.248  27.001  25.073  1.00  0.00     0.173 A 
ATOM     43  C   UNL A   1      49.824  26.391  27.325  1.00  0.00     0.173 A 
ATOM     44  F   UNL A   1      48.370  27.445  24.162  1.00  0.00    -0.203 F 
ATOM     45  C   UNL A   1      50.526  26.640  24.651  1.00  0.00     0.198 A 
ATOM     46  C   UNL A   1      51.110  26.056  26.905  1.00  0.00     0.198 A 
ATOM     47  F   UNL A   1      49.515  26.254  28.624  1.00  0.00    -0.203 F 
ATOM     48  F   UNL A   1      50.853  26.731  23.354  1.00  0.00    -0.200 F 
ATOM     49  C   UNL A   1      51.457  26.174  25.568  1.00  0.00     0.200 A 
ATOM     50  F   UNL A   1      52.011  25.618  27.794  1.00  0.00    -0.200 F 
ATOM     51  F   UNL A   1      52.687  25.831  25.161  1.00  0.00    -0.200 F 
ENDBRANCH  27  41
BRANCH  28  52
ATOM     52  C   UNL A   1      39.704  29.041  29.742  1.00  0.00     0.064 A 
ATOM     53  C   UNL A   1      38.711  29.502  28.868  1.00  0.00     0.173 A 
ATOM     54  C   UNL A   1      39.359  28.860  31.089  1.00  0.00     0.173 A 
ATOM     55  F   UNL A   1      38.999  29.706  27.575  1.00  0.00    -0.203 F 
ATOM     56  C   UNL A   1      37.423  29.775  29.326  1.00  0.00     0.198 A 
ATOM     57  C   UNL A   1      38.066  29.107  31.541  1.00  0.00     0.198 A 
ATOM     58  F   UNL A   1      40.276  28.416  31.963  1.00  0.00    -0.203 F 
ATOM     59  F   UNL A   1      36.498  30.243  28.477  1.00  0.00    -0.200 F 
ATOM     60  C   UNL A   1      37.100  29.570  30.660  1.00  0.00     0.200 A 
ATOM     61  F   UNL A   1      37.753  28.891  32.825  1.00  0.00    -0.200 F 
ATOM     62  F   UNL A   1      35.857  29.819  31.095  1.00  0.00    -0.200 F 
ENDBRANCH  28  52
BRANCH  40  63
ATOM     63  C   UNL A   1      45.582  32.718  29.076  1.00  0.00     0.064 A 
ATOM     64  C   UNL A   1      46.139  33.079  30.311  1.00  0.00     0.173 A 
ATOM     65  C   UNL A   1      45.373  33.730  28.128  1.00  0.00     0.173 A 
ATOM     66  F   UNL A   1      46.340  32.150  31.259  1.00  0.00    -0.203 F 
ATOM     67  C   UNL A   1      46.451  34.406  30.596  1.00  0.00     0.198 A 
ATOM     68  C   UNL A   1      45.712  35.052  28.404  1.00  0.00     0.198 A 
ATOM     69  F   UNL A   1      44.847  33.435  26.930  1.00  0.00    -0.203 F 
ATOM     70  F   UNL A   1      46.936  34.735  31.800  1.00  0.00    -0.200 F 
ATOM     71  C   UNL A   1      46.243  35.389  29.639  1.00  0.00     0.200 A 
ATOM     72  F   UNL A   1      45.519  35.999  27.476  1.00  0.00    -0.200 F 
ATOM     73  F   UNL A   1      46.546  36.665  29.913  1.00  0.00    -0.200 F 
ENDBRANCH  40  63
ENDBRANCH  14  15
ENDBRANCH   7   9
ENDBRANCH   4   5
ENDBRANCH   3   4
ENDBRANCH   2   3
ENDBRANCH   1   2
BRANCH   1  74
ATOM     74  C   UNL A   1      36.737  22.976  23.742  1.00  0.00     0.021 C 
BRANCH  74  75
ATOM     75  C   UNL A   1      35.678  23.992  24.169  1.00  0.00     0.116 C 
BRANCH  75  76
ATOM     76  N   UNL A   1      34.558  24.072  23.247  1.00  0.00    -0.351 N 
ATOM     77  C   UNL A   1      33.209  23.945  23.518  1.00  0.00     0.272 C 
ATOM     78  H   UNL A   1      34.791  24.240  22.305  1.00  0.00     0.163 HD
ATOM     79  O   UNL A   1      32.384  24.087  22.620  1.00  0.00    -0.267 OA
BRANCH  77  80
ATOM     80  C   UNL A   1      32.790  23.636  24.900  1.00  0.00     0.159 A 
ATOM     81  N   UNL A   1      33.290  22.444  25.373  1.00  0.00    -0.247 NA
ATOM     82  C   UNL A   1      31.980  24.465  25.663  1.00  0.00     0.159 A 
ATOM     83  C   UNL A   1      32.965  22.129  26.642  1.00  0.00     0.132 A 
ATOM     84  N   UNL A   1      31.617  24.084  26.932  1.00  0.00    -0.247 NA
ATOM     85  C   UNL A   1      32.134  22.927  27.401  1.00  0.00     0.132 A 
BRANCH  82  86
ATOM     86  C   UNL A   1      31.658  25.889  25.342  1.00  0.00     0.274 C 
ATOM     87  O   UNL A   1      32.339  26.750  25.910  1.00  0.00    -0.267 OA
ATOM     88  N   UNL A   1      30.700  26.266  24.401  1.00  0.00    -0.337 N 
ATOM     89  C   UNL A   1      31.002  27.449  23.602  1.00  0.00     0.120 C 
ATOM     90  C   UNL A   1      29.438  25.594  24.104  1.00  0.00     0.120 C 
ATOM     91  C   UNL A   1      29.864  28.454  23.630  1.00  0.00     0.025 C 
ATOM     92  C   UNL A   1      28.263  26.583  24.077  1.00  0.00     0.025 C 
ATOM     93  C   UNL A   1      28.560  27.790  23.162  1.00  0.00    -0.003 C 
BRANCH  93  94
ATOM     94  C   UNL A   1      27.382  28.784  23.143  1.00  0.00     0.039 C 
BRANCH  94  95
ATOM     95  C   UNL A   1      27.765  30.168  22.663  1.00  0.00    -0.048 A 
ATOM     96  C   UNL A   1      27.989  30.405  21.299  1.00  0.00     0.004 A 
ATOM     97  C   UNL A   1      27.871  31.239  23.560  1.00  0.00     0.004 A 
ATOM     98  C   UNL A   1      28.298  31.688  20.842  1.00  0.00     0.000 A 
ATOM     99  C   UNL A   1      28.177  32.523  23.101  1.00  0.00     0.000 A 
ATOM    100  C   UNL A   1      28.389  32.747  21.742  1.00  0.00     0.000 A 
ENDBRANCH  94  95
ENDBRANCH  93  94
ENDBRANCH  82  86
ENDBRANCH  77  80
ENDBRANCH  75  76
ENDBRANCH  74  75
ENDBRANCH   1  74
TORSDOF 16
ENDMDL
MODEL 3
REMARK VINA RESULT:     -12.5      1.271      7.303
REMARK SMILES O=C(NCCCCCCNC(=O)c1nccnc1C(=O)N1CCC(Cc2ccccc2)CC1)c1ccc(-c2c3nc(c(-c4c(F)c(F)c(F)c(F)c4F)c4ccc([nH]4)c(-c4c(F)c(F)c(F)c(F)c4F)c4nc(c(-c5c(F)c(F)c(F)c(F)c5F)c5ccc2[nH]5)C=C4)C=C3)cc1
REMARK SMILES IDX 7 1 6 2 5 3 4 4 3 5 1 6 2 7 34 9 35 10 96 11 36 12 95 13
REMARK SMILES IDX 37 14 38 15 39 16 89 17 40 18 94 19 88 20 90 21 41 22 93 23
REMARK SMILES IDX 87 24 86 25 42 27 74 28 54 29 73 30 55 31 58 32 72 33 91 34
REMARK SMILES IDX 56 35 57 36 71 38 92 39 59 40 43 41 44 42 52 43 45 44 46 45
REMARK SMILES IDX 50 46 53 47 47 48 48 49 51 50 49 51 75 52 76 53 84 54 77 55
REMARK SMILES IDX 78 56 82 57 85 58 79 59 80 60 83 61 81 62 60 63 61 64 69 65
REMARK SMILES IDX 62 66 63 67 67 68 70 69 64 70 65 71 68 72 66 73 8 74 9 75
REMARK SMILES IDX 10 76 11 77 12 79 13 80 14 81 18 82 15 83 17 84 16 85 19 86
REMARK SMILES IDX 20 87 21 88 22 89 33 90 23 91 32 92 24 93 25 94 26 95 27 96
REMARK SMILES IDX 31 97 28 98 30 99 29 100
REMARK H PARENT 3 8 90 26 58 37 10 78
REMARK Flexibility Score: inf
ROOT
ATOM      1  C   UNL A   1      36.934  21.419  25.610  1.00  0.00     0.002 C 
ENDROOT
BRANCH   1   2
ATOM      2  C   UNL A   1      36.895  20.088  24.852  1.00  0.00     0.002 C 
BRANCH   2   3
ATOM      3  C   UNL A   1      38.114  19.183  25.031  1.00  0.00     0.021 C 
BRANCH   3   4
ATOM      4  C   UNL A   1      39.294  19.820  25.752  1.00  0.00     0.116 C 
BRANCH   4   5
ATOM      5  N   UNL A   1      40.404  18.898  25.927  1.00  0.00    -0.352 N 
ATOM      6  O   UNL A   1      42.562  18.262  26.099  1.00  0.00    -0.269 OA
ATOM      7  C   UNL A   1      41.735  19.169  26.134  1.00  0.00     0.251 C 
ATOM      8  H   UNL A   1      40.169  17.943  25.893  1.00  0.00     0.163 HD
BRANCH   7   9
ATOM      9  C   UNL A   1      42.180  20.559  26.378  1.00  0.00     0.039 A 
ATOM     10  C   UNL A   1      42.330  21.048  27.677  1.00  0.00     0.014 A 
ATOM     11  C   UNL A   1      42.474  21.379  25.284  1.00  0.00     0.014 A 
ATOM     12  C   UNL A   1      42.644  22.388  27.882  1.00  0.00     0.010 A 
ATOM     13  C   UNL A   1      42.868  22.704  25.492  1.00  0.00     0.010 A 
ATOM     14  C   UNL A   1      42.930  23.227  26.793  1.00  0.00    -0.014 A 
BRANCH  14  15
ATOM     15  C   UNL A   1      43.359  24.626  27.044  1.00  0.00     0.031 A 
ATOM     16  C   UNL A   1      42.421  25.634  27.642  1.00  0.00     0.074 A 
ATOM     17  C   UNL A   1      44.624  24.975  26.743  1.00  0.00     0.049 A 
ATOM     18  N   UNL A   1      42.643  26.889  27.945  1.00  0.00    -0.248 NA
ATOM     19  C   UNL A   1      41.052  25.181  27.929  1.00  0.00     0.031 C 
ATOM     20  C   UNL A   1      45.620  24.085  26.144  1.00  0.00     0.029 A 
ATOM     21  N   UNL A   1      45.294  26.160  26.910  1.00  0.00    -0.354 N 
ATOM     22  C   UNL A   1      41.443  27.380  28.442  1.00  0.00     0.074 A 
ATOM     23  C   UNL A   1      40.486  26.295  28.377  1.00  0.00     0.031 C 
ATOM     24  C   UNL A   1      46.785  24.739  26.035  1.00  0.00     0.029 A 
ATOM     25  C   UNL A   1      46.604  26.110  26.501  1.00  0.00     0.049 A 
ATOM     26  H   UNL A   1      44.877  26.968  27.286  1.00  0.00     0.167 HD
ATOM     27  C   UNL A   1      41.170  28.620  28.918  1.00  0.00     0.037 A 
ATOM     28  C   UNL A   1      47.552  27.064  26.489  1.00  0.00     0.037 A 
ATOM     29  C   UNL A   1      42.131  29.692  28.990  1.00  0.00     0.049 A 
ATOM     30  C   UNL A   1      47.215  28.435  26.998  1.00  0.00     0.074 A 
ATOM     31  C   UNL A   1      41.964  30.969  29.498  1.00  0.00     0.029 A 
ATOM     32  N   UNL A   1      43.439  29.615  28.535  1.00  0.00    -0.354 N 
ATOM     33  N   UNL A   1      46.089  28.873  27.507  1.00  0.00    -0.248 NA
ATOM     34  C   UNL A   1      48.279  29.444  26.928  1.00  0.00     0.031 C 
ATOM     35  C   UNL A   1      43.154  31.678  29.306  1.00  0.00     0.029 A 
ATOM     36  C   UNL A   1      44.081  30.829  28.725  1.00  0.00     0.049 A 
ATOM     37  H   UNL A   1      43.852  28.814  28.136  1.00  0.00     0.167 HD
ATOM     38  C   UNL A   1      46.310  30.204  27.828  1.00  0.00     0.074 A 
ATOM     39  C   UNL A   1      47.686  30.495  27.478  1.00  0.00     0.031 C 
ATOM     40  C   UNL A   1      45.449  31.104  28.364  1.00  0.00     0.037 A 
BRANCH  27  41
ATOM     41  C   UNL A   1      39.768  28.894  29.380  1.00  0.00     0.064 A 
ATOM     42  C   UNL A   1      39.370  28.664  30.705  1.00  0.00     0.173 A 
ATOM     43  C   UNL A   1      38.821  29.433  28.496  1.00  0.00     0.173 A 
ATOM     44  F   UNL A   1      40.232  28.141  31.589  1.00  0.00    -0.203 F 
ATOM     45  C   UNL A   1      38.068  28.936  31.120  1.00  0.00     0.198 A 
ATOM     46  C   UNL A   1      37.528  29.729  28.920  1.00  0.00     0.198 A 
ATOM     47  F   UNL A   1      39.152  29.680  27.219  1.00  0.00    -0.203 F 
ATOM     48  F   UNL A   1      37.697  28.666  32.380  1.00  0.00    -0.200 F 
ATOM     49  C   UNL A   1      37.150  29.474  30.229  1.00  0.00     0.200 A 
ATOM     50  F   UNL A   1      36.647  30.260  28.062  1.00  0.00    -0.200 F 
ATOM     51  F   UNL A   1      35.900  29.739  30.632  1.00  0.00    -0.200 F 
ENDBRANCH  27  41
BRANCH  28  52
ATOM     52  C   UNL A   1      48.908  26.740  25.981  1.00  0.00     0.064 A 
ATOM     53  C   UNL A   1      49.252  26.984  24.645  1.00  0.00     0.173 A 
ATOM     54  C   UNL A   1      49.895  26.213  26.826  1.00  0.00     0.173 A 
ATOM     55  F   UNL A   1      48.337  27.471  23.796  1.00  0.00    -0.203 F 
ATOM     56  C   UNL A   1      50.533  26.707  24.172  1.00  0.00     0.198 A 
ATOM     57  C   UNL A   1      51.183  25.962  26.360  1.00  0.00     0.198 A 
ATOM     58  F   UNL A   1      49.615  25.968  28.115  1.00  0.00    -0.203 F 
ATOM     59  F   UNL A   1      50.830  26.920  22.883  1.00  0.00    -0.200 F 
ATOM     60  C   UNL A   1      51.500  26.204  25.032  1.00  0.00     0.200 A 
ATOM     61  F   UNL A   1      52.118  25.493  27.198  1.00  0.00    -0.200 F 
ATOM     62  F   UNL A   1      52.735  25.951  24.579  1.00  0.00    -0.200 F 
ENDBRANCH  28  52
BRANCH  40  63
ATOM     63  C   UNL A   1      45.981  32.484  28.620  1.00  0.00     0.064 A 
ATOM     64  C   UNL A   1      45.871  33.501  27.661  1.00  0.00     0.173 A 
ATOM     65  C   UNL A   1      46.586  32.797  29.846  1.00  0.00     0.173 A 
ATOM     66  F   UNL A   1      45.317  33.245  26.466  1.00  0.00    -0.203 F 
ATOM     67  C   UNL A   1      46.370  34.777  27.911  1.00  0.00     0.198 A 
ATOM     68  C   UNL A   1      47.059  34.081  30.103  1.00  0.00     0.198 A 
ATOM     69  F   UNL A   1      46.711  31.859  30.797  1.00  0.00    -0.203 F 
ATOM     70  F   UNL A   1      46.298  35.720  26.962  1.00  0.00    -0.200 F 
ATOM     71  C   UNL A   1      46.957  35.066  29.134  1.00  0.00     0.200 A 
ATOM     72  F   UNL A   1      47.617  34.361  31.289  1.00  0.00    -0.200 F 
ATOM     73  F   UNL A   1      47.435  36.295  29.375  1.00  0.00    -0.200 F 
ENDBRANCH  40  63
ENDBRANCH  14  15
ENDBRANCH   7   9
ENDBRANCH   4   5
ENDBRANCH   3   4
ENDBRANCH   2   3
ENDBRANCH   1   2
BRANCH   1  74
ATOM     74  C   UNL A   1      37.410  22.631  24.808  1.00  0.00     0.021 C 
BRANCH  74  75
ATOM     75  C   UNL A   1      36.310  23.563  24.299  1.00  0.00     0.116 C 
BRANCH  75  76
ATOM     76  N   UNL A   1      35.400  23.998  25.346  1.00  0.00    -0.351 N 
ATOM     77  C   UNL A   1      34.072  23.665  25.526  1.00  0.00     0.272 C 
ATOM     78  H   UNL A   1      35.782  24.610  26.016  1.00  0.00     0.163 HD
ATOM     79  O   UNL A   1      33.457  24.089  26.499  1.00  0.00    -0.267 OA
BRANCH  77  80
ATOM     80  C   UNL A   1      33.418  22.795  24.527  1.00  0.00     0.159 A 
ATOM     81  N   UNL A   1      33.166  21.522  24.986  1.00  0.00    -0.247 NA
ATOM     82  C   UNL A   1      33.076  23.212  23.248  1.00  0.00     0.159 A 
ATOM     83  C   UNL A   1      32.541  20.696  24.124  1.00  0.00     0.132 A 
ATOM     84  N   UNL A   1      32.496  22.326  22.374  1.00  0.00    -0.247 NA
ATOM     85  C   UNL A   1      32.225  21.087  22.839  1.00  0.00     0.132 A 
BRANCH  82  86
ATOM     86  C   UNL A   1      33.034  24.634  22.788  1.00  0.00     0.274 C 
ATOM     87  O   UNL A   1      34.002  25.029  22.129  1.00  0.00    -0.267 OA
ATOM     88  N   UNL A   1      31.946  25.479  23.005  1.00  0.00    -0.337 N 
ATOM     89  C   UNL A   1      31.630  26.421  21.937  1.00  0.00     0.120 C 
ATOM     90  C   UNL A   1      31.068  25.510  24.171  1.00  0.00     0.120 C 
ATOM     91  C   UNL A   1      31.512  27.844  22.456  1.00  0.00     0.025 C 
ATOM     92  C   UNL A   1      30.883  26.939  24.703  1.00  0.00     0.025 C 
ATOM     93  C   UNL A   1      30.466  27.912  23.580  1.00  0.00    -0.003 C 
BRANCH  93  94
ATOM     94  C   UNL A   1      30.289  29.346  24.115  1.00  0.00     0.039 C 
BRANCH  94  95
ATOM     95  C   UNL A   1      29.427  30.221  23.230  1.00  0.00    -0.048 A 
ATOM     96  C   UNL A   1      28.862  29.700  22.057  1.00  0.00     0.004 A 
ATOM     97  C   UNL A   1      29.153  31.551  23.577  1.00  0.00     0.004 A 
ATOM     98  C   UNL A   1      28.030  30.487  21.259  1.00  0.00     0.000 A 
ATOM     99  C   UNL A   1      28.317  32.337  22.779  1.00  0.00     0.000 A 
ATOM    100  C   UNL A   1      27.755  31.803  21.621  1.00  0.00     0.000 A 
ENDBRANCH  94  95
ENDBRANCH  93  94
ENDBRANCH  82  86
ENDBRANCH  77  80
ENDBRANCH  75  76
ENDBRANCH  74  75
ENDBRANCH   1  74
TORSDOF 16
ENDMDL
