MODEL 1
REMARK VINA RESULT:     -12.2      0.000      0.000
REMARK SMILES O=Cc1ccc2c(c1)C=C(C(=O)NCCCCCCNC(=O)c1ccc(-c3c4nc(c(-c5c(F)c(F)c(F)c(F)c5F)c5ccc([nH]5)c(-c5c(F)c(F)c(F)c(F)c5F)c5nc(c(-c6c(F)c(F)c(F)c(F)c6F)c6ccc3[nH]6)C=C5)C=C4)cc1)[C@H](C(F)(F)F)O2
REMARK SMILES IDX 17 1 16 2 15 3 14 4 13 5 11 6 12 7 10 9 3 10 4 11 8 12 5 13
REMARK SMILES IDX 7 14 6 15 9 16 91 17 86 18 2 19 1 20 87 21 88 22 89 23 90 24
REMARK SMILES IDX 18 25 19 26 20 27 21 28 22 30 23 31 24 32 85 33 25 34 84 35
REMARK SMILES IDX 26 36 27 37 28 38 78 39 29 40 83 41 77 42 79 43 30 44 82 45
REMARK SMILES IDX 76 46 75 47 31 49 63 50 43 51 62 52 44 53 47 54 61 55 80 56
REMARK SMILES IDX 45 57 46 58 60 60 81 61 48 62 32 63 33 64 41 65 34 66 35 67
REMARK SMILES IDX 39 68 42 69 36 70 37 71 40 72 38 73 64 74 65 75 73 76 66 77
REMARK SMILES IDX 67 78 71 79 74 80 68 81 69 82 72 83 70 84 49 85 50 86 58 87
REMARK SMILES IDX 51 88 52 89 56 90 59 91 53 92 54 93 57 94 55 95
REMARK H PARENT 13 8 20 29 79 48 47 59
REMARK Flexibility Score: inf
ROOT
ATOM      1  C   UNL A   1      31.423  30.441  25.981  1.00  0.00     0.002 C 
ENDROOT
BRANCH   1   2
ATOM      2  C   UNL A   1      32.406  29.516  26.710  1.00  0.00     0.002 C 
BRANCH   2   3
ATOM      3  C   UNL A   1      33.668  29.162  25.911  1.00  0.00     0.021 C 
BRANCH   3   4
ATOM      4  C   UNL A   1      33.791  27.665  25.603  1.00  0.00     0.116 C 
BRANCH   4   5
ATOM      5  N   UNL A   1      34.080  27.482  24.191  1.00  0.00    -0.352 N 
ATOM      6  C   UNL A   1      33.289  27.408  23.090  1.00  0.00     0.251 C 
ATOM      7  O   UNL A   1      33.798  27.041  22.033  1.00  0.00    -0.270 OA
ATOM      8  H   UNL A   1      35.040  27.394  23.993  1.00  0.00     0.163 HD
BRANCH   6   9
ATOM      9  C   UNL A   1      31.863  27.829  23.093  1.00  0.00     0.067 C 
ATOM     10  C   UNL A   1      28.225  30.892  22.252  1.00  0.00     0.015 A 
ATOM     11  C   UNL A   1      27.302  29.894  22.575  1.00  0.00     0.015 A 
ATOM     12  C   UNL A   1      29.599  30.639  22.332  1.00  0.00     0.023 A 
ATOM     13  C   UNL A   1      27.756  28.634  22.960  1.00  0.00     0.048 A 
ATOM     14  C   UNL A   1      30.050  29.373  22.728  1.00  0.00     0.018 A 
ATOM     15  C   UNL A   1      29.126  28.375  23.032  1.00  0.00     0.128 A 
ATOM     16  C   UNL A   1      31.472  29.064  22.747  1.00  0.00     0.025 C 
ATOM     17  O   UNL A   1      29.481  27.098  23.343  1.00  0.00    -0.475 OA
ATOM     18  C   UNL A   1      30.873  26.821  23.672  1.00  0.00     0.314 C 
BRANCH  10  19
ATOM     19  C   UNL A   1      27.758  32.216  21.793  1.00  0.00     0.260 C 
ATOM     20  O   UNL A   1      28.339  33.249  22.092  1.00  0.00    -0.298 OA
ENDBRANCH  10  19
BRANCH  18  21
ATOM     21  C   UNL A   1      31.131  25.334  23.331  1.00  0.00     0.429 C 
ATOM     22  F   UNL A   1      30.095  24.531  23.661  1.00  0.00    -0.167 F 
ATOM     23  F   UNL A   1      31.311  25.166  21.993  1.00  0.00    -0.167 F 
ATOM     24  F   UNL A   1      32.245  24.856  23.936  1.00  0.00    -0.167 F 
ENDBRANCH  18  21
ENDBRANCH   6   9
ENDBRANCH   4   5
ENDBRANCH   3   4
ENDBRANCH   2   3
ENDBRANCH   1   2
BRANCH   1  25
ATOM     25  C   UNL A   1      31.305  31.854  26.560  1.00  0.00     0.021 C 
BRANCH  25  26
ATOM     26  C   UNL A   1      32.630  32.492  26.972  1.00  0.00     0.116 C 
BRANCH  26  27
ATOM     27  N   UNL A   1      32.447  33.840  27.483  1.00  0.00    -0.352 N 
ATOM     28  C   UNL A   1      33.079  34.484  28.515  1.00  0.00     0.251 C 
ATOM     29  H   UNL A   1      31.763  34.373  27.016  1.00  0.00     0.163 HD
ATOM     30  O   UNL A   1      32.632  35.547  28.934  1.00  0.00    -0.269 OA
BRANCH  28  31
ATOM     31  C   UNL A   1      34.291  33.907  29.138  1.00  0.00     0.039 A 
ATOM     32  C   UNL A   1      34.133  32.909  30.104  1.00  0.00     0.014 A 
ATOM     33  C   UNL A   1      35.570  34.375  28.821  1.00  0.00     0.014 A 
ATOM     34  C   UNL A   1      35.254  32.354  30.720  1.00  0.00     0.010 A 
ATOM     35  C   UNL A   1      36.694  33.776  29.391  1.00  0.00     0.010 A 
ATOM     36  C   UNL A   1      36.546  32.766  30.353  1.00  0.00    -0.014 A 
BRANCH  36  37
ATOM     37  C   UNL A   1      37.738  32.126  30.966  1.00  0.00     0.031 A 
ATOM     38  C   UNL A   1      38.209  32.525  32.336  1.00  0.00     0.074 A 
ATOM     39  C   UNL A   1      38.419  31.202  30.263  1.00  0.00     0.049 A 
ATOM     40  N   UNL A   1      39.201  32.040  33.041  1.00  0.00    -0.248 NA
ATOM     41  C   UNL A   1      37.494  33.632  32.988  1.00  0.00     0.031 C 
ATOM     42  C   UNL A   1      38.110  30.791  28.893  1.00  0.00     0.029 A 
ATOM     43  N   UNL A   1      39.512  30.445  30.601  1.00  0.00    -0.354 N 
ATOM     44  C   UNL A   1      39.235  32.788  34.211  1.00  0.00     0.074 A 
ATOM     45  C   UNL A   1      38.198  33.790  34.100  1.00  0.00     0.031 C 
ATOM     46  C   UNL A   1      38.975  29.836  28.517  1.00  0.00     0.029 A 
ATOM     47  C   UNL A   1      39.906  29.580  29.611  1.00  0.00     0.049 A 
ATOM     48  H   UNL A   1      39.968  30.514  31.471  1.00  0.00     0.167 HD
ATOM     49  C   UNL A   1      40.043  32.636  35.288  1.00  0.00     0.037 A 
ATOM     50  C   UNL A   1      40.899  28.670  29.593  1.00  0.00     0.037 A 
ATOM     51  C   UNL A   1      41.056  31.618  35.406  1.00  0.00     0.049 A 
ATOM     52  C   UNL A   1      41.737  28.476  30.824  1.00  0.00     0.074 A 
ATOM     53  C   UNL A   1      41.868  31.326  36.489  1.00  0.00     0.029 A 
ATOM     54  N   UNL A   1      41.400  30.728  34.400  1.00  0.00    -0.354 N 
ATOM     55  N   UNL A   1      41.694  29.119  31.965  1.00  0.00    -0.248 NA
ATOM     56  C   UNL A   1      42.750  27.413  30.770  1.00  0.00     0.031 C 
ATOM     57  C   UNL A   1      42.731  30.287  36.123  1.00  0.00     0.029 A 
ATOM     58  C   UNL A   1      42.427  29.900  34.827  1.00  0.00     0.049 A 
ATOM     59  H   UNL A   1      40.976  30.689  33.511  1.00  0.00     0.167 HD
ATOM     60  C   UNL A   1      42.658  28.531  32.771  1.00  0.00     0.074 A 
ATOM     61  C   UNL A   1      43.254  27.461  31.996  1.00  0.00     0.031 C 
ATOM     62  C   UNL A   1      43.020  28.850  34.039  1.00  0.00     0.037 A 
BRANCH  49  63
ATOM     63  C   UNL A   1      39.862  33.595  36.430  1.00  0.00     0.064 A 
ATOM     64  C   UNL A   1      40.520  34.835  36.463  1.00  0.00     0.173 A 
ATOM     65  C   UNL A   1      38.999  33.283  37.492  1.00  0.00     0.173 A 
ATOM     66  F   UNL A   1      41.363  35.178  35.479  1.00  0.00    -0.203 F 
ATOM     67  C   UNL A   1      40.346  35.710  37.532  1.00  0.00     0.198 A 
ATOM     68  C   UNL A   1      38.806  34.173  38.545  1.00  0.00     0.198 A 
ATOM     69  F   UNL A   1      38.342  32.113  37.507  1.00  0.00    -0.203 F 
ATOM     70  F   UNL A   1      41.026  36.864  37.568  1.00  0.00    -0.200 F 
ATOM     71  C   UNL A   1      39.486  35.381  38.568  1.00  0.00     0.200 A 
ATOM     72  F   UNL A   1      37.966  33.859  39.541  1.00  0.00    -0.200 F 
ATOM     73  F   UNL A   1      39.319  36.226  39.596  1.00  0.00    -0.200 F 
ENDBRANCH  49  63
BRANCH  50  74
ATOM     74  C   UNL A   1      41.111  27.844  28.378  1.00  0.00     0.064 A 
ATOM     75  C   UNL A   1      41.998  28.253  27.374  1.00  0.00     0.173 A 
ATOM     76  C   UNL A   1      40.453  26.617  28.211  1.00  0.00     0.173 A 
ATOM     77  F   UNL A   1      42.637  29.427  27.484  1.00  0.00    -0.203 F 
ATOM     78  C   UNL A   1      42.208  27.473  26.240  1.00  0.00     0.198 A 
ATOM     79  C   UNL A   1      40.684  25.826  27.089  1.00  0.00     0.198 A 
ATOM     80  F   UNL A   1      39.602  26.177  29.151  1.00  0.00    -0.203 F 
ATOM     81  F   UNL A   1      43.036  27.903  25.278  1.00  0.00    -0.200 F 
ATOM     82  C   UNL A   1      41.557  26.256  26.101  1.00  0.00     0.200 A 
ATOM     83  F   UNL A   1      40.065  24.643  26.966  1.00  0.00    -0.200 F 
ATOM     84  F   UNL A   1      41.769  25.500  25.015  1.00  0.00    -0.200 F 
ENDBRANCH  50  74
BRANCH  62  85
ATOM     85  C   UNL A   1      44.106  28.023  34.663  1.00  0.00     0.064 A 
ATOM     86  C   UNL A   1      45.455  28.404  34.584  1.00  0.00     0.173 A 
ATOM     87  C   UNL A   1      43.796  26.840  35.350  1.00  0.00     0.173 A 
ATOM     88  F   UNL A   1      45.804  29.518  33.925  1.00  0.00    -0.203 F 
ATOM     89  C   UNL A   1      46.455  27.611  35.140  1.00  0.00     0.198 A 
ATOM     90  C   UNL A   1      44.798  26.066  35.930  1.00  0.00     0.198 A 
ATOM     91  F   UNL A   1      42.523  26.435  35.459  1.00  0.00    -0.203 F 
ATOM     92  F   UNL A   1      47.741  27.965  35.002  1.00  0.00    -0.200 F 
ATOM     93  C   UNL A   1      46.126  26.446  35.816  1.00  0.00     0.200 A 
ATOM     94  F   UNL A   1      44.477  24.946  36.592  1.00  0.00    -0.200 F 
ATOM     95  F   UNL A   1      47.091  25.683  36.346  1.00  0.00    -0.200 F 
ENDBRANCH  62  85
ENDBRANCH  36  37
ENDBRANCH  28  31
ENDBRANCH  26  27
ENDBRANCH  25  26
ENDBRANCH   1  25
TORSDOF 15
ENDMDL
MODEL 2
REMARK VINA RESULT:     -12.1      5.917     11.270
REMARK SMILES O=Cc1ccc2c(c1)C=C(C(=O)NCCCCCCNC(=O)c1ccc(-c3c4nc(c(-c5c(F)c(F)c(F)c(F)c5F)c5ccc([nH]5)c(-c5c(F)c(F)c(F)c(F)c5F)c5nc(c(-c6c(F)c(F)c(F)c(F)c6F)c6ccc3[nH]6)C=C5)C=C4)cc1)[C@H](C(F)(F)F)O2
REMARK SMILES IDX 17 1 16 2 15 3 14 4 13 5 11 6 12 7 10 9 3 10 4 11 8 12 5 13
REMARK SMILES IDX 7 14 6 15 9 16 91 17 86 18 2 19 1 20 87 21 88 22 89 23 90 24
REMARK SMILES IDX 18 25 19 26 20 27 21 28 22 30 23 31 24 32 85 33 25 34 84 35
REMARK SMILES IDX 26 36 27 37 28 38 78 39 29 40 83 41 77 42 79 43 30 44 82 45
REMARK SMILES IDX 76 46 75 47 31 49 63 50 43 51 62 52 44 53 47 54 61 55 80 56
REMARK SMILES IDX 45 57 46 58 60 60 81 61 48 62 32 63 33 64 41 65 34 66 35 67
REMARK SMILES IDX 39 68 42 69 36 70 37 71 40 72 38 73 64 74 65 75 73 76 66 77
REMARK SMILES IDX 67 78 71 79 74 80 68 81 69 82 72 83 70 84 49 85 50 86 58 87
REMARK SMILES IDX 51 88 52 89 56 90 59 91 53 92 54 93 57 94 55 95
REMARK H PARENT 13 8 20 29 79 48 47 59
REMARK Flexibility Score: inf
ROOT
ATOM      1  C   UNL A   1      36.618  20.415  25.000  1.00  0.00     0.002 C 
ENDROOT
BRANCH   1   2
ATOM      2  C   UNL A   1      36.669  21.913  24.674  1.00  0.00     0.002 C 
BRANCH   2   3
ATOM      3  C   UNL A   1      36.402  22.840  25.869  1.00  0.00     0.021 C 
BRANCH   3   4
ATOM      4  C   UNL A   1      35.275  23.848  25.616  1.00  0.00     0.116 C 
BRANCH   4   5
ATOM      5  N   UNL A   1      34.210  23.639  26.581  1.00  0.00    -0.352 N 
ATOM      6  C   UNL A   1      33.147  22.795  26.613  1.00  0.00     0.251 C 
ATOM      7  O   UNL A   1      32.285  22.978  27.468  1.00  0.00    -0.270 OA
ATOM      8  H   UNL A   1      34.271  24.225  27.369  1.00  0.00     0.163 HD
BRANCH   6   9
ATOM      9  C   UNL A   1      33.028  21.616  25.714  1.00  0.00     0.067 C 
ATOM     10  C   UNL A   1      33.097  16.897  24.688  1.00  0.00     0.015 A 
ATOM     11  C   UNL A   1      32.603  17.161  23.408  1.00  0.00     0.015 A 
ATOM     12  C   UNL A   1      33.360  17.945  25.576  1.00  0.00     0.023 A 
ATOM     13  C   UNL A   1      32.353  18.478  23.025  1.00  0.00     0.048 A 
ATOM     14  C   UNL A   1      33.116  19.267  25.183  1.00  0.00     0.018 A 
ATOM     15  C   UNL A   1      32.605  19.525  23.912  1.00  0.00     0.128 A 
ATOM     16  C   UNL A   1      33.312  20.368  26.115  1.00  0.00     0.025 C 
ATOM     17  O   UNL A   1      32.263  20.772  23.484  1.00  0.00    -0.475 OA
ATOM     18  C   UNL A   1      32.719  21.924  24.250  1.00  0.00     0.314 C 
BRANCH  10  19
ATOM     19  C   UNL A   1      33.317  15.504  25.126  1.00  0.00     0.260 C 
ATOM     20  O   UNL A   1      34.434  15.008  25.177  1.00  0.00    -0.298 OA
ENDBRANCH  10  19
BRANCH  18  21
ATOM     21  C   UNL A   1      31.713  23.069  23.989  1.00  0.00     0.429 C 
ATOM     22  F   UNL A   1      32.282  24.293  24.048  1.00  0.00    -0.167 F 
ATOM     23  F   UNL A   1      31.182  22.975  22.740  1.00  0.00    -0.167 F 
ATOM     24  F   UNL A   1      30.673  23.045  24.856  1.00  0.00    -0.167 F 
ENDBRANCH  18  21
ENDBRANCH   6   9
ENDBRANCH   4   5
ENDBRANCH   3   4
ENDBRANCH   2   3
ENDBRANCH   1   2
BRANCH   1  25
ATOM     25  C   UNL A   1      37.956  19.677  24.887  1.00  0.00     0.021 C 
BRANCH  25  26
ATOM     26  C   UNL A   1      39.014  20.108  25.901  1.00  0.00     0.116 C 
BRANCH  26  27
ATOM     27  N   UNL A   1      40.155  19.209  25.908  1.00  0.00    -0.352 N 
ATOM     28  C   UNL A   1      41.493  19.484  26.029  1.00  0.00     0.251 C 
ATOM     29  H   UNL A   1      39.933  18.254  25.811  1.00  0.00     0.163 HD
ATOM     30  O   UNL A   1      42.318  18.607  25.793  1.00  0.00    -0.269 OA
BRANCH  28  31
ATOM     31  C   UNL A   1      41.955  20.831  26.430  1.00  0.00     0.039 A 
ATOM     32  C   UNL A   1      42.156  21.791  25.434  1.00  0.00     0.014 A 
ATOM     33  C   UNL A   1      42.243  21.138  27.763  1.00  0.00     0.014 A 
ATOM     34  C   UNL A   1      42.604  23.066  25.778  1.00  0.00     0.010 A 
ATOM     35  C   UNL A   1      42.631  22.432  28.114  1.00  0.00     0.010 A 
ATOM     36  C   UNL A   1      42.824  23.405  27.123  1.00  0.00    -0.014 A 
BRANCH  36  37
ATOM     37  C   UNL A   1      43.240  24.783  27.488  1.00  0.00     0.031 A 
ATOM     38  C   UNL A   1      44.656  25.243  27.282  1.00  0.00     0.074 A 
ATOM     39  C   UNL A   1      42.338  25.613  28.043  1.00  0.00     0.049 A 
ATOM     40  N   UNL A   1      45.181  26.423  27.502  1.00  0.00    -0.248 NA
ATOM     41  C   UNL A   1      45.615  24.241  26.794  1.00  0.00     0.031 C 
ATOM     42  C   UNL A   1      40.956  25.257  28.370  1.00  0.00     0.029 A 
ATOM     43  N   UNL A   1      42.446  26.924  28.433  1.00  0.00    -0.354 N 
ATOM     44  C   UNL A   1      46.529  26.302  27.190  1.00  0.00     0.074 A 
ATOM     45  C   UNL A   1      46.751  24.922  26.814  1.00  0.00     0.031 C 
ATOM     46  C   UNL A   1      40.337  26.332  28.885  1.00  0.00     0.029 A 
ATOM     47  C   UNL A   1      41.281  27.444  28.938  1.00  0.00     0.049 A 
ATOM     48  H   UNL A   1      43.280  27.443  28.356  1.00  0.00     0.167 HD
ATOM     49  C   UNL A   1      47.487  27.260  27.195  1.00  0.00     0.037 A 
ATOM     50  C   UNL A   1      41.000  28.684  29.382  1.00  0.00     0.037 A 
ATOM     51  C   UNL A   1      47.255  28.638  27.544  1.00  0.00     0.049 A 
ATOM     52  C   UNL A   1      42.061  29.745  29.315  1.00  0.00     0.074 A 
ATOM     53  C   UNL A   1      48.138  29.703  27.498  1.00  0.00     0.029 A 
ATOM     54  N   UNL A   1      46.049  29.141  28.009  1.00  0.00    -0.354 N 
ATOM     55  N   UNL A   1      43.307  29.645  28.920  1.00  0.00    -0.248 NA
ATOM     56  C   UNL A   1      41.670  31.097  29.736  1.00  0.00     0.031 C 
ATOM     57  C   UNL A   1      47.479  30.841  27.976  1.00  0.00     0.029 A 
ATOM     58  C   UNL A   1      46.171  30.497  28.276  1.00  0.00     0.049 A 
ATOM     59  H   UNL A   1      45.227  28.613  28.133  1.00  0.00     0.167 HD
ATOM     60  C   UNL A   1      43.844  30.920  29.028  1.00  0.00     0.074 A 
ATOM     61  C   UNL A   1      42.781  31.782  29.502  1.00  0.00     0.031 C 
ATOM     62  C   UNL A   1      45.107  31.338  28.762  1.00  0.00     0.037 A 
BRANCH  49  63
ATOM     63  C   UNL A   1      48.880  26.848  26.809  1.00  0.00     0.064 A 
ATOM     64  C   UNL A   1      49.338  26.946  25.486  1.00  0.00     0.173 A 
ATOM     65  C   UNL A   1      49.776  26.374  27.780  1.00  0.00     0.173 A 
ATOM     66  F   UNL A   1      48.519  27.382  24.519  1.00  0.00    -0.203 F 
ATOM     67  C   UNL A   1      50.630  26.554  25.144  1.00  0.00     0.198 A 
ATOM     68  C   UNL A   1      51.076  26.011  27.439  1.00  0.00     0.198 A 
ATOM     69  F   UNL A   1      49.391  26.266  29.061  1.00  0.00    -0.203 F 
ATOM     70  F   UNL A   1      51.027  26.606  23.866  1.00  0.00    -0.200 F 
ATOM     71  C   UNL A   1      51.498  26.092  26.121  1.00  0.00     0.200 A 
ATOM     72  F   UNL A   1      51.919  25.574  28.386  1.00  0.00    -0.200 F 
ATOM     73  F   UNL A   1      52.742  25.717  25.790  1.00  0.00    -0.200 F 
ENDBRANCH  49  63
BRANCH  50  74
ATOM     74  C   UNL A   1      39.635  28.991  29.878  1.00  0.00     0.064 A 
ATOM     75  C   UNL A   1      39.298  28.801  31.224  1.00  0.00     0.173 A 
ATOM     76  C   UNL A   1      38.650  29.506  29.023  1.00  0.00     0.173 A 
ATOM     77  F   UNL A   1      40.203  28.295  32.076  1.00  0.00    -0.203 F 
ATOM     78  C   UNL A   1      38.022  29.101  31.695  1.00  0.00     0.198 A 
ATOM     79  C   UNL A   1      37.383  29.830  29.500  1.00  0.00     0.198 A 
ATOM     80  F   UNL A   1      38.929  29.716  27.727  1.00  0.00    -0.203 F 
ATOM     81  F   UNL A   1      37.715  28.877  32.980  1.00  0.00    -0.200 F 
ATOM     82  C   UNL A   1      37.067  29.622  30.834  1.00  0.00     0.200 A 
ATOM     83  F   UNL A   1      36.468  30.349  28.669  1.00  0.00    -0.200 F 
ATOM     84  F   UNL A   1      35.843  29.921  31.290  1.00  0.00    -0.200 F 
ENDBRANCH  50  74
BRANCH  62  85
ATOM     85  C   UNL A   1      45.397  32.796  28.972  1.00  0.00     0.064 A 
ATOM     86  C   UNL A   1      45.899  33.275  30.192  1.00  0.00     0.173 A 
ATOM     87  C   UNL A   1      45.175  33.723  27.943  1.00  0.00     0.173 A 
ATOM     88  F   UNL A   1      46.113  32.432  31.212  1.00  0.00    -0.203 F 
ATOM     89  C   UNL A   1      46.134  34.634  30.384  1.00  0.00     0.198 A 
ATOM     90  C   UNL A   1      45.440  35.077  28.130  1.00  0.00     0.198 A 
ATOM     91  F   UNL A   1      44.703  33.315  26.756  1.00  0.00    -0.203 F 
ATOM     92  F   UNL A   1      46.557  35.076  31.577  1.00  0.00    -0.200 F 
ATOM     93  C   UNL A   1      45.908  35.533  29.352  1.00  0.00     0.200 A 
ATOM     94  F   UNL A   1      45.231  35.943  27.128  1.00  0.00    -0.200 F 
ATOM     95  F   UNL A   1      46.130  36.840  29.541  1.00  0.00    -0.200 F 
ENDBRANCH  62  85
ENDBRANCH  36  37
ENDBRANCH  28  31
ENDBRANCH  26  27
ENDBRANCH  25  26
ENDBRANCH   1  25
TORSDOF 15
ENDMDL
MODEL 3
REMARK VINA RESULT:     -12.0      0.374      1.661
REMARK SMILES O=Cc1ccc2c(c1)C=C(C(=O)NCCCCCCNC(=O)c1ccc(-c3c4nc(c(-c5c(F)c(F)c(F)c(F)c5F)c5ccc([nH]5)c(-c5c(F)c(F)c(F)c(F)c5F)c5nc(c(-c6c(F)c(F)c(F)c(F)c6F)c6ccc3[nH]6)C=C5)C=C4)cc1)[C@H](C(F)(F)F)O2
REMARK SMILES IDX 17 1 16 2 15 3 14 4 13 5 11 6 12 7 10 9 3 10 4 11 8 12 5 13
REMARK SMILES IDX 7 14 6 15 9 16 91 17 86 18 2 19 1 20 87 21 88 22 89 23 90 24
REMARK SMILES IDX 18 25 19 26 20 27 21 28 22 30 23 31 24 32 85 33 25 34 84 35
REMARK SMILES IDX 26 36 27 37 28 38 78 39 29 40 83 41 77 42 79 43 30 44 82 45
REMARK SMILES IDX 76 46 75 47 31 49 63 50 43 51 62 52 44 53 47 54 61 55 80 56
REMARK SMILES IDX 45 57 46 58 60 60 81 61 48 62 32 63 33 64 41 65 34 66 35 67
REMARK SMILES IDX 39 68 42 69 36 70 37 71 40 72 38 73 64 74 65 75 73 76 66 77
REMARK SMILES IDX 67 78 71 79 74 80 68 81 69 82 72 83 70 84 49 85 50 86 58 87
REMARK SMILES IDX 51 88 52 89 56 90 59 91 53 92 54 93 57 94 55 95
REMARK H PARENT 13 8 20 29 79 48 47 59
REMARK Flexibility Score: inf
ROOT
ATOM      1  C   UNL A   1      31.897  29.986  26.921  1.00  0.00     0.002 C 
ENDROOT
BRANCH   1   2
ATOM      2  C   UNL A   1      33.253  29.586  26.325  1.00  0.00     0.002 C 
BRANCH   2   3
ATOM      3  C   UNL A   1      33.873  28.319  26.932  1.00  0.00     0.021 C 
BRANCH   3   4
ATOM      4  C   UNL A   1      33.453  27.033  26.212  1.00  0.00     0.116 C 
BRANCH   4   5
ATOM      5  N   UNL A   1      33.884  27.089  24.826  1.00  0.00    -0.352 N 
ATOM      6  C   UNL A   1      33.207  27.178  23.652  1.00  0.00     0.251 C 
ATOM      7  O   UNL A   1      33.829  27.001  22.608  1.00  0.00    -0.270 OA
ATOM      8  H   UNL A   1      34.861  27.055  24.715  1.00  0.00     0.163 HD
BRANCH   6   9
ATOM      9  C   UNL A   1      31.772  27.563  23.578  1.00  0.00     0.067 C 
ATOM     10  C   UNL A   1      28.121  30.666  22.976  1.00  0.00     0.015 A 
ATOM     11  C   UNL A   1      27.212  29.606  22.976  1.00  0.00     0.015 A 
ATOM     12  C   UNL A   1      29.487  30.428  23.161  1.00  0.00     0.023 A 
ATOM     13  C   UNL A   1      27.674  28.301  23.141  1.00  0.00     0.048 A 
ATOM     14  C   UNL A   1      29.946  29.116  23.335  1.00  0.00     0.018 A 
ATOM     15  C   UNL A   1      29.037  28.059  23.315  1.00  0.00     0.128 A 
ATOM     16  C   UNL A   1      31.369  28.836  23.453  1.00  0.00     0.025 C 
ATOM     17  O   UNL A   1      29.411  26.751  23.393  1.00  0.00    -0.475 OA
ATOM     18  C   UNL A   1      30.769  26.437  23.816  1.00  0.00     0.314 C 
BRANCH  10  19
ATOM     19  C   UNL A   1      27.651  32.048  22.752  1.00  0.00     0.260 C 
ATOM     20  O   UNL A   1      28.361  33.020  22.970  1.00  0.00    -0.298 OA
ENDBRANCH  10  19
BRANCH  18  21
ATOM     21  C   UNL A   1      31.126  25.061  23.206  1.00  0.00     0.429 C 
ATOM     22  F   UNL A   1      32.045  24.387  23.931  1.00  0.00    -0.167 F 
ATOM     23  F   UNL A   1      30.033  24.251  23.162  1.00  0.00    -0.167 F 
ATOM     24  F   UNL A   1      31.583  25.167  21.936  1.00  0.00    -0.167 F 
ENDBRANCH  18  21
ENDBRANCH   6   9
ENDBRANCH   4   5
ENDBRANCH   3   4
ENDBRANCH   2   3
ENDBRANCH   1   2
BRANCH   1  25
ATOM     25  C   UNL A   1      31.585  31.485  26.884  1.00  0.00     0.021 C 
BRANCH  25  26
ATOM     26  C   UNL A   1      32.810  32.394  26.802  1.00  0.00     0.116 C 
BRANCH  26  27
ATOM     27  N   UNL A   1      32.551  33.705  27.372  1.00  0.00    -0.352 N 
ATOM     28  C   UNL A   1      33.114  34.319  28.461  1.00  0.00     0.251 C 
ATOM     29  H   UNL A   1      31.864  34.234  26.904  1.00  0.00     0.163 HD
ATOM     30  O   UNL A   1      32.606  35.340  28.914  1.00  0.00    -0.269 OA
BRANCH  28  31
ATOM     31  C   UNL A   1      34.322  33.759  29.105  1.00  0.00     0.039 A 
ATOM     32  C   UNL A   1      34.163  32.742  30.050  1.00  0.00     0.014 A 
ATOM     33  C   UNL A   1      35.598  34.261  28.828  1.00  0.00     0.014 A 
ATOM     34  C   UNL A   1      35.281  32.201  30.685  1.00  0.00     0.010 A 
ATOM     35  C   UNL A   1      36.720  33.678  29.417  1.00  0.00     0.010 A 
ATOM     36  C   UNL A   1      36.571  32.649  30.358  1.00  0.00    -0.014 A 
BRANCH  36  37
ATOM     37  C   UNL A   1      37.762  32.026  30.990  1.00  0.00     0.031 A 
ATOM     38  C   UNL A   1      38.204  32.430  32.369  1.00  0.00     0.074 A 
ATOM     39  C   UNL A   1      38.468  31.112  30.298  1.00  0.00     0.049 A 
ATOM     40  N   UNL A   1      39.191  31.959  33.090  1.00  0.00    -0.248 NA
ATOM     41  C   UNL A   1      37.463  33.525  33.010  1.00  0.00     0.031 C 
ATOM     42  C   UNL A   1      38.188  30.699  28.923  1.00  0.00     0.029 A 
ATOM     43  N   UNL A   1      39.566  30.371  30.654  1.00  0.00    -0.354 N 
ATOM     44  C   UNL A   1      39.194  32.705  34.261  1.00  0.00     0.074 A 
ATOM     45  C   UNL A   1      38.145  33.692  34.134  1.00  0.00     0.031 C 
ATOM     46  C   UNL A   1      39.074  29.757  28.560  1.00  0.00     0.029 A 
ATOM     47  C   UNL A   1      39.990  29.513  29.670  1.00  0.00     0.049 A 
ATOM     48  H   UNL A   1      40.006  30.445  31.531  1.00  0.00     0.167 HD
ATOM     49  C   UNL A   1      39.986  32.563  35.352  1.00  0.00     0.037 A 
ATOM     50  C   UNL A   1      40.996  28.618  29.668  1.00  0.00     0.037 A 
ATOM     51  C   UNL A   1      41.012  31.560  35.486  1.00  0.00     0.049 A 
ATOM     52  C   UNL A   1      41.816  28.434  30.912  1.00  0.00     0.074 A 
ATOM     53  C   UNL A   1      41.809  31.279  36.582  1.00  0.00     0.029 A 
ATOM     54  N   UNL A   1      41.385  30.676  34.485  1.00  0.00    -0.354 N 
ATOM     55  N   UNL A   1      41.744  29.075  32.053  1.00  0.00    -0.248 NA
ATOM     56  C   UNL A   1      42.845  27.386  30.875  1.00  0.00     0.031 C 
ATOM     57  C   UNL A   1      42.694  30.253  36.230  1.00  0.00     0.029 A 
ATOM     58  C   UNL A   1      42.417  29.863  34.929  1.00  0.00     0.049 A 
ATOM     59  H   UNL A   1      40.978  30.633  33.589  1.00  0.00     0.167 HD
ATOM     60  C   UNL A   1      42.703  28.500  32.875  1.00  0.00     0.074 A 
ATOM     61  C   UNL A   1      43.327  27.440  32.110  1.00  0.00     0.031 C 
ATOM     62  C   UNL A   1      43.038  28.823  34.150  1.00  0.00     0.037 A 
BRANCH  49  63
ATOM     63  C   UNL A   1      39.772  33.519  36.491  1.00  0.00     0.064 A 
ATOM     64  C   UNL A   1      38.941  33.198  37.576  1.00  0.00     0.173 A 
ATOM     65  C   UNL A   1      40.426  34.760  36.512  1.00  0.00     0.173 A 
ATOM     66  F   UNL A   1      38.283  32.030  37.601  1.00  0.00    -0.203 F 
ATOM     67  C   UNL A   1      38.748  34.098  38.622  1.00  0.00     0.198 A 
ATOM     68  C   UNL A   1      40.254  35.644  37.573  1.00  0.00     0.198 A 
ATOM     69  F   UNL A   1      41.237  35.113  35.503  1.00  0.00    -0.203 F 
ATOM     70  F   UNL A   1      37.907  33.792  39.620  1.00  0.00    -0.200 F 
ATOM     71  C   UNL A   1      39.408  35.316  38.622  1.00  0.00     0.200 A 
ATOM     72  F   UNL A   1      40.901  36.818  37.578  1.00  0.00    -0.200 F 
ATOM     73  F   UNL A   1      39.222  36.181  39.630  1.00  0.00    -0.200 F 
ENDBRANCH  49  63
BRANCH  50  74
ATOM     74  C   UNL A   1      41.240  27.796  28.456  1.00  0.00     0.064 A 
ATOM     75  C   UNL A   1      40.566  26.583  28.260  1.00  0.00     0.173 A 
ATOM     76  C   UNL A   1      42.131  28.219  27.459  1.00  0.00     0.173 A 
ATOM     77  F   UNL A   1      39.716  26.131  29.195  1.00  0.00    -0.203 F 
ATOM     78  C   UNL A   1      40.784  25.817  27.117  1.00  0.00     0.198 A 
ATOM     79  C   UNL A   1      42.328  27.464  26.306  1.00  0.00     0.198 A 
ATOM     80  F   UNL A   1      42.792  29.378  27.597  1.00  0.00    -0.203 F 
ATOM     81  F   UNL A   1      40.151  24.645  26.970  1.00  0.00    -0.200 F 
ATOM     82  C   UNL A   1      41.659  26.261  26.138  1.00  0.00     0.200 A 
ATOM     83  F   UNL A   1      43.163  27.904  25.353  1.00  0.00    -0.200 F 
ATOM     84  F   UNL A   1      41.859  25.529  25.034  1.00  0.00    -0.200 F 
ENDBRANCH  50  74
BRANCH  62  85
ATOM     85  C   UNL A   1      44.126  28.011  34.791  1.00  0.00     0.064 A 
ATOM     86  C   UNL A   1      45.471  28.404  34.724  1.00  0.00     0.173 A 
ATOM     87  C   UNL A   1      43.820  26.830  35.483  1.00  0.00     0.173 A 
ATOM     88  F   UNL A   1      45.817  29.518  34.061  1.00  0.00    -0.203 F 
ATOM     89  C   UNL A   1      46.474  27.626  35.297  1.00  0.00     0.198 A 
ATOM     90  C   UNL A   1      44.823  26.070  36.079  1.00  0.00     0.198 A 
ATOM     91  F   UNL A   1      42.550  26.413  35.581  1.00  0.00    -0.203 F 
ATOM     92  F   UNL A   1      47.757  27.991  35.170  1.00  0.00    -0.200 F 
ATOM     93  C   UNL A   1      46.148  26.462  35.977  1.00  0.00     0.200 A 
ATOM     94  F   UNL A   1      44.506  24.951  36.745  1.00  0.00    -0.200 F 
ATOM     95  F   UNL A   1      47.115  25.712  36.523  1.00  0.00    -0.200 F 
ENDBRANCH  62  85
ENDBRANCH  36  37
ENDBRANCH  28  31
ENDBRANCH  26  27
ENDBRANCH  25  26
ENDBRANCH   1  25
TORSDOF 15
ENDMDL
