MODEL 1
REMARK VINA RESULT:     -11.1      0.000      0.000
REMARK SMILES C[C@@H]1[C@@H](C(=O)NCCCCCCNC(=O)c2ccc(-c3c4nc(c(-c5c(F)c(F)c(F)c(F)c5F)c5ccc([nH]5)c(-c5c(F)c(F)c(F)c(F)c5F)c5nc(c(-c6c(F)c(F)c(F)c(F)c6F)c6ccc3[nH]6)C=C5)C=C4)cc2)CC[N@@H+]1CC(=O)N(C)C1CC1
REMARK SMILES IDX 8 1 7 2 6 3 4 4 5 5 3 7 1 8 2 9 81 10 79 11 80 12 82 14
REMARK SMILES IDX 83 15 84 16 85 17 86 18 87 19 88 20 89 21 9 22 10 23 11 24
REMARK SMILES IDX 12 25 13 26 14 27 15 29 16 30 17 31 78 32 18 33 77 34 19 35
REMARK SMILES IDX 20 36 21 37 71 38 22 39 76 40 70 41 72 42 23 43 75 44 69 45
REMARK SMILES IDX 68 46 24 48 56 49 36 50 55 51 37 52 40 53 54 54 73 55 38 56
REMARK SMILES IDX 39 57 53 59 74 60 41 61 25 62 26 63 34 64 27 65 28 66 32 67
REMARK SMILES IDX 35 68 29 69 30 70 33 71 31 72 57 73 58 74 66 75 59 76 60 77
REMARK SMILES IDX 64 78 67 79 61 80 62 81 65 82 63 83 42 84 43 85 51 86 44 87
REMARK SMILES IDX 45 88 49 89 52 90 46 91 47 92 50 93 48 94
REMARK H PARENT 6 6 81 13 13 28 72 47 40 58
REMARK Flexibility Score: inf
ROOT
ATOM      1  C   UNL A   1      31.244  28.722  24.377  1.00  0.00     0.021 C 
ENDROOT
BRANCH   1   2
ATOM      2  C   UNL A   1      32.688  28.237  24.435  1.00  0.00     0.116 C 
BRANCH   2   3
ATOM      3  N   UNL A   1      33.108  27.636  23.188  1.00  0.00    -0.356 N 
ATOM      4  C   UNL A   1      33.309  26.327  22.884  1.00  0.00     0.229 C 
ATOM      5  O   UNL A   1      33.665  26.073  21.733  1.00  0.00    -0.275 OA
ATOM      6  H   UNL A   1      33.272  28.268  22.452  1.00  0.00     0.163 HD
BRANCH   4   7
ATOM      7  C   UNL A   1      33.162  25.277  23.976  1.00  0.00     0.142 C 
ATOM      8  C   UNL A   1      35.245  24.321  25.008  1.00  0.00     0.076 C 
ATOM      9  C   UNL A   1      34.251  24.188  23.860  1.00  0.00     0.194 C 
ATOM     10  N   UNL A   1      33.548  22.916  23.662  1.00  0.00    -0.324 N 
ATOM     11  C   UNL A   1      31.843  24.510  23.925  1.00  0.00     0.081 C 
ATOM     12  C   UNL A   1      32.187  23.209  23.234  1.00  0.00     0.263 C 
ATOM     13  H   UNL A   1      34.079  22.447  22.928  1.00  0.00     0.348 HD
BRANCH  10  14
ATOM     14  C   UNL A   1      33.717  21.792  24.585  1.00  0.00     0.364 C 
BRANCH  14  15
ATOM     15  C   UNL A   1      32.567  20.774  24.578  1.00  0.00     0.277 C 
ATOM     16  O   UNL A   1      31.629  20.910  25.376  1.00  0.00    -0.268 OA
BRANCH  15  17
ATOM     17  N   UNL A   1      32.581  19.708  23.682  1.00  0.00    -0.338 N 
ATOM     18  C   UNL A   1      32.146  19.740  22.290  1.00  0.00     0.147 C 
BRANCH  17  19
ATOM     19  C   UNL A   1      32.959  18.409  24.199  1.00  0.00     0.085 C 
ATOM     20  C   UNL A   1      33.476  17.286  23.340  1.00  0.00     0.027 C 
ATOM     21  C   UNL A   1      34.414  18.014  24.251  1.00  0.00     0.027 C 
ENDBRANCH  17  19
ENDBRANCH  15  17
ENDBRANCH  14  15
ENDBRANCH  10  14
ENDBRANCH   4   7
ENDBRANCH   2   3
ENDBRANCH   1   2
BRANCH   1  22
ATOM     22  C   UNL A   1      31.034  30.186  24.783  1.00  0.00     0.002 C 
BRANCH  22  23
ATOM     23  C   UNL A   1      31.563  30.574  26.168  1.00  0.00     0.002 C 
BRANCH  23  24
ATOM     24  C   UNL A   1      31.414  32.051  26.536  1.00  0.00     0.021 C 
BRANCH  24  25
ATOM     25  C   UNL A   1      32.688  32.713  27.042  1.00  0.00     0.116 C 
BRANCH  25  26
ATOM     26  N   UNL A   1      32.439  34.020  27.623  1.00  0.00    -0.352 N 
ATOM     27  C   UNL A   1      33.050  34.626  28.689  1.00  0.00     0.251 C 
ATOM     28  H   UNL A   1      31.731  34.548  27.187  1.00  0.00     0.163 HD
ATOM     29  O   UNL A   1      32.603  35.672  29.145  1.00  0.00    -0.269 OA
BRANCH  27  30
ATOM     30  C   UNL A   1      34.239  34.001  29.305  1.00  0.00     0.039 A 
ATOM     31  C   UNL A   1      34.046  33.034  30.293  1.00  0.00     0.014 A 
ATOM     32  C   UNL A   1      35.533  34.372  28.925  1.00  0.00     0.014 A 
ATOM     33  C   UNL A   1      35.152  32.411  30.872  1.00  0.00     0.010 A 
ATOM     34  C   UNL A   1      36.630  33.693  29.443  1.00  0.00     0.010 A 
ATOM     35  C   UNL A   1      36.451  32.717  30.435  1.00  0.00    -0.014 A 
BRANCH  35  36
ATOM     36  C   UNL A   1      37.629  32.038  31.029  1.00  0.00     0.031 A 
ATOM     37  C   UNL A   1      38.094  32.403  32.411  1.00  0.00     0.074 A 
ATOM     38  C   UNL A   1      38.293  31.113  30.310  1.00  0.00     0.049 A 
ATOM     39  N   UNL A   1      39.102  31.925  33.098  1.00  0.00    -0.248 NA
ATOM     40  C   UNL A   1      37.345  33.461  33.106  1.00  0.00     0.031 C 
ATOM     41  C   UNL A   1      37.964  30.711  28.942  1.00  0.00     0.029 A 
ATOM     42  N   UNL A   1      39.380  30.340  30.632  1.00  0.00    -0.354 N 
ATOM     43  C   UNL A   1      39.109  32.627  34.296  1.00  0.00     0.074 A 
ATOM     44  C   UNL A   1      38.048  33.607  34.220  1.00  0.00     0.031 C 
ATOM     45  C   UNL A   1      38.809  29.744  28.553  1.00  0.00     0.029 A 
ATOM     46  C   UNL A   1      39.762  29.484  29.629  1.00  0.00     0.049 A 
ATOM     47  H   UNL A   1      39.843  30.395  31.498  1.00  0.00     0.167 HD
ATOM     48  C   UNL A   1      39.909  32.449  35.374  1.00  0.00     0.037 A 
ATOM     49  C   UNL A   1      40.767  28.590  29.583  1.00  0.00     0.037 A 
ATOM     50  C   UNL A   1      40.951  31.459  35.451  1.00  0.00     0.049 A 
ATOM     51  C   UNL A   1      41.651  28.424  30.790  1.00  0.00     0.074 A 
ATOM     52  C   UNL A   1      41.779  31.159  36.518  1.00  0.00     0.029 A 
ATOM     53  N   UNL A   1      41.309  30.609  34.414  1.00  0.00    -0.354 N 
ATOM     54  N   UNL A   1      41.599  29.038  31.947  1.00  0.00    -0.248 NA
ATOM     55  C   UNL A   1      42.731  27.431  30.687  1.00  0.00     0.031 C 
ATOM     56  C   UNL A   1      42.676  30.167  36.108  1.00  0.00     0.029 A 
ATOM     57  C   UNL A   1      42.367  29.804  34.808  1.00  0.00     0.049 A 
ATOM     58  H   UNL A   1      40.875  30.580  33.531  1.00  0.00     0.167 HD
ATOM     59  C   UNL A   1      42.616  28.490  32.717  1.00  0.00     0.074 A 
ATOM     60  C   UNL A   1      43.256  27.478  31.902  1.00  0.00     0.031 C 
ATOM     61  C   UNL A   1      42.990  28.799  33.984  1.00  0.00     0.037 A 
BRANCH  48  62
ATOM     62  C   UNL A   1      39.687  33.345  36.560  1.00  0.00     0.064 A 
ATOM     63  C   UNL A   1      40.324  34.591  36.671  1.00  0.00     0.173 A 
ATOM     64  C   UNL A   1      38.801  32.970  37.581  1.00  0.00     0.173 A 
ATOM     65  F   UNL A   1      41.190  34.994  35.729  1.00  0.00    -0.203 F 
ATOM     66  C   UNL A   1      40.105  35.414  37.773  1.00  0.00     0.198 A 
ATOM     67  C   UNL A   1      38.559  33.810  38.665  1.00  0.00     0.198 A 
ATOM     68  F   UNL A   1      38.162  31.792  37.523  1.00  0.00    -0.203 F 
ATOM     69  F   UNL A   1      40.765  36.575  37.882  1.00  0.00    -0.200 F 
ATOM     70  C   UNL A   1      39.217  35.027  38.765  1.00  0.00     0.200 A 
ATOM     71  F   UNL A   1      37.689  33.440  39.615  1.00  0.00    -0.200 F 
ATOM     72  F   UNL A   1      39.001  35.823  39.821  1.00  0.00    -0.200 F 
ENDBRANCH  48  62
BRANCH  49  73
ATOM     73  C   UNL A   1      40.978  27.767  28.363  1.00  0.00     0.064 A 
ATOM     74  C   UNL A   1      40.366  26.514  28.223  1.00  0.00     0.173 A 
ATOM     75  C   UNL A   1      41.804  28.209  27.319  1.00  0.00     0.173 A 
ATOM     76  F   UNL A   1      39.584  26.038  29.202  1.00  0.00    -0.203 F 
ATOM     77  C   UNL A   1      40.592  25.723  27.098  1.00  0.00     0.198 A 
ATOM     78  C   UNL A   1      42.003  27.432  26.179  1.00  0.00     0.198 A 
ATOM     79  F   UNL A   1      42.409  29.403  27.400  1.00  0.00    -0.203 F 
ATOM     80  F   UNL A   1      40.037  24.506  27.015  1.00  0.00    -0.200 F 
ATOM     81  C   UNL A   1      41.406  26.185  26.075  1.00  0.00     0.200 A 
ATOM     82  F   UNL A   1      42.778  27.889  25.187  1.00  0.00    -0.200 F 
ATOM     83  F   UNL A   1      41.622  25.425  24.993  1.00  0.00    -0.200 F 
ENDBRANCH  49  73
BRANCH  61  84
ATOM     84  C   UNL A   1      44.124  28.013  34.576  1.00  0.00     0.064 A 
ATOM     85  C   UNL A   1      43.910  26.797  35.241  1.00  0.00     0.173 A 
ATOM     86  C   UNL A   1      45.446  28.466  34.446  1.00  0.00     0.173 A 
ATOM     87  F   UNL A   1      42.664  26.327  35.405  1.00  0.00    -0.203 F 
ATOM     88  C   UNL A   1      44.974  26.080  35.783  1.00  0.00     0.198 A 
ATOM     89  C   UNL A   1      46.511  27.729  34.957  1.00  0.00     0.198 A 
ATOM     90  F   UNL A   1      45.708  29.619  33.811  1.00  0.00    -0.203 F 
ATOM     91  F   UNL A   1      44.739  24.950  36.464  1.00  0.00    -0.200 F 
ATOM     92  C   UNL A   1      46.273  26.543  35.634  1.00  0.00     0.200 A 
ATOM     93  F   UNL A   1      47.767  28.168  34.798  1.00  0.00    -0.200 F 
ATOM     94  F   UNL A   1      47.296  25.847  36.149  1.00  0.00    -0.200 F 
ENDBRANCH  61  84
ENDBRANCH  35  36
ENDBRANCH  27  30
ENDBRANCH  25  26
ENDBRANCH  24  25
ENDBRANCH  23  24
ENDBRANCH  22  23
ENDBRANCH   1  22
TORSDOF 17
ENDMDL
MODEL 2
REMARK VINA RESULT:     -11.1      5.027     11.054
REMARK SMILES C[C@@H]1[C@@H](C(=O)NCCCCCCNC(=O)c2ccc(-c3c4nc(c(-c5c(F)c(F)c(F)c(F)c5F)c5ccc([nH]5)c(-c5c(F)c(F)c(F)c(F)c5F)c5nc(c(-c6c(F)c(F)c(F)c(F)c6F)c6ccc3[nH]6)C=C5)C=C4)cc2)CC[N@@H+]1CC(=O)N(C)C1CC1
REMARK SMILES IDX 8 1 7 2 6 3 4 4 5 5 3 7 1 8 2 9 81 10 79 11 80 12 82 14
REMARK SMILES IDX 83 15 84 16 85 17 86 18 87 19 88 20 89 21 9 22 10 23 11 24
REMARK SMILES IDX 12 25 13 26 14 27 15 29 16 30 17 31 78 32 18 33 77 34 19 35
REMARK SMILES IDX 20 36 21 37 71 38 22 39 76 40 70 41 72 42 23 43 75 44 69 45
REMARK SMILES IDX 68 46 24 48 56 49 36 50 55 51 37 52 40 53 54 54 73 55 38 56
REMARK SMILES IDX 39 57 53 59 74 60 41 61 25 62 26 63 34 64 27 65 28 66 32 67
REMARK SMILES IDX 35 68 29 69 30 70 33 71 31 72 57 73 58 74 66 75 59 76 60 77
REMARK SMILES IDX 64 78 67 79 61 80 62 81 65 82 63 83 42 84 43 85 51 86 44 87
REMARK SMILES IDX 45 88 49 89 52 90 46 91 47 92 50 93 48 94
REMARK H PARENT 6 6 81 13 13 28 72 47 40 58
REMARK Flexibility Score: inf
ROOT
ATOM      1  C   UNL A   1      36.722  23.158  25.033  1.00  0.00     0.021 C 
ENDROOT
BRANCH   1   2
ATOM      2  C   UNL A   1      35.502  24.058  25.195  1.00  0.00     0.116 C 
BRANCH   2   3
ATOM      3  N   UNL A   1      34.318  23.476  24.603  1.00  0.00    -0.356 N 
ATOM      4  C   UNL A   1      33.445  24.012  23.709  1.00  0.00     0.229 C 
ATOM      5  O   UNL A   1      32.508  23.298  23.353  1.00  0.00    -0.275 OA
ATOM      6  H   UNL A   1      34.114  22.557  24.888  1.00  0.00     0.163 HD
BRANCH   4   7
ATOM      7  C   UNL A   1      33.625  25.458  23.267  1.00  0.00     0.142 C 
ATOM      8  C   UNL A   1      33.660  27.253  25.026  1.00  0.00     0.076 C 
ATOM      9  C   UNL A   1      32.765  26.417  24.119  1.00  0.00     0.194 C 
ATOM     10  N   UNL A   1      31.852  27.092  23.191  1.00  0.00    -0.324 N 
ATOM     11  C   UNL A   1      33.190  25.724  21.828  1.00  0.00     0.081 C 
ATOM     12  C   UNL A   1      31.806  26.322  21.955  1.00  0.00     0.263 C 
ATOM     13  H   UNL A   1      30.952  27.082  23.671  1.00  0.00     0.348 HD
BRANCH  10  14
ATOM     14  C   UNL A   1      31.831  28.550  23.056  1.00  0.00     0.364 C 
BRANCH  14  15
ATOM     15  C   UNL A   1      30.764  29.261  23.901  1.00  0.00     0.277 C 
ATOM     16  O   UNL A   1      31.059  29.680  25.029  1.00  0.00    -0.268 OA
BRANCH  15  17
ATOM     17  N   UNL A   1      29.476  29.434  23.400  1.00  0.00    -0.338 N 
ATOM     18  C   UNL A   1      28.504  28.381  23.123  1.00  0.00     0.147 C 
BRANCH  17  19
ATOM     19  C   UNL A   1      29.090  30.774  23.007  1.00  0.00     0.085 C 
ATOM     20  C   UNL A   1      27.972  31.072  22.043  1.00  0.00     0.027 C 
ATOM     21  C   UNL A   1      27.789  31.357  23.502  1.00  0.00     0.027 C 
ENDBRANCH  17  19
ENDBRANCH  15  17
ENDBRANCH  14  15
ENDBRANCH  10  14
ENDBRANCH   4   7
ENDBRANCH   2   3
ENDBRANCH   1   2
BRANCH   1  22
ATOM     22  C   UNL A   1      36.484  21.885  24.212  1.00  0.00     0.002 C 
BRANCH  22  23
ATOM     23  C   UNL A   1      36.500  20.572  25.001  1.00  0.00     0.002 C 
BRANCH  23  24
ATOM     24  C   UNL A   1      37.791  19.759  24.895  1.00  0.00     0.021 C 
BRANCH  24  25
ATOM     25  C   UNL A   1      38.939  20.271  25.754  1.00  0.00     0.116 C 
BRANCH  25  26
ATOM     26  N   UNL A   1      40.028  19.315  25.850  1.00  0.00    -0.352 N 
ATOM     27  C   UNL A   1      41.360  19.539  26.075  1.00  0.00     0.251 C 
ATOM     28  H   UNL A   1      39.771  18.372  25.740  1.00  0.00     0.163 HD
ATOM     29  O   UNL A   1      42.168  18.623  25.966  1.00  0.00    -0.269 OA
BRANCH  27  30
ATOM     30  C   UNL A   1      41.828  20.896  26.427  1.00  0.00     0.039 A 
ATOM     31  C   UNL A   1      42.068  21.805  25.397  1.00  0.00     0.014 A 
ATOM     32  C   UNL A   1      42.040  21.267  27.759  1.00  0.00     0.014 A 
ATOM     33  C   UNL A   1      42.486  23.100  25.703  1.00  0.00     0.010 A 
ATOM     34  C   UNL A   1      42.376  22.580  28.068  1.00  0.00     0.010 A 
ATOM     35  C   UNL A   1      42.620  23.506  27.042  1.00  0.00    -0.014 A 
BRANCH  35  36
ATOM     36  C   UNL A   1      43.037  24.890  27.375  1.00  0.00     0.031 A 
ATOM     37  C   UNL A   1      44.446  25.340  27.104  1.00  0.00     0.074 A 
ATOM     38  C   UNL A   1      42.153  25.730  27.946  1.00  0.00     0.049 A 
ATOM     39  N   UNL A   1      44.999  26.506  27.328  1.00  0.00    -0.248 NA
ATOM     40  C   UNL A   1      45.362  24.344  26.528  1.00  0.00     0.031 C 
ATOM     41  C   UNL A   1      40.774  25.391  28.300  1.00  0.00     0.029 A 
ATOM     42  N   UNL A   1      42.281  27.042  28.325  1.00  0.00    -0.354 N 
ATOM     43  C   UNL A   1      46.322  26.379  26.928  1.00  0.00     0.074 A 
ATOM     44  C   UNL A   1      46.509  25.007  26.507  1.00  0.00     0.031 C 
ATOM     45  C   UNL A   1      40.174  26.476  28.814  1.00  0.00     0.029 A 
ATOM     46  C   UNL A   1      41.134  27.574  28.861  1.00  0.00     0.049 A 
ATOM     47  H   UNL A   1      43.116  27.553  28.224  1.00  0.00     0.167 HD
ATOM     48  C   UNL A   1      47.287  27.328  26.886  1.00  0.00     0.037 A 
ATOM     49  C   UNL A   1      40.887  28.809  29.335  1.00  0.00     0.037 A 
ATOM     50  C   UNL A   1      47.091  28.696  27.287  1.00  0.00     0.049 A 
ATOM     51  C   UNL A   1      41.982  29.841  29.291  1.00  0.00     0.074 A 
ATOM     52  C   UNL A   1      47.986  29.749  27.231  1.00  0.00     0.029 A 
ATOM     53  N   UNL A   1      45.915  29.199  27.825  1.00  0.00    -0.354 N 
ATOM     54  N   UNL A   1      43.207  29.731  28.837  1.00  0.00    -0.248 NA
ATOM     55  C   UNL A   1      41.656  31.174  29.819  1.00  0.00     0.031 C 
ATOM     56  C   UNL A   1      47.371  30.875  27.786  1.00  0.00     0.029 A 
ATOM     57  C   UNL A   1      46.072  30.541  28.132  1.00  0.00     0.049 A 
ATOM     58  H   UNL A   1      45.091  28.680  27.967  1.00  0.00     0.167 HD
ATOM     59  C   UNL A   1      43.788  30.982  28.998  1.00  0.00     0.074 A 
ATOM     60  C   UNL A   1      42.774  31.841  29.572  1.00  0.00     0.031 C 
ATOM     61  C   UNL A   1      45.050  31.383  28.701  1.00  0.00     0.037 A 
BRANCH  48  62
ATOM     62  C   UNL A   1      48.644  26.919  26.386  1.00  0.00     0.064 A 
ATOM     63  C   UNL A   1      49.618  26.389  27.248  1.00  0.00     0.173 A 
ATOM     64  C   UNL A   1      48.965  27.025  25.025  1.00  0.00     0.173 A 
ATOM     65  F   UNL A   1      49.368  26.276  28.561  1.00  0.00    -0.203 F 
ATOM     66  C   UNL A   1      50.869  26.009  26.770  1.00  0.00     0.198 A 
ATOM     67  C   UNL A   1      50.206  26.613  24.545  1.00  0.00     0.198 A 
ATOM     68  F   UNL A   1      48.071  27.520  24.156  1.00  0.00    -0.203 F 
ATOM     69  F   UNL A   1      51.800  25.554  27.622  1.00  0.00    -0.200 F 
ATOM     70  C   UNL A   1      51.159  26.113  25.419  1.00  0.00     0.200 A 
ATOM     71  F   UNL A   1      50.479  26.702  23.236  1.00  0.00    -0.200 F 
ATOM     72  F   UNL A   1      52.362  25.739  24.959  1.00  0.00    -0.200 F 
ENDBRANCH  48  62
BRANCH  49  73
ATOM     73  C   UNL A   1      39.542  29.146  29.871  1.00  0.00     0.064 A 
ATOM     74  C   UNL A   1      38.571  29.747  29.058  1.00  0.00     0.173 A 
ATOM     75  C   UNL A   1      39.203  28.887  31.207  1.00  0.00     0.173 A 
ATOM     76  F   UNL A   1      38.853  30.034  27.779  1.00  0.00    -0.203 F 
ATOM     77  C   UNL A   1      37.322  30.100  29.567  1.00  0.00     0.198 A 
ATOM     78  C   UNL A   1      37.942  29.210  31.706  1.00  0.00     0.198 A 
ATOM     79  F   UNL A   1      40.093  28.309  32.027  1.00  0.00    -0.203 F 
ATOM     80  F   UNL A   1      36.432  30.721  28.780  1.00  0.00    -0.200 F 
ATOM     81  C   UNL A   1      37.007  29.825  30.889  1.00  0.00     0.200 A 
ATOM     82  F   UNL A   1      37.637  28.929  32.981  1.00  0.00    -0.200 F 
ATOM     83  F   UNL A   1      35.806  30.163  31.377  1.00  0.00    -0.200 F 
ENDBRANCH  49  73
BRANCH  61  84
ATOM     84  C   UNL A   1      45.392  32.821  28.964  1.00  0.00     0.064 A 
ATOM     85  C   UNL A   1      45.159  33.821  28.009  1.00  0.00     0.173 A 
ATOM     86  C   UNL A   1      45.931  33.208  30.201  1.00  0.00     0.173 A 
ATOM     87  F   UNL A   1      44.659  33.502  26.805  1.00  0.00    -0.203 F 
ATOM     88  C   UNL A   1      45.482  35.150  28.270  1.00  0.00     0.198 A 
ATOM     89  C   UNL A   1      46.219  34.542  30.473  1.00  0.00     0.198 A 
ATOM     90  F   UNL A   1      46.166  32.292  31.154  1.00  0.00    -0.203 F 
ATOM     91  F   UNL A   1      45.303  36.080  27.322  1.00  0.00    -0.200 F 
ATOM     92  C   UNL A   1      46.004  35.510  29.504  1.00  0.00     0.200 A 
ATOM     93  F   UNL A   1      46.708  34.891  31.670  1.00  0.00    -0.200 F 
ATOM     94  F   UNL A   1      46.307  36.791  29.756  1.00  0.00    -0.200 F 
ENDBRANCH  61  84
ENDBRANCH  35  36
ENDBRANCH  27  30
ENDBRANCH  25  26
ENDBRANCH  24  25
ENDBRANCH  23  24
ENDBRANCH  22  23
ENDBRANCH   1  22
TORSDOF 17
ENDMDL
MODEL 3
REMARK VINA RESULT:     -10.9      5.141      9.825
REMARK SMILES C[C@@H]1[C@@H](C(=O)NCCCCCCNC(=O)c2ccc(-c3c4nc(c(-c5c(F)c(F)c(F)c(F)c5F)c5ccc([nH]5)c(-c5c(F)c(F)c(F)c(F)c5F)c5nc(c(-c6c(F)c(F)c(F)c(F)c6F)c6ccc3[nH]6)C=C5)C=C4)cc2)CC[N@@H+]1CC(=O)N(C)C1CC1
REMARK SMILES IDX 8 1 7 2 6 3 4 4 5 5 3 7 1 8 2 9 81 10 79 11 80 12 82 14
REMARK SMILES IDX 83 15 84 16 85 17 86 18 87 19 88 20 89 21 9 22 10 23 11 24
REMARK SMILES IDX 12 25 13 26 14 27 15 29 16 30 17 31 78 32 18 33 77 34 19 35
REMARK SMILES IDX 20 36 21 37 71 38 22 39 76 40 70 41 72 42 23 43 75 44 69 45
REMARK SMILES IDX 68 46 24 48 56 49 36 50 55 51 37 52 40 53 54 54 73 55 38 56
REMARK SMILES IDX 39 57 53 59 74 60 41 61 25 62 26 63 34 64 27 65 28 66 32 67
REMARK SMILES IDX 35 68 29 69 30 70 33 71 31 72 57 73 58 74 66 75 59 76 60 77
REMARK SMILES IDX 64 78 67 79 61 80 62 81 65 82 63 83 42 84 43 85 51 86 44 87
REMARK SMILES IDX 45 88 49 89 52 90 46 91 47 92 50 93 48 94
REMARK H PARENT 6 6 81 13 13 28 72 47 40 58
REMARK Flexibility Score: inf
ROOT
ATOM      1  C   UNL A   1      36.419  23.021  23.584  1.00  0.00     0.021 C 
ENDROOT
BRANCH   1   2
ATOM      2  C   UNL A   1      34.910  22.880  23.751  1.00  0.00     0.116 C 
BRANCH   2   3
ATOM      3  N   UNL A   1      34.447  23.463  24.992  1.00  0.00    -0.356 N 
ATOM      4  C   UNL A   1      33.392  24.289  25.219  1.00  0.00     0.229 C 
ATOM      5  O   UNL A   1      33.206  24.644  26.382  1.00  0.00    -0.275 OA
ATOM      6  H   UNL A   1      34.973  23.225  25.788  1.00  0.00     0.163 HD
BRANCH   4   7
ATOM      7  C   UNL A   1      32.565  24.782  24.039  1.00  0.00     0.142 C 
ATOM      8  C   UNL A   1      33.313  26.856  22.833  1.00  0.00     0.076 C 
ATOM      9  C   UNL A   1      32.497  26.324  24.006  1.00  0.00     0.194 C 
ATOM     10  N   UNL A   1      31.078  26.680  24.113  1.00  0.00    -0.324 N 
ATOM     11  C   UNL A   1      31.106  24.332  24.075  1.00  0.00     0.081 C 
ATOM     12  C   UNL A   1      30.355  25.524  24.625  1.00  0.00     0.263 C 
ATOM     13  H   UNL A   1      31.063  27.455  24.777  1.00  0.00     0.348 HD
BRANCH  10  14
ATOM     14  C   UNL A   1      30.403  27.471  23.083  1.00  0.00     0.364 C 
BRANCH  14  15
ATOM     15  C   UNL A   1      30.050  28.907  23.499  1.00  0.00     0.277 C 
ATOM     16  O   UNL A   1      30.766  29.496  24.322  1.00  0.00    -0.268 OA
BRANCH  15  17
ATOM     17  N   UNL A   1      28.935  29.539  22.955  1.00  0.00    -0.338 N 
ATOM     18  C   UNL A   1      27.590  28.986  22.848  1.00  0.00     0.147 C 
BRANCH  17  19
ATOM     19  C   UNL A   1      29.142  30.830  22.331  1.00  0.00     0.085 C 
ATOM     20  C   UNL A   1      28.027  31.682  21.784  1.00  0.00     0.027 C 
ATOM     21  C   UNL A   1      28.719  32.089  23.048  1.00  0.00     0.027 C 
ENDBRANCH  17  19
ENDBRANCH  15  17
ENDBRANCH  14  15
ENDBRANCH  10  14
ENDBRANCH   4   7
ENDBRANCH   2   3
ENDBRANCH   1   2
BRANCH   1  22
ATOM     22  C   UNL A   1      37.260  22.177  24.549  1.00  0.00     0.002 C 
BRANCH  22  23
ATOM     23  C   UNL A   1      36.798  20.728  24.741  1.00  0.00     0.002 C 
BRANCH  23  24
ATOM     24  C   UNL A   1      37.918  19.703  24.926  1.00  0.00     0.021 C 
BRANCH  24  25
ATOM     25  C   UNL A   1      39.065  20.164  25.814  1.00  0.00     0.116 C 
BRANCH  25  26
ATOM     26  N   UNL A   1      40.123  19.174  25.911  1.00  0.00    -0.352 N 
ATOM     27  C   UNL A   1      41.466  19.357  26.104  1.00  0.00     0.251 C 
ATOM     28  H   UNL A   1      39.833  18.237  25.828  1.00  0.00     0.163 HD
ATOM     29  O   UNL A   1      42.240  18.413  26.000  1.00  0.00    -0.269 OA
BRANCH  27  30
ATOM     30  C   UNL A   1      41.986  20.705  26.416  1.00  0.00     0.039 A 
ATOM     31  C   UNL A   1      42.175  21.604  25.366  1.00  0.00     0.014 A 
ATOM     32  C   UNL A   1      42.297  21.077  27.728  1.00  0.00     0.014 A 
ATOM     33  C   UNL A   1      42.641  22.891  25.636  1.00  0.00     0.010 A 
ATOM     34  C   UNL A   1      42.681  22.384  28.005  1.00  0.00     0.010 A 
ATOM     35  C   UNL A   1      42.874  23.300  26.960  1.00  0.00    -0.014 A 
BRANCH  35  36
ATOM     36  C   UNL A   1      43.343  24.676  27.255  1.00  0.00     0.031 A 
ATOM     37  C   UNL A   1      42.390  25.696  27.812  1.00  0.00     0.074 A 
ATOM     38  C   UNL A   1      44.621  25.011  26.994  1.00  0.00     0.049 A 
ATOM     39  N   UNL A   1      42.610  26.948  28.130  1.00  0.00    -0.248 NA
ATOM     40  C   UNL A   1      40.999  25.263  28.018  1.00  0.00     0.031 C 
ATOM     41  C   UNL A   1      45.624  24.121  26.408  1.00  0.00     0.029 A 
ATOM     42  N   UNL A   1      45.296  26.190  27.190  1.00  0.00    -0.354 N 
ATOM     43  C   UNL A   1      41.390  27.447  28.564  1.00  0.00     0.074 A 
ATOM     44  C   UNL A   1      40.418  26.387  28.410  1.00  0.00     0.031 C 
ATOM     45  C   UNL A   1      46.794  24.774  26.323  1.00  0.00     0.029 A 
ATOM     46  C   UNL A   1      46.615  26.137  26.813  1.00  0.00     0.049 A 
ATOM     47  H   UNL A   1      44.874  26.996  27.565  1.00  0.00     0.167 HD
ATOM     48  C   UNL A   1      41.111  28.670  29.074  1.00  0.00     0.037 A 
ATOM     49  C   UNL A   1      47.570  27.084  26.857  1.00  0.00     0.037 A 
ATOM     50  C   UNL A   1      42.086  29.715  29.243  1.00  0.00     0.049 A 
ATOM     51  C   UNL A   1      47.230  28.440  27.414  1.00  0.00     0.074 A 
ATOM     52  C   UNL A   1      41.919  30.969  29.803  1.00  0.00     0.029 A 
ATOM     53  N   UNL A   1      43.414  29.626  28.849  1.00  0.00    -0.354 N 
ATOM     54  N   UNL A   1      46.091  28.876  27.895  1.00  0.00    -0.248 NA
ATOM     55  C   UNL A   1      48.312  29.434  27.442  1.00  0.00     0.031 C 
ATOM     56  C   UNL A   1      43.131  31.660  29.696  1.00  0.00     0.029 A 
ATOM     57  C   UNL A   1      44.070  30.815  29.126  1.00  0.00     0.049 A 
ATOM     58  H   UNL A   1      43.829  28.835  28.435  1.00  0.00     0.167 HD
ATOM     59  C   UNL A   1      46.325  30.181  28.307  1.00  0.00     0.074 A 
ATOM     60  C   UNL A   1      47.721  30.458  28.039  1.00  0.00     0.031 C 
ATOM     61  C   UNL A   1      45.461  31.073  28.855  1.00  0.00     0.037 A 
BRANCH  48  62
ATOM     62  C   UNL A   1      39.693  28.945  29.488  1.00  0.00     0.064 A 
ATOM     63  C   UNL A   1      38.739  29.425  28.577  1.00  0.00     0.173 A 
ATOM     64  C   UNL A   1      39.271  28.691  30.802  1.00  0.00     0.173 A 
ATOM     65  F   UNL A   1      39.091  29.695  27.310  1.00  0.00    -0.203 F 
ATOM     66  C   UNL A   1      37.427  29.670  28.973  1.00  0.00     0.198 A 
ATOM     67  C   UNL A   1      37.950  28.905  31.186  1.00  0.00     0.198 A 
ATOM     68  F   UNL A   1      40.139  28.227  31.713  1.00  0.00    -0.203 F 
ATOM     69  F   UNL A   1      36.548  30.179  28.097  1.00  0.00    -0.200 F 
ATOM     70  C   UNL A   1      37.031  29.403  30.274  1.00  0.00     0.200 A 
ATOM     71  F   UNL A   1      37.566  28.633  32.441  1.00  0.00    -0.200 F 
ATOM     72  F   UNL A   1      35.766  29.631  30.651  1.00  0.00    -0.200 F 
ENDBRANCH  48  62
BRANCH  49  73
ATOM     73  C   UNL A   1      48.946  26.777  26.382  1.00  0.00     0.064 A 
ATOM     74  C   UNL A   1      49.312  26.991  25.045  1.00  0.00     0.173 A 
ATOM     75  C   UNL A   1      49.917  26.253  27.248  1.00  0.00     0.173 A 
ATOM     76  F   UNL A   1      48.413  27.471  24.173  1.00  0.00    -0.203 F 
ATOM     77  C   UNL A   1      50.588  26.669  24.588  1.00  0.00     0.198 A 
ATOM     78  C   UNL A   1      51.203  25.963  26.797  1.00  0.00     0.198 A 
ATOM     79  F   UNL A   1      49.620  26.035  28.537  1.00  0.00    -0.203 F 
ATOM     80  F   UNL A   1      50.894  26.834  23.293  1.00  0.00    -0.200 F 
ATOM     81  C   UNL A   1      51.535  26.161  25.465  1.00  0.00     0.200 A 
ATOM     82  F   UNL A   1      52.118  25.486  27.651  1.00  0.00    -0.200 F 
ATOM     83  F   UNL A   1      52.762  25.853  25.025  1.00  0.00    -0.200 F 
ENDBRANCH  49  73
BRANCH  61  84
ATOM     84  C   UNL A   1      46.010  32.420  29.228  1.00  0.00     0.064 A 
ATOM     85  C   UNL A   1      46.516  32.680  30.510  1.00  0.00     0.173 A 
ATOM     86  C   UNL A   1      46.060  33.454  28.280  1.00  0.00     0.173 A 
ATOM     87  F   UNL A   1      46.479  31.731  31.457  1.00  0.00    -0.203 F 
ATOM     88  C   UNL A   1      47.023  33.936  30.838  1.00  0.00     0.198 A 
ATOM     89  C   UNL A   1      46.600  34.696  28.600  1.00  0.00     0.198 A 
ATOM     90  F   UNL A   1      45.597  33.255  27.036  1.00  0.00    -0.203 F 
ATOM     91  F   UNL A   1      47.449  34.178  32.085  1.00  0.00    -0.200 F 
ATOM     92  C   UNL A   1      47.071  34.939  29.881  1.00  0.00     0.200 A 
ATOM     93  F   UNL A   1      46.661  35.659  27.671  1.00  0.00    -0.200 F 
ATOM     94  F   UNL A   1      47.566  36.144  30.197  1.00  0.00    -0.200 F 
ENDBRANCH  61  84
ENDBRANCH  35  36
ENDBRANCH  27  30
ENDBRANCH  25  26
ENDBRANCH  24  25
ENDBRANCH  23  24
ENDBRANCH  22  23
ENDBRANCH   1  22
TORSDOF 17
ENDMDL
