MODEL 1
REMARK VINA RESULT:     -11.4      0.000      0.000
REMARK SMILES CCOc1ccc2c(c1)=N[C@H](SCC(=O)NCCCCCCNC(=O)c1ccc(-c3c4nc(c(-c5c(F)c(F)c(F)c(F)c5F)c5ccc([nH]5)c(-c5c(F)c(F)c(F)c(F)c5F)c5nc(c(-c6c(F)c(F)c(F)c(F)c6F)c6ccc3[nH]6)C=C5)C=C4)cc1)N=2
REMARK SMILES IDX 18 1 17 2 16 3 14 4 15 5 13 7 12 8 11 9 4 10 5 11 9 12 6 13
REMARK SMILES IDX 8 14 7 15 10 16 89 17 3 18 2 19 1 20 19 21 20 22 21 23 22 24
REMARK SMILES IDX 23 25 24 26 25 28 26 29 27 30 88 31 28 32 87 33 29 34 30 35
REMARK SMILES IDX 31 36 81 37 32 38 86 39 80 40 82 41 33 42 85 43 79 44 78 45
REMARK SMILES IDX 34 47 66 48 46 49 65 50 47 51 50 52 64 53 83 54 48 55 49 56
REMARK SMILES IDX 63 58 84 59 51 60 35 61 36 62 44 63 37 64 38 65 42 66 45 67
REMARK SMILES IDX 39 68 40 69 43 70 41 71 67 72 68 73 76 74 69 75 70 76 74 77
REMARK SMILES IDX 77 78 71 79 72 80 75 81 73 82 52 83 53 84 61 85 54 86 55 87
REMARK SMILES IDX 59 88 62 89 56 90 57 91 60 92 58 93
REMARK H PARENT 16 6 23 27 82 46 50 57
REMARK Flexibility Score: inf
ROOT
ATOM      1  C   UNL A   1      34.631  20.651  24.947  1.00  0.00     0.021 C 
ENDROOT
BRANCH   1   2
ATOM      2  C   UNL A   1      33.587  21.734  24.670  1.00  0.00     0.116 C 
BRANCH   2   3
ATOM      3  N   UNL A   1      33.702  22.251  23.323  1.00  0.00    -0.355 N 
ATOM      4  C   UNL A   1      33.323  23.460  22.819  1.00  0.00     0.230 C 
ATOM      5  O   UNL A   1      33.624  23.699  21.646  1.00  0.00    -0.274 OA
ATOM      6  H   UNL A   1      34.117  21.638  22.674  1.00  0.00     0.163 HD
BRANCH   4   7
ATOM      7  C   UNL A   1      32.679  24.509  23.706  1.00  0.00     0.173 C 
BRANCH   7   8
ATOM      8  S   UNL A   1      33.828  25.672  24.506  1.00  0.00    -0.102 SA
BRANCH   8   9
ATOM      9  C   UNL A   1      32.671  27.006  25.010  1.00  0.00     0.281 C 
ATOM     10  C   UNL A   1      29.839  29.195  22.283  1.00  0.00     0.121 A 
ATOM     11  C   UNL A   1      28.935  28.199  22.830  1.00  0.00     0.049 A 
ATOM     12  C   UNL A   1      31.132  29.281  22.631  1.00  0.00     0.076 A 
ATOM     13  C   UNL A   1      29.290  27.322  23.777  1.00  0.00     0.034 A 
ATOM     14  C   UNL A   1      31.619  28.331  23.634  1.00  0.00     0.090 A 
ATOM     15  C   UNL A   1      30.683  27.348  24.209  1.00  0.00     0.087 A 
ATOM     16  N   UNL A   1      32.801  28.206  24.127  1.00  0.00    -0.246 NA
ATOM     17  N   UNL A   1      31.256  26.584  25.064  1.00  0.00    -0.246 NA
BRANCH  10  18
ATOM     18  O   UNL A   1      29.328  29.965  21.263  1.00  0.00    -0.494 OA
BRANCH  18  19
ATOM     19  C   UNL A   1      28.095  30.617  21.595  1.00  0.00     0.226 C 
ATOM     20  C   UNL A   1      28.309  32.109  21.789  1.00  0.00     0.049 C 
ENDBRANCH  18  19
ENDBRANCH  10  18
ENDBRANCH   8   9
ENDBRANCH   7   8
ENDBRANCH   4   7
ENDBRANCH   2   3
ENDBRANCH   1   2
BRANCH   1  21
ATOM     21  C   UNL A   1      35.916  21.160  25.612  1.00  0.00     0.002 C 
BRANCH  21  22
ATOM     22  C   UNL A   1      37.169  21.144  24.731  1.00  0.00     0.002 C 
BRANCH  22  23
ATOM     23  C   UNL A   1      38.105  19.954  24.946  1.00  0.00     0.021 C 
BRANCH  23  24
ATOM     24  C   UNL A   1      39.322  20.242  25.815  1.00  0.00     0.116 C 
BRANCH  24  25
ATOM     25  N   UNL A   1      40.261  19.132  25.859  1.00  0.00    -0.352 N 
ATOM     26  C   UNL A   1      41.620  19.161  26.073  1.00  0.00     0.251 C 
ATOM     27  H   UNL A   1      39.871  18.240  25.716  1.00  0.00     0.163 HD
ATOM     28  O   UNL A   1      42.295  18.145  25.947  1.00  0.00    -0.269 OA
BRANCH  26  29
ATOM     29  C   UNL A   1      42.272  20.442  26.418  1.00  0.00     0.039 A 
ATOM     30  C   UNL A   1      42.333  20.874  27.744  1.00  0.00     0.014 A 
ATOM     31  C   UNL A   1      42.785  21.241  25.392  1.00  0.00     0.014 A 
ATOM     32  C   UNL A   1      42.751  22.170  28.027  1.00  0.00     0.010 A 
ATOM     33  C   UNL A   1      43.276  22.516  25.687  1.00  0.00     0.010 A 
ATOM     34  C   UNL A   1      43.213  23.011  27.000  1.00  0.00    -0.014 A 
BRANCH  34  35
ATOM     35  C   UNL A   1      43.597  24.410  27.319  1.00  0.00     0.031 A 
ATOM     36  C   UNL A   1      44.984  24.911  27.024  1.00  0.00     0.074 A 
ATOM     37  C   UNL A   1      42.669  25.252  27.814  1.00  0.00     0.049 A 
ATOM     38  N   UNL A   1      45.489  26.105  27.212  1.00  0.00    -0.248 NA
ATOM     39  C   UNL A   1      45.933  23.948  26.443  1.00  0.00     0.031 C 
ATOM     40  C   UNL A   1      41.285  24.890  28.122  1.00  0.00     0.029 A 
ATOM     41  N   UNL A   1      42.740  26.588  28.116  1.00  0.00    -0.354 N 
ATOM     42  C   UNL A   1      46.809  26.033  26.787  1.00  0.00     0.074 A 
ATOM     43  C   UNL A   1      47.041  24.672  26.358  1.00  0.00     0.031 C 
ATOM     44  C   UNL A   1      40.622  25.988  28.514  1.00  0.00     0.029 A 
ATOM     45  C   UNL A   1      41.546  27.118  28.539  1.00  0.00     0.049 A 
ATOM     46  H   UNL A   1      43.567  27.117  28.035  1.00  0.00     0.167 HD
ATOM     47  C   UNL A   1      47.739  27.017  26.747  1.00  0.00     0.037 A 
ATOM     48  C   UNL A   1      41.231  28.371  28.914  1.00  0.00     0.037 A 
ATOM     49  C   UNL A   1      47.502  28.379  27.149  1.00  0.00     0.049 A 
ATOM     50  C   UNL A   1      42.294  29.432  28.901  1.00  0.00     0.074 A 
ATOM     51  C   UNL A   1      48.380  29.449  27.128  1.00  0.00     0.029 A 
ATOM     52  N   UNL A   1      46.297  28.860  27.639  1.00  0.00    -0.354 N 
ATOM     53  N   UNL A   1      43.541  29.347  28.507  1.00  0.00    -0.248 NA
ATOM     54  C   UNL A   1      41.909  30.760  29.399  1.00  0.00     0.031 C 
ATOM     55  C   UNL A   1      47.716  30.570  27.639  1.00  0.00     0.029 A 
ATOM     56  C   UNL A   1      46.414  30.207  27.940  1.00  0.00     0.049 A 
ATOM     57  H   UNL A   1      45.479  28.323  27.755  1.00  0.00     0.167 HD
ATOM     58  C   UNL A   1      44.088  30.607  28.702  1.00  0.00     0.074 A 
ATOM     59  C   UNL A   1      43.031  31.446  29.230  1.00  0.00     0.031 C 
ATOM     60  C   UNL A   1      45.355  31.027  28.470  1.00  0.00     0.037 A 
BRANCH  47  61
ATOM     61  C   UNL A   1      49.110  26.664  26.250  1.00  0.00     0.064 A 
ATOM     62  C   UNL A   1      49.491  26.899  24.920  1.00  0.00     0.173 A 
ATOM     63  C   UNL A   1      50.075  26.150  27.129  1.00  0.00     0.173 A 
ATOM     64  F   UNL A   1      48.600  27.378  24.038  1.00  0.00    -0.203 F 
ATOM     65  C   UNL A   1      50.784  26.619  24.486  1.00  0.00     0.198 A 
ATOM     66  C   UNL A   1      51.374  25.894  26.697  1.00  0.00     0.198 A 
ATOM     67  F   UNL A   1      49.763  25.916  28.413  1.00  0.00    -0.203 F 
ATOM     68  F   UNL A   1      51.118  26.822  23.204  1.00  0.00    -0.200 F 
ATOM     69  C   UNL A   1      51.726  26.125  25.376  1.00  0.00     0.200 A 
ATOM     70  F   UNL A   1      52.287  25.429  27.562  1.00  0.00    -0.200 F 
ATOM     71  F   UNL A   1      52.975  25.870  24.960  1.00  0.00    -0.200 F 
ENDBRANCH  47  61
BRANCH  48  72
ATOM     72  C   UNL A   1      39.839  28.685  29.321  1.00  0.00     0.064 A 
ATOM     73  C   UNL A   1      38.906  29.152  28.386  1.00  0.00     0.173 A 
ATOM     74  C   UNL A   1      39.404  28.493  30.641  1.00  0.00     0.173 A 
ATOM     75  F   UNL A   1      39.282  29.371  27.117  1.00  0.00    -0.203 F 
ATOM     76  C   UNL A   1      37.590  29.417  28.755  1.00  0.00     0.198 A 
ATOM     77  C   UNL A   1      38.081  28.733  31.003  1.00  0.00     0.198 A 
ATOM     78  F   UNL A   1      40.260  28.046  31.570  1.00  0.00    -0.203 F 
ATOM     79  F   UNL A   1      36.723  29.887  27.848  1.00  0.00    -0.200 F 
ATOM     80  C   UNL A   1      37.176  29.198  30.062  1.00  0.00     0.200 A 
ATOM     81  F   UNL A   1      37.683  28.508  32.263  1.00  0.00    -0.200 F 
ATOM     82  F   UNL A   1      35.905  29.437  30.413  1.00  0.00    -0.200 F 
ENDBRANCH  48  72
BRANCH  60  83
ATOM     83  C   UNL A   1      45.674  32.458  28.781  1.00  0.00     0.064 A 
ATOM     84  C   UNL A   1      45.475  33.471  27.832  1.00  0.00     0.173 A 
ATOM     85  C   UNL A   1      46.125  32.828  30.056  1.00  0.00     0.173 A 
ATOM     86  F   UNL A   1      45.058  33.163  26.594  1.00  0.00    -0.203 F 
ATOM     87  C   UNL A   1      45.727  34.803  28.146  1.00  0.00     0.198 A 
ATOM     88  C   UNL A   1      46.354  34.164  30.374  1.00  0.00     0.198 A 
ATOM     89  F   UNL A   1      46.325  31.895  31.000  1.00  0.00    -0.203 F 
ATOM     90  F   UNL A   1      45.558  35.752  27.215  1.00  0.00    -0.200 F 
ATOM     91  C   UNL A   1      46.158  35.148  29.418  1.00  0.00     0.200 A 
ATOM     92  F   UNL A   1      46.761  34.498  31.607  1.00  0.00    -0.200 F 
ATOM     93  F   UNL A   1      46.390  36.434  29.722  1.00  0.00    -0.200 F 
ENDBRANCH  60  83
ENDBRANCH  34  35
ENDBRANCH  26  29
ENDBRANCH  24  25
ENDBRANCH  23  24
ENDBRANCH  22  23
ENDBRANCH  21  22
ENDBRANCH   1  21
TORSDOF 17
ENDMDL
MODEL 2
REMARK VINA RESULT:     -11.3      1.547      7.535
REMARK SMILES CCOc1ccc2c(c1)=N[C@H](SCC(=O)NCCCCCCNC(=O)c1ccc(-c3c4nc(c(-c5c(F)c(F)c(F)c(F)c5F)c5ccc([nH]5)c(-c5c(F)c(F)c(F)c(F)c5F)c5nc(c(-c6c(F)c(F)c(F)c(F)c6F)c6ccc3[nH]6)C=C5)C=C4)cc1)N=2
REMARK SMILES IDX 18 1 17 2 16 3 14 4 15 5 13 7 12 8 11 9 4 10 5 11 9 12 6 13
REMARK SMILES IDX 8 14 7 15 10 16 89 17 3 18 2 19 1 20 19 21 20 22 21 23 22 24
REMARK SMILES IDX 23 25 24 26 25 28 26 29 27 30 88 31 28 32 87 33 29 34 30 35
REMARK SMILES IDX 31 36 81 37 32 38 86 39 80 40 82 41 33 42 85 43 79 44 78 45
REMARK SMILES IDX 34 47 66 48 46 49 65 50 47 51 50 52 64 53 83 54 48 55 49 56
REMARK SMILES IDX 63 58 84 59 51 60 35 61 36 62 44 63 37 64 38 65 42 66 45 67
REMARK SMILES IDX 39 68 40 69 43 70 41 71 67 72 68 73 76 74 69 75 70 76 74 77
REMARK SMILES IDX 77 78 71 79 72 80 75 81 73 82 52 83 53 84 61 85 54 86 55 87
REMARK SMILES IDX 59 88 62 89 56 90 57 91 60 92 58 93
REMARK H PARENT 16 6 23 27 82 46 50 57
REMARK Flexibility Score: inf
ROOT
ATOM      1  C   UNL A   1      36.751  22.371  24.667  1.00  0.00     0.021 C 
ENDROOT
BRANCH   1   2
ATOM      2  C   UNL A   1      36.469  23.442  25.721  1.00  0.00     0.116 C 
BRANCH   2   3
ATOM      3  N   UNL A   1      35.622  22.935  26.780  1.00  0.00    -0.355 N 
ATOM      4  C   UNL A   1      34.271  23.036  26.938  1.00  0.00     0.230 C 
ATOM      5  O   UNL A   1      33.769  22.426  27.886  1.00  0.00    -0.274 OA
ATOM      6  H   UNL A   1      36.091  22.444  27.493  1.00  0.00     0.163 HD
BRANCH   4   7
ATOM      7  C   UNL A   1      33.416  23.756  25.912  1.00  0.00     0.173 C 
BRANCH   7   8
ATOM      8  S   UNL A   1      31.762  23.049  25.635  1.00  0.00    -0.102 SA
BRANCH   8   9
ATOM      9  C   UNL A   1      30.701  24.498  26.020  1.00  0.00     0.281 C 
ATOM     10  C   UNL A   1      31.833  28.812  25.433  1.00  0.00     0.121 A 
ATOM     11  C   UNL A   1      31.085  28.585  24.209  1.00  0.00     0.049 A 
ATOM     12  C   UNL A   1      32.016  27.867  26.366  1.00  0.00     0.076 A 
ATOM     13  C   UNL A   1      30.457  27.436  23.932  1.00  0.00     0.034 A 
ATOM     14  C   UNL A   1      31.397  26.561  26.126  1.00  0.00     0.090 A 
ATOM     15  C   UNL A   1      30.609  26.353  24.898  1.00  0.00     0.087 A 
ATOM     16  N   UNL A   1      31.427  25.502  26.856  1.00  0.00    -0.246 NA
ATOM     17  N   UNL A   1      30.138  25.163  24.826  1.00  0.00    -0.246 NA
BRANCH  10  18
ATOM     18  O   UNL A   1      32.478  30.025  25.518  1.00  0.00    -0.494 OA
BRANCH  18  19
ATOM     19  C   UNL A   1      32.243  30.719  26.750  1.00  0.00     0.226 C 
ATOM     20  C   UNL A   1      31.303  31.893  26.537  1.00  0.00     0.049 C 
ENDBRANCH  18  19
ENDBRANCH  10  18
ENDBRANCH   8   9
ENDBRANCH   7   8
ENDBRANCH   4   7
ENDBRANCH   2   3
ENDBRANCH   1   2
BRANCH   1  21
ATOM     21  C   UNL A   1      36.062  21.024  24.925  1.00  0.00     0.002 C 
BRANCH  21  22
ATOM     22  C   UNL A   1      36.991  19.808  24.993  1.00  0.00     0.002 C 
BRANCH  22  23
ATOM     23  C   UNL A   1      38.469  20.099  24.732  1.00  0.00     0.021 C 
BRANCH  23  24
ATOM     24  C   UNL A   1      39.353  20.100  25.973  1.00  0.00     0.116 C 
BRANCH  24  25
ATOM     25  N   UNL A   1      40.313  19.007  25.985  1.00  0.00    -0.352 N 
ATOM     26  C   UNL A   1      41.682  19.064  26.108  1.00  0.00     0.251 C 
ATOM     27  H   UNL A   1      39.931  18.105  25.893  1.00  0.00     0.163 HD
ATOM     28  O   UNL A   1      42.365  18.055  25.965  1.00  0.00    -0.269 OA
BRANCH  26  29
ATOM     29  C   UNL A   1      42.332  20.365  26.373  1.00  0.00     0.039 A 
ATOM     30  C   UNL A   1      42.303  20.926  27.652  1.00  0.00     0.014 A 
ATOM     31  C   UNL A   1      42.936  21.051  25.316  1.00  0.00     0.014 A 
ATOM     32  C   UNL A   1      42.725  22.238  27.836  1.00  0.00     0.010 A 
ATOM     33  C   UNL A   1      43.429  22.343  25.521  1.00  0.00     0.010 A 
ATOM     34  C   UNL A   1      43.278  22.967  26.770  1.00  0.00    -0.014 A 
BRANCH  34  35
ATOM     35  C   UNL A   1      43.665  24.386  26.978  1.00  0.00     0.031 A 
ATOM     36  C   UNL A   1      42.680  25.375  27.541  1.00  0.00     0.074 A 
ATOM     37  C   UNL A   1      44.930  24.769  26.722  1.00  0.00     0.049 A 
ATOM     38  N   UNL A   1      42.849  26.645  27.812  1.00  0.00    -0.248 NA
ATOM     39  C   UNL A   1      41.329  24.876  27.838  1.00  0.00     0.031 C 
ATOM     40  C   UNL A   1      45.982  23.898  26.194  1.00  0.00     0.029 A 
ATOM     41  N   UNL A   1      45.556  25.977  26.899  1.00  0.00    -0.354 N 
ATOM     42  C   UNL A   1      41.628  27.098  28.296  1.00  0.00     0.074 A 
ATOM     43  C   UNL A   1      40.716  25.976  28.256  1.00  0.00     0.031 C 
ATOM     44  C   UNL A   1      47.133  24.583  26.145  1.00  0.00     0.029 A 
ATOM     45  C   UNL A   1      46.892  25.954  26.581  1.00  0.00     0.049 A 
ATOM     46  H   UNL A   1      45.092  26.783  27.223  1.00  0.00     0.167 HD
ATOM     47  C   UNL A   1      41.303  28.333  28.746  1.00  0.00     0.037 A 
ATOM     48  C   UNL A   1      47.817  26.930  26.629  1.00  0.00     0.037 A 
ATOM     49  C   UNL A   1      42.217  29.443  28.811  1.00  0.00     0.049 A 
ATOM     50  C   UNL A   1      47.417  28.302  27.090  1.00  0.00     0.074 A 
ATOM     51  C   UNL A   1      41.981  30.729  29.267  1.00  0.00     0.029 A 
ATOM     52  N   UNL A   1      43.545  29.397  28.414  1.00  0.00    -0.354 N 
ATOM     53  N   UNL A   1      46.257  28.717  27.535  1.00  0.00    -0.248 NA
ATOM     54  C   UNL A   1      48.452  29.344  27.042  1.00  0.00     0.031 C 
ATOM     55  C   UNL A   1      43.156  31.471  29.114  1.00  0.00     0.029 A 
ATOM     56  C   UNL A   1      44.135  30.637  28.599  1.00  0.00     0.049 A 
ATOM     57  H   UNL A   1      44.001  28.601  28.055  1.00  0.00     0.167 HD
ATOM     58  C   UNL A   1      46.421  30.064  27.826  1.00  0.00     0.074 A 
ATOM     59  C   UNL A   1      47.800  30.392  27.528  1.00  0.00     0.031 C 
ATOM     60  C   UNL A   1      45.508  30.949  28.292  1.00  0.00     0.037 A 
BRANCH  47  61
ATOM     61  C   UNL A   1      39.893  28.560  29.207  1.00  0.00     0.064 A 
ATOM     62  C   UNL A   1      39.510  28.329  30.536  1.00  0.00     0.173 A 
ATOM     63  C   UNL A   1      38.932  29.081  28.327  1.00  0.00     0.173 A 
ATOM     64  F   UNL A   1      40.390  27.821  31.413  1.00  0.00    -0.203 F 
ATOM     65  C   UNL A   1      38.213  28.598  30.964  1.00  0.00     0.198 A 
ATOM     66  C   UNL A   1      37.643  29.371  28.764  1.00  0.00     0.198 A 
ATOM     67  F   UNL A   1      39.251  29.326  27.047  1.00  0.00    -0.203 F 
ATOM     68  F   UNL A   1      37.860  28.342  32.231  1.00  0.00    -0.200 F 
ATOM     69  C   UNL A   1      37.283  29.126  30.081  1.00  0.00     0.200 A 
ATOM     70  F   UNL A   1      36.748  29.893  27.912  1.00  0.00    -0.200 F 
ATOM     71  F   UNL A   1      36.038  29.398  30.498  1.00  0.00    -0.200 F 
ENDBRANCH  47  61
BRANCH  48  72
ATOM     72  C   UNL A   1      49.216  26.630  26.238  1.00  0.00     0.064 A 
ATOM     73  C   UNL A   1      49.661  26.863  24.929  1.00  0.00     0.173 A 
ATOM     74  C   UNL A   1      50.145  26.139  27.168  1.00  0.00     0.173 A 
ATOM     75  F   UNL A   1      48.804  27.312  24.001  1.00  0.00    -0.203 F 
ATOM     76  C   UNL A   1      50.982  26.614  24.565  1.00  0.00     0.198 A 
ATOM     77  C   UNL A   1      51.471  25.915  26.809  1.00  0.00     0.198 A 
ATOM     78  F   UNL A   1      49.766  25.903  28.432  1.00  0.00    -0.203 F 
ATOM     79  F   UNL A   1      51.377  26.820  23.301  1.00  0.00    -0.200 F 
ATOM     80  C   UNL A   1      51.889  26.149  25.508  1.00  0.00     0.200 A 
ATOM     81  F   UNL A   1      52.346  25.479  27.726  1.00  0.00    -0.200 F 
ATOM     82  F   UNL A   1      53.163  25.925  25.161  1.00  0.00    -0.200 F 
ENDBRANCH  48  72
BRANCH  60  83
ATOM     83  C   UNL A   1      45.965  32.359  28.514  1.00  0.00     0.064 A 
ATOM     84  C   UNL A   1      45.831  33.333  27.515  1.00  0.00     0.173 A 
ATOM     85  C   UNL A   1      46.484  32.754  29.755  1.00  0.00     0.173 A 
ATOM     86  F   UNL A   1      45.353  32.999  26.306  1.00  0.00    -0.203 F 
ATOM     87  C   UNL A   1      46.213  34.652  27.746  1.00  0.00     0.198 A 
ATOM     88  C   UNL A   1      46.843  34.079  29.991  1.00  0.00     0.198 A 
ATOM     89  F   UNL A   1      46.626  31.859  30.745  1.00  0.00    -0.203 F 
ATOM     90  F   UNL A   1      46.104  35.560  26.767  1.00  0.00    -0.200 F 
ATOM     91  C   UNL A   1      46.710  35.024  28.986  1.00  0.00     0.200 A 
ATOM     92  F   UNL A   1      47.314  34.440  31.193  1.00  0.00    -0.200 F 
ATOM     93  F   UNL A   1      47.067  36.297  29.211  1.00  0.00    -0.200 F 
ENDBRANCH  60  83
ENDBRANCH  34  35
ENDBRANCH  26  29
ENDBRANCH  24  25
ENDBRANCH  23  24
ENDBRANCH  22  23
ENDBRANCH  21  22
ENDBRANCH   1  21
TORSDOF 17
ENDMDL
MODEL 3
REMARK VINA RESULT:     -11.0      2.960      4.542
REMARK SMILES CCOc1ccc2c(c1)=N[C@H](SCC(=O)NCCCCCCNC(=O)c1ccc(-c3c4nc(c(-c5c(F)c(F)c(F)c(F)c5F)c5ccc([nH]5)c(-c5c(F)c(F)c(F)c(F)c5F)c5nc(c(-c6c(F)c(F)c(F)c(F)c6F)c6ccc3[nH]6)C=C5)C=C4)cc1)N=2
REMARK SMILES IDX 18 1 17 2 16 3 14 4 15 5 13 7 12 8 11 9 4 10 5 11 9 12 6 13
REMARK SMILES IDX 8 14 7 15 10 16 89 17 3 18 2 19 1 20 19 21 20 22 21 23 22 24
REMARK SMILES IDX 23 25 24 26 25 28 26 29 27 30 88 31 28 32 87 33 29 34 30 35
REMARK SMILES IDX 31 36 81 37 32 38 86 39 80 40 82 41 33 42 85 43 79 44 78 45
REMARK SMILES IDX 34 47 66 48 46 49 65 50 47 51 50 52 64 53 83 54 48 55 49 56
REMARK SMILES IDX 63 58 84 59 51 60 35 61 36 62 44 63 37 64 38 65 42 66 45 67
REMARK SMILES IDX 39 68 40 69 43 70 41 71 67 72 68 73 76 74 69 75 70 76 74 77
REMARK SMILES IDX 77 78 71 79 72 80 75 81 73 82 52 83 53 84 61 85 54 86 55 87
REMARK SMILES IDX 59 88 62 89 56 90 57 91 60 92 58 93
REMARK H PARENT 16 6 23 27 82 46 50 57
REMARK Flexibility Score: inf
ROOT
ATOM      1  C   UNL A   1      38.816  23.283  26.374  1.00  0.00     0.021 C 
ENDROOT
BRANCH   1   2
ATOM      2  C   UNL A   1      37.479  23.728  25.781  1.00  0.00     0.116 C 
BRANCH   2   3
ATOM      3  N   UNL A   1      37.334  23.291  24.409  1.00  0.00    -0.355 N 
ATOM      4  C   UNL A   1      36.219  23.235  23.626  1.00  0.00     0.230 C 
ATOM      5  O   UNL A   1      36.378  22.915  22.445  1.00  0.00    -0.274 OA
ATOM      6  H   UNL A   1      38.165  22.988  23.976  1.00  0.00     0.163 HD
BRANCH   4   7
ATOM      7  C   UNL A   1      34.869  23.679  24.157  1.00  0.00     0.173 C 
BRANCH   7   8
ATOM      8  S   UNL A   1      33.578  23.934  22.899  1.00  0.00    -0.102 SA
BRANCH   8   9
ATOM      9  C   UNL A   1      32.267  22.807  23.519  1.00  0.00     0.281 C 
ATOM     10  C   UNL A   1      32.701  18.375  24.160  1.00  0.00     0.121 A 
ATOM     11  C   UNL A   1      32.943  18.845  25.513  1.00  0.00     0.049 A 
ATOM     12  C   UNL A   1      32.429  19.198  23.136  1.00  0.00     0.076 A 
ATOM     13  C   UNL A   1      32.851  20.130  25.874  1.00  0.00     0.034 A 
ATOM     14  C   UNL A   1      32.349  20.630  23.432  1.00  0.00     0.090 A 
ATOM     15  C   UNL A   1      32.560  21.092  24.816  1.00  0.00     0.087 A 
ATOM     16  N   UNL A   1      32.109  21.612  22.635  1.00  0.00    -0.246 NA
ATOM     17  N   UNL A   1      32.466  22.367  24.916  1.00  0.00    -0.246 NA
BRANCH  10  18
ATOM     18  O   UNL A   1      32.914  17.031  23.950  1.00  0.00    -0.494 OA
BRANCH  18  19
ATOM     19  C   UNL A   1      34.300  16.663  23.934  1.00  0.00     0.226 C 
ATOM     20  C   UNL A   1      34.630  15.758  25.109  1.00  0.00     0.049 C 
ENDBRANCH  18  19
ENDBRANCH  10  18
ENDBRANCH   8   9
ENDBRANCH   7   8
ENDBRANCH   4   7
ENDBRANCH   2   3
ENDBRANCH   1   2
BRANCH   1  21
ATOM     21  C   UNL A   1      39.177  21.817  26.104  1.00  0.00     0.002 C 
BRANCH  21  22
ATOM     22  C   UNL A   1      40.572  21.383  26.564  1.00  0.00     0.002 C 
BRANCH  22  23
ATOM     23  C   UNL A   1      41.026  20.008  26.071  1.00  0.00     0.021 C 
BRANCH  23  24
ATOM     24  C   UNL A   1      42.464  19.644  26.417  1.00  0.00     0.116 C 
BRANCH  24  25
ATOM     25  N   UNL A   1      43.202  19.115  25.280  1.00  0.00    -0.352 N 
ATOM     26  C   UNL A   1      44.135  19.747  24.490  1.00  0.00     0.251 C 
ATOM     27  H   UNL A   1      43.008  18.180  25.044  1.00  0.00     0.163 HD
ATOM     28  O   UNL A   1      44.572  19.202  23.481  1.00  0.00    -0.269 OA
BRANCH  26  29
ATOM     29  C   UNL A   1      44.579  21.112  24.843  1.00  0.00     0.039 A 
ATOM     30  C   UNL A   1      45.468  21.318  25.900  1.00  0.00     0.014 A 
ATOM     31  C   UNL A   1      44.060  22.200  24.136  1.00  0.00     0.014 A 
ATOM     32  C   UNL A   1      45.705  22.611  26.357  1.00  0.00     0.010 A 
ATOM     33  C   UNL A   1      44.360  23.501  24.549  1.00  0.00     0.010 A 
ATOM     34  C   UNL A   1      45.141  23.715  25.696  1.00  0.00    -0.014 A 
BRANCH  34  35
ATOM     35  C   UNL A   1      45.360  25.081  26.239  1.00  0.00     0.031 A 
ATOM     36  C   UNL A   1      46.700  25.753  26.107  1.00  0.00     0.074 A 
ATOM     37  C   UNL A   1      44.327  25.744  26.793  1.00  0.00     0.049 A 
ATOM     38  N   UNL A   1      47.067  26.948  26.498  1.00  0.00    -0.248 NA
ATOM     39  C   UNL A   1      47.771  24.986  25.452  1.00  0.00     0.031 C 
ATOM     40  C   UNL A   1      42.976  25.207  26.959  1.00  0.00     0.029 A 
ATOM     41  N   UNL A   1      44.243  27.020  27.290  1.00  0.00    -0.354 N 
ATOM     42  C   UNL A   1      48.406  27.070  26.151  1.00  0.00     0.074 A 
ATOM     43  C   UNL A   1      48.800  25.817  25.543  1.00  0.00     0.031 C 
ATOM     44  C   UNL A   1      42.184  26.164  27.464  1.00  0.00     0.029 A 
ATOM     45  C   UNL A   1      42.981  27.361  27.712  1.00  0.00     0.049 A 
ATOM     46  H   UNL A   1      45.012  27.632  27.339  1.00  0.00     0.167 HD
ATOM     47  C   UNL A   1      49.228  28.134  26.312  1.00  0.00     0.037 A 
ATOM     48  C   UNL A   1      42.519  28.507  28.245  1.00  0.00     0.037 A 
ATOM     49  C   UNL A   1      48.831  29.389  26.893  1.00  0.00     0.049 A 
ATOM     50  C   UNL A   1      43.464  29.655  28.454  1.00  0.00     0.074 A 
ATOM     51  C   UNL A   1      49.591  30.530  27.084  1.00  0.00     0.029 A 
ATOM     52  N   UNL A   1      47.560  29.671  27.372  1.00  0.00    -0.354 N 
ATOM     53  N   UNL A   1      44.730  29.752  28.130  1.00  0.00    -0.248 NA
ATOM     54  C   UNL A   1      42.919  30.849  29.115  1.00  0.00     0.031 C 
ATOM     55  C   UNL A   1      48.790  31.491  27.710  1.00  0.00     0.029 A 
ATOM     56  C   UNL A   1      47.521  30.962  27.874  1.00  0.00     0.049 A 
ATOM     57  H   UNL A   1      46.799  29.046  27.358  1.00  0.00     0.167 HD
ATOM     58  C   UNL A   1      45.132  31.015  28.540  1.00  0.00     0.074 A 
ATOM     59  C   UNL A   1      43.969  31.658  29.118  1.00  0.00     0.031 C 
ATOM     60  C   UNL A   1      46.357  31.586  28.451  1.00  0.00     0.037 A 
BRANCH  47  61
ATOM     61  C   UNL A   1      50.650  27.994  25.855  1.00  0.00     0.064 A 
ATOM     62  C   UNL A   1      51.007  28.162  24.509  1.00  0.00     0.173 A 
ATOM     63  C   UNL A   1      51.677  27.760  26.783  1.00  0.00     0.173 A 
ATOM     64  F   UNL A   1      50.062  28.376  23.582  1.00  0.00    -0.203 F 
ATOM     65  C   UNL A   1      52.339  28.086  24.107  1.00  0.00     0.198 A 
ATOM     66  C   UNL A   1      53.008  27.709  26.381  1.00  0.00     0.198 A 
ATOM     67  F   UNL A   1      51.388  27.601  28.084  1.00  0.00    -0.203 F 
ATOM     68  F   UNL A   1      52.654  28.219  22.812  1.00  0.00    -0.200 F 
ATOM     69  C   UNL A   1      53.338  27.868  25.044  1.00  0.00     0.200 A 
ATOM     70  F   UNL A   1      53.974  27.510  27.290  1.00  0.00    -0.200 F 
ATOM     71  F   UNL A   1      54.620  27.810  24.657  1.00  0.00    -0.200 F 
ENDBRANCH  47  61
BRANCH  48  72
ATOM     72  C   UNL A   1      41.085  28.618  28.606  1.00  0.00     0.064 A 
ATOM     73  C   UNL A   1      40.146  29.088  27.678  1.00  0.00     0.173 A 
ATOM     74  C   UNL A   1      40.617  28.228  29.870  1.00  0.00     0.173 A 
ATOM     75  F   UNL A   1      40.549  29.493  26.465  1.00  0.00    -0.203 F 
ATOM     76  C   UNL A   1      38.793  29.164  28.001  1.00  0.00     0.198 A 
ATOM     77  C   UNL A   1      39.262  28.280  30.182  1.00  0.00     0.198 A 
ATOM     78  F   UNL A   1      41.478  27.770  30.790  1.00  0.00    -0.203 F 
ATOM     79  F   UNL A   1      37.918  29.641  27.104  1.00  0.00    -0.200 F 
ATOM     80  C   UNL A   1      38.351  28.751  29.250  1.00  0.00     0.200 A 
ATOM     81  F   UNL A   1      38.838  27.867  31.385  1.00  0.00    -0.200 F 
ATOM     82  F   UNL A   1      37.047  28.809  29.554  1.00  0.00    -0.200 F 
ENDBRANCH  48  72
BRANCH  60  83
ATOM     83  C   UNL A   1      46.509  32.977  28.986  1.00  0.00     0.064 A 
ATOM     84  C   UNL A   1      46.928  33.209  30.303  1.00  0.00     0.173 A 
ATOM     85  C   UNL A   1      46.294  34.088  28.157  1.00  0.00     0.173 A 
ATOM     86  F   UNL A   1      47.133  32.177  31.137  1.00  0.00    -0.203 F 
ATOM     87  C   UNL A   1      47.115  34.504  30.777  1.00  0.00     0.198 A 
ATOM     88  C   UNL A   1      46.504  35.382  28.627  1.00  0.00     0.198 A 
ATOM     89  F   UNL A   1      45.898  33.918  26.886  1.00  0.00    -0.203 F 
ATOM     90  F   UNL A   1      47.487  34.703  32.049  1.00  0.00    -0.200 F 
ATOM     91  C   UNL A   1      46.911  35.588  29.936  1.00  0.00     0.200 A 
ATOM     92  F   UNL A   1      46.317  36.429  27.811  1.00  0.00    -0.200 F 
ATOM     93  F   UNL A   1      47.102  36.835  30.391  1.00  0.00    -0.200 F 
ENDBRANCH  60  83
ENDBRANCH  34  35
ENDBRANCH  26  29
ENDBRANCH  24  25
ENDBRANCH  23  24
ENDBRANCH  22  23
ENDBRANCH  21  22
ENDBRANCH   1  21
TORSDOF 17
ENDMDL
