MODEL 1
REMARK VINA RESULT:     -12.8      0.000      0.000
REMARK SMILES CCC[C@@H]1CCc2nc3c(F)cccc3c(C(=O)NCCCCCCNC(=O)c3ccc(-c4c5nc(c(-c6c(F)c(F)c(F)c(F)c6F)c6ccc([nH]6)c(-c6c(F)c(F)c(F)c(F)c6F)c6nc(c(-c7c(F)c(F)c(F)c(F)c7F)c7ccc4[nH]7)C=C6)C=C5)cc3)c2C1
REMARK SMILES IDX 22 1 21 2 20 3 19 4 17 5 18 6 16 8 4 9 5 10 93 11 6 12 92 13
REMARK SMILES IDX 7 14 8 15 15 16 9 17 14 18 10 19 13 20 11 21 12 22 3 23 2 24
REMARK SMILES IDX 1 25 23 26 24 27 25 28 26 29 27 30 28 32 29 33 30 34 91 35
REMARK SMILES IDX 31 36 90 37 32 38 33 39 34 40 84 41 35 42 89 43 83 44 85 45
REMARK SMILES IDX 36 46 88 47 82 48 81 49 37 51 69 52 49 53 68 54 50 55 53 56
REMARK SMILES IDX 67 57 86 58 51 59 52 60 66 62 87 63 54 64 38 65 39 66 47 67
REMARK SMILES IDX 40 68 41 69 45 70 48 71 42 72 43 73 46 74 44 75 70 76 71 77
REMARK SMILES IDX 79 78 72 79 73 80 77 81 80 82 74 83 75 84 78 85 76 86 55 87
REMARK SMILES IDX 56 88 64 89 57 90 58 91 62 92 65 93 59 94 60 95 63 96 61 97
REMARK H PARENT 19 7 26 31 85 50 53 61
REMARK Flexibility Score: inf
ROOT
ATOM      1  C   UNL A   1      32.276  30.021  27.251  1.00  0.00     0.002 C 
ENDROOT
BRANCH   1   2
ATOM      2  C   UNL A   1      32.961  28.786  26.661  1.00  0.00     0.021 C 
BRANCH   2   3
ATOM      3  C   UNL A   1      34.132  29.092  25.710  1.00  0.00     0.116 C 
BRANCH   3   4
ATOM      4  N   UNL A   1      33.617  29.331  24.374  1.00  0.00    -0.352 N 
ATOM      5  C   UNL A   1      33.169  28.430  23.430  1.00  0.00     0.252 C 
ATOM      6  O   UNL A   1      33.615  28.584  22.293  1.00  0.00    -0.269 OA
ATOM      7  H   UNL A   1      33.582  30.277  24.101  1.00  0.00     0.163 HD
BRANCH   5   8
ATOM      8  C   UNL A   1      32.072  27.426  23.689  1.00  0.00     0.054 A 
ATOM      9  C   UNL A   1      28.972  29.335  22.355  1.00  0.00    -0.006 C 
ATOM     10  C   UNL A   1      27.914  28.642  23.224  1.00  0.00     0.010 C 
ATOM     11  C   UNL A   1      30.339  29.236  23.055  1.00  0.00     0.042 C 
ATOM     12  C   UNL A   1      28.277  27.185  23.484  1.00  0.00     0.057 C 
ATOM     13  C   UNL A   1      30.727  27.853  23.522  1.00  0.00    -0.013 A 
ATOM     14  C   UNL A   1      29.717  26.955  23.859  1.00  0.00     0.045 A 
ATOM     15  N   UNL A   1      29.969  25.757  24.426  1.00  0.00    -0.249 NA
ATOM     16  C   UNL A   1      32.321  26.074  24.049  1.00  0.00     0.016 A 
ATOM     17  C   UNL A   1      31.233  25.319  24.523  1.00  0.00     0.107 A 
ATOM     18  C   UNL A   1      33.557  25.398  23.911  1.00  0.00     0.011 A 
ATOM     19  C   UNL A   1      31.479  24.053  25.061  1.00  0.00     0.149 A 
ATOM     20  C   UNL A   1      33.783  24.127  24.436  1.00  0.00     0.004 A 
ATOM     21  F   UNL A   1      30.468  23.343  25.591  1.00  0.00    -0.205 F 
ATOM     22  C   UNL A   1      32.741  23.467  25.058  1.00  0.00     0.041 A 
BRANCH   9  23
ATOM     23  C   UNL A   1      28.523  30.781  22.024  1.00  0.00     0.003 C 
BRANCH  23  24
ATOM     24  C   UNL A   1      28.241  31.740  23.188  1.00  0.00    -0.003 C 
ATOM     25  C   UNL A   1      28.904  33.104  23.082  1.00  0.00     0.004 C 
ENDBRANCH  23  24
ENDBRANCH   9  23
ENDBRANCH   5   8
ENDBRANCH   3   4
ENDBRANCH   2   3
ENDBRANCH   1   2
BRANCH   1  26
ATOM     26  C   UNL A   1      31.464  30.848  26.251  1.00  0.00     0.002 C 
BRANCH  26  27
ATOM     27  C   UNL A   1      31.404  32.347  26.554  1.00  0.00     0.021 C 
BRANCH  27  28
ATOM     28  C   UNL A   1      32.656  32.894  27.232  1.00  0.00     0.116 C 
BRANCH  28  29
ATOM     29  N   UNL A   1      32.491  34.288  27.608  1.00  0.00    -0.352 N 
ATOM     30  C   UNL A   1      33.051  34.946  28.673  1.00  0.00     0.251 C 
ATOM     31  H   UNL A   1      31.905  34.826  27.027  1.00  0.00     0.163 HD
ATOM     32  O   UNL A   1      32.643  36.045  29.032  1.00  0.00    -0.269 OA
BRANCH  30  33
ATOM     33  C   UNL A   1      34.162  34.298  29.392  1.00  0.00     0.039 A 
ATOM     34  C   UNL A   1      35.468  34.472  28.934  1.00  0.00     0.014 A 
ATOM     35  C   UNL A   1      33.897  33.537  30.536  1.00  0.00     0.014 A 
ATOM     36  C   UNL A   1      36.522  33.900  29.645  1.00  0.00     0.010 A 
ATOM     37  C   UNL A   1      34.953  33.018  31.276  1.00  0.00     0.010 A 
ATOM     38  C   UNL A   1      36.270  33.177  30.824  1.00  0.00    -0.014 A 
BRANCH  38  39
ATOM     39  C   UNL A   1      37.375  32.504  31.544  1.00  0.00     0.031 A 
ATOM     40  C   UNL A   1      38.097  31.368  30.877  1.00  0.00     0.074 A 
ATOM     41  C   UNL A   1      37.726  32.911  32.778  1.00  0.00     0.049 A 
ATOM     42  N   UNL A   1      39.106  30.659  31.315  1.00  0.00    -0.248 NA
ATOM     43  C   UNL A   1      37.614  30.965  29.544  1.00  0.00     0.031 C 
ATOM     44  C   UNL A   1      37.082  33.989  33.528  1.00  0.00     0.029 A 
ATOM     45  N   UNL A   1      38.720  32.469  33.615  1.00  0.00    -0.354 N 
ATOM     46  C   UNL A   1      39.386  29.747  30.306  1.00  0.00     0.074 A 
ATOM     47  C   UNL A   1      38.399  29.935  29.269  1.00  0.00     0.031 C 
ATOM     48  C   UNL A   1      37.719  34.148  34.701  1.00  0.00     0.029 A 
ATOM     49  C   UNL A   1      38.801  33.171  34.793  1.00  0.00     0.049 A 
ATOM     50  H   UNL A   1      39.318  31.720  33.393  1.00  0.00     0.167 HD
ATOM     51  C   UNL A   1      40.406  28.863  30.233  1.00  0.00     0.037 A 
ATOM     52  C   UNL A   1      39.663  33.042  35.820  1.00  0.00     0.037 A 
ATOM     53  C   UNL A   1      41.397  28.689  31.258  1.00  0.00     0.049 A 
ATOM     54  C   UNL A   1      40.746  31.997  35.741  1.00  0.00     0.074 A 
ATOM     55  C   UNL A   1      42.484  27.835  31.269  1.00  0.00     0.029 A 
ATOM     56  N   UNL A   1      41.420  29.390  32.454  1.00  0.00    -0.354 N 
ATOM     57  N   UNL A   1      41.038  31.182  34.757  1.00  0.00    -0.248 NA
ATOM     58  C   UNL A   1      41.620  31.857  36.915  1.00  0.00     0.031 C 
ATOM     59  C   UNL A   1      43.147  27.994  32.488  1.00  0.00     0.029 A 
ATOM     60  C   UNL A   1      42.493  28.973  33.220  1.00  0.00     0.049 A 
ATOM     61  H   UNL A   1      40.770  30.080  32.719  1.00  0.00     0.167 HD
ATOM     62  C   UNL A   1      42.143  30.456  35.179  1.00  0.00     0.074 A 
ATOM     63  C   UNL A   1      42.478  30.934  36.504  1.00  0.00     0.031 C 
ATOM     64  C   UNL A   1      42.819  29.478  34.528  1.00  0.00     0.037 A 
BRANCH  51  65
ATOM     65  C   UNL A   1      40.530  28.046  28.983  1.00  0.00     0.064 A 
ATOM     66  C   UNL A   1      39.818  26.846  28.833  1.00  0.00     0.173 A 
ATOM     67  C   UNL A   1      41.308  28.491  27.906  1.00  0.00     0.173 A 
ATOM     68  F   UNL A   1      39.072  26.373  29.842  1.00  0.00    -0.203 F 
ATOM     69  C   UNL A   1      39.888  26.117  27.650  1.00  0.00     0.198 A 
ATOM     70  C   UNL A   1      41.356  27.771  26.715  1.00  0.00     0.198 A 
ATOM     71  F   UNL A   1      42.007  29.633  28.001  1.00  0.00    -0.203 F 
ATOM     72  F   UNL A   1      39.221  24.960  27.538  1.00  0.00    -0.200 F 
ATOM     73  C   UNL A   1      40.649  26.585  26.589  1.00  0.00     0.200 A 
ATOM     74  F   UNL A   1      42.085  28.228  25.686  1.00  0.00    -0.200 F 
ATOM     75  F   UNL A   1      40.702  25.890  25.445  1.00  0.00    -0.200 F 
ENDBRANCH  51  65
BRANCH  52  76
ATOM     76  C   UNL A   1      39.574  33.950  36.994  1.00  0.00     0.064 A 
ATOM     77  C   UNL A   1      38.818  33.591  38.118  1.00  0.00     0.173 A 
ATOM     78  C   UNL A   1      40.216  35.196  37.010  1.00  0.00     0.173 A 
ATOM     79  F   UNL A   1      38.168  32.418  38.142  1.00  0.00    -0.203 F 
ATOM     80  C   UNL A   1      38.691  34.452  39.206  1.00  0.00     0.198 A 
ATOM     81  C   UNL A   1      40.108  36.047  38.109  1.00  0.00     0.198 A 
ATOM     82  F   UNL A   1      40.952  35.586  35.959  1.00  0.00    -0.203 F 
ATOM     83  F   UNL A   1      37.925  34.103  40.249  1.00  0.00    -0.200 F 
ATOM     84  C   UNL A   1      39.338  35.678  39.202  1.00  0.00     0.200 A 
ATOM     85  F   UNL A   1      40.744  37.227  38.105  1.00  0.00    -0.200 F 
ATOM     86  F   UNL A   1      39.214  36.508  40.246  1.00  0.00    -0.200 F 
ENDBRANCH  52  76
BRANCH  64  87
ATOM     87  C   UNL A   1      44.000  28.867  35.220  1.00  0.00     0.064 A 
ATOM     88  C   UNL A   1      45.280  29.425  35.103  1.00  0.00     0.173 A 
ATOM     89  C   UNL A   1      43.828  27.781  36.092  1.00  0.00     0.173 A 
ATOM     90  F   UNL A   1      45.493  30.457  34.271  1.00  0.00    -0.203 F 
ATOM     91  C   UNL A   1      46.349  28.916  35.833  1.00  0.00     0.198 A 
ATOM     92  C   UNL A   1      44.895  27.291  36.841  1.00  0.00     0.198 A 
ATOM     93  F   UNL A   1      42.620  27.220  36.245  1.00  0.00    -0.203 F 
ATOM     94  F   UNL A   1      47.569  29.452  35.692  1.00  0.00    -0.200 F 
ATOM     95  C   UNL A   1      46.153  27.859  36.710  1.00  0.00     0.200 A 
ATOM     96  F   UNL A   1      44.700  26.282  37.700  1.00  0.00    -0.200 F 
ATOM     97  F   UNL A   1      47.179  27.387  37.432  1.00  0.00    -0.200 F 
ENDBRANCH  64  87
ENDBRANCH  38  39
ENDBRANCH  30  33
ENDBRANCH  28  29
ENDBRANCH  27  28
ENDBRANCH  26  27
ENDBRANCH   1  26
TORSDOF 15
ENDMDL
MODEL 2
REMARK VINA RESULT:     -12.8      0.905      7.282
REMARK SMILES CCC[C@@H]1CCc2nc3c(F)cccc3c(C(=O)NCCCCCCNC(=O)c3ccc(-c4c5nc(c(-c6c(F)c(F)c(F)c(F)c6F)c6ccc([nH]6)c(-c6c(F)c(F)c(F)c(F)c6F)c6nc(c(-c7c(F)c(F)c(F)c(F)c7F)c7ccc4[nH]7)C=C6)C=C5)cc3)c2C1
REMARK SMILES IDX 22 1 21 2 20 3 19 4 17 5 18 6 16 8 4 9 5 10 93 11 6 12 92 13
REMARK SMILES IDX 7 14 8 15 15 16 9 17 14 18 10 19 13 20 11 21 12 22 3 23 2 24
REMARK SMILES IDX 1 25 23 26 24 27 25 28 26 29 27 30 28 32 29 33 30 34 91 35
REMARK SMILES IDX 31 36 90 37 32 38 33 39 34 40 84 41 35 42 89 43 83 44 85 45
REMARK SMILES IDX 36 46 88 47 82 48 81 49 37 51 69 52 49 53 68 54 50 55 53 56
REMARK SMILES IDX 67 57 86 58 51 59 52 60 66 62 87 63 54 64 38 65 39 66 47 67
REMARK SMILES IDX 40 68 41 69 45 70 48 71 42 72 43 73 46 74 44 75 70 76 71 77
REMARK SMILES IDX 79 78 72 79 73 80 77 81 80 82 74 83 75 84 78 85 76 86 55 87
REMARK SMILES IDX 56 88 64 89 57 90 58 91 62 92 65 93 59 94 60 95 63 96 61 97
REMARK H PARENT 19 7 26 31 85 50 53 61
REMARK Flexibility Score: inf
ROOT
ATOM      1  C   UNL A   1      32.208  30.033  27.267  1.00  0.00     0.002 C 
ENDROOT
BRANCH   1   2
ATOM      2  C   UNL A   1      32.866  28.804  26.634  1.00  0.00     0.021 C 
BRANCH   2   3
ATOM      3  C   UNL A   1      34.034  29.118  25.681  1.00  0.00     0.116 C 
BRANCH   3   4
ATOM      4  N   UNL A   1      33.517  29.340  24.343  1.00  0.00    -0.352 N 
ATOM      5  C   UNL A   1      33.056  28.429  23.416  1.00  0.00     0.252 C 
ATOM      6  O   UNL A   1      33.499  28.559  22.275  1.00  0.00    -0.269 OA
ATOM      7  H   UNL A   1      33.491  30.282  24.055  1.00  0.00     0.163 HD
BRANCH   5   8
ATOM      8  C   UNL A   1      31.949  27.442  23.696  1.00  0.00     0.054 A 
ATOM      9  C   UNL A   1      28.867  29.360  22.335  1.00  0.00    -0.006 C 
ATOM     10  C   UNL A   1      27.803  28.695  23.219  1.00  0.00     0.010 C 
ATOM     11  C   UNL A   1      30.234  29.260  23.033  1.00  0.00     0.042 C 
ATOM     12  C   UNL A   1      28.150  27.239  23.503  1.00  0.00     0.057 C 
ATOM     13  C   UNL A   1      30.608  27.880  23.523  1.00  0.00    -0.013 A 
ATOM     14  C   UNL A   1      29.589  27.000  23.879  1.00  0.00     0.045 A 
ATOM     15  N   UNL A   1      29.829  25.809  24.467  1.00  0.00    -0.249 NA
ATOM     16  C   UNL A   1      32.183  26.093  24.079  1.00  0.00     0.016 A 
ATOM     17  C   UNL A   1      31.088  25.359  24.569  1.00  0.00     0.107 A 
ATOM     18  C   UNL A   1      33.412  25.402  23.950  1.00  0.00     0.011 A 
ATOM     19  C   UNL A   1      31.322  24.101  25.128  1.00  0.00     0.149 A 
ATOM     20  C   UNL A   1      33.625  24.138  24.497  1.00  0.00     0.004 A 
ATOM     21  F   UNL A   1      30.305  23.411  25.673  1.00  0.00    -0.205 F 
ATOM     22  C   UNL A   1      32.578  23.500  25.133  1.00  0.00     0.041 A 
BRANCH   9  23
ATOM     23  C   UNL A   1      28.433  30.806  21.979  1.00  0.00     0.003 C 
BRANCH  23  24
ATOM     24  C   UNL A   1      28.076  31.762  23.126  1.00  0.00    -0.003 C 
ATOM     25  C   UNL A   1      28.792  33.103  23.098  1.00  0.00     0.004 C 
ENDBRANCH  23  24
ENDBRANCH   9  23
ENDBRANCH   5   8
ENDBRANCH   3   4
ENDBRANCH   2   3
ENDBRANCH   1   2
BRANCH   1  26
ATOM     26  C   UNL A   1      31.299  30.831  26.330  1.00  0.00     0.002 C 
BRANCH  26  27
ATOM     27  C   UNL A   1      31.371  32.350  26.502  1.00  0.00     0.021 C 
BRANCH  27  28
ATOM     28  C   UNL A   1      32.673  32.843  27.127  1.00  0.00     0.116 C 
BRANCH  28  29
ATOM     29  N   UNL A   1      32.541  34.200  27.629  1.00  0.00    -0.352 N 
ATOM     30  C   UNL A   1      33.188  34.770  28.695  1.00  0.00     0.251 C 
ATOM     31  H   UNL A   1      31.911  34.781  27.145  1.00  0.00     0.163 HD
ATOM     32  O   UNL A   1      32.813  35.834  29.175  1.00  0.00    -0.269 OA
BRANCH  30  33
ATOM     33  C   UNL A   1      34.354  34.072  29.265  1.00  0.00     0.039 A 
ATOM     34  C   UNL A   1      35.638  34.529  28.968  1.00  0.00     0.014 A 
ATOM     35  C   UNL A   1      34.159  32.975  30.111  1.00  0.00     0.014 A 
ATOM     36  C   UNL A   1      36.737  33.898  29.548  1.00  0.00     0.010 A 
ATOM     37  C   UNL A   1      35.252  32.385  30.735  1.00  0.00     0.010 A 
ATOM     38  C   UNL A   1      36.549  32.828  30.440  1.00  0.00    -0.014 A 
BRANCH  38  39
ATOM     39  C   UNL A   1      37.712  32.104  31.003  1.00  0.00     0.031 A 
ATOM     40  C   UNL A   1      38.154  32.412  32.406  1.00  0.00     0.074 A 
ATOM     41  C   UNL A   1      38.360  31.184  30.265  1.00  0.00     0.049 A 
ATOM     42  N   UNL A   1      39.126  31.881  33.101  1.00  0.00    -0.248 NA
ATOM     43  C   UNL A   1      37.411  33.465  33.120  1.00  0.00     0.031 C 
ATOM     44  C   UNL A   1      38.031  30.820  28.887  1.00  0.00     0.029 A 
ATOM     45  N   UNL A   1      39.426  30.378  30.578  1.00  0.00    -0.354 N 
ATOM     46  C   UNL A   1      39.096  32.520  34.334  1.00  0.00     0.074 A 
ATOM     47  C   UNL A   1      38.065  33.530  34.270  1.00  0.00     0.031 C 
ATOM     48  C   UNL A   1      38.855  29.839  28.484  1.00  0.00     0.029 A 
ATOM     49  C   UNL A   1      39.783  29.520  29.566  1.00  0.00     0.049 A 
ATOM     50  H   UNL A   1      39.891  30.412  31.444  1.00  0.00     0.167 HD
ATOM     51  C   UNL A   1      39.833  32.255  35.436  1.00  0.00     0.037 A 
ATOM     52  C   UNL A   1      40.744  28.577  29.530  1.00  0.00     0.037 A 
ATOM     53  C   UNL A   1      40.845  31.239  35.502  1.00  0.00     0.049 A 
ATOM     54  C   UNL A   1      41.598  28.354  30.752  1.00  0.00     0.074 A 
ATOM     55  C   UNL A   1      41.633  30.878  36.580  1.00  0.00     0.029 A 
ATOM     56  N   UNL A   1      41.206  30.419  34.444  1.00  0.00    -0.354 N 
ATOM     57  N   UNL A   1      41.520  28.922  31.930  1.00  0.00    -0.248 NA
ATOM     58  C   UNL A   1      42.672  27.356  30.638  1.00  0.00     0.031 C 
ATOM     59  C   UNL A   1      42.495  29.860  36.165  1.00  0.00     0.029 A 
ATOM     60  C   UNL A   1      42.219  29.564  34.839  1.00  0.00     0.049 A 
ATOM     61  H   UNL A   1      40.802  30.443  33.547  1.00  0.00     0.167 HD
ATOM     62  C   UNL A   1      42.511  28.333  32.704  1.00  0.00     0.074 A 
ATOM     63  C   UNL A   1      43.170  27.353  31.866  1.00  0.00     0.031 C 
ATOM     64  C   UNL A   1      42.846  28.583  33.993  1.00  0.00     0.037 A 
BRANCH  51  65
ATOM     65  C   UNL A   1      39.540  33.046  36.674  1.00  0.00     0.064 A 
ATOM     66  C   UNL A   1      40.253  34.218  36.966  1.00  0.00     0.173 A 
ATOM     67  C   UNL A   1      38.503  32.671  37.539  1.00  0.00     0.173 A 
ATOM     68  F   UNL A   1      41.264  34.607  36.175  1.00  0.00    -0.203 F 
ATOM     69  C   UNL A   1      39.944  34.983  38.086  1.00  0.00     0.198 A 
ATOM     70  C   UNL A   1      38.179  33.453  38.645  1.00  0.00     0.198 A 
ATOM     71  F   UNL A   1      37.791  31.559  37.302  1.00  0.00    -0.203 F 
ATOM     72  F   UNL A   1      40.655  36.085  38.360  1.00  0.00    -0.200 F 
ATOM     73  C   UNL A   1      38.900  34.605  38.919  1.00  0.00     0.200 A 
ATOM     74  F   UNL A   1      37.165  33.093  39.445  1.00  0.00    -0.200 F 
ATOM     75  F   UNL A   1      38.592  35.353  39.987  1.00  0.00    -0.200 F 
ENDBRANCH  51  65
BRANCH  52  76
ATOM     76  C   UNL A   1      40.926  27.736  28.317  1.00  0.00     0.064 A 
ATOM     77  C   UNL A   1      40.209  26.542  28.163  1.00  0.00     0.173 A 
ATOM     78  C   UNL A   1      41.828  28.091  27.305  1.00  0.00     0.173 A 
ATOM     79  F   UNL A   1      39.348  26.150  29.115  1.00  0.00    -0.203 F 
ATOM     80  C   UNL A   1      40.402  25.723  27.053  1.00  0.00     0.198 A 
ATOM     81  C   UNL A   1      42.004  27.284  26.182  1.00  0.00     0.198 A 
ATOM     82  F   UNL A   1      42.538  29.224  27.404  1.00  0.00    -0.203 F 
ATOM     83  F   UNL A   1      39.736  24.564  26.952  1.00  0.00    -0.200 F 
ATOM     84  C   UNL A   1      41.297  26.096  26.061  1.00  0.00     0.200 A 
ATOM     85  F   UNL A   1      42.862  27.653  25.222  1.00  0.00    -0.200 F 
ATOM     86  F   UNL A   1      41.486  25.308  24.994  1.00  0.00    -0.200 F 
ENDBRANCH  52  76
BRANCH  64  87
ATOM     87  C   UNL A   1      43.960  27.779  34.592  1.00  0.00     0.064 A 
ATOM     88  C   UNL A   1      43.722  26.521  35.162  1.00  0.00     0.173 A 
ATOM     89  C   UNL A   1      45.287  28.223  34.496  1.00  0.00     0.173 A 
ATOM     90  F   UNL A   1      42.467  26.061  35.285  1.00  0.00    -0.203 F 
ATOM     91  C   UNL A   1      44.776  25.735  35.619  1.00  0.00     0.198 A 
ATOM     92  C   UNL A   1      46.341  27.423  34.931  1.00  0.00     0.198 A 
ATOM     93  F   UNL A   1      45.564  29.415  33.950  1.00  0.00    -0.203 F 
ATOM     94  F   UNL A   1      44.526  24.543  36.179  1.00  0.00    -0.200 F 
ATOM     95  C   UNL A   1      46.083  26.181  35.491  1.00  0.00     0.200 A 
ATOM     96  F   UNL A   1      47.604  27.847  34.791  1.00  0.00    -0.200 F 
ATOM     97  F   UNL A   1      47.098  25.411  35.908  1.00  0.00    -0.200 F 
ENDBRANCH  64  87
ENDBRANCH  38  39
ENDBRANCH  30  33
ENDBRANCH  28  29
ENDBRANCH  27  28
ENDBRANCH  26  27
ENDBRANCH   1  26
TORSDOF 15
ENDMDL
MODEL 3
REMARK VINA RESULT:     -12.7      5.865     10.216
REMARK SMILES CCC[C@@H]1CCc2nc3c(F)cccc3c(C(=O)NCCCCCCNC(=O)c3ccc(-c4c5nc(c(-c6c(F)c(F)c(F)c(F)c6F)c6ccc([nH]6)c(-c6c(F)c(F)c(F)c(F)c6F)c6nc(c(-c7c(F)c(F)c(F)c(F)c7F)c7ccc4[nH]7)C=C6)C=C5)cc3)c2C1
REMARK SMILES IDX 22 1 21 2 20 3 19 4 17 5 18 6 16 8 4 9 5 10 93 11 6 12 92 13
REMARK SMILES IDX 7 14 8 15 15 16 9 17 14 18 10 19 13 20 11 21 12 22 3 23 2 24
REMARK SMILES IDX 1 25 23 26 24 27 25 28 26 29 27 30 28 32 29 33 30 34 91 35
REMARK SMILES IDX 31 36 90 37 32 38 33 39 34 40 84 41 35 42 89 43 83 44 85 45
REMARK SMILES IDX 36 46 88 47 82 48 81 49 37 51 69 52 49 53 68 54 50 55 53 56
REMARK SMILES IDX 67 57 86 58 51 59 52 60 66 62 87 63 54 64 38 65 39 66 47 67
REMARK SMILES IDX 40 68 41 69 45 70 48 71 42 72 43 73 46 74 44 75 70 76 71 77
REMARK SMILES IDX 79 78 72 79 73 80 77 81 80 82 74 83 75 84 78 85 76 86 55 87
REMARK SMILES IDX 56 88 64 89 57 90 58 91 62 92 65 93 59 94 60 95 63 96 61 97
REMARK H PARENT 19 7 26 31 85 50 53 61
REMARK Flexibility Score: inf
ROOT
ATOM      1  C   UNL A   1      36.969  21.045  25.009  1.00  0.00     0.002 C 
ENDROOT
BRANCH   1   2
ATOM      2  C   UNL A   1      37.620  22.431  25.016  1.00  0.00     0.021 C 
BRANCH   2   3
ATOM      3  C   UNL A   1      36.964  23.446  25.970  1.00  0.00     0.116 C 
BRANCH   3   4
ATOM      4  N   UNL A   1      35.741  22.878  26.509  1.00  0.00    -0.352 N 
ATOM      5  C   UNL A   1      34.429  23.249  26.293  1.00  0.00     0.252 C 
ATOM      6  O   UNL A   1      33.736  23.366  27.303  1.00  0.00    -0.269 OA
ATOM      7  H   UNL A   1      35.866  22.114  27.118  1.00  0.00     0.163 HD
BRANCH   5   8
ATOM      8  C   UNL A   1      33.803  23.338  24.922  1.00  0.00     0.054 A 
ATOM      9  C   UNL A   1      32.360  19.762  24.520  1.00  0.00    -0.006 C 
ATOM     10  C   UNL A   1      32.382  19.703  22.987  1.00  0.00     0.010 C 
ATOM     11  C   UNL A   1      33.406  20.785  24.998  1.00  0.00     0.042 C 
ATOM     12  C   UNL A   1      32.109  21.070  22.375  1.00  0.00     0.057 C 
ATOM     13  C   UNL A   1      33.343  22.135  24.322  1.00  0.00    -0.013 A 
ATOM     14  C   UNL A   1      32.858  22.207  23.019  1.00  0.00     0.045 A 
ATOM     15  N   UNL A   1      32.907  23.339  22.286  1.00  0.00    -0.249 NA
ATOM     16  C   UNL A   1      33.613  24.564  24.229  1.00  0.00     0.016 A 
ATOM     17  C   UNL A   1      33.273  24.492  22.866  1.00  0.00     0.107 A 
ATOM     18  C   UNL A   1      33.674  25.856  24.805  1.00  0.00     0.011 A 
ATOM     19  C   UNL A   1      33.266  25.668  22.113  1.00  0.00     0.149 A 
ATOM     20  C   UNL A   1      33.646  27.023  24.044  1.00  0.00     0.004 A 
ATOM     21  F   UNL A   1      33.019  25.617  20.793  1.00  0.00    -0.205 F 
ATOM     22  C   UNL A   1      33.486  26.923  22.676  1.00  0.00     0.041 A 
BRANCH   9  23
ATOM     23  C   UNL A   1      32.539  18.339  25.110  1.00  0.00     0.003 C 
BRANCH  23  24
ATOM     24  C   UNL A   1      32.920  17.199  24.156  1.00  0.00    -0.003 C 
ATOM     25  C   UNL A   1      34.409  16.910  24.053  1.00  0.00     0.004 C 
ENDBRANCH  23  24
ENDBRANCH   9  23
ENDBRANCH   5   8
ENDBRANCH   3   4
ENDBRANCH   2   3
ENDBRANCH   1   2
BRANCH   1  26
ATOM     26  C   UNL A   1      37.817  19.938  24.377  1.00  0.00     0.002 C 
BRANCH  26  27
ATOM     27  C   UNL A   1      38.522  19.018  25.376  1.00  0.00     0.021 C 
BRANCH  27  28
ATOM     28  C   UNL A   1      39.681  19.678  26.117  1.00  0.00     0.116 C 
BRANCH  28  29
ATOM     29  N   UNL A   1      40.865  18.836  26.108  1.00  0.00    -0.352 N 
ATOM     30  C   UNL A   1      42.179  19.231  26.104  1.00  0.00     0.251 C 
ATOM     31  H   UNL A   1      40.706  17.865  26.103  1.00  0.00     0.163 HD
ATOM     32  O   UNL A   1      43.082  18.444  25.843  1.00  0.00    -0.269 OA
BRANCH  30  33
ATOM     33  C   UNL A   1      42.490  20.636  26.420  1.00  0.00     0.039 A 
ATOM     34  C   UNL A   1      42.668  21.549  25.380  1.00  0.00     0.014 A 
ATOM     35  C   UNL A   1      42.583  21.042  27.756  1.00  0.00     0.014 A 
ATOM     36  C   UNL A   1      42.914  22.887  25.683  1.00  0.00     0.010 A 
ATOM     37  C   UNL A   1      42.767  22.386  28.055  1.00  0.00     0.010 A 
ATOM     38  C   UNL A   1      42.956  23.314  27.021  1.00  0.00    -0.014 A 
BRANCH  38  39
ATOM     39  C   UNL A   1      43.289  24.719  27.353  1.00  0.00     0.031 A 
ATOM     40  C   UNL A   1      44.685  25.216  27.109  1.00  0.00     0.074 A 
ATOM     41  C   UNL A   1      42.349  25.535  27.864  1.00  0.00     0.049 A 
ATOM     42  N   UNL A   1      45.183  26.410  27.302  1.00  0.00    -0.248 NA
ATOM     43  C   UNL A   1      45.657  24.238  26.587  1.00  0.00     0.031 C 
ATOM     44  C   UNL A   1      40.968  25.153  28.161  1.00  0.00     0.029 A 
ATOM     45  N   UNL A   1      42.412  26.860  28.215  1.00  0.00    -0.354 N 
ATOM     46  C   UNL A   1      46.512  26.328  26.908  1.00  0.00     0.074 A 
ATOM     47  C   UNL A   1      46.768  24.956  26.539  1.00  0.00     0.031 C 
ATOM     48  C   UNL A   1      40.304  26.229  28.617  1.00  0.00     0.029 A 
ATOM     49  C   UNL A   1      41.218  27.368  28.664  1.00  0.00     0.049 A 
ATOM     50  H   UNL A   1      43.235  27.396  28.151  1.00  0.00     0.167 HD
ATOM     51  C   UNL A   1      47.424  27.322  26.819  1.00  0.00     0.037 A 
ATOM     52  C   UNL A   1      40.901  28.618  29.055  1.00  0.00     0.037 A 
ATOM     53  C   UNL A   1      47.163  28.690  27.170  1.00  0.00     0.049 A 
ATOM     54  C   UNL A   1      41.960  29.689  29.013  1.00  0.00     0.074 A 
ATOM     55  C   UNL A   1      48.014  29.776  27.094  1.00  0.00     0.029 A 
ATOM     56  N   UNL A   1      45.953  29.157  27.660  1.00  0.00    -0.354 N 
ATOM     57  N   UNL A   1      43.196  29.614  28.583  1.00  0.00    -0.248 NA
ATOM     58  C   UNL A   1      41.579  31.020  29.509  1.00  0.00     0.031 C 
ATOM     59  C   UNL A   1      47.330  30.897  27.571  1.00  0.00     0.029 A 
ATOM     60  C   UNL A   1      46.042  30.514  27.910  1.00  0.00     0.049 A 
ATOM     61  H   UNL A   1      45.151  28.605  27.809  1.00  0.00     0.167 HD
ATOM     62  C   UNL A   1      43.728  30.888  28.728  1.00  0.00     0.074 A 
ATOM     63  C   UNL A   1      42.679  31.721  29.274  1.00  0.00     0.031 C 
ATOM     64  C   UNL A   1      44.977  31.328  28.435  1.00  0.00     0.037 A 
BRANCH  51  65
ATOM     65  C   UNL A   1      48.778  26.976  26.279  1.00  0.00     0.064 A 
ATOM     66  C   UNL A   1      49.789  26.492  27.123  1.00  0.00     0.173 A 
ATOM     67  C   UNL A   1      49.051  27.065  24.907  1.00  0.00     0.173 A 
ATOM     68  F   UNL A   1      49.579  26.404  28.445  1.00  0.00    -0.203 F 
ATOM     69  C   UNL A   1      51.028  26.117  26.614  1.00  0.00     0.198 A 
ATOM     70  C   UNL A   1      50.284  26.666  24.397  1.00  0.00     0.198 A 
ATOM     71  F   UNL A   1      48.116  27.521  24.059  1.00  0.00    -0.203 F 
ATOM     72  F   UNL A   1      51.988  25.682  27.442  1.00  0.00    -0.200 F 
ATOM     73  C   UNL A   1      51.270  26.195  25.250  1.00  0.00     0.200 A 
ATOM     74  F   UNL A   1      50.515  26.732  23.078  1.00  0.00    -0.200 F 
ATOM     75  F   UNL A   1      52.459  25.817  24.759  1.00  0.00    -0.200 F 
ENDBRANCH  51  65
BRANCH  52  76
ATOM     76  C   UNL A   1      39.513  28.944  29.478  1.00  0.00     0.064 A 
ATOM     77  C   UNL A   1      39.101  28.730  30.800  1.00  0.00     0.173 A 
ATOM     78  C   UNL A   1      38.569  29.450  28.573  1.00  0.00     0.173 A 
ATOM     79  F   UNL A   1      39.962  28.227  31.697  1.00  0.00    -0.203 F 
ATOM     80  C   UNL A   1      37.791  28.989  31.197  1.00  0.00     0.198 A 
ATOM     81  C   UNL A   1      37.265  29.733  28.978  1.00  0.00     0.198 A 
ATOM     82  F   UNL A   1      38.914  29.674  27.297  1.00  0.00    -0.203 F 
ATOM     83  F   UNL A   1      37.412  28.733  32.457  1.00  0.00    -0.200 F 
ATOM     84  C   UNL A   1      36.875  29.494  30.287  1.00  0.00     0.200 A 
ATOM     85  F   UNL A   1      36.386  30.230  28.097  1.00  0.00    -0.200 F 
ATOM     86  F   UNL A   1      35.615  29.741  30.668  1.00  0.00    -0.200 F 
ENDBRANCH  52  76
BRANCH  64  87
ATOM     87  C   UNL A   1      45.282  32.774  28.679  1.00  0.00     0.064 A 
ATOM     88  C   UNL A   1      45.956  33.190  29.835  1.00  0.00     0.173 A 
ATOM     89  C   UNL A   1      44.995  33.736  27.698  1.00  0.00     0.173 A 
ATOM     90  F   UNL A   1      46.240  32.307  30.805  1.00  0.00    -0.203 F 
ATOM     91  C   UNL A   1      46.330  34.519  30.003  1.00  0.00     0.198 A 
ATOM     92  C   UNL A   1      45.394  35.060  27.858  1.00  0.00     0.198 A 
ATOM     93  F   UNL A   1      44.360  33.383  26.570  1.00  0.00    -0.203 F 
ATOM     94  F   UNL A   1      46.956  34.900  31.125  1.00  0.00    -0.200 F 
ATOM     95  C   UNL A   1      46.061  35.449  29.009  1.00  0.00     0.200 A 
ATOM     96  F   UNL A   1      45.149  35.953  26.890  1.00  0.00    -0.200 F 
ATOM     97  F   UNL A   1      46.445  36.724  29.162  1.00  0.00    -0.200 F 
ENDBRANCH  64  87
ENDBRANCH  38  39
ENDBRANCH  30  33
ENDBRANCH  28  29
ENDBRANCH  27  28
ENDBRANCH  26  27
ENDBRANCH   1  26
TORSDOF 15
ENDMDL
