MODEL 1
REMARK VINA RESULT:     -11.3      0.000      0.000
REMARK SMILES CCC[N@H+]1CCC[C@H]([C@@H](C)Nc2cccc(C(=O)NCCCCCCNC(=O)c3ccc(-c4c5nc(c(-c6c(F)c(F)c(F)c(F)c6F)c6ccc([nH]6)c(-c6c(F)c(F)c(F)c(F)c6F)c6nc(c(-c7c(F)c(F)c(F)c(F)c7F)c7ccc4[nH]7)C=C6)C=C5)cc3)c2)C1
REMARK SMILES IDX 21 1 20 2 19 3 17 4 18 5 16 7 12 8 13 9 92 10 14 11 15 12
REMARK SMILES IDX 11 13 9 15 10 16 8 17 4 18 5 19 93 20 6 22 7 23 3 24 2 25
REMARK SMILES IDX 1 26 22 27 23 28 24 29 25 30 26 31 27 32 28 34 29 35 30 36
REMARK SMILES IDX 91 37 31 38 90 39 32 40 33 41 34 42 84 43 35 44 89 45 83 46
REMARK SMILES IDX 85 47 36 48 88 49 82 50 81 51 37 53 69 54 49 55 68 56 50 57
REMARK SMILES IDX 53 58 67 59 86 60 51 61 52 62 66 64 87 65 54 66 38 67 39 68
REMARK SMILES IDX 47 69 40 70 41 71 45 72 48 73 42 74 43 75 46 76 44 77 70 78
REMARK SMILES IDX 71 79 79 80 72 81 73 82 77 83 80 84 74 85 75 86 78 87 76 88
REMARK SMILES IDX 55 89 56 90 64 91 57 92 58 93 62 94 65 95 59 96 60 97 63 98
REMARK SMILES IDX 61 99
REMARK H PARENT 19 6 11 14 4 21 26 33 85 52 53 63
REMARK Flexibility Score: inf
ROOT
ATOM      1  C   UNL A   1      33.419  31.728  27.682  1.00  0.00     0.021 C 
ENDROOT
BRANCH   1   2
ATOM      2  C   UNL A   1      33.328  30.290  27.191  1.00  0.00     0.116 C 
BRANCH   2   3
ATOM      3  N   UNL A   1      33.480  30.117  25.754  1.00  0.00    -0.352 N 
ATOM      4  C   UNL A   1      33.205  29.029  24.947  1.00  0.00     0.251 C 
ATOM      5  O   UNL A   1      33.423  29.116  23.739  1.00  0.00    -0.269 OA
ATOM      6  H   UNL A   1      33.836  30.902  25.280  1.00  0.00     0.163 HD
BRANCH   4   7
ATOM      7  C   UNL A   1      32.726  27.737  25.511  1.00  0.00     0.041 A 
ATOM      8  C   UNL A   1      33.193  25.413  26.067  1.00  0.00     0.035 A 
ATOM      9  C   UNL A   1      31.815  25.193  26.158  1.00  0.00     0.026 A 
ATOM     10  C   UNL A   1      33.615  26.728  25.881  1.00  0.00     0.039 A 
ATOM     11  C   UNL A   1      30.900  26.237  25.983  1.00  0.00     0.003 A 
ATOM     12  C   UNL A   1      31.354  27.504  25.619  1.00  0.00     0.014 A 
BRANCH   8  13
ATOM     13  N   UNL A   1      34.068  24.345  26.149  1.00  0.00    -0.382 N 
ATOM     14  H   UNL A   1      35.031  24.544  26.132  1.00  0.00     0.160 HD
BRANCH  13  15
ATOM     15  C   UNL A   1      33.669  22.940  26.256  1.00  0.00     0.084 C 
ATOM     16  C   UNL A   1      33.975  22.458  27.677  1.00  0.00     0.031 C 
BRANCH  15  17
ATOM     17  C   UNL A   1      34.393  22.111  25.162  1.00  0.00     0.066 C 
ATOM     18  N   UNL A   1      32.917  22.912  23.336  1.00  0.00    -0.335 N 
ATOM     19  C   UNL A   1      32.381  21.574  23.076  1.00  0.00     0.262 C 
ATOM     20  C   UNL A   1      34.314  22.817  23.792  1.00  0.00     0.267 C 
ATOM     21  H   UNL A   1      32.332  23.312  24.069  1.00  0.00     0.348 HD
ATOM     22  C   UNL A   1      32.422  20.714  24.347  1.00  0.00     0.062 C 
ATOM     23  C   UNL A   1      33.810  20.693  24.993  1.00  0.00     0.017 C 
BRANCH  18  24
ATOM     24  C   UNL A   1      32.819  23.829  22.194  1.00  0.00     0.261 C 
BRANCH  24  25
ATOM     25  C   UNL A   1      31.981  25.090  22.443  1.00  0.00     0.058 C 
ATOM     26  C   UNL A   1      32.656  26.373  21.977  1.00  0.00     0.010 C 
ENDBRANCH  24  25
ENDBRANCH  18  24
ENDBRANCH  15  17
ENDBRANCH  13  15
ENDBRANCH   8  13
ENDBRANCH   4   7
ENDBRANCH   2   3
ENDBRANCH   1   2
BRANCH   1  27
ATOM     27  C   UNL A   1      34.542  32.046  28.666  1.00  0.00     0.002 C 
BRANCH  27  28
ATOM     28  C   UNL A   1      34.591  33.478  29.205  1.00  0.00     0.002 C 
BRANCH  28  29
ATOM     29  C   UNL A   1      33.307  34.298  29.079  1.00  0.00     0.021 C 
BRANCH  29  30
ATOM     30  C   UNL A   1      33.439  35.783  29.398  1.00  0.00     0.116 C 
BRANCH  30  31
ATOM     31  N   UNL A   1      32.565  36.212  30.478  1.00  0.00    -0.352 N 
ATOM     32  C   UNL A   1      32.617  35.892  31.816  1.00  0.00     0.251 C 
ATOM     33  H   UNL A   1      31.835  36.818  30.215  1.00  0.00     0.163 HD
ATOM     34  O   UNL A   1      31.722  36.231  32.575  1.00  0.00    -0.269 OA
BRANCH  32  35
ATOM     35  C   UNL A   1      33.761  35.107  32.328  1.00  0.00     0.039 A 
ATOM     36  C   UNL A   1      33.541  33.810  32.802  1.00  0.00     0.014 A 
ATOM     37  C   UNL A   1      35.048  35.649  32.326  1.00  0.00     0.014 A 
ATOM     38  C   UNL A   1      34.625  33.029  33.212  1.00  0.00     0.010 A 
ATOM     39  C   UNL A   1      36.132  34.847  32.663  1.00  0.00     0.010 A 
ATOM     40  C   UNL A   1      35.931  33.532  33.114  1.00  0.00    -0.014 A 
BRANCH  40  41
ATOM     41  C   UNL A   1      37.119  32.731  33.504  1.00  0.00     0.031 A 
ATOM     42  C   UNL A   1      37.806  33.024  34.807  1.00  0.00     0.074 A 
ATOM     43  C   UNL A   1      37.637  31.825  32.654  1.00  0.00     0.049 A 
ATOM     44  N   UNL A   1      38.951  32.585  35.262  1.00  0.00    -0.248 NA
ATOM     45  C   UNL A   1      37.123  33.970  35.703  1.00  0.00     0.031 C 
ATOM     46  C   UNL A   1      37.068  31.457  31.358  1.00  0.00     0.029 A 
ATOM     47  N   UNL A   1      38.776  31.065  32.747  1.00  0.00    -0.354 N 
ATOM     48  C   UNL A   1      39.138  33.223  36.481  1.00  0.00     0.074 A 
ATOM     49  C   UNL A   1      38.017  34.118  36.668  1.00  0.00     0.031 C 
ATOM     50  C   UNL A   1      37.852  30.528  30.784  1.00  0.00     0.029 A 
ATOM     51  C   UNL A   1      39.003  30.276  31.646  1.00  0.00     0.049 A 
ATOM     52  H   UNL A   1      39.374  31.083  33.529  1.00  0.00     0.167 HD
ATOM     53  C   UNL A   1      40.145  33.062  37.374  1.00  0.00     0.037 A 
ATOM     54  C   UNL A   1      40.034  29.458  31.359  1.00  0.00     0.037 A 
ATOM     55  C   UNL A   1      41.246  32.156  37.188  1.00  0.00     0.049 A 
ATOM     56  C   UNL A   1      41.167  29.330  32.342  1.00  0.00     0.074 A 
ATOM     57  C   UNL A   1      42.299  31.887  38.044  1.00  0.00     0.029 A 
ATOM     58  N   UNL A   1      41.436  31.369  36.060  1.00  0.00    -0.354 N 
ATOM     59  N   UNL A   1      41.322  29.909  33.507  1.00  0.00    -0.248 NA
ATOM     60  C   UNL A   1      42.272  28.435  31.967  1.00  0.00     0.031 C 
ATOM     61  C   UNL A   1      43.152  30.976  37.414  1.00  0.00     0.029 A 
ATOM     62  C   UNL A   1      42.601  30.630  36.190  1.00  0.00     0.049 A 
ATOM     63  H   UNL A   1      40.833  31.340  35.283  1.00  0.00     0.167 HD
ATOM     64  C   UNL A   1      42.512  29.417  34.026  1.00  0.00     0.074 A 
ATOM     65  C   UNL A   1      43.046  28.497  33.042  1.00  0.00     0.031 C 
ATOM     66  C   UNL A   1      43.103  29.696  35.214  1.00  0.00     0.037 A 
BRANCH  53  67
ATOM     67  C   UNL A   1      40.100  33.902  38.619  1.00  0.00     0.064 A 
ATOM     68  C   UNL A   1      40.774  35.131  38.706  1.00  0.00     0.173 A 
ATOM     69  C   UNL A   1      39.382  33.470  39.744  1.00  0.00     0.173 A 
ATOM     70  F   UNL A   1      41.484  35.587  37.663  1.00  0.00    -0.203 F 
ATOM     71  C   UNL A   1      40.775  35.866  39.889  1.00  0.00     0.198 A 
ATOM     72  C   UNL A   1      39.354  34.226  40.912  1.00  0.00     0.198 A 
ATOM     73  F   UNL A   1      38.712  32.308  39.714  1.00  0.00    -0.203 F 
ATOM     74  F   UNL A   1      41.490  36.997  39.971  1.00  0.00    -0.200 F 
ATOM     75  C   UNL A   1      40.063  35.416  40.989  1.00  0.00     0.200 A 
ATOM     76  F   UNL A   1      38.652  33.797  41.970  1.00  0.00    -0.200 F 
ATOM     77  F   UNL A   1      40.070  36.122  42.128  1.00  0.00    -0.200 F 
ENDBRANCH  53  67
BRANCH  54  78
ATOM     78  C   UNL A   1      40.022  28.667  30.101  1.00  0.00     0.064 A 
ATOM     79  C   UNL A   1      40.635  29.166  28.943  1.00  0.00     0.173 A 
ATOM     80  C   UNL A   1      39.420  27.403  30.028  1.00  0.00     0.173 A 
ATOM     81  F   UNL A   1      41.207  30.378  28.958  1.00  0.00    -0.203 F 
ATOM     82  C   UNL A   1      40.638  28.434  27.757  1.00  0.00     0.198 A 
ATOM     83  C   UNL A   1      39.444  26.661  28.848  1.00  0.00     0.198 A 
ATOM     84  F   UNL A   1      38.822  26.880  31.109  1.00  0.00    -0.203 F 
ATOM     85  F   UNL A   1      41.202  28.949  26.656  1.00  0.00    -0.200 F 
ATOM     86  C   UNL A   1      40.050  27.180  27.713  1.00  0.00     0.200 A 
ATOM     87  F   UNL A   1      38.887  25.443  28.813  1.00  0.00    -0.200 F 
ATOM     88  F   UNL A   1      40.060  26.472  26.575  1.00  0.00    -0.200 F 
ENDBRANCH  54  78
BRANCH  66  89
ATOM     89  C   UNL A   1      44.358  28.950  35.562  1.00  0.00     0.064 A 
ATOM     90  C   UNL A   1      44.328  27.723  36.238  1.00  0.00     0.173 A 
ATOM     91  C   UNL A   1      45.603  29.436  35.132  1.00  0.00     0.173 A 
ATOM     92  F   UNL A   1      43.165  27.225  36.684  1.00  0.00    -0.203 F 
ATOM     93  C   UNL A   1      45.502  27.012  36.479  1.00  0.00     0.198 A 
ATOM     94  C   UNL A   1      46.770  28.710  35.349  1.00  0.00     0.198 A 
ATOM     95  F   UNL A   1      45.683  30.604  34.476  1.00  0.00    -0.203 F 
ATOM     96  F   UNL A   1      45.456  25.855  37.154  1.00  0.00    -0.200 F 
ATOM     97  C   UNL A   1      46.719  27.501  36.024  1.00  0.00     0.200 A 
ATOM     98  F   UNL A   1      47.942  29.176  34.894  1.00  0.00    -0.200 F 
ATOM     99  F   UNL A   1      47.844  26.804  36.238  1.00  0.00    -0.200 F 
ENDBRANCH  66  89
ENDBRANCH  40  41
ENDBRANCH  32  35
ENDBRANCH  30  31
ENDBRANCH  29  30
ENDBRANCH  28  29
ENDBRANCH  27  28
ENDBRANCH   1  27
TORSDOF 18
ENDMDL
MODEL 2
REMARK VINA RESULT:     -11.3      1.572      7.605
REMARK SMILES CCC[N@H+]1CCC[C@H]([C@@H](C)Nc2cccc(C(=O)NCCCCCCNC(=O)c3ccc(-c4c5nc(c(-c6c(F)c(F)c(F)c(F)c6F)c6ccc([nH]6)c(-c6c(F)c(F)c(F)c(F)c6F)c6nc(c(-c7c(F)c(F)c(F)c(F)c7F)c7ccc4[nH]7)C=C6)C=C5)cc3)c2)C1
REMARK SMILES IDX 21 1 20 2 19 3 17 4 18 5 16 7 12 8 13 9 92 10 14 11 15 12
REMARK SMILES IDX 11 13 9 15 10 16 8 17 4 18 5 19 93 20 6 22 7 23 3 24 2 25
REMARK SMILES IDX 1 26 22 27 23 28 24 29 25 30 26 31 27 32 28 34 29 35 30 36
REMARK SMILES IDX 91 37 31 38 90 39 32 40 33 41 34 42 84 43 35 44 89 45 83 46
REMARK SMILES IDX 85 47 36 48 88 49 82 50 81 51 37 53 69 54 49 55 68 56 50 57
REMARK SMILES IDX 53 58 67 59 86 60 51 61 52 62 66 64 87 65 54 66 38 67 39 68
REMARK SMILES IDX 47 69 40 70 41 71 45 72 48 73 42 74 43 75 46 76 44 77 70 78
REMARK SMILES IDX 71 79 79 80 72 81 73 82 77 83 80 84 74 85 75 86 78 87 76 88
REMARK SMILES IDX 55 89 56 90 64 91 57 92 58 93 62 94 65 95 59 96 60 97 63 98
REMARK SMILES IDX 61 99
REMARK H PARENT 19 6 11 14 4 21 26 33 85 52 53 63
REMARK Flexibility Score: inf
ROOT
ATOM      1  C   UNL A   1      33.667  29.165  27.137  1.00  0.00     0.021 C 
ENDROOT
BRANCH   1   2
ATOM      2  C   UNL A   1      34.023  28.108  26.100  1.00  0.00     0.116 C 
BRANCH   2   3
ATOM      3  N   UNL A   1      34.031  28.573  24.722  1.00  0.00    -0.352 N 
ATOM      4  C   UNL A   1      33.183  28.277  23.670  1.00  0.00     0.251 C 
ATOM      5  O   UNL A   1      33.395  28.796  22.575  1.00  0.00    -0.269 OA
ATOM      6  H   UNL A   1      34.757  29.200  24.503  1.00  0.00     0.163 HD
BRANCH   4   7
ATOM      7  C   UNL A   1      32.074  27.293  23.811  1.00  0.00     0.041 A 
ATOM      8  C   UNL A   1      31.192  25.076  23.330  1.00  0.00     0.035 A 
ATOM      9  C   UNL A   1      29.919  25.547  23.664  1.00  0.00     0.026 A 
ATOM     10  C   UNL A   1      32.266  25.937  23.551  1.00  0.00     0.039 A 
ATOM     11  C   UNL A   1      29.725  26.857  24.118  1.00  0.00     0.003 A 
ATOM     12  C   UNL A   1      30.800  27.745  24.153  1.00  0.00     0.014 A 
BRANCH   8  13
ATOM     13  N   UNL A   1      31.340  23.810  22.793  1.00  0.00    -0.382 N 
ATOM     14  H   UNL A   1      30.743  23.558  22.052  1.00  0.00     0.160 HD
BRANCH  13  15
ATOM     15  C   UNL A   1      32.315  22.815  23.245  1.00  0.00     0.084 C 
ATOM     16  C   UNL A   1      32.173  21.566  22.371  1.00  0.00     0.031 C 
BRANCH  15  17
ATOM     17  C   UNL A   1      32.101  22.530  24.756  1.00  0.00     0.066 C 
ATOM     18  N   UNL A   1      34.528  22.449  25.260  1.00  0.00    -0.335 N 
ATOM     19  C   UNL A   1      34.480  21.038  25.652  1.00  0.00     0.262 C 
ATOM     20  C   UNL A   1      33.257  23.112  25.596  1.00  0.00     0.267 C 
ATOM     21  H   UNL A   1      34.675  22.456  24.252  1.00  0.00     0.348 HD
ATOM     22  C   UNL A   1      33.342  20.309  24.925  1.00  0.00     0.062 C 
ATOM     23  C   UNL A   1      31.998  21.025  25.078  1.00  0.00     0.017 C 
BRANCH  18  24
ATOM     24  C   UNL A   1      35.654  23.193  25.838  1.00  0.00     0.261 C 
BRANCH  24  25
ATOM     25  C   UNL A   1      36.701  23.678  24.825  1.00  0.00     0.058 C 
ATOM     26  C   UNL A   1      36.637  22.954  23.487  1.00  0.00     0.010 C 
ENDBRANCH  24  25
ENDBRANCH  18  24
ENDBRANCH  15  17
ENDBRANCH  13  15
ENDBRANCH   8  13
ENDBRANCH   4   7
ENDBRANCH   2   3
ENDBRANCH   1   2
BRANCH   1  27
ATOM     27  C   UNL A   1      32.200  29.582  27.212  1.00  0.00     0.002 C 
BRANCH  27  28
ATOM     28  C   UNL A   1      31.740  30.639  26.204  1.00  0.00     0.002 C 
BRANCH  28  29
ATOM     29  C   UNL A   1      31.463  32.036  26.761  1.00  0.00     0.021 C 
BRANCH  29  30
ATOM     30  C   UNL A   1      32.677  32.783  27.299  1.00  0.00     0.116 C 
BRANCH  30  31
ATOM     31  N   UNL A   1      32.392  34.170  27.627  1.00  0.00    -0.352 N 
ATOM     32  C   UNL A   1      32.979  34.978  28.574  1.00  0.00     0.251 C 
ATOM     33  H   UNL A   1      31.678  34.591  27.095  1.00  0.00     0.163 HD
ATOM     34  O   UNL A   1      32.529  36.087  28.817  1.00  0.00    -0.269 OA
BRANCH  32  35
ATOM     35  C   UNL A   1      34.155  34.480  29.321  1.00  0.00     0.039 A 
ATOM     36  C   UNL A   1      33.965  33.876  30.568  1.00  0.00     0.014 A 
ATOM     37  C   UNL A   1      35.438  34.597  28.780  1.00  0.00     0.014 A 
ATOM     38  C   UNL A   1      35.059  33.328  31.245  1.00  0.00     0.010 A 
ATOM     39  C   UNL A   1      36.511  33.987  29.419  1.00  0.00     0.010 A 
ATOM     40  C   UNL A   1      36.333  33.351  30.659  1.00  0.00    -0.014 A 
BRANCH  40  41
ATOM     41  C   UNL A   1      37.520  32.753  31.321  1.00  0.00     0.031 A 
ATOM     42  C   UNL A   1      38.226  31.602  30.662  1.00  0.00     0.074 A 
ATOM     43  C   UNL A   1      37.895  33.166  32.546  1.00  0.00     0.049 A 
ATOM     44  N   UNL A   1      39.156  30.814  31.136  1.00  0.00    -0.248 NA
ATOM     45  C   UNL A   1      37.797  31.275  29.293  1.00  0.00     0.031 C 
ATOM     46  C   UNL A   1      37.286  34.266  33.292  1.00  0.00     0.029 A 
ATOM     47  N   UNL A   1      38.869  32.690  33.388  1.00  0.00    -0.354 N 
ATOM     48  C   UNL A   1      39.401  29.882  30.137  1.00  0.00     0.074 A 
ATOM     49  C   UNL A   1      38.485  30.170  29.054  1.00  0.00     0.031 C 
ATOM     50  C   UNL A   1      37.912  34.392  34.475  1.00  0.00     0.029 A 
ATOM     51  C   UNL A   1      38.928  33.350  34.590  1.00  0.00     0.049 A 
ATOM     52  H   UNL A   1      39.470  31.946  33.151  1.00  0.00     0.167 HD
ATOM     53  C   UNL A   1      40.322  28.888  30.116  1.00  0.00     0.037 A 
ATOM     54  C   UNL A   1      39.702  33.124  35.669  1.00  0.00     0.037 A 
ATOM     55  C   UNL A   1      41.242  28.621  31.189  1.00  0.00     0.049 A 
ATOM     56  C   UNL A   1      40.684  31.985  35.645  1.00  0.00     0.074 A 
ATOM     57  C   UNL A   1      42.238  27.664  31.256  1.00  0.00     0.029 A 
ATOM     58  N   UNL A   1      41.272  29.317  32.390  1.00  0.00    -0.354 N 
ATOM     59  N   UNL A   1      40.936  31.128  34.685  1.00  0.00    -0.248 NA
ATOM     60  C   UNL A   1      41.489  31.777  36.857  1.00  0.00     0.031 C 
ATOM     61  C   UNL A   1      42.839  27.749  32.516  1.00  0.00     0.029 A 
ATOM     62  C   UNL A   1      42.259  28.797  33.212  1.00  0.00     0.049 A 
ATOM     63  H   UNL A   1      40.682  30.070  32.622  1.00  0.00     0.167 HD
ATOM     64  C   UNL A   1      41.956  30.312  35.155  1.00  0.00     0.074 A 
ATOM     65  C   UNL A   1      42.272  30.770  36.493  1.00  0.00     0.031 C 
ATOM     66  C   UNL A   1      42.580  29.284  34.530  1.00  0.00     0.037 A 
BRANCH  53  67
ATOM     67  C   UNL A   1      40.358  28.011  28.896  1.00  0.00     0.064 A 
ATOM     68  C   UNL A   1      39.644  26.804  28.833  1.00  0.00     0.173 A 
ATOM     69  C   UNL A   1      41.124  28.376  27.779  1.00  0.00     0.173 A 
ATOM     70  F   UNL A   1      38.904  26.401  29.878  1.00  0.00    -0.203 F 
ATOM     71  C   UNL A   1      39.739  25.971  27.720  1.00  0.00     0.198 A 
ATOM     72  C   UNL A   1      41.185  27.559  26.653  1.00  0.00     0.198 A 
ATOM     73  F   UNL A   1      41.819  29.523  27.780  1.00  0.00    -0.203 F 
ATOM     74  F   UNL A   1      39.110  24.787  27.718  1.00  0.00    -0.200 F 
ATOM     75  C   UNL A   1      40.506  26.351  26.630  1.00  0.00     0.200 A 
ATOM     76  F   UNL A   1      41.915  27.936  25.593  1.00  0.00    -0.200 F 
ATOM     77  F   UNL A   1      40.601  25.545  25.563  1.00  0.00    -0.200 F 
ENDBRANCH  53  67
BRANCH  54  78
ATOM     78  C   UNL A   1      39.603  34.023  36.849  1.00  0.00     0.064 A 
ATOM     79  C   UNL A   1      38.813  33.664  37.951  1.00  0.00     0.173 A 
ATOM     80  C   UNL A   1      40.300  35.237  36.914  1.00  0.00     0.173 A 
ATOM     81  F   UNL A   1      38.112  32.522  37.927  1.00  0.00    -0.203 F 
ATOM     82  C   UNL A   1      38.715  34.493  39.067  1.00  0.00     0.198 A 
ATOM     83  C   UNL A   1      40.222  36.053  38.041  1.00  0.00     0.198 A 
ATOM     84  F   UNL A   1      41.073  35.624  35.888  1.00  0.00    -0.203 F 
ATOM     85  F   UNL A   1      37.925  34.142  40.091  1.00  0.00    -0.200 F 
ATOM     86  C   UNL A   1      39.426  35.682  39.115  1.00  0.00     0.200 A 
ATOM     87  F   UNL A   1      40.922  37.195  38.090  1.00  0.00    -0.200 F 
ATOM     88  F   UNL A   1      39.339  36.474  40.192  1.00  0.00    -0.200 F 
ENDBRANCH  54  78
BRANCH  66  89
ATOM     89  C   UNL A   1      43.720  28.620  35.246  1.00  0.00     0.064 A 
ATOM     90  C   UNL A   1      43.520  27.545  36.123  1.00  0.00     0.173 A 
ATOM     91  C   UNL A   1      45.040  29.015  34.979  1.00  0.00     0.173 A 
ATOM     92  F   UNL A   1      42.276  27.141  36.423  1.00  0.00    -0.203 F 
ATOM     93  C   UNL A   1      44.601  26.895  36.714  1.00  0.00     0.198 A 
ATOM     94  C   UNL A   1      46.119  28.346  35.548  1.00  0.00     0.198 A 
ATOM     95  F   UNL A   1      45.284  30.036  34.142  1.00  0.00    -0.203 F 
ATOM     96  F   UNL A   1      44.387  25.889  37.573  1.00  0.00    -0.200 F 
ATOM     97  C   UNL A   1      45.899  27.288  36.417  1.00  0.00     0.200 A 
ATOM     98  F   UNL A   1      47.371  28.716  35.246  1.00  0.00    -0.200 F 
ATOM     99  F   UNL A   1      46.937  26.647  36.969  1.00  0.00    -0.200 F 
ENDBRANCH  66  89
ENDBRANCH  40  41
ENDBRANCH  32  35
ENDBRANCH  30  31
ENDBRANCH  29  30
ENDBRANCH  28  29
ENDBRANCH  27  28
ENDBRANCH   1  27
TORSDOF 18
ENDMDL
MODEL 3
REMARK VINA RESULT:     -11.2      0.933      1.989
REMARK SMILES CCC[N@H+]1CCC[C@H]([C@@H](C)Nc2cccc(C(=O)NCCCCCCNC(=O)c3ccc(-c4c5nc(c(-c6c(F)c(F)c(F)c(F)c6F)c6ccc([nH]6)c(-c6c(F)c(F)c(F)c(F)c6F)c6nc(c(-c7c(F)c(F)c(F)c(F)c7F)c7ccc4[nH]7)C=C6)C=C5)cc3)c2)C1
REMARK SMILES IDX 21 1 20 2 19 3 17 4 18 5 16 7 12 8 13 9 92 10 14 11 15 12
REMARK SMILES IDX 11 13 9 15 10 16 8 17 4 18 5 19 93 20 6 22 7 23 3 24 2 25
REMARK SMILES IDX 1 26 22 27 23 28 24 29 25 30 26 31 27 32 28 34 29 35 30 36
REMARK SMILES IDX 91 37 31 38 90 39 32 40 33 41 34 42 84 43 35 44 89 45 83 46
REMARK SMILES IDX 85 47 36 48 88 49 82 50 81 51 37 53 69 54 49 55 68 56 50 57
REMARK SMILES IDX 53 58 67 59 86 60 51 61 52 62 66 64 87 65 54 66 38 67 39 68
REMARK SMILES IDX 47 69 40 70 41 71 45 72 48 73 42 74 43 75 46 76 44 77 70 78
REMARK SMILES IDX 71 79 79 80 72 81 73 82 77 83 80 84 74 85 75 86 78 87 76 88
REMARK SMILES IDX 55 89 56 90 64 91 57 92 58 93 62 94 65 95 59 96 60 97 63 98
REMARK SMILES IDX 61 99
REMARK H PARENT 19 6 11 14 4 21 26 33 85 52 53 63
REMARK Flexibility Score: inf
ROOT
ATOM      1  C   UNL A   1      35.355  31.330  27.939  1.00  0.00     0.021 C 
ENDROOT
BRANCH   1   2
ATOM      2  C   UNL A   1      34.871  30.066  27.242  1.00  0.00     0.116 C 
BRANCH   2   3
ATOM      3  N   UNL A   1      33.662  29.477  27.800  1.00  0.00    -0.352 N 
ATOM      4  C   UNL A   1      32.786  28.551  27.265  1.00  0.00     0.251 C 
ATOM      5  O   UNL A   1      31.814  28.202  27.933  1.00  0.00    -0.269 OA
ATOM      6  H   UNL A   1      33.433  29.789  28.705  1.00  0.00     0.163 HD
BRANCH   4   7
ATOM      7  C   UNL A   1      32.948  28.029  25.880  1.00  0.00     0.041 A 
ATOM      8  C   UNL A   1      33.932  26.378  24.385  1.00  0.00     0.035 A 
ATOM      9  C   UNL A   1      33.641  27.227  23.312  1.00  0.00     0.026 A 
ATOM     10  C   UNL A   1      33.443  26.748  25.637  1.00  0.00     0.039 A 
ATOM     11  C   UNL A   1      32.965  28.437  23.506  1.00  0.00     0.003 A 
ATOM     12  C   UNL A   1      32.653  28.859  24.798  1.00  0.00     0.014 A 
BRANCH   8  13
ATOM     13  N   UNL A   1      34.684  25.237  24.177  1.00  0.00    -0.382 N 
ATOM     14  H   UNL A   1      35.313  25.240  23.420  1.00  0.00     0.160 HD
BRANCH  13  15
ATOM     15  C   UNL A   1      34.615  24.025  24.996  1.00  0.00     0.084 C 
ATOM     16  C   UNL A   1      35.979  23.812  25.660  1.00  0.00     0.031 C 
BRANCH  15  17
ATOM     17  C   UNL A   1      34.173  22.828  24.113  1.00  0.00     0.066 C 
ATOM     18  N   UNL A   1      31.763  23.400  24.244  1.00  0.00    -0.335 N 
ATOM     19  C   UNL A   1      31.427  22.162  24.953  1.00  0.00     0.262 C 
ATOM     20  C   UNL A   1      32.890  23.168  23.326  1.00  0.00     0.267 C 
ATOM     21  H   UNL A   1      32.026  24.073  24.963  1.00  0.00     0.348 HD
ATOM     22  C   UNL A   1      32.626  21.659  25.768  1.00  0.00     0.062 C 
ATOM     23  C   UNL A   1      33.900  21.546  24.926  1.00  0.00     0.017 C 
BRANCH  18  24
ATOM     24  C   UNL A   1      30.636  24.000  23.520  1.00  0.00     0.261 C 
BRANCH  24  25
ATOM     25  C   UNL A   1      30.484  25.517  23.697  1.00  0.00     0.058 C 
ATOM     26  C   UNL A   1      29.869  25.918  25.031  1.00  0.00     0.010 C 
ENDBRANCH  24  25
ENDBRANCH  18  24
ENDBRANCH  15  17
ENDBRANCH  13  15
ENDBRANCH   8  13
ENDBRANCH   4   7
ENDBRANCH   2   3
ENDBRANCH   1   2
BRANCH   1  27
ATOM     27  C   UNL A   1      34.306  32.136  28.701  1.00  0.00     0.002 C 
BRANCH  27  28
ATOM     28  C   UNL A   1      34.506  33.654  28.737  1.00  0.00     0.002 C 
BRANCH  28  29
ATOM     29  C   UNL A   1      33.239  34.505  28.833  1.00  0.00     0.021 C 
BRANCH  29  30
ATOM     30  C   UNL A   1      33.443  35.940  29.304  1.00  0.00     0.116 C 
BRANCH  30  31
ATOM     31  N   UNL A   1      32.533  36.324  30.370  1.00  0.00    -0.352 N 
ATOM     32  C   UNL A   1      32.546  35.960  31.697  1.00  0.00     0.251 C 
ATOM     33  H   UNL A   1      31.804  36.930  30.104  1.00  0.00     0.163 HD
ATOM     34  O   UNL A   1      31.625  36.264  32.439  1.00  0.00    -0.269 OA
BRANCH  32  35
ATOM     35  C   UNL A   1      33.683  35.170  32.219  1.00  0.00     0.039 A 
ATOM     36  C   UNL A   1      33.457  33.866  32.669  1.00  0.00     0.014 A 
ATOM     37  C   UNL A   1      34.969  35.715  32.248  1.00  0.00     0.014 A 
ATOM     38  C   UNL A   1      34.536  33.081  33.087  1.00  0.00     0.010 A 
ATOM     39  C   UNL A   1      36.049  34.910  32.593  1.00  0.00     0.010 A 
ATOM     40  C   UNL A   1      35.843  33.588  33.020  1.00  0.00    -0.014 A 
BRANCH  40  41
ATOM     41  C   UNL A   1      37.025  32.784  33.419  1.00  0.00     0.031 A 
ATOM     42  C   UNL A   1      37.700  33.072  34.730  1.00  0.00     0.074 A 
ATOM     43  C   UNL A   1      37.551  31.879  32.572  1.00  0.00     0.049 A 
ATOM     44  N   UNL A   1      38.839  32.630  35.196  1.00  0.00    -0.248 NA
ATOM     45  C   UNL A   1      37.009  34.016  35.622  1.00  0.00     0.031 C 
ATOM     46  C   UNL A   1      36.994  31.516  31.270  1.00  0.00     0.029 A 
ATOM     47  N   UNL A   1      38.687  31.118  32.674  1.00  0.00    -0.354 N 
ATOM     48  C   UNL A   1      39.016  33.264  36.418  1.00  0.00     0.074 A 
ATOM     49  C   UNL A   1      37.893  34.161  36.596  1.00  0.00     0.031 C 
ATOM     50  C   UNL A   1      37.782  30.588  30.700  1.00  0.00     0.029 A 
ATOM     51  C   UNL A   1      38.924  30.332  31.573  1.00  0.00     0.049 A 
ATOM     52  H   UNL A   1      39.278  31.132  33.463  1.00  0.00     0.167 HD
ATOM     53  C   UNL A   1      40.013  33.099  37.320  1.00  0.00     0.037 A 
ATOM     54  C   UNL A   1      39.957  29.513  31.295  1.00  0.00     0.037 A 
ATOM     55  C   UNL A   1      41.114  32.191  37.143  1.00  0.00     0.049 A 
ATOM     56  C   UNL A   1      41.079  29.379  32.288  1.00  0.00     0.074 A 
ATOM     57  C   UNL A   1      42.158  31.919  38.009  1.00  0.00     0.029 A 
ATOM     58  N   UNL A   1      41.315  31.408  36.015  1.00  0.00    -0.354 N 
ATOM     59  N   UNL A   1      41.223  29.955  33.457  1.00  0.00    -0.248 NA
ATOM     60  C   UNL A   1      42.186  28.485  31.922  1.00  0.00     0.031 C 
ATOM     61  C   UNL A   1      43.016  31.008  37.384  1.00  0.00     0.029 A 
ATOM     62  C   UNL A   1      42.477  30.666  36.154  1.00  0.00     0.049 A 
ATOM     63  H   UNL A   1      40.719  31.382  35.231  1.00  0.00     0.167 HD
ATOM     64  C   UNL A   1      42.407  29.460  33.985  1.00  0.00     0.074 A 
ATOM     65  C   UNL A   1      42.950  28.541  33.005  1.00  0.00     0.031 C 
ATOM     66  C   UNL A   1      42.987  29.734  35.180  1.00  0.00     0.037 A 
BRANCH  53  67
ATOM     67  C   UNL A   1      39.956  33.936  38.567  1.00  0.00     0.064 A 
ATOM     68  C   UNL A   1      39.240  33.522  39.702  1.00  0.00     0.173 A 
ATOM     69  C   UNL A   1      40.617  35.171  38.627  1.00  0.00     0.173 A 
ATOM     70  F   UNL A   1      38.580  32.354  39.696  1.00  0.00    -0.203 F 
ATOM     71  C   UNL A   1      39.143  34.338  40.827  1.00  0.00     0.198 A 
ATOM     72  C   UNL A   1      40.550  35.967  39.767  1.00  0.00     0.198 A 
ATOM     73  F   UNL A   1      41.324  35.612  37.575  1.00  0.00    -0.203 F 
ATOM     74  F   UNL A   1      38.389  33.955  41.866  1.00  0.00    -0.200 F 
ATOM     75  C   UNL A   1      39.802  35.558  40.860  1.00  0.00     0.200 A 
ATOM     76  F   UNL A   1      41.201  37.139  39.803  1.00  0.00    -0.200 F 
ATOM     77  F   UNL A   1      39.703  36.344  41.940  1.00  0.00    -0.200 F 
ENDBRANCH  53  67
BRANCH  54  78
ATOM     78  C   UNL A   1      39.955  28.726  30.034  1.00  0.00     0.064 A 
ATOM     79  C   UNL A   1      40.542  29.246  28.871  1.00  0.00     0.173 A 
ATOM     80  C   UNL A   1      39.391  27.444  29.963  1.00  0.00     0.173 A 
ATOM     81  F   UNL A   1      41.076  30.475  28.884  1.00  0.00    -0.203 F 
ATOM     82  C   UNL A   1      40.554  28.519  27.683  1.00  0.00     0.198 A 
ATOM     83  C   UNL A   1      39.427  26.707  28.781  1.00  0.00     0.198 A 
ATOM     84  F   UNL A   1      38.821  26.900  31.048  1.00  0.00    -0.203 F 
ATOM     85  F   UNL A   1      41.091  29.054  26.578  1.00  0.00    -0.200 F 
ATOM     86  C   UNL A   1      40.004  27.247  27.641  1.00  0.00     0.200 A 
ATOM     87  F   UNL A   1      38.907  25.472  28.747  1.00  0.00    -0.200 F 
ATOM     88  F   UNL A   1      40.025  26.543  26.500  1.00  0.00    -0.200 F 
ENDBRANCH  54  78
BRANCH  66  89
ATOM     89  C   UNL A   1      44.238  28.985  35.539  1.00  0.00     0.064 A 
ATOM     90  C   UNL A   1      45.513  29.495  35.259  1.00  0.00     0.173 A 
ATOM     91  C   UNL A   1      44.151  27.779  36.250  1.00  0.00     0.173 A 
ATOM     92  F   UNL A   1      45.648  30.636  34.566  1.00  0.00    -0.203 F 
ATOM     93  C   UNL A   1      46.658  28.818  35.672  1.00  0.00     0.198 A 
ATOM     94  C   UNL A   1      45.296  27.120  36.687  1.00  0.00     0.198 A 
ATOM     95  F   UNL A   1      42.952  27.253  36.547  1.00  0.00    -0.203 F 
ATOM     96  F   UNL A   1      47.869  29.306  35.369  1.00  0.00    -0.200 F 
ATOM     97  C   UNL A   1      46.549  27.638  36.396  1.00  0.00     0.200 A 
ATOM     98  F   UNL A   1      45.188  25.990  37.400  1.00  0.00    -0.200 F 
ATOM     99  F   UNL A   1      47.652  27.001  36.811  1.00  0.00    -0.200 F 
ENDBRANCH  66  89
ENDBRANCH  40  41
ENDBRANCH  32  35
ENDBRANCH  30  31
ENDBRANCH  29  30
ENDBRANCH  28  29
ENDBRANCH  27  28
ENDBRANCH   1  27
TORSDOF 18
ENDMDL
