MODEL 1
REMARK VINA RESULT:     -12.1      0.000      0.000
REMARK SMILES COc1cccc(N2C(=O)C[C@@H](SC[C@@H](NC(C)=O)C(=O)NCCCCCCNC(=O)c3ccc(-c4c5nc(c(-c6c(F)c(F)c(F)c(F)c6F)c6ccc([nH]6)c(-c6c(F)c(F)c(F)c(F)c6F)c6nc(c(-c7c(F)c(F)c(F)c(F)c7F)c7ccc4[nH]7)C=C6)C=C5)cc3)C2=O)c1
REMARK SMILES IDX 24 1 23 2 22 3 20 4 21 5 15 7 14 8 13 9 12 10 8 11 9 12
REMARK SMILES IDX 95 13 10 14 11 15 96 16 7 17 3 18 4 19 97 20 5 21 6 22 2 23
REMARK SMILES IDX 1 24 16 25 17 26 18 28 19 29 25 30 26 31 27 32 28 33 29 34
REMARK SMILES IDX 30 35 31 37 32 38 33 39 94 40 34 41 93 42 35 43 36 44 37 45
REMARK SMILES IDX 87 46 38 47 92 48 86 49 88 50 39 51 91 52 85 53 84 54 40 56
REMARK SMILES IDX 72 57 52 58 71 59 53 60 56 61 70 62 89 63 54 64 55 65 69 67
REMARK SMILES IDX 90 68 57 69 41 70 42 71 50 72 43 73 44 74 48 75 51 76 45 77
REMARK SMILES IDX 46 78 49 79 47 80 73 81 74 82 82 83 75 84 76 85 80 86 83 87
REMARK SMILES IDX 77 88 78 89 81 90 79 91 58 92 59 93 67 94 60 95 61 96 65 97
REMARK SMILES IDX 68 98 62 99 63 100 66 101 64 102
REMARK H PARENT 22 6 16 27 29 36 88 55 56 66
REMARK Flexibility Score: inf
ROOT
ATOM      1  C   UNL A   1      36.754  23.045  24.243  1.00  0.00     0.021 C 
ENDROOT
BRANCH   1   2
ATOM      2  C   UNL A   1      35.252  23.007  24.508  1.00  0.00     0.116 C 
BRANCH   2   3
ATOM      3  N   UNL A   1      34.997  23.021  25.932  1.00  0.00    -0.354 N 
ATOM      4  C   UNL A   1      34.212  22.213  26.695  1.00  0.00     0.243 C 
ATOM      5  O   UNL A   1      34.094  22.495  27.892  1.00  0.00    -0.273 OA
ATOM      6  H   UNL A   1      35.467  23.729  26.430  1.00  0.00     0.163 HD
BRANCH   4   7
ATOM      7  C   UNL A   1      33.345  21.098  26.070  1.00  0.00     0.181 C 
BRANCH   7   8
ATOM      8  C   UNL A   1      32.320  21.808  25.145  1.00  0.00     0.105 C 
BRANCH   8   9
ATOM      9  S   UNL A   1      31.106  22.922  25.933  1.00  0.00    -0.145 SA
BRANCH   9  10
ATOM     10  C   UNL A   1      30.861  24.235  24.683  1.00  0.00     0.146 C 
ATOM     11  N   UNL A   1      31.648  26.437  24.798  1.00  0.00    -0.249 N 
ATOM     12  C   UNL A   1      32.190  25.913  23.651  1.00  0.00     0.235 C 
ATOM     13  C   UNL A   1      30.798  25.554  25.413  1.00  0.00     0.247 C 
ATOM     14  O   UNL A   1      32.802  26.484  22.764  1.00  0.00    -0.274 OA
ATOM     15  C   UNL A   1      31.960  24.423  23.657  1.00  0.00     0.125 C 
ATOM     16  O   UNL A   1      29.995  25.788  26.309  1.00  0.00    -0.273 OA
BRANCH  11  17
ATOM     17  C   UNL A   1      31.816  27.757  25.267  1.00  0.00     0.055 A 
ATOM     18  C   UNL A   1      32.885  29.404  26.672  1.00  0.00     0.120 A 
ATOM     19  C   UNL A   1      32.107  30.414  26.108  1.00  0.00     0.046 A 
ATOM     20  C   UNL A   1      32.702  28.069  26.302  1.00  0.00     0.073 A 
ATOM     21  C   UNL A   1      31.199  30.106  25.102  1.00  0.00     0.006 A 
ATOM     22  C   UNL A   1      31.077  28.789  24.664  1.00  0.00     0.027 A 
BRANCH  18  23
ATOM     23  O   UNL A   1      33.803  29.784  27.614  1.00  0.00    -0.497 OA
ATOM     24  C   UNL A   1      33.934  31.205  27.682  1.00  0.00     0.278 C 
ENDBRANCH  18  23
ENDBRANCH  11  17
ENDBRANCH   9  10
ENDBRANCH   8   9
ENDBRANCH   7   8
BRANCH   7  25
ATOM     25  N   UNL A   1      34.048  20.010  25.372  1.00  0.00    -0.344 N 
ATOM     26  C   UNL A   1      33.498  18.814  24.978  1.00  0.00     0.217 C 
ATOM     27  H   UNL A   1      35.000  20.153  25.169  1.00  0.00     0.164 HD
ATOM     28  C   UNL A   1      34.495  17.894  24.314  1.00  0.00     0.114 C 
ATOM     29  O   UNL A   1      32.350  18.457  25.205  1.00  0.00    -0.275 OA
ENDBRANCH   7  25
ENDBRANCH   4   7
ENDBRANCH   2   3
ENDBRANCH   1   2
BRANCH   1  30
ATOM     30  C   UNL A   1      37.538  22.011  25.058  1.00  0.00     0.002 C 
BRANCH  30  31
ATOM     31  C   UNL A   1      37.283  20.555  24.652  1.00  0.00     0.002 C 
BRANCH  31  32
ATOM     32  C   UNL A   1      38.205  19.529  25.316  1.00  0.00     0.021 C 
BRANCH  32  33
ATOM     33  C   UNL A   1      39.569  20.077  25.729  1.00  0.00     0.116 C 
BRANCH  33  34
ATOM     34  N   UNL A   1      40.560  19.024  25.873  1.00  0.00    -0.352 N 
ATOM     35  C   UNL A   1      41.910  19.126  26.092  1.00  0.00     0.251 C 
ATOM     36  H   UNL A   1      40.213  18.105  25.803  1.00  0.00     0.163 HD
ATOM     37  O   UNL A   1      42.631  18.138  26.007  1.00  0.00    -0.269 OA
BRANCH  35  38
ATOM     38  C   UNL A   1      42.500  20.442  26.409  1.00  0.00     0.039 A 
ATOM     39  C   UNL A   1      43.120  21.165  25.388  1.00  0.00     0.014 A 
ATOM     40  C   UNL A   1      42.434  20.961  27.706  1.00  0.00     0.014 A 
ATOM     41  C   UNL A   1      43.618  22.441  25.652  1.00  0.00     0.010 A 
ATOM     42  C   UNL A   1      42.879  22.256  27.954  1.00  0.00     0.010 A 
ATOM     43  C   UNL A   1      43.466  23.010  26.926  1.00  0.00    -0.014 A 
BRANCH  43  44
ATOM     44  C   UNL A   1      43.884  24.408  27.194  1.00  0.00     0.031 A 
ATOM     45  C   UNL A   1      42.876  25.432  27.632  1.00  0.00     0.074 A 
ATOM     46  C   UNL A   1      45.162  24.767  26.968  1.00  0.00     0.049 A 
ATOM     47  N   UNL A   1      43.039  26.714  27.841  1.00  0.00    -0.248 NA
ATOM     48  C   UNL A   1      41.500  24.957  27.840  1.00  0.00     0.031 C 
ATOM     49  C   UNL A   1      46.218  23.871  26.497  1.00  0.00     0.029 A 
ATOM     50  N   UNL A   1      45.786  25.983  27.091  1.00  0.00    -0.354 N 
ATOM     51  C   UNL A   1      41.788  27.200  28.194  1.00  0.00     0.074 A 
ATOM     52  C   UNL A   1      40.866  26.086  28.127  1.00  0.00     0.031 C 
ATOM     53  C   UNL A   1      47.363  24.563  26.383  1.00  0.00     0.029 A 
ATOM     54  C   UNL A   1      47.113  25.956  26.738  1.00  0.00     0.049 A 
ATOM     55  H   UNL A   1      45.327  26.796  27.402  1.00  0.00     0.167 HD
ATOM     56  C   UNL A   1      41.446  28.458  28.560  1.00  0.00     0.037 A 
ATOM     57  C   UNL A   1      48.023  26.949  26.694  1.00  0.00     0.037 A 
ATOM     58  C   UNL A   1      42.371  29.558  28.648  1.00  0.00     0.049 A 
ATOM     59  C   UNL A   1      47.611  28.340  27.090  1.00  0.00     0.074 A 
ATOM     60  C   UNL A   1      42.138  30.849  29.088  1.00  0.00     0.029 A 
ATOM     61  N   UNL A   1      43.708  29.495  28.282  1.00  0.00    -0.354 N 
ATOM     62  N   UNL A   1      46.442  28.772  27.495  1.00  0.00    -0.248 NA
ATOM     63  C   UNL A   1      48.646  29.380  27.021  1.00  0.00     0.031 C 
ATOM     64  C   UNL A   1      43.323  31.579  28.944  1.00  0.00     0.029 A 
ATOM     65  C   UNL A   1      44.304  30.733  28.455  1.00  0.00     0.049 A 
ATOM     66  H   UNL A   1      44.165  28.689  27.949  1.00  0.00     0.167 HD
ATOM     67  C   UNL A   1      46.602  30.128  27.742  1.00  0.00     0.074 A 
ATOM     68  C   UNL A   1      47.988  30.443  27.462  1.00  0.00     0.031 C 
ATOM     69  C   UNL A   1      45.682  31.031  28.161  1.00  0.00     0.037 A 
BRANCH  56  70
ATOM     70  C   UNL A   1      40.007  28.716  28.898  1.00  0.00     0.064 A 
ATOM     71  C   UNL A   1      39.104  29.202  27.942  1.00  0.00     0.173 A 
ATOM     72  C   UNL A   1      39.516  28.432  30.182  1.00  0.00     0.173 A 
ATOM     73  F   UNL A   1      39.526  29.498  26.704  1.00  0.00    -0.203 F 
ATOM     74  C   UNL A   1      37.766  29.418  28.265  1.00  0.00     0.198 A 
ATOM     75  C   UNL A   1      38.173  28.625  30.493  1.00  0.00     0.198 A 
ATOM     76  F   UNL A   1      40.337  27.961  31.131  1.00  0.00    -0.203 F 
ATOM     77  F   UNL A   1      36.930  29.923  27.347  1.00  0.00    -0.200 F 
ATOM     78  C   UNL A   1      37.301  29.123  29.537  1.00  0.00     0.200 A 
ATOM     79  F   UNL A   1      37.722  28.328  31.720  1.00  0.00    -0.200 F 
ATOM     80  F   UNL A   1      36.012  29.325  29.844  1.00  0.00    -0.200 F 
ENDBRANCH  56  70
BRANCH  57  81
ATOM     81  C   UNL A   1      49.414  26.656  26.268  1.00  0.00     0.064 A 
ATOM     82  C   UNL A   1      50.367  26.202  27.190  1.00  0.00     0.173 A 
ATOM     83  C   UNL A   1      49.820  26.819  24.935  1.00  0.00     0.173 A 
ATOM     84  F   UNL A   1      50.031  26.051  28.480  1.00  0.00    -0.203 F 
ATOM     85  C   UNL A   1      51.677  25.936  26.799  1.00  0.00     0.198 A 
ATOM     86  C   UNL A   1      51.124  26.528  24.540  1.00  0.00     0.198 A 
ATOM     87  F   UNL A   1      48.944  27.247  24.014  1.00  0.00    -0.203 F 
ATOM     88  F   UNL A   1      52.578  25.540  27.707  1.00  0.00    -0.200 F 
ATOM     89  C   UNL A   1      52.053  26.093  25.472  1.00  0.00     0.200 A 
ATOM     90  F   UNL A   1      51.478  26.667  23.255  1.00  0.00    -0.200 F 
ATOM     91  F   UNL A   1      53.311  25.831  25.095  1.00  0.00    -0.200 F 
ENDBRANCH  57  81
BRANCH  69  92
ATOM     92  C   UNL A   1      46.148  32.446  28.341  1.00  0.00     0.064 A 
ATOM     93  C   UNL A   1      46.694  32.885  29.556  1.00  0.00     0.173 A 
ATOM     94  C   UNL A   1      46.080  33.361  27.279  1.00  0.00     0.173 A 
ATOM     95  F   UNL A   1      46.762  32.052  30.605  1.00  0.00    -0.203 F 
ATOM     96  C   UNL A   1      47.138  34.196  29.706  1.00  0.00     0.198 A 
ATOM     97  C   UNL A   1      46.550  34.662  27.425  1.00  0.00     0.198 A 
ATOM     98  F   UNL A   1      45.570  32.987  26.096  1.00  0.00    -0.203 F 
ATOM     99  F   UNL A   1      47.616  34.607  30.889  1.00  0.00    -0.200 F 
ATOM    100  C   UNL A   1      47.073  35.081  28.640  1.00  0.00     0.200 A 
ATOM    101  F   UNL A   1      46.496  35.513  26.392  1.00  0.00    -0.200 F 
ATOM    102  F   UNL A   1      47.506  36.341  28.787  1.00  0.00    -0.200 F 
ENDBRANCH  69  92
ENDBRANCH  43  44
ENDBRANCH  35  38
ENDBRANCH  33  34
ENDBRANCH  32  33
ENDBRANCH  31  32
ENDBRANCH  30  31
ENDBRANCH   1  30
TORSDOF 19
ENDMDL
MODEL 2
REMARK VINA RESULT:     -12.1      5.568     11.400
REMARK SMILES COc1cccc(N2C(=O)C[C@@H](SC[C@@H](NC(C)=O)C(=O)NCCCCCCNC(=O)c3ccc(-c4c5nc(c(-c6c(F)c(F)c(F)c(F)c6F)c6ccc([nH]6)c(-c6c(F)c(F)c(F)c(F)c6F)c6nc(c(-c7c(F)c(F)c(F)c(F)c7F)c7ccc4[nH]7)C=C6)C=C5)cc3)C2=O)c1
REMARK SMILES IDX 24 1 23 2 22 3 20 4 21 5 15 7 14 8 13 9 12 10 8 11 9 12
REMARK SMILES IDX 95 13 10 14 11 15 96 16 7 17 3 18 4 19 97 20 5 21 6 22 2 23
REMARK SMILES IDX 1 24 16 25 17 26 18 28 19 29 25 30 26 31 27 32 28 33 29 34
REMARK SMILES IDX 30 35 31 37 32 38 33 39 94 40 34 41 93 42 35 43 36 44 37 45
REMARK SMILES IDX 87 46 38 47 92 48 86 49 88 50 39 51 91 52 85 53 84 54 40 56
REMARK SMILES IDX 72 57 52 58 71 59 53 60 56 61 70 62 89 63 54 64 55 65 69 67
REMARK SMILES IDX 90 68 57 69 41 70 42 71 50 72 43 73 44 74 48 75 51 76 45 77
REMARK SMILES IDX 46 78 49 79 47 80 73 81 74 82 82 83 75 84 76 85 80 86 83 87
REMARK SMILES IDX 77 88 78 89 81 90 79 91 58 92 59 93 67 94 60 95 61 96 65 97
REMARK SMILES IDX 68 98 62 99 63 100 66 101 64 102
REMARK H PARENT 22 6 16 27 29 36 88 55 56 66
REMARK Flexibility Score: inf
ROOT
ATOM      1  C   UNL A   1      33.095  29.234  26.951  1.00  0.00     0.021 C 
ENDROOT
BRANCH   1   2
ATOM      2  C   UNL A   1      32.499  29.689  25.622  1.00  0.00     0.116 C 
BRANCH   2   3
ATOM      3  N   UNL A   1      33.417  29.400  24.541  1.00  0.00    -0.354 N 
ATOM      4  C   UNL A   1      33.175  28.981  23.268  1.00  0.00     0.243 C 
ATOM      5  O   UNL A   1      34.151  28.716  22.559  1.00  0.00    -0.273 OA
ATOM      6  H   UNL A   1      34.368  29.525  24.760  1.00  0.00     0.163 HD
BRANCH   4   7
ATOM      7  C   UNL A   1      31.746  28.661  22.776  1.00  0.00     0.181 C 
BRANCH   7   8
ATOM      8  C   UNL A   1      31.497  27.164  23.101  1.00  0.00     0.105 C 
BRANCH   8   9
ATOM      9  S   UNL A   1      30.765  26.766  24.726  1.00  0.00    -0.145 SA
BRANCH   9  10
ATOM     10  C   UNL A   1      32.013  25.673  25.498  1.00  0.00     0.146 C 
ATOM     11  N   UNL A   1      32.684  23.565  24.734  1.00  0.00    -0.249 N 
ATOM     12  C   UNL A   1      33.827  24.326  24.761  1.00  0.00     0.235 C 
ATOM     13  C   UNL A   1      31.601  24.248  25.225  1.00  0.00     0.247 C 
ATOM     14  O   UNL A   1      34.984  23.975  24.606  1.00  0.00    -0.274 OA
ATOM     15  C   UNL A   1      33.429  25.765  24.970  1.00  0.00     0.125 C 
ATOM     16  O   UNL A   1      30.509  23.790  25.544  1.00  0.00    -0.273 OA
BRANCH  11  17
ATOM     17  C   UNL A   1      32.603  22.204  24.370  1.00  0.00     0.055 A 
ATOM     18  C   UNL A   1      32.661  19.847  24.892  1.00  0.00     0.120 A 
ATOM     19  C   UNL A   1      32.382  19.530  23.563  1.00  0.00     0.046 A 
ATOM     20  C   UNL A   1      32.834  21.176  25.289  1.00  0.00     0.073 A 
ATOM     21  C   UNL A   1      32.185  20.546  22.636  1.00  0.00     0.006 A 
ATOM     22  C   UNL A   1      32.265  21.875  23.046  1.00  0.00     0.027 A 
BRANCH  18  23
ATOM     23  O   UNL A   1      32.784  18.799  25.765  1.00  0.00    -0.497 OA
ATOM     24  C   UNL A   1      32.504  17.549  25.133  1.00  0.00     0.278 C 
ENDBRANCH  18  23
ENDBRANCH  11  17
ENDBRANCH   9  10
ENDBRANCH   8   9
ENDBRANCH   7   8
BRANCH   7  25
ATOM     25  N   UNL A   1      30.656  29.517  23.272  1.00  0.00    -0.344 N 
ATOM     26  C   UNL A   1      29.588  29.973  22.537  1.00  0.00     0.217 C 
ATOM     27  H   UNL A   1      30.697  29.787  24.218  1.00  0.00     0.164 HD
ATOM     28  C   UNL A   1      28.660  30.861  23.331  1.00  0.00     0.114 C 
ATOM     29  O   UNL A   1      29.421  29.779  21.341  1.00  0.00    -0.275 OA
ENDBRANCH   7  25
ENDBRANCH   4   7
ENDBRANCH   2   3
ENDBRANCH   1   2
BRANCH   1  30
ATOM     30  C   UNL A   1      34.468  29.849  27.240  1.00  0.00     0.002 C 
BRANCH  30  31
ATOM     31  C   UNL A   1      34.426  31.144  28.061  1.00  0.00     0.002 C 
BRANCH  31  32
ATOM     32  C   UNL A   1      33.905  32.369  27.305  1.00  0.00     0.021 C 
BRANCH  32  33
ATOM     33  C   UNL A   1      32.487  32.790  27.680  1.00  0.00     0.116 C 
BRANCH  33  34
ATOM     34  N   UNL A   1      32.366  34.230  27.833  1.00  0.00    -0.352 N 
ATOM     35  C   UNL A   1      33.055  35.077  28.663  1.00  0.00     0.251 C 
ATOM     36  H   UNL A   1      31.691  34.660  27.259  1.00  0.00     0.163 HD
ATOM     37  O   UNL A   1      32.700  36.243  28.796  1.00  0.00    -0.269 OA
BRANCH  35  38
ATOM     38  C   UNL A   1      34.218  34.570  29.418  1.00  0.00     0.039 A 
ATOM     39  C   UNL A   1      33.998  33.902  30.625  1.00  0.00     0.014 A 
ATOM     40  C   UNL A   1      35.518  34.750  28.935  1.00  0.00     0.014 A 
ATOM     41  C   UNL A   1      35.079  33.352  31.315  1.00  0.00     0.010 A 
ATOM     42  C   UNL A   1      36.588  34.152  29.593  1.00  0.00     0.010 A 
ATOM     43  C   UNL A   1      36.376  33.440  30.784  1.00  0.00    -0.014 A 
BRANCH  43  44
ATOM     44  C   UNL A   1      37.519  32.764  31.444  1.00  0.00     0.031 A 
ATOM     45  C   UNL A   1      38.189  31.591  30.788  1.00  0.00     0.074 A 
ATOM     46  C   UNL A   1      37.901  33.165  32.671  1.00  0.00     0.049 A 
ATOM     47  N   UNL A   1      39.151  30.829  31.243  1.00  0.00    -0.248 NA
ATOM     48  C   UNL A   1      37.699  31.211  29.455  1.00  0.00     0.031 C 
ATOM     49  C   UNL A   1      37.294  34.261  33.427  1.00  0.00     0.029 A 
ATOM     50  N   UNL A   1      38.881  32.688  33.505  1.00  0.00    -0.354 N 
ATOM     51  C   UNL A   1      39.372  29.874  30.261  1.00  0.00     0.074 A 
ATOM     52  C   UNL A   1      38.415  30.124  29.204  1.00  0.00     0.031 C 
ATOM     53  C   UNL A   1      37.924  34.383  34.607  1.00  0.00     0.029 A 
ATOM     54  C   UNL A   1      38.952  33.352  34.705  1.00  0.00     0.049 A 
ATOM     55  H   UNL A   1      39.477  31.941  33.266  1.00  0.00     0.167 HD
ATOM     56  C   UNL A   1      40.305  28.892  30.236  1.00  0.00     0.037 A 
ATOM     57  C   UNL A   1      39.750  33.144  35.770  1.00  0.00     0.037 A 
ATOM     58  C   UNL A   1      41.270  28.663  31.279  1.00  0.00     0.049 A 
ATOM     59  C   UNL A   1      40.765  32.035  35.721  1.00  0.00     0.074 A 
ATOM     60  C   UNL A   1      42.307  27.747  31.309  1.00  0.00     0.029 A 
ATOM     61  N   UNL A   1      41.312  29.355  32.480  1.00  0.00    -0.354 N 
ATOM     62  N   UNL A   1      41.016  31.187  34.755  1.00  0.00    -0.248 NA
ATOM     63  C   UNL A   1      41.605  31.856  36.913  1.00  0.00     0.031 C 
ATOM     64  C   UNL A   1      42.948  27.853  32.548  1.00  0.00     0.029 A 
ATOM     65  C   UNL A   1      42.337  28.863  33.273  1.00  0.00     0.049 A 
ATOM     66  H   UNL A   1      40.704  30.087  32.733  1.00  0.00     0.167 HD
ATOM     67  C   UNL A   1      42.050  30.383  35.213  1.00  0.00     0.074 A 
ATOM     68  C   UNL A   1      42.394  30.859  36.537  1.00  0.00     0.031 C 
ATOM     69  C   UNL A   1      42.658  29.342  34.593  1.00  0.00     0.037 A 
BRANCH  56  70
ATOM     70  C   UNL A   1      40.330  27.990  29.037  1.00  0.00     0.064 A 
ATOM     71  C   UNL A   1      41.064  28.317  27.888  1.00  0.00     0.173 A 
ATOM     72  C   UNL A   1      39.648  26.764  29.055  1.00  0.00     0.173 A 
ATOM     73  F   UNL A   1      41.725  29.483  27.817  1.00  0.00    -0.203 F 
ATOM     74  C   UNL A   1      41.094  27.461  26.789  1.00  0.00     0.198 A 
ATOM     75  C   UNL A   1      39.702  25.899  27.965  1.00  0.00     0.198 A 
ATOM     76  F   UNL A   1      38.936  26.402  30.132  1.00  0.00    -0.203 F 
ATOM     77  F   UNL A   1      41.767  27.813  25.685  1.00  0.00    -0.200 F 
ATOM     78  C   UNL A   1      40.419  26.251  26.832  1.00  0.00     0.200 A 
ATOM     79  F   UNL A   1      39.059  24.724  28.012  1.00  0.00    -0.200 F 
ATOM     80  F   UNL A   1      40.455  25.424  25.777  1.00  0.00    -0.200 F 
ENDBRANCH  56  70
BRANCH  57  81
ATOM     81  C   UNL A   1      39.625  34.012  36.967  1.00  0.00     0.064 A 
ATOM     82  C   UNL A   1      40.282  35.248  37.030  1.00  0.00     0.173 A 
ATOM     83  C   UNL A   1      38.845  33.629  38.069  1.00  0.00     0.173 A 
ATOM     84  F   UNL A   1      41.054  35.647  36.008  1.00  0.00    -0.203 F 
ATOM     85  C   UNL A   1      40.176  36.063  38.155  1.00  0.00     0.198 A 
ATOM     86  C   UNL A   1      38.720  34.457  39.183  1.00  0.00     0.198 A 
ATOM     87  F   UNL A   1      38.193  32.458  38.057  1.00  0.00    -0.203 F 
ATOM     88  F   UNL A   1      40.845  37.223  38.204  1.00  0.00    -0.200 F 
ATOM     89  C   UNL A   1      39.390  35.670  39.228  1.00  0.00     0.200 A 
ATOM     90  F   UNL A   1      37.948  34.080  40.212  1.00  0.00    -0.200 F 
ATOM     91  F   UNL A   1      39.284  36.456  40.307  1.00  0.00    -0.200 F 
ENDBRANCH  57  81
BRANCH  69  92
ATOM     92  C   UNL A   1      43.757  28.648  35.343  1.00  0.00     0.064 A 
ATOM     93  C   UNL A   1      43.484  27.603  36.237  1.00  0.00     0.173 A 
ATOM     94  C   UNL A   1      45.098  29.008  35.139  1.00  0.00     0.173 A 
ATOM     95  F   UNL A   1      42.216  27.236  36.478  1.00  0.00    -0.203 F 
ATOM     96  C   UNL A   1      44.513  26.956  36.914  1.00  0.00     0.198 A 
ATOM     97  C   UNL A   1      46.126  28.341  35.797  1.00  0.00     0.198 A 
ATOM     98  F   UNL A   1      45.411  30.000  34.290  1.00  0.00    -0.203 F 
ATOM     99  F   UNL A   1      44.227  25.988  37.797  1.00  0.00    -0.200 F 
ATOM    100  C   UNL A   1      45.833  27.319  36.689  1.00  0.00     0.200 A 
ATOM    101  F   UNL A   1      47.400  28.686  35.571  1.00  0.00    -0.200 F 
ATOM    102  F   UNL A   1      46.822  26.691  37.339  1.00  0.00    -0.200 F 
ENDBRANCH  69  92
ENDBRANCH  43  44
ENDBRANCH  35  38
ENDBRANCH  33  34
ENDBRANCH  32  33
ENDBRANCH  31  32
ENDBRANCH  30  31
ENDBRANCH   1  30
TORSDOF 19
ENDMDL
MODEL 3
REMARK VINA RESULT:     -12.1      1.109      4.457
REMARK SMILES COc1cccc(N2C(=O)C[C@@H](SC[C@@H](NC(C)=O)C(=O)NCCCCCCNC(=O)c3ccc(-c4c5nc(c(-c6c(F)c(F)c(F)c(F)c6F)c6ccc([nH]6)c(-c6c(F)c(F)c(F)c(F)c6F)c6nc(c(-c7c(F)c(F)c(F)c(F)c7F)c7ccc4[nH]7)C=C6)C=C5)cc3)C2=O)c1
REMARK SMILES IDX 24 1 23 2 22 3 20 4 21 5 15 7 14 8 13 9 12 10 8 11 9 12
REMARK SMILES IDX 95 13 10 14 11 15 96 16 7 17 3 18 4 19 97 20 5 21 6 22 2 23
REMARK SMILES IDX 1 24 16 25 17 26 18 28 19 29 25 30 26 31 27 32 28 33 29 34
REMARK SMILES IDX 30 35 31 37 32 38 33 39 94 40 34 41 93 42 35 43 36 44 37 45
REMARK SMILES IDX 87 46 38 47 92 48 86 49 88 50 39 51 91 52 85 53 84 54 40 56
REMARK SMILES IDX 72 57 52 58 71 59 53 60 56 61 70 62 89 63 54 64 55 65 69 67
REMARK SMILES IDX 90 68 57 69 41 70 42 71 50 72 43 73 44 74 48 75 51 76 45 77
REMARK SMILES IDX 46 78 49 79 47 80 73 81 74 82 82 83 75 84 76 85 80 86 83 87
REMARK SMILES IDX 77 88 78 89 81 90 79 91 58 92 59 93 67 94 60 95 61 96 65 97
REMARK SMILES IDX 68 98 62 99 63 100 66 101 64 102
REMARK H PARENT 22 6 16 27 29 36 88 55 56 66
REMARK Flexibility Score: inf
ROOT
ATOM      1  C   UNL A   1      35.423  22.412  23.751  1.00  0.00     0.021 C 
ENDROOT
BRANCH   1   2
ATOM      2  C   UNL A   1      35.018  23.857  24.026  1.00  0.00     0.116 C 
BRANCH   2   3
ATOM      3  N   UNL A   1      34.568  24.489  22.804  1.00  0.00    -0.354 N 
ATOM      4  C   UNL A   1      33.605  25.429  22.602  1.00  0.00     0.243 C 
ATOM      5  O   UNL A   1      33.348  25.742  21.435  1.00  0.00    -0.273 OA
ATOM      6  H   UNL A   1      35.032  24.192  21.989  1.00  0.00     0.163 HD
BRANCH   4   7
ATOM      7  C   UNL A   1      32.726  25.954  23.759  1.00  0.00     0.181 C 
BRANCH   7   8
ATOM      8  C   UNL A   1      31.878  24.748  24.245  1.00  0.00     0.105 C 
BRANCH   8   9
ATOM      9  S   UNL A   1      30.990  24.929  25.831  1.00  0.00    -0.145 SA
BRANCH   9  10
ATOM     10  C   UNL A   1      31.625  23.537  26.835  1.00  0.00     0.146 C 
ATOM     11  N   UNL A   1      32.544  21.541  26.029  1.00  0.00    -0.249 N 
ATOM     12  C   UNL A   1      33.523  22.107  26.807  1.00  0.00     0.235 C 
ATOM     13  C   UNL A   1      31.381  22.267  26.059  1.00  0.00     0.247 C 
ATOM     14  O   UNL A   1      34.583  21.627  27.173  1.00  0.00    -0.274 OA
ATOM     15  C   UNL A   1      33.111  23.522  27.128  1.00  0.00     0.125 C 
ATOM     16  O   UNL A   1      30.272  21.922  25.667  1.00  0.00    -0.273 OA
BRANCH  11  17
ATOM     17  C   UNL A   1      32.630  20.303  25.358  1.00  0.00     0.055 A 
ATOM     18  C   UNL A   1      32.849  17.898  25.334  1.00  0.00     0.120 A 
ATOM     19  C   UNL A   1      32.750  17.887  23.943  1.00  0.00     0.046 A 
ATOM     20  C   UNL A   1      32.852  19.104  26.041  1.00  0.00     0.073 A 
ATOM     21  C   UNL A   1      32.564  19.079  23.254  1.00  0.00     0.006 A 
ATOM     22  C   UNL A   1      32.474  20.276  23.962  1.00  0.00     0.027 A 
BRANCH  18  23
ATOM     23  O   UNL A   1      32.970  16.683  25.955  1.00  0.00    -0.497 OA
ATOM     24  C   UNL A   1      32.842  15.602  25.030  1.00  0.00     0.278 C 
ENDBRANCH  18  23
ENDBRANCH  11  17
ENDBRANCH   9  10
ENDBRANCH   8   9
ENDBRANCH   7   8
BRANCH   7  25
ATOM     25  N   UNL A   1      33.412  26.624  24.875  1.00  0.00    -0.344 N 
ATOM     26  C   UNL A   1      33.204  27.917  25.293  1.00  0.00     0.217 C 
ATOM     27  H   UNL A   1      34.083  26.097  25.367  1.00  0.00     0.164 HD
ATOM     28  C   UNL A   1      34.093  28.317  26.445  1.00  0.00     0.114 C 
ATOM     29  O   UNL A   1      32.454  28.720  24.755  1.00  0.00    -0.275 OA
ENDBRANCH   7  25
ENDBRANCH   4   7
ENDBRANCH   2   3
ENDBRANCH   1   2
BRANCH   1  30
ATOM     30  C   UNL A   1      36.775  22.035  24.366  1.00  0.00     0.002 C 
BRANCH  30  31
ATOM     31  C   UNL A   1      36.818  20.640  25.000  1.00  0.00     0.002 C 
BRANCH  31  32
ATOM     32  C   UNL A   1      38.125  19.874  24.784  1.00  0.00     0.021 C 
BRANCH  32  33
ATOM     33  C   UNL A   1      39.236  20.225  25.768  1.00  0.00     0.116 C 
BRANCH  33  34
ATOM     34  N   UNL A   1      40.206  19.152  25.906  1.00  0.00    -0.352 N 
ATOM     35  C   UNL A   1      41.559  19.225  26.117  1.00  0.00     0.251 C 
ATOM     36  H   UNL A   1      39.840  18.241  25.835  1.00  0.00     0.163 HD
ATOM     37  O   UNL A   1      42.259  18.222  26.027  1.00  0.00    -0.269 OA
BRANCH  35  38
ATOM     38  C   UNL A   1      42.178  20.528  26.433  1.00  0.00     0.039 A 
ATOM     39  C   UNL A   1      42.668  21.312  25.387  1.00  0.00     0.014 A 
ATOM     40  C   UNL A   1      42.268  20.974  27.755  1.00  0.00     0.014 A 
ATOM     41  C   UNL A   1      43.189  22.577  25.659  1.00  0.00     0.010 A 
ATOM     42  C   UNL A   1      42.734  22.259  28.019  1.00  0.00     0.010 A 
ATOM     43  C   UNL A   1      43.190  23.074  26.972  1.00  0.00    -0.014 A 
BRANCH  43  44
ATOM     44  C   UNL A   1      43.633  24.459  27.264  1.00  0.00     0.031 A 
ATOM     45  C   UNL A   1      42.653  25.479  27.769  1.00  0.00     0.074 A 
ATOM     46  C   UNL A   1      44.905  24.812  27.001  1.00  0.00     0.049 A 
ATOM     47  N   UNL A   1      42.837  26.752  28.009  1.00  0.00    -0.248 NA
ATOM     48  C   UNL A   1      41.281  25.011  28.015  1.00  0.00     0.031 C 
ATOM     49  C   UNL A   1      45.934  23.921  26.463  1.00  0.00     0.029 A 
ATOM     50  N   UNL A   1      45.546  26.019  27.134  1.00  0.00    -0.354 N 
ATOM     51  C   UNL A   1      41.605  27.240  28.422  1.00  0.00     0.074 A 
ATOM     52  C   UNL A   1      40.670  26.137  28.358  1.00  0.00     0.031 C 
ATOM     53  C   UNL A   1      47.081  24.605  26.327  1.00  0.00     0.029 A 
ATOM     54  C   UNL A   1      46.858  25.990  26.731  1.00  0.00     0.049 A 
ATOM     55  H   UNL A   1      45.107  26.827  27.486  1.00  0.00     0.167 HD
ATOM     56  C   UNL A   1      41.291  28.490  28.838  1.00  0.00     0.037 A 
ATOM     57  C   UNL A   1      47.777  26.974  26.682  1.00  0.00     0.037 A 
ATOM     58  C   UNL A   1      42.230  29.577  28.922  1.00  0.00     0.049 A 
ATOM     59  C   UNL A   1      47.394  28.357  27.134  1.00  0.00     0.074 A 
ATOM     60  C   UNL A   1      42.027  30.858  29.408  1.00  0.00     0.029 A 
ATOM     61  N   UNL A   1      43.551  29.513  28.505  1.00  0.00    -0.354 N 
ATOM     62  N   UNL A   1      46.246  28.788  27.595  1.00  0.00    -0.248 NA
ATOM     63  C   UNL A   1      48.437  29.389  27.056  1.00  0.00     0.031 C 
ATOM     64  C   UNL A   1      43.213  31.581  29.242  1.00  0.00     0.029 A 
ATOM     65  C   UNL A   1      44.167  30.740  28.691  1.00  0.00     0.049 A 
ATOM     66  H   UNL A   1      43.987  28.713  28.132  1.00  0.00     0.167 HD
ATOM     67  C   UNL A   1      46.429  30.134  27.875  1.00  0.00     0.074 A 
ATOM     68  C   UNL A   1      47.807  30.445  27.552  1.00  0.00     0.031 C 
ATOM     69  C   UNL A   1      45.536  31.034  28.354  1.00  0.00     0.037 A 
BRANCH  56  70
ATOM     70  C   UNL A   1      39.868  28.751  29.238  1.00  0.00     0.064 A 
ATOM     71  C   UNL A   1      38.918  29.209  28.314  1.00  0.00     0.173 A 
ATOM     72  C   UNL A   1      39.440  28.498  30.549  1.00  0.00     0.173 A 
ATOM     73  F   UNL A   1      39.280  29.476  27.049  1.00  0.00    -0.203 F 
ATOM     74  C   UNL A   1      37.596  29.430  28.694  1.00  0.00     0.198 A 
ATOM     75  C   UNL A   1      38.112  28.694  30.919  1.00  0.00     0.198 A 
ATOM     76  F   UNL A   1      40.307  28.054  31.471  1.00  0.00    -0.203 F 
ATOM     77  F   UNL A   1      36.716  29.908  27.804  1.00  0.00    -0.200 F 
ATOM     78  C   UNL A   1      37.193  29.165  29.994  1.00  0.00     0.200 A 
ATOM     79  F   UNL A   1      37.721  28.426  32.173  1.00  0.00    -0.200 F 
ATOM     80  F   UNL A   1      35.919  29.370  30.357  1.00  0.00    -0.200 F 
ENDBRANCH  56  70
BRANCH  57  81
ATOM     81  C   UNL A   1      49.148  26.681  26.196  1.00  0.00     0.064 A 
ATOM     82  C   UNL A   1      49.499  26.907  24.858  1.00  0.00     0.173 A 
ATOM     83  C   UNL A   1      50.136  26.176  27.055  1.00  0.00     0.173 A 
ATOM     84  F   UNL A   1      48.582  27.370  23.995  1.00  0.00    -0.203 F 
ATOM     85  C   UNL A   1      50.781  26.624  24.393  1.00  0.00     0.198 A 
ATOM     86  C   UNL A   1      51.425  25.918  26.594  1.00  0.00     0.198 A 
ATOM     87  F   UNL A   1      49.851  25.947  28.345  1.00  0.00    -0.203 F 
ATOM     88  F   UNL A   1      51.079  26.813  23.101  1.00  0.00    -0.200 F 
ATOM     89  C   UNL A   1      51.745  26.136  25.263  1.00  0.00     0.200 A 
ATOM     90  F   UNL A   1      52.357  25.461  27.441  1.00  0.00    -0.200 F 
ATOM     91  F   UNL A   1      52.980  25.871  24.817  1.00  0.00    -0.200 F 
ENDBRANCH  57  81
BRANCH  69  92
ATOM     92  C   UNL A   1      46.022  32.438  28.557  1.00  0.00     0.064 A 
ATOM     93  C   UNL A   1      45.965  33.386  27.526  1.00  0.00     0.173 A 
ATOM     94  C   UNL A   1      46.517  32.849  29.804  1.00  0.00     0.173 A 
ATOM     95  F   UNL A   1      45.518  33.035  26.311  1.00  0.00    -0.203 F 
ATOM     96  C   UNL A   1      46.404  34.691  27.731  1.00  0.00     0.198 A 
ATOM     97  C   UNL A   1      46.929  34.162  30.013  1.00  0.00     0.198 A 
ATOM     98  F   UNL A   1      46.588  31.980  30.824  1.00  0.00    -0.203 F 
ATOM     99  F   UNL A   1      46.381  35.570  26.718  1.00  0.00    -0.200 F 
ATOM    100  C   UNL A   1      46.879  35.080  28.975  1.00  0.00     0.200 A 
ATOM    101  F   UNL A   1      47.378  34.539  31.218  1.00  0.00    -0.200 F 
ATOM    102  F   UNL A   1      47.296  36.339  29.170  1.00  0.00    -0.200 F 
ENDBRANCH  69  92
ENDBRANCH  43  44
ENDBRANCH  35  38
ENDBRANCH  33  34
ENDBRANCH  32  33
ENDBRANCH  31  32
ENDBRANCH  30  31
ENDBRANCH   1  30
TORSDOF 19
ENDMDL
