MODEL 1
REMARK VINA RESULT:     -11.4      0.000      0.000
REMARK SMILES C[NH2+]C[C@@H](C)C(=O)Nc1ccc(Cl)cc1C(=O)NCCCCCCNC(=O)c1ccc(-c2c3nc(c(-c4c(F)c(F)c(F)c(F)c4F)c4ccc([nH]4)c(-c4c(F)c(F)c(F)c(F)c4F)c4nc(c(-c5c(F)c(F)c(F)c(F)c5F)c5ccc2[nH]5)C=C4)C=C3)cc1
REMARK SMILES IDX 20 1 19 2 18 3 16 4 17 5 15 7 9 8 10 9 11 10 14 11 12 12
REMARK SMILES IDX 13 13 8 14 6 15 7 16 4 18 5 19 3 20 2 21 1 22 21 25 22 26
REMARK SMILES IDX 23 27 24 28 25 29 26 30 27 32 28 33 29 34 90 35 30 36 89 37
REMARK SMILES IDX 31 38 32 39 33 40 83 41 34 42 88 43 82 44 84 45 35 46 87 47
REMARK SMILES IDX 81 48 80 49 36 51 68 52 48 53 67 54 49 55 52 56 66 57 85 58
REMARK SMILES IDX 50 59 51 60 65 62 86 63 53 64 37 65 38 66 46 67 39 68 40 69
REMARK SMILES IDX 44 70 47 71 41 72 42 73 45 74 43 75 69 76 70 77 78 78 71 79
REMARK SMILES IDX 72 80 76 81 79 82 73 83 74 84 77 85 75 86 54 87 55 88 63 89
REMARK SMILES IDX 56 90 57 91 61 92 64 93 58 94 59 95 62 96 60 97
REMARK H PARENT 18 6 8 17 2 23 2 24 25 31 84 50 52 61
REMARK Flexibility Score: inf
ROOT
ATOM      1  C   UNL A   1      33.619  26.140  25.851  1.00  0.00     0.021 C 
ENDROOT
BRANCH   1   2
ATOM      2  C   UNL A   1      34.209  24.738  25.923  1.00  0.00     0.116 C 
BRANCH   2   3
ATOM      3  N   UNL A   1      35.174  24.406  24.911  1.00  0.00    -0.352 N 
ATOM      4  C   UNL A   1      35.115  23.537  23.852  1.00  0.00     0.253 C 
ATOM      5  O   UNL A   1      36.122  23.486  23.141  1.00  0.00    -0.269 OA
ATOM      6  H   UNL A   1      36.028  24.889  24.993  1.00  0.00     0.163 HD
BRANCH   4   7
ATOM      7  C   UNL A   1      33.974  22.625  23.500  1.00  0.00     0.064 A 
ATOM      8  C   UNL A   1      33.162  22.613  22.347  1.00  0.00     0.054 A 
ATOM      9  C   UNL A   1      32.319  21.515  22.107  1.00  0.00     0.028 A 
ATOM     10  C   UNL A   1      32.143  20.508  23.051  1.00  0.00     0.023 A 
ATOM     11  C   UNL A   1      33.765  21.600  24.455  1.00  0.00     0.036 A 
ATOM     12  C   UNL A   1      32.847  20.572  24.241  1.00  0.00     0.041 A 
ATOM     13  Cl  UNL A   1      32.616  19.355  25.431  1.00  0.00    -0.084 Cl
BRANCH   8  14
ATOM     14  N   UNL A   1      33.226  23.568  21.331  1.00  0.00    -0.325 N 
ATOM     15  C   UNL A   1      32.772  24.863  21.321  1.00  0.00     0.232 C 
ATOM     16  O   UNL A   1      32.903  25.481  20.255  1.00  0.00    -0.274 OA
ATOM     17  H   UNL A   1      33.658  23.268  20.499  1.00  0.00     0.169 HD
BRANCH  15  18
ATOM     18  C   UNL A   1      32.239  25.623  22.560  1.00  0.00     0.130 C 
ATOM     19  C   UNL A   1      31.020  24.998  23.240  1.00  0.00     0.024 C 
BRANCH  18  20
ATOM     20  C   UNL A   1      32.102  27.134  22.331  1.00  0.00     0.273 C 
BRANCH  20  21
ATOM     21  N   UNL A   1      33.297  27.843  21.855  1.00  0.00    -0.348 N 
ATOM     22  C   UNL A   1      34.021  28.538  22.905  1.00  0.00     0.330 C 
ATOM     23  H   UNL A   1      33.924  27.163  21.426  1.00  0.00     0.346 HD
ATOM     24  H   UNL A   1      32.978  28.551  21.193  1.00  0.00     0.346 HD
ENDBRANCH  20  21
ENDBRANCH  18  20
ENDBRANCH  15  18
ENDBRANCH   8  14
ENDBRANCH   4   7
ENDBRANCH   2   3
ENDBRANCH   1   2
BRANCH   1  25
ATOM     25  C   UNL A   1      32.213  26.324  26.421  1.00  0.00     0.002 C 
BRANCH  25  26
ATOM     26  C   UNL A   1      31.442  27.584  26.017  1.00  0.00     0.002 C 
BRANCH  26  27
ATOM     27  C   UNL A   1      31.776  28.894  26.734  1.00  0.00     0.021 C 
BRANCH  27  28
ATOM     28  C   UNL A   1      32.744  29.847  26.038  1.00  0.00     0.116 C 
BRANCH  28  29
ATOM     29  N   UNL A   1      32.599  31.228  26.459  1.00  0.00    -0.352 N 
ATOM     30  C   UNL A   1      33.346  31.989  27.322  1.00  0.00     0.251 C 
ATOM     31  H   UNL A   1      31.836  31.699  26.055  1.00  0.00     0.163 HD
ATOM     32  O   UNL A   1      32.976  33.131  27.579  1.00  0.00    -0.269 OA
BRANCH  30  33
ATOM     33  C   UNL A   1      34.565  31.459  27.983  1.00  0.00     0.039 A 
ATOM     34  C   UNL A   1      35.637  32.339  28.169  1.00  0.00     0.014 A 
ATOM     35  C   UNL A   1      34.698  30.123  28.373  1.00  0.00     0.014 A 
ATOM     36  C   UNL A   1      36.811  31.899  28.787  1.00  0.00     0.010 A 
ATOM     37  C   UNL A   1      35.847  29.700  29.050  1.00  0.00     0.010 A 
ATOM     38  C   UNL A   1      36.916  30.582  29.261  1.00  0.00    -0.014 A 
BRANCH  38  39
ATOM     39  C   UNL A   1      38.131  30.151  30.001  1.00  0.00     0.031 A 
ATOM     40  C   UNL A   1      38.388  30.606  31.410  1.00  0.00     0.074 A 
ATOM     41  C   UNL A   1      39.029  29.361  29.382  1.00  0.00     0.049 A 
ATOM     42  N   UNL A   1      39.366  30.278  32.218  1.00  0.00    -0.248 NA
ATOM     43  C   UNL A   1      37.438  31.572  31.978  1.00  0.00     0.031 C 
ATOM     44  C   UNL A   1      38.940  28.917  27.990  1.00  0.00     0.029 A 
ATOM     45  N   UNL A   1      40.192  28.795  29.840  1.00  0.00    -0.354 N 
ATOM     46  C   UNL A   1      39.156  31.005  33.382  1.00  0.00     0.074 A 
ATOM     47  C   UNL A   1      37.985  31.826  33.158  1.00  0.00     0.031 C 
ATOM     48  C   UNL A   1      39.989  28.126  27.715  1.00  0.00     0.029 A 
ATOM     49  C   UNL A   1      40.830  28.020  28.903  1.00  0.00     0.049 A 
ATOM     50  H   UNL A   1      40.535  28.930  30.752  1.00  0.00     0.167 HD
ATOM     51  C   UNL A   1      39.864  30.977  34.539  1.00  0.00     0.037 A 
ATOM     52  C   UNL A   1      41.961  27.293  28.993  1.00  0.00     0.037 A 
ATOM     53  C   UNL A   1      41.016  30.142  34.767  1.00  0.00     0.049 A 
ATOM     54  C   UNL A   1      42.692  27.226  30.303  1.00  0.00     0.074 A 
ATOM     55  C   UNL A   1      41.747  29.978  35.932  1.00  0.00     0.029 A 
ATOM     56  N   UNL A   1      41.611  29.337  33.809  1.00  0.00    -0.354 N 
ATOM     57  N   UNL A   1      42.424  27.836  31.432  1.00  0.00    -0.248 NA
ATOM     58  C   UNL A   1      43.872  26.352  30.358  1.00  0.00     0.031 C 
ATOM     59  C   UNL A   1      42.810  29.107  35.665  1.00  0.00     0.029 A 
ATOM     60  C   UNL A   1      42.715  28.691  34.347  1.00  0.00     0.049 A 
ATOM     61  H   UNL A   1      41.297  29.237  32.881  1.00  0.00     0.167 HD
ATOM     62  C   UNL A   1      43.389  27.411  32.334  1.00  0.00     0.074 A 
ATOM     63  C   UNL A   1      44.235  26.471  31.627  1.00  0.00     0.031 C 
ATOM     64  C   UNL A   1      43.558  27.769  33.631  1.00  0.00     0.037 A 
BRANCH  51  65
ATOM     65  C   UNL A   1      39.410  31.880  35.649  1.00  0.00     0.064 A 
ATOM     66  C   UNL A   1      39.906  33.185  35.788  1.00  0.00     0.173 A 
ATOM     67  C   UNL A   1      38.447  31.444  36.573  1.00  0.00     0.173 A 
ATOM     68  F   UNL A   1      40.835  33.649  34.938  1.00  0.00    -0.203 F 
ATOM     69  C   UNL A   1      39.480  34.008  36.828  1.00  0.00     0.198 A 
ATOM     70  C   UNL A   1      38.002  32.279  37.594  1.00  0.00     0.198 A 
ATOM     71  F   UNL A   1      37.934  30.208  36.482  1.00  0.00    -0.203 F 
ATOM     72  F   UNL A   1      40.007  35.232  36.971  1.00  0.00    -0.200 F 
ATOM     73  C   UNL A   1      38.525  33.557  37.727  1.00  0.00     0.200 A 
ATOM     74  F   UNL A   1      37.071  31.846  38.455  1.00  0.00    -0.200 F 
ATOM     75  F   UNL A   1      38.116  34.350  38.727  1.00  0.00    -0.200 F 
ENDBRANCH  51  65
BRANCH  52  76
ATOM     76  C   UNL A   1      42.432  26.530  27.810  1.00  0.00     0.064 A 
ATOM     77  C   UNL A   1      43.378  27.075  26.932  1.00  0.00     0.173 A 
ATOM     78  C   UNL A   1      41.970  25.231  27.552  1.00  0.00     0.173 A 
ATOM     79  F   UNL A   1      43.834  28.321  27.128  1.00  0.00    -0.203 F 
ATOM     80  C   UNL A   1      43.836  26.353  25.832  1.00  0.00     0.198 A 
ATOM     81  C   UNL A   1      42.448  24.502  26.467  1.00  0.00     0.198 A 
ATOM     82  F   UNL A   1      41.069  24.665  28.370  1.00  0.00    -0.203 F 
ATOM     83  F   UNL A   1      44.717  26.909  24.989  1.00  0.00    -0.200 F 
ATOM     84  C   UNL A   1      43.377  25.065  25.605  1.00  0.00     0.200 A 
ATOM     85  F   UNL A   1      42.012  23.251  26.259  1.00  0.00    -0.200 F 
ATOM     86  F   UNL A   1      43.827  24.366  24.554  1.00  0.00    -0.200 F 
ENDBRANCH  52  76
BRANCH  64  87
ATOM     87  C   UNL A   1      44.700  27.131  34.369  1.00  0.00     0.064 A 
ATOM     88  C   UNL A   1      45.972  27.723  34.409  1.00  0.00     0.173 A 
ATOM     89  C   UNL A   1      44.519  25.918  35.051  1.00  0.00     0.173 A 
ATOM     90  F   UNL A   1      46.201  28.874  33.759  1.00  0.00    -0.203 F 
ATOM     91  C   UNL A   1      47.028  27.105  35.073  1.00  0.00     0.198 A 
ATOM     92  C   UNL A   1      45.572  25.319  35.739  1.00  0.00     0.198 A 
ATOM     93  F   UNL A   1      43.322  25.314  35.050  1.00  0.00    -0.203 F 
ATOM     94  F   UNL A   1      48.249  27.661  35.048  1.00  0.00    -0.200 F 
ATOM     95  C   UNL A   1      46.827  25.907  35.740  1.00  0.00     0.200 A 
ATOM     96  F   UNL A   1      45.372  24.166  36.392  1.00  0.00    -0.200 F 
ATOM     97  F   UNL A   1      47.846  25.313  36.377  1.00  0.00    -0.200 F 
ENDBRANCH  64  87
ENDBRANCH  38  39
ENDBRANCH  30  33
ENDBRANCH  28  29
ENDBRANCH  27  28
ENDBRANCH  26  27
ENDBRANCH  25  26
ENDBRANCH   1  25
TORSDOF 17
ENDMDL
MODEL 2
REMARK VINA RESULT:     -11.3      1.571      3.112
REMARK SMILES C[NH2+]C[C@@H](C)C(=O)Nc1ccc(Cl)cc1C(=O)NCCCCCCNC(=O)c1ccc(-c2c3nc(c(-c4c(F)c(F)c(F)c(F)c4F)c4ccc([nH]4)c(-c4c(F)c(F)c(F)c(F)c4F)c4nc(c(-c5c(F)c(F)c(F)c(F)c5F)c5ccc2[nH]5)C=C4)C=C3)cc1
REMARK SMILES IDX 20 1 19 2 18 3 16 4 17 5 15 7 9 8 10 9 11 10 14 11 12 12
REMARK SMILES IDX 13 13 8 14 6 15 7 16 4 18 5 19 3 20 2 21 1 22 21 25 22 26
REMARK SMILES IDX 23 27 24 28 25 29 26 30 27 32 28 33 29 34 90 35 30 36 89 37
REMARK SMILES IDX 31 38 32 39 33 40 83 41 34 42 88 43 82 44 84 45 35 46 87 47
REMARK SMILES IDX 81 48 80 49 36 51 68 52 48 53 67 54 49 55 52 56 66 57 85 58
REMARK SMILES IDX 50 59 51 60 65 62 86 63 53 64 37 65 38 66 46 67 39 68 40 69
REMARK SMILES IDX 44 70 47 71 41 72 42 73 45 74 43 75 69 76 70 77 78 78 71 79
REMARK SMILES IDX 72 80 76 81 79 82 73 83 74 84 77 85 75 86 54 87 55 88 63 89
REMARK SMILES IDX 56 90 57 91 61 92 64 93 58 94 59 95 62 96 60 97
REMARK H PARENT 18 6 8 17 2 23 2 24 25 31 84 50 52 61
REMARK Flexibility Score: inf
ROOT
ATOM      1  C   UNL A   1      34.295  28.586  23.748  1.00  0.00     0.021 C 
ENDROOT
BRANCH   1   2
ATOM      2  C   UNL A   1      33.644  28.556  22.372  1.00  0.00     0.116 C 
BRANCH   2   3
ATOM      3  N   UNL A   1      33.650  27.288  21.697  1.00  0.00    -0.352 N 
ATOM      4  C   UNL A   1      32.720  26.282  21.649  1.00  0.00     0.253 C 
ATOM      5  O   UNL A   1      33.019  25.305  20.955  1.00  0.00    -0.269 OA
ATOM      6  H   UNL A   1      34.467  27.111  21.177  1.00  0.00     0.163 HD
BRANCH   4   7
ATOM      7  C   UNL A   1      31.407  26.235  22.376  1.00  0.00     0.064 A 
ATOM      8  C   UNL A   1      30.820  25.175  23.098  1.00  0.00     0.054 A 
ATOM      9  C   UNL A   1      29.705  25.427  23.913  1.00  0.00     0.028 A 
ATOM     10  C   UNL A   1      29.062  26.661  23.912  1.00  0.00     0.023 A 
ATOM     11  C   UNL A   1      30.725  27.477  22.374  1.00  0.00     0.036 A 
ATOM     12  C   UNL A   1      29.559  27.676  23.113  1.00  0.00     0.041 A 
ATOM     13  Cl  UNL A   1      28.758  29.195  23.074  1.00  0.00    -0.084 Cl
BRANCH   8  14
ATOM     14  N   UNL A   1      31.353  23.886  23.171  1.00  0.00    -0.325 N 
ATOM     15  C   UNL A   1      32.366  23.403  23.960  1.00  0.00     0.232 C 
ATOM     16  O   UNL A   1      32.685  22.220  23.778  1.00  0.00    -0.274 OA
ATOM     17  H   UNL A   1      30.940  23.227  22.566  1.00  0.00     0.169 HD
BRANCH  15  18
ATOM     18  C   UNL A   1      33.033  24.184  25.118  1.00  0.00     0.130 C 
ATOM     19  C   UNL A   1      34.552  24.339  25.019  1.00  0.00     0.024 C 
BRANCH  18  20
ATOM     20  C   UNL A   1      32.555  23.734  26.506  1.00  0.00     0.273 C 
BRANCH  20  21
ATOM     21  N   UNL A   1      31.178  24.080  26.876  1.00  0.00    -0.348 N 
ATOM     22  C   UNL A   1      30.268  22.947  26.866  1.00  0.00     0.330 C 
ATOM     23  H   UNL A   1      31.187  24.478  27.814  1.00  0.00     0.346 HD
ATOM     24  H   UNL A   1      30.838  24.740  26.175  1.00  0.00     0.346 HD
ENDBRANCH  20  21
ENDBRANCH  18  20
ENDBRANCH  15  18
ENDBRANCH   8  14
ENDBRANCH   4   7
ENDBRANCH   2   3
ENDBRANCH   1   2
BRANCH   1  25
ATOM     25  C   UNL A   1      33.649  27.727  24.834  1.00  0.00     0.002 C 
BRANCH  25  26
ATOM     26  C   UNL A   1      32.349  28.237  25.464  1.00  0.00     0.002 C 
BRANCH  26  27
ATOM     27  C   UNL A   1      32.150  29.751  25.576  1.00  0.00     0.021 C 
BRANCH  27  28
ATOM     28  C   UNL A   1      32.288  30.375  26.962  1.00  0.00     0.116 C 
BRANCH  28  29
ATOM     29  N   UNL A   1      32.501  31.810  26.933  1.00  0.00    -0.352 N 
ATOM     30  C   UNL A   1      33.528  32.577  27.422  1.00  0.00     0.251 C 
ATOM     31  H   UNL A   1      31.787  32.318  26.486  1.00  0.00     0.163 HD
ATOM     32  O   UNL A   1      33.447  33.799  27.339  1.00  0.00    -0.269 OA
BRANCH  30  33
ATOM     33  C   UNL A   1      34.715  31.976  28.079  1.00  0.00     0.039 A 
ATOM     34  C   UNL A   1      35.825  32.799  28.293  1.00  0.00     0.014 A 
ATOM     35  C   UNL A   1      34.781  30.626  28.438  1.00  0.00     0.014 A 
ATOM     36  C   UNL A   1      36.972  32.290  28.910  1.00  0.00     0.010 A 
ATOM     37  C   UNL A   1      35.903  30.133  29.113  1.00  0.00     0.010 A 
ATOM     38  C   UNL A   1      37.011  30.959  29.353  1.00  0.00    -0.014 A 
BRANCH  38  39
ATOM     39  C   UNL A   1      38.197  30.454  30.093  1.00  0.00     0.031 A 
ATOM     40  C   UNL A   1      38.455  30.851  31.518  1.00  0.00     0.074 A 
ATOM     41  C   UNL A   1      39.070  29.649  29.457  1.00  0.00     0.049 A 
ATOM     42  N   UNL A   1      39.409  30.457  32.326  1.00  0.00    -0.248 NA
ATOM     43  C   UNL A   1      37.538  31.837  32.107  1.00  0.00     0.031 C 
ATOM     44  C   UNL A   1      38.981  29.255  28.051  1.00  0.00     0.029 A 
ATOM     45  N   UNL A   1      40.203  29.019  29.909  1.00  0.00    -0.354 N 
ATOM     46  C   UNL A   1      39.215  31.153  33.511  1.00  0.00     0.074 A 
ATOM     47  C   UNL A   1      38.080  32.029  33.302  1.00  0.00     0.031 C 
ATOM     48  C   UNL A   1      40.000  28.429  27.761  1.00  0.00     0.029 A 
ATOM     49  C   UNL A   1      40.821  28.250  28.954  1.00  0.00     0.049 A 
ATOM     50  H   UNL A   1      40.540  29.111  30.829  1.00  0.00     0.167 HD
ATOM     51  C   UNL A   1      39.906  31.058  34.674  1.00  0.00     0.037 A 
ATOM     52  C   UNL A   1      41.920  27.475  29.033  1.00  0.00     0.037 A 
ATOM     53  C   UNL A   1      41.020  30.169  34.888  1.00  0.00     0.049 A 
ATOM     54  C   UNL A   1      42.631  27.335  30.348  1.00  0.00     0.074 A 
ATOM     55  C   UNL A   1      41.729  29.937  36.055  1.00  0.00     0.029 A 
ATOM     56  N   UNL A   1      41.594  29.372  33.909  1.00  0.00    -0.354 N 
ATOM     57  N   UNL A   1      42.374  27.918  31.494  1.00  0.00    -0.248 NA
ATOM     58  C   UNL A   1      43.773  26.411  30.387  1.00  0.00     0.031 C 
ATOM     59  C   UNL A   1      42.759  29.032  35.771  1.00  0.00     0.029 A 
ATOM     60  C   UNL A   1      42.663  28.664  34.438  1.00  0.00     0.049 A 
ATOM     61  H   UNL A   1      41.287  29.316  32.975  1.00  0.00     0.167 HD
ATOM     62  C   UNL A   1      43.309  27.423  32.392  1.00  0.00     0.074 A 
ATOM     63  C   UNL A   1      44.125  26.474  31.663  1.00  0.00     0.031 C 
ATOM     64  C   UNL A   1      43.477  27.731  33.702  1.00  0.00     0.037 A 
BRANCH  51  65
ATOM     65  C   UNL A   1      39.476  31.942  35.809  1.00  0.00     0.064 A 
ATOM     66  C   UNL A   1      38.443  31.569  36.684  1.00  0.00     0.173 A 
ATOM     67  C   UNL A   1      40.121  33.166  36.043  1.00  0.00     0.173 A 
ATOM     68  F   UNL A   1      37.786  30.414  36.501  1.00  0.00    -0.203 F 
ATOM     69  C   UNL A   1      38.051  32.405  37.728  1.00  0.00     0.198 A 
ATOM     70  C   UNL A   1      39.745  33.985  37.104  1.00  0.00     0.198 A 
ATOM     71  F   UNL A   1      41.120  33.567  35.241  1.00  0.00    -0.203 F 
ATOM     72  F   UNL A   1      37.027  32.051  38.517  1.00  0.00    -0.200 F 
ATOM     73  C   UNL A   1      38.705  33.608  37.940  1.00  0.00     0.200 A 
ATOM     74  F   UNL A   1      40.386  35.143  37.316  1.00  0.00    -0.200 F 
ATOM     75  F   UNL A   1      38.327  34.410  38.946  1.00  0.00    -0.200 F 
ENDBRANCH  51  65
BRANCH  52  76
ATOM     76  C   UNL A   1      42.374  26.732  27.831  1.00  0.00     0.064 A 
ATOM     77  C   UNL A   1      43.311  27.290  26.950  1.00  0.00     0.173 A 
ATOM     78  C   UNL A   1      41.906  25.439  27.555  1.00  0.00     0.173 A 
ATOM     79  F   UNL A   1      43.772  28.532  27.163  1.00  0.00    -0.203 F 
ATOM     80  C   UNL A   1      43.753  26.588  25.832  1.00  0.00     0.198 A 
ATOM     81  C   UNL A   1      42.368  24.729  26.451  1.00  0.00     0.198 A 
ATOM     82  F   UNL A   1      41.014  24.861  28.374  1.00  0.00    -0.203 F 
ATOM     83  F   UNL A   1      44.624  27.157  24.988  1.00  0.00    -0.200 F 
ATOM     84  C   UNL A   1      43.288  25.305  25.588  1.00  0.00     0.200 A 
ATOM     85  F   UNL A   1      41.927  23.483  26.226  1.00  0.00    -0.200 F 
ATOM     86  F   UNL A   1      43.723  24.624  24.519  1.00  0.00    -0.200 F 
ENDBRANCH  52  76
BRANCH  64  87
ATOM     87  C   UNL A   1      44.582  27.023  34.431  1.00  0.00     0.064 A 
ATOM     88  C   UNL A   1      44.402  25.740  34.969  1.00  0.00     0.173 A 
ATOM     89  C   UNL A   1      45.837  27.630  34.587  1.00  0.00     0.173 A 
ATOM     90  F   UNL A   1      43.215  25.122  34.861  1.00  0.00    -0.203 F 
ATOM     91  C   UNL A   1      45.427  25.106  35.668  1.00  0.00     0.198 A 
ATOM     92  C   UNL A   1      46.869  26.980  35.261  1.00  0.00     0.198 A 
ATOM     93  F   UNL A   1      46.063  28.853  34.085  1.00  0.00    -0.203 F 
ATOM     94  F   UNL A   1      45.213  23.904  36.223  1.00  0.00    -0.200 F 
ATOM     95  C   UNL A   1      46.659  25.725  35.809  1.00  0.00     0.200 A 
ATOM     96  F   UNL A   1      48.063  27.576  35.388  1.00  0.00    -0.200 F 
ATOM     97  F   UNL A   1      47.643  25.115  36.485  1.00  0.00    -0.200 F 
ENDBRANCH  64  87
ENDBRANCH  38  39
ENDBRANCH  30  33
ENDBRANCH  28  29
ENDBRANCH  27  28
ENDBRANCH  26  27
ENDBRANCH  25  26
ENDBRANCH   1  25
TORSDOF 17
ENDMDL
MODEL 3
REMARK VINA RESULT:     -11.1      1.379      2.634
REMARK SMILES C[NH2+]C[C@@H](C)C(=O)Nc1ccc(Cl)cc1C(=O)NCCCCCCNC(=O)c1ccc(-c2c3nc(c(-c4c(F)c(F)c(F)c(F)c4F)c4ccc([nH]4)c(-c4c(F)c(F)c(F)c(F)c4F)c4nc(c(-c5c(F)c(F)c(F)c(F)c5F)c5ccc2[nH]5)C=C4)C=C3)cc1
REMARK SMILES IDX 20 1 19 2 18 3 16 4 17 5 15 7 9 8 10 9 11 10 14 11 12 12
REMARK SMILES IDX 13 13 8 14 6 15 7 16 4 18 5 19 3 20 2 21 1 22 21 25 22 26
REMARK SMILES IDX 23 27 24 28 25 29 26 30 27 32 28 33 29 34 90 35 30 36 89 37
REMARK SMILES IDX 31 38 32 39 33 40 83 41 34 42 88 43 82 44 84 45 35 46 87 47
REMARK SMILES IDX 81 48 80 49 36 51 68 52 48 53 67 54 49 55 52 56 66 57 85 58
REMARK SMILES IDX 50 59 51 60 65 62 86 63 53 64 37 65 38 66 46 67 39 68 40 69
REMARK SMILES IDX 44 70 47 71 41 72 42 73 45 74 43 75 69 76 70 77 78 78 71 79
REMARK SMILES IDX 72 80 76 81 79 82 73 83 74 84 77 85 75 86 54 87 55 88 63 89
REMARK SMILES IDX 56 90 57 91 61 92 64 93 58 94 59 95 62 96 60 97
REMARK H PARENT 18 6 8 17 2 23 2 24 25 31 84 50 52 61
REMARK Flexibility Score: inf
ROOT
ATOM      1  C   UNL A   1      32.679  26.876  22.859  1.00  0.00     0.021 C 
ENDROOT
BRANCH   1   2
ATOM      2  C   UNL A   1      33.652  26.793  24.026  1.00  0.00     0.116 C 
BRANCH   2   3
ATOM      3  N   UNL A   1      33.230  25.999  25.146  1.00  0.00    -0.352 N 
ATOM      4  C   UNL A   1      33.724  24.832  25.668  1.00  0.00     0.253 C 
ATOM      5  O   UNL A   1      33.139  24.397  26.665  1.00  0.00    -0.269 OA
ATOM      6  H   UNL A   1      32.446  26.358  25.623  1.00  0.00     0.163 HD
BRANCH   4   7
ATOM      7  C   UNL A   1      34.869  24.021  25.132  1.00  0.00     0.064 A 
ATOM      8  C   UNL A   1      34.945  23.247  23.956  1.00  0.00     0.054 A 
ATOM      9  C   UNL A   1      36.193  22.777  23.517  1.00  0.00     0.028 A 
ATOM     10  C   UNL A   1      37.342  22.918  24.289  1.00  0.00     0.023 A 
ATOM     11  C   UNL A   1      36.046  24.136  25.913  1.00  0.00     0.036 A 
ATOM     12  C   UNL A   1      37.256  23.573  25.506  1.00  0.00     0.041 A 
ATOM     13  Cl  UNL A   1      38.657  23.727  26.488  1.00  0.00    -0.084 Cl
BRANCH   8  14
ATOM     14  N   UNL A   1      33.867  23.014  23.099  1.00  0.00    -0.325 N 
ATOM     15  C   UNL A   1      32.954  21.990  23.102  1.00  0.00     0.232 C 
ATOM     16  O   UNL A   1      32.127  21.990  22.180  1.00  0.00    -0.274 OA
ATOM     17  H   UNL A   1      33.747  23.683  22.385  1.00  0.00     0.169 HD
BRANCH  15  18
ATOM     18  C   UNL A   1      32.815  20.934  24.226  1.00  0.00     0.130 C 
ATOM     19  C   UNL A   1      32.527  19.507  23.755  1.00  0.00     0.024 C 
BRANCH  18  20
ATOM     20  C   UNL A   1      31.908  21.391  25.377  1.00  0.00     0.273 C 
BRANCH  20  21
ATOM     21  N   UNL A   1      32.525  21.492  26.705  1.00  0.00    -0.348 N 
ATOM     22  C   UNL A   1      33.917  21.076  26.735  1.00  0.00     0.330 C 
ATOM     23  H   UNL A   1      32.472  22.462  27.012  1.00  0.00     0.346 HD
ATOM     24  H   UNL A   1      32.012  20.860  27.320  1.00  0.00     0.346 HD
ENDBRANCH  20  21
ENDBRANCH  18  20
ENDBRANCH  15  18
ENDBRANCH   8  14
ENDBRANCH   4   7
ENDBRANCH   2   3
ENDBRANCH   1   2
BRANCH   1  25
ATOM     25  C   UNL A   1      31.462  27.783  23.040  1.00  0.00     0.002 C 
BRANCH  25  26
ATOM     26  C   UNL A   1      31.690  29.160  23.671  1.00  0.00     0.002 C 
BRANCH  26  27
ATOM     27  C   UNL A   1      31.466  29.307  25.178  1.00  0.00     0.021 C 
BRANCH  27  28
ATOM     28  C   UNL A   1      32.634  29.822  26.014  1.00  0.00     0.116 C 
BRANCH  28  29
ATOM     29  N   UNL A   1      32.496  31.211  26.410  1.00  0.00    -0.352 N 
ATOM     30  C   UNL A   1      33.252  31.987  27.252  1.00  0.00     0.251 C 
ATOM     31  H   UNL A   1      31.729  31.676  26.004  1.00  0.00     0.163 HD
ATOM     32  O   UNL A   1      32.886  33.134  27.490  1.00  0.00    -0.269 OA
BRANCH  30  33
ATOM     33  C   UNL A   1      34.476  31.468  27.911  1.00  0.00     0.039 A 
ATOM     34  C   UNL A   1      35.484  32.387  28.224  1.00  0.00     0.014 A 
ATOM     35  C   UNL A   1      34.678  30.110  28.177  1.00  0.00     0.014 A 
ATOM     36  C   UNL A   1      36.659  31.958  28.847  1.00  0.00     0.010 A 
ATOM     37  C   UNL A   1      35.826  29.691  28.858  1.00  0.00     0.010 A 
ATOM     38  C   UNL A   1      36.829  30.609  29.198  1.00  0.00    -0.014 A 
BRANCH  38  39
ATOM     39  C   UNL A   1      38.040  30.181  29.945  1.00  0.00     0.031 A 
ATOM     40  C   UNL A   1      38.289  30.635  31.355  1.00  0.00     0.074 A 
ATOM     41  C   UNL A   1      38.944  29.392  29.330  1.00  0.00     0.049 A 
ATOM     42  N   UNL A   1      39.263  30.309  32.169  1.00  0.00    -0.248 NA
ATOM     43  C   UNL A   1      37.334  31.600  31.918  1.00  0.00     0.031 C 
ATOM     44  C   UNL A   1      38.863  28.948  27.938  1.00  0.00     0.029 A 
ATOM     45  N   UNL A   1      40.105  28.827  29.795  1.00  0.00    -0.354 N 
ATOM     46  C   UNL A   1      39.046  31.036  33.331  1.00  0.00     0.074 A 
ATOM     47  C   UNL A   1      37.875  31.855  33.101  1.00  0.00     0.031 C 
ATOM     48  C   UNL A   1      39.915  28.158  27.669  1.00  0.00     0.029 A 
ATOM     49  C   UNL A   1      40.749  28.053  28.862  1.00  0.00     0.049 A 
ATOM     50  H   UNL A   1      40.443  28.963  30.709  1.00  0.00     0.167 HD
ATOM     51  C   UNL A   1      39.748  31.008  34.492  1.00  0.00     0.037 A 
ATOM     52  C   UNL A   1      41.880  27.328  28.958  1.00  0.00     0.037 A 
ATOM     53  C   UNL A   1      40.900  30.175  34.727  1.00  0.00     0.049 A 
ATOM     54  C   UNL A   1      42.605  27.262  30.272  1.00  0.00     0.074 A 
ATOM     55  C   UNL A   1      41.625  30.012  35.896  1.00  0.00     0.029 A 
ATOM     56  N   UNL A   1      41.501  29.371  33.771  1.00  0.00    -0.354 N 
ATOM     57  N   UNL A   1      42.330  27.872  31.399  1.00  0.00    -0.248 NA
ATOM     58  C   UNL A   1      43.785  26.390  30.333  1.00  0.00     0.031 C 
ATOM     59  C   UNL A   1      42.691  29.143  35.635  1.00  0.00     0.029 A 
ATOM     60  C   UNL A   1      42.603  28.727  34.316  1.00  0.00     0.049 A 
ATOM     61  H   UNL A   1      41.192  29.271  32.842  1.00  0.00     0.167 HD
ATOM     62  C   UNL A   1      43.290  27.448  32.307  1.00  0.00     0.074 A 
ATOM     63  C   UNL A   1      44.141  26.510  31.604  1.00  0.00     0.031 C 
ATOM     64  C   UNL A   1      43.452  27.806  33.605  1.00  0.00     0.037 A 
BRANCH  51  65
ATOM     65  C   UNL A   1      39.286  31.911  35.600  1.00  0.00     0.064 A 
ATOM     66  C   UNL A   1      38.369  31.478  36.570  1.00  0.00     0.173 A 
ATOM     67  C   UNL A   1      39.788  33.217  35.710  1.00  0.00     0.173 A 
ATOM     68  F   UNL A   1      37.851  30.242  36.507  1.00  0.00    -0.203 F 
ATOM     69  C   UNL A   1      37.945  32.331  37.587  1.00  0.00     0.198 A 
ATOM     70  C   UNL A   1      39.384  34.057  36.745  1.00  0.00     0.198 A 
ATOM     71  F   UNL A   1      40.673  33.679  34.814  1.00  0.00    -0.203 F 
ATOM     72  F   UNL A   1      37.028  31.912  38.470  1.00  0.00    -0.200 F 
ATOM     73  C   UNL A   1      38.456  33.616  37.678  1.00  0.00     0.200 A 
ATOM     74  F   UNL A   1      39.888  35.295  36.838  1.00  0.00    -0.200 F 
ATOM     75  F   UNL A   1      38.048  34.434  38.658  1.00  0.00    -0.200 F 
ENDBRANCH  51  65
BRANCH  52  76
ATOM     76  C   UNL A   1      42.359  26.566  27.778  1.00  0.00     0.064 A 
ATOM     77  C   UNL A   1      43.282  27.126  26.884  1.00  0.00     0.173 A 
ATOM     78  C   UNL A   1      41.929  25.253  27.538  1.00  0.00     0.173 A 
ATOM     79  F   UNL A   1      43.707  28.386  27.063  1.00  0.00    -0.203 F 
ATOM     80  C   UNL A   1      43.747  26.406  25.786  1.00  0.00     0.198 A 
ATOM     81  C   UNL A   1      42.415  24.525  26.454  1.00  0.00     0.198 A 
ATOM     82  F   UNL A   1      41.052  24.672  28.370  1.00  0.00    -0.203 F 
ATOM     83  F   UNL A   1      44.604  26.976  24.929  1.00  0.00    -0.200 F 
ATOM     84  C   UNL A   1      43.320  25.104  25.577  1.00  0.00     0.200 A 
ATOM     85  F   UNL A   1      42.010  23.262  26.263  1.00  0.00    -0.200 F 
ATOM     86  F   UNL A   1      43.778  24.407  24.528  1.00  0.00    -0.200 F 
ENDBRANCH  52  76
BRANCH  64  87
ATOM     87  C   UNL A   1      44.590  27.170  34.349  1.00  0.00     0.064 A 
ATOM     88  C   UNL A   1      45.856  27.773  34.411  1.00  0.00     0.173 A 
ATOM     89  C   UNL A   1      44.413  25.947  35.013  1.00  0.00     0.173 A 
ATOM     90  F   UNL A   1      46.081  28.935  33.779  1.00  0.00    -0.203 F 
ATOM     91  C   UNL A   1      46.910  27.157  35.081  1.00  0.00     0.198 A 
ATOM     92  C   UNL A   1      45.462  25.349  35.707  1.00  0.00     0.198 A 
ATOM     93  F   UNL A   1      43.221  25.332  34.991  1.00  0.00    -0.203 F 
ATOM     94  F   UNL A   1      48.125  27.725  35.079  1.00  0.00    -0.200 F 
ATOM     95  C   UNL A   1      46.711  25.949  35.732  1.00  0.00     0.200 A 
ATOM     96  F   UNL A   1      45.266  24.187  36.344  1.00  0.00    -0.200 F 
ATOM     97  F   UNL A   1      47.729  25.357  36.373  1.00  0.00    -0.200 F 
ENDBRANCH  64  87
ENDBRANCH  38  39
ENDBRANCH  30  33
ENDBRANCH  28  29
ENDBRANCH  27  28
ENDBRANCH  26  27
ENDBRANCH  25  26
ENDBRANCH   1  25
TORSDOF 17
ENDMDL
