MODEL 1
REMARK VINA RESULT:     -13.0      0.000      0.000
REMARK SMILES O=C(NCCCCCCNC(=O)[C@H](Cc1ccc([N+](=O)[O-])cc1)c1ccccc1Br)c1ccc(-c2c3nc(c(-c4c(F)c(F)c(F)c(F)c4F)c4ccc([nH]4)c(-c4c(F)c(F)c(F)c(F)c4F)c4nc(c(-c5c(F)c(F)c(F)c(F)c5F)c5ccc2[nH]5)C=C4)C=C3)cc1
REMARK SMILES IDX 7 1 6 2 5 3 4 4 3 5 1 6 2 7 31 9 32 10 93 11 33 12 92 13
REMARK SMILES IDX 34 14 35 15 36 16 86 17 37 18 91 19 85 20 87 21 38 22 90 23
REMARK SMILES IDX 84 24 83 25 39 27 71 28 51 29 70 30 52 31 55 32 69 33 88 34
REMARK SMILES IDX 53 35 54 36 68 38 89 39 56 40 40 41 41 42 49 43 42 44 43 45
REMARK SMILES IDX 47 46 50 47 44 48 45 49 48 50 46 51 72 52 73 53 81 54 74 55
REMARK SMILES IDX 75 56 79 57 82 58 76 59 77 60 80 61 78 62 57 63 58 64 66 65
REMARK SMILES IDX 59 66 60 67 64 68 67 69 61 70 62 71 65 72 63 73 8 74 9 75
REMARK SMILES IDX 10 76 11 77 12 79 13 80 24 81 25 82 29 83 26 84 28 85 30 86
REMARK SMILES IDX 27 87 14 88 15 89 16 90 23 91 17 92 22 93 18 94 19 95 20 96
REMARK SMILES IDX 21 97
REMARK H PARENT 3 8 87 26 55 37 10 78
REMARK Flexibility Score: inf
ROOT
ATOM      1  C   UNL A   1      32.067  29.453  27.239  1.00  0.00     0.002 C 
ENDROOT
BRANCH   1   2
ATOM      2  C   UNL A   1      31.766  30.424  26.095  1.00  0.00     0.002 C 
BRANCH   2   3
ATOM      3  C   UNL A   1      31.488  31.869  26.506  1.00  0.00     0.021 C 
BRANCH   3   4
ATOM      4  C   UNL A   1      32.617  32.571  27.249  1.00  0.00     0.116 C 
BRANCH   4   5
ATOM      5  N   UNL A   1      32.316  33.949  27.598  1.00  0.00    -0.352 N 
ATOM      6  O   UNL A   1      32.505  35.887  28.741  1.00  0.00    -0.269 OA
ATOM      7  C   UNL A   1      32.946  34.776  28.503  1.00  0.00     0.251 C 
ATOM      8  H   UNL A   1      31.555  34.349  27.118  1.00  0.00     0.163 HD
BRANCH   7   9
ATOM      9  C   UNL A   1      34.145  34.285  29.221  1.00  0.00     0.039 A 
ATOM     10  C   UNL A   1      35.428  34.538  28.735  1.00  0.00     0.014 A 
ATOM     11  C   UNL A   1      33.973  33.531  30.386  1.00  0.00     0.014 A 
ATOM     12  C   UNL A   1      36.521  33.897  29.308  1.00  0.00     0.010 A 
ATOM     13  C   UNL A   1      35.084  32.961  31.016  1.00  0.00     0.010 A 
ATOM     14  C   UNL A   1      36.362  33.099  30.454  1.00  0.00    -0.014 A 
BRANCH  14  15
ATOM     15  C   UNL A   1      37.554  32.437  31.047  1.00  0.00     0.031 A 
ATOM     16  C   UNL A   1      38.026  32.781  32.434  1.00  0.00     0.074 A 
ATOM     17  C   UNL A   1      38.187  31.482  30.339  1.00  0.00     0.049 A 
ATOM     18  N   UNL A   1      39.014  32.263  33.122  1.00  0.00    -0.248 NA
ATOM     19  C   UNL A   1      37.303  33.850  33.141  1.00  0.00     0.031 C 
ATOM     20  C   UNL A   1      37.833  31.071  28.979  1.00  0.00     0.029 A 
ATOM     21  N   UNL A   1      39.240  30.667  30.668  1.00  0.00    -0.354 N 
ATOM     22  C   UNL A   1      39.048  32.958  34.326  1.00  0.00     0.074 A 
ATOM     23  C   UNL A   1      37.995  33.951  34.267  1.00  0.00     0.031 C 
ATOM     24  C   UNL A   1      38.615  30.046  28.612  1.00  0.00     0.029 A 
ATOM     25  C   UNL A   1      39.562  29.765  29.684  1.00  0.00     0.049 A 
ATOM     26  H   UNL A   1      39.719  30.724  31.527  1.00  0.00     0.167 HD
ATOM     27  C   UNL A   1      39.874  32.777  35.384  1.00  0.00     0.037 A 
ATOM     28  C   UNL A   1      40.518  28.819  29.647  1.00  0.00     0.037 A 
ATOM     29  C   UNL A   1      40.902  31.769  35.450  1.00  0.00     0.049 A 
ATOM     30  C   UNL A   1      41.418  28.641  30.836  1.00  0.00     0.074 A 
ATOM     31  C   UNL A   1      41.762  31.479  36.497  1.00  0.00     0.029 A 
ATOM     32  N   UNL A   1      41.212  30.887  34.425  1.00  0.00    -0.354 N 
ATOM     33  N   UNL A   1      41.410  29.275  31.983  1.00  0.00    -0.248 NA
ATOM     34  C   UNL A   1      42.461  27.613  30.724  1.00  0.00     0.031 C 
ATOM     35  C   UNL A   1      42.620  30.451  36.089  1.00  0.00     0.029 A 
ATOM     36  C   UNL A   1      42.262  30.066  34.807  1.00  0.00     0.049 A 
ATOM     37  H   UNL A   1      40.754  30.851  33.554  1.00  0.00     0.167 HD
ATOM     38  C   UNL A   1      42.428  28.709  32.738  1.00  0.00     0.074 A 
ATOM     39  C   UNL A   1      43.020  27.666  31.925  1.00  0.00     0.031 C 
ATOM     40  C   UNL A   1      42.835  29.025  33.991  1.00  0.00     0.037 A 
BRANCH  27  41
ATOM     41  C   UNL A   1      39.718  33.701  36.559  1.00  0.00     0.064 A 
ATOM     42  C   UNL A   1      40.368  34.942  36.616  1.00  0.00     0.173 A 
ATOM     43  C   UNL A   1      38.864  33.359  37.620  1.00  0.00     0.173 A 
ATOM     44  F   UNL A   1      41.202  35.314  35.633  1.00  0.00    -0.203 F 
ATOM     45  C   UNL A   1      40.191  35.795  37.704  1.00  0.00     0.198 A 
ATOM     46  C   UNL A   1      38.668  34.226  38.692  1.00  0.00     0.198 A 
ATOM     47  F   UNL A   1      38.211  32.188  37.612  1.00  0.00    -0.203 F 
ATOM     48  F   UNL A   1      40.857  36.957  37.757  1.00  0.00    -0.200 F 
ATOM     49  C   UNL A   1      39.336  35.440  38.737  1.00  0.00     0.200 A 
ATOM     50  F   UNL A   1      37.831  33.886  39.682  1.00  0.00    -0.200 F 
ATOM     51  F   UNL A   1      39.161  36.265  39.778  1.00  0.00    -0.200 F 
ENDBRANCH  27  41
BRANCH  28  52
ATOM     52  C   UNL A   1      40.656  27.958  28.446  1.00  0.00     0.064 A 
ATOM     53  C   UNL A   1      41.427  28.369  27.351  1.00  0.00     0.173 A 
ATOM     54  C   UNL A   1      40.031  26.705  28.371  1.00  0.00     0.173 A 
ATOM     55  F   UNL A   1      42.030  29.567  27.368  1.00  0.00    -0.203 F 
ATOM     56  C   UNL A   1      41.554  27.566  26.219  1.00  0.00     0.198 A 
ATOM     57  C   UNL A   1      40.183  25.889  27.252  1.00  0.00     0.198 A 
ATOM     58  F   UNL A   1      39.287  26.263  29.396  1.00  0.00    -0.203 F 
ATOM     59  F   UNL A   1      42.264  28.001  25.168  1.00  0.00    -0.200 F 
ATOM     60  C   UNL A   1      40.938  26.325  26.174  1.00  0.00     0.200 A 
ATOM     61  F   UNL A   1      39.601  24.684  27.221  1.00  0.00    -0.200 F 
ATOM     62  F   UNL A   1      41.068  25.549  25.089  1.00  0.00    -0.200 F 
ENDBRANCH  28  52
BRANCH  40  63
ATOM     63  C   UNL A   1      43.946  28.204  34.575  1.00  0.00     0.064 A 
ATOM     64  C   UNL A   1      43.695  27.019  35.282  1.00  0.00     0.173 A 
ATOM     65  C   UNL A   1      45.282  28.602  34.411  1.00  0.00     0.173 A 
ATOM     66  F   UNL A   1      42.433  26.605  35.481  1.00  0.00    -0.203 F 
ATOM     67  C   UNL A   1      44.739  26.280  35.834  1.00  0.00     0.198 A 
ATOM     68  C   UNL A   1      46.325  27.845  34.938  1.00  0.00     0.198 A 
ATOM     69  F   UNL A   1      45.575  29.724  33.737  1.00  0.00    -0.203 F 
ATOM     70  F   UNL A   1      44.473  25.182  36.553  1.00  0.00    -0.200 F 
ATOM     71  C   UNL A   1      46.051  26.690  35.656  1.00  0.00     0.200 A 
ATOM     72  F   UNL A   1      47.593  28.237  34.755  1.00  0.00    -0.200 F 
ATOM     73  F   UNL A   1      47.055  25.978  36.187  1.00  0.00    -0.200 F 
ENDBRANCH  40  63
ENDBRANCH  14  15
ENDBRANCH   7   9
ENDBRANCH   4   5
ENDBRANCH   3   4
ENDBRANCH   2   3
ENDBRANCH   1   2
BRANCH   1  74
ATOM     74  C   UNL A   1      33.292  28.551  27.052  1.00  0.00     0.021 C 
BRANCH  74  75
ATOM     75  C   UNL A   1      33.035  27.238  26.316  1.00  0.00     0.116 C 
BRANCH  75  76
ATOM     76  N   UNL A   1      31.802  26.611  26.738  1.00  0.00    -0.356 N 
ATOM     77  C   UNL A   1      30.746  26.189  25.987  1.00  0.00     0.227 C 
ATOM     78  H   UNL A   1      31.714  26.468  27.708  1.00  0.00     0.163 HD
ATOM     79  O   UNL A   1      29.787  25.716  26.601  1.00  0.00    -0.274 OA
BRANCH  77  80
ATOM     80  C   UNL A   1      30.740  26.376  24.458  1.00  0.00     0.114 C 
BRANCH  80  81
ATOM     81  C   UNL A   1      31.464  25.262  23.693  1.00  0.00    -0.021 A 
ATOM     82  C   UNL A   1      30.967  23.944  23.849  1.00  0.00     0.006 A 
ATOM     83  C   UNL A   1      32.604  25.432  22.891  1.00  0.00     0.021 A 
ATOM     84  C   UNL A   1      31.606  22.843  23.280  1.00  0.00     0.000 A 
ATOM     85  C   UNL A   1      33.234  24.321  22.308  1.00  0.00     0.016 A 
ATOM     86  Br  UNL A   1      33.383  27.120  22.517  1.00  0.00    -0.051 Br
ATOM     87  C   UNL A   1      32.746  23.031  22.513  1.00  0.00     0.001 A 
ENDBRANCH  80  81
BRANCH  80  88
ATOM     88  C   UNL A   1      29.275  26.641  23.991  1.00  0.00     0.053 C 
BRANCH  88  89
ATOM     89  C   UNL A   1      28.934  27.936  23.278  1.00  0.00    -0.046 A 
ATOM     90  C   UNL A   1      29.978  28.652  22.665  1.00  0.00     0.011 A 
ATOM     91  C   UNL A   1      27.635  28.452  23.201  1.00  0.00     0.011 A 
ATOM     92  C   UNL A   1      29.755  29.911  22.104  1.00  0.00     0.086 A 
ATOM     93  C   UNL A   1      27.405  29.730  22.685  1.00  0.00     0.086 A 
ATOM     94  C   UNL A   1      28.473  30.462  22.161  1.00  0.00     0.269 A 
BRANCH  94  95
ATOM     95  N   UNL A   1      28.252  31.831  21.694  1.00  0.00     0.062 N 
ATOM     96  O   UNL A   1      28.318  32.043  20.475  1.00  0.00    -0.258 OA
ATOM     97  O   UNL A   1      28.024  32.698  22.552  1.00  0.00    -0.258 OA
ENDBRANCH  94  95
ENDBRANCH  88  89
ENDBRANCH  80  88
ENDBRANCH  77  80
ENDBRANCH  75  76
ENDBRANCH  74  75
ENDBRANCH   1  74
TORSDOF 17
ENDMDL
MODEL 2
REMARK VINA RESULT:     -12.4      5.770     11.032
REMARK SMILES O=C(NCCCCCCNC(=O)[C@H](Cc1ccc([N+](=O)[O-])cc1)c1ccccc1Br)c1ccc(-c2c3nc(c(-c4c(F)c(F)c(F)c(F)c4F)c4ccc([nH]4)c(-c4c(F)c(F)c(F)c(F)c4F)c4nc(c(-c5c(F)c(F)c(F)c(F)c5F)c5ccc2[nH]5)C=C4)C=C3)cc1
REMARK SMILES IDX 7 1 6 2 5 3 4 4 3 5 1 6 2 7 31 9 32 10 93 11 33 12 92 13
REMARK SMILES IDX 34 14 35 15 36 16 86 17 37 18 91 19 85 20 87 21 38 22 90 23
REMARK SMILES IDX 84 24 83 25 39 27 71 28 51 29 70 30 52 31 55 32 69 33 88 34
REMARK SMILES IDX 53 35 54 36 68 38 89 39 56 40 40 41 41 42 49 43 42 44 43 45
REMARK SMILES IDX 47 46 50 47 44 48 45 49 48 50 46 51 72 52 73 53 81 54 74 55
REMARK SMILES IDX 75 56 79 57 82 58 76 59 77 60 80 61 78 62 57 63 58 64 66 65
REMARK SMILES IDX 59 66 60 67 64 68 67 69 61 70 62 71 65 72 63 73 8 74 9 75
REMARK SMILES IDX 10 76 11 77 12 79 13 80 24 81 25 82 29 83 26 84 28 85 30 86
REMARK SMILES IDX 27 87 14 88 15 89 16 90 23 91 17 92 22 93 18 94 19 95 20 96
REMARK SMILES IDX 21 97
REMARK H PARENT 3 8 87 26 55 37 10 78
REMARK Flexibility Score: inf
ROOT
ATOM      1  C   UNL A   1      36.931  22.089  25.808  1.00  0.00     0.002 C 
ENDROOT
BRANCH   1   2
ATOM      2  C   UNL A   1      37.252  21.188  24.612  1.00  0.00     0.002 C 
BRANCH   2   3
ATOM      3  C   UNL A   1      38.096  19.952  24.920  1.00  0.00     0.021 C 
BRANCH   3   4
ATOM      4  C   UNL A   1      39.235  20.162  25.908  1.00  0.00     0.116 C 
BRANCH   4   5
ATOM      5  N   UNL A   1      40.247  19.120  25.862  1.00  0.00    -0.352 N 
ATOM      6  O   UNL A   1      42.328  18.246  25.922  1.00  0.00    -0.269 OA
ATOM      7  C   UNL A   1      41.603  19.210  26.092  1.00  0.00     0.251 C 
ATOM      8  H   UNL A   1      39.915  18.221  25.636  1.00  0.00     0.163 HD
BRANCH   7   9
ATOM      9  C   UNL A   1      42.182  20.509  26.507  1.00  0.00     0.039 A 
ATOM     10  C   UNL A   1      42.192  20.896  27.847  1.00  0.00     0.014 A 
ATOM     11  C   UNL A   1      42.696  21.364  25.527  1.00  0.00     0.014 A 
ATOM     12  C   UNL A   1      42.550  22.196  28.186  1.00  0.00     0.010 A 
ATOM     13  C   UNL A   1      43.142  22.640  25.882  1.00  0.00     0.010 A 
ATOM     14  C   UNL A   1      43.027  23.085  27.208  1.00  0.00    -0.014 A 
BRANCH  14  15
ATOM     15  C   UNL A   1      43.412  24.464  27.607  1.00  0.00     0.031 A 
ATOM     16  C   UNL A   1      44.849  24.911  27.579  1.00  0.00     0.074 A 
ATOM     17  C   UNL A   1      42.444  25.334  27.955  1.00  0.00     0.049 A 
ATOM     18  N   UNL A   1      45.352  26.092  27.844  1.00  0.00    -0.248 NA
ATOM     19  C   UNL A   1      45.856  23.903  27.213  1.00  0.00     0.031 C 
ATOM     20  C   UNL A   1      41.017  25.015  28.034  1.00  0.00     0.029 A 
ATOM     21  N   UNL A   1      42.506  26.665  28.280  1.00  0.00    -0.354 N 
ATOM     22  C   UNL A   1      46.729  25.962  27.705  1.00  0.00     0.074 A 
ATOM     23  C   UNL A   1      46.986  24.581  27.352  1.00  0.00     0.031 C 
ATOM     24  C   UNL A   1      40.334  26.130  28.331  1.00  0.00     0.029 A 
ATOM     25  C   UNL A   1      41.276  27.228  28.518  1.00  0.00     0.049 A 
ATOM     26  H   UNL A   1      43.350  27.169  28.338  1.00  0.00     0.167 HD
ATOM     27  C   UNL A   1      47.687  26.909  27.848  1.00  0.00     0.037 A 
ATOM     28  C   UNL A   1      40.942  28.487  28.854  1.00  0.00     0.037 A 
ATOM     29  C   UNL A   1      47.425  28.289  28.172  1.00  0.00     0.049 A 
ATOM     30  C   UNL A   1      42.026  29.516  29.005  1.00  0.00     0.074 A 
ATOM     31  C   UNL A   1      48.325  29.334  28.296  1.00  0.00     0.029 A 
ATOM     32  N   UNL A   1      46.167  28.816  28.426  1.00  0.00    -0.354 N 
ATOM     33  N   UNL A   1      43.318  29.389  28.827  1.00  0.00    -0.248 NA
ATOM     34  C   UNL A   1      41.603  30.864  29.402  1.00  0.00     0.031 C 
ATOM     35  C   UNL A   1      47.617  30.483  28.668  1.00  0.00     0.029 A 
ATOM     36  C   UNL A   1      46.270  30.166  28.725  1.00  0.00     0.049 A 
ATOM     37  H   UNL A   1      45.325  28.307  28.398  1.00  0.00     0.167 HD
ATOM     38  C   UNL A   1      43.860  30.643  29.067  1.00  0.00     0.074 A 
ATOM     39  C   UNL A   1      42.753  31.522  29.384  1.00  0.00     0.031 C 
ATOM     40  C   UNL A   1      45.158  31.031  29.029  1.00  0.00     0.037 A 
BRANCH  27  41
ATOM     41  C   UNL A   1      49.119  26.487  27.675  1.00  0.00     0.064 A 
ATOM     42  C   UNL A   1      49.712  26.385  26.409  1.00  0.00     0.173 A 
ATOM     43  C   UNL A   1      49.922  26.229  28.798  1.00  0.00     0.173 A 
ATOM     44  F   UNL A   1      48.988  26.612  25.303  1.00  0.00    -0.203 F 
ATOM     45  C   UNL A   1      51.050  26.015  26.271  1.00  0.00     0.198 A 
ATOM     46  C   UNL A   1      51.264  25.886  28.658  1.00  0.00     0.198 A 
ATOM     47  F   UNL A   1      49.406  26.320  30.033  1.00  0.00    -0.203 F 
ATOM     48  F   UNL A   1      51.583  25.882  25.049  1.00  0.00    -0.200 F 
ATOM     49  C   UNL A   1      51.825  25.773  27.395  1.00  0.00     0.200 A 
ATOM     50  F   UNL A   1      52.015  25.666  29.745  1.00  0.00    -0.200 F 
ATOM     51  F   UNL A   1      53.112  25.425  27.260  1.00  0.00    -0.200 F 
ENDBRANCH  27  41
BRANCH  28  52
ATOM     52  C   UNL A   1      39.514  28.844  29.052  1.00  0.00     0.064 A 
ATOM     53  C   UNL A   1      38.734  29.307  27.985  1.00  0.00     0.173 A 
ATOM     54  C   UNL A   1      38.899  28.718  30.306  1.00  0.00     0.173 A 
ATOM     55  F   UNL A   1      39.283  29.461  26.771  1.00  0.00    -0.203 F 
ATOM     56  C   UNL A   1      37.396  29.649  28.169  1.00  0.00     0.198 A 
ATOM     57  C   UNL A   1      37.553  29.030  30.482  1.00  0.00     0.198 A 
ATOM     58  F   UNL A   1      39.602  28.272  31.358  1.00  0.00    -0.203 F 
ATOM     59  F   UNL A   1      36.682  30.129  27.141  1.00  0.00    -0.200 F 
ATOM     60  C   UNL A   1      36.805  29.503  29.415  1.00  0.00     0.200 A 
ATOM     61  F   UNL A   1      36.983  28.871  31.683  1.00  0.00    -0.200 F 
ATOM     62  F   UNL A   1      35.516  29.823  29.589  1.00  0.00    -0.200 F 
ENDBRANCH  28  52
BRANCH  40  63
ATOM     63  C   UNL A   1      45.445  32.479  29.294  1.00  0.00     0.064 A 
ATOM     64  C   UNL A   1      45.740  32.950  30.583  1.00  0.00     0.173 A 
ATOM     65  C   UNL A   1      45.437  33.408  28.242  1.00  0.00     0.173 A 
ATOM     66  F   UNL A   1      45.742  32.104  31.626  1.00  0.00    -0.203 F 
ATOM     67  C   UNL A   1      45.984  34.301  30.813  1.00  0.00     0.198 A 
ATOM     68  C   UNL A   1      45.711  34.753  28.470  1.00  0.00     0.198 A 
ATOM     69  F   UNL A   1      45.166  33.008  26.990  1.00  0.00    -0.203 F 
ATOM     70  F   UNL A   1      46.209  34.737  32.060  1.00  0.00    -0.200 F 
ATOM     71  C   UNL A   1      45.976  35.200  29.757  1.00  0.00     0.200 A 
ATOM     72  F   UNL A   1      45.714  35.618  27.447  1.00  0.00    -0.200 F 
ATOM     73  F   UNL A   1      46.212  36.500  29.980  1.00  0.00    -0.200 F 
ENDBRANCH  40  63
ENDBRANCH  14  15
ENDBRANCH   7   9
ENDBRANCH   4   5
ENDBRANCH   3   4
ENDBRANCH   2   3
ENDBRANCH   1   2
BRANCH   1  74
ATOM     74  C   UNL A   1      36.866  23.593  25.518  1.00  0.00     0.021 C 
BRANCH  74  75
ATOM     75  C   UNL A   1      35.484  24.135  25.161  1.00  0.00     0.116 C 
BRANCH  75  76
ATOM     76  N   UNL A   1      35.195  24.000  23.751  1.00  0.00    -0.356 N 
ATOM     77  C   UNL A   1      34.039  23.616  23.138  1.00  0.00     0.227 C 
ATOM     78  H   UNL A   1      35.940  24.217  23.146  1.00  0.00     0.163 HD
ATOM     79  O   UNL A   1      34.065  23.544  21.908  1.00  0.00    -0.274 OA
BRANCH  77  80
ATOM     80  C   UNL A   1      32.801  23.222  23.965  1.00  0.00     0.114 C 
BRANCH  80  81
ATOM     81  C   UNL A   1      31.848  24.388  24.253  1.00  0.00    -0.021 A 
ATOM     82  C   UNL A   1      31.937  25.518  23.404  1.00  0.00     0.006 A 
ATOM     83  C   UNL A   1      30.931  24.449  25.314  1.00  0.00     0.021 A 
ATOM     84  C   UNL A   1      31.191  26.674  23.631  1.00  0.00     0.000 A 
ATOM     85  C   UNL A   1      30.171  25.609  25.530  1.00  0.00     0.016 A 
ATOM     86  Br  UNL A   1      30.628  23.019  26.523  1.00  0.00    -0.051 Br
ATOM     87  C   UNL A   1      30.310  26.722  24.701  1.00  0.00     0.001 A 
ENDBRANCH  80  81
BRANCH  80  88
ATOM     88  C   UNL A   1      32.128  21.980  23.301  1.00  0.00     0.053 C 
BRANCH  88  89
ATOM     89  C   UNL A   1      32.651  20.589  23.601  1.00  0.00    -0.046 A 
ATOM     90  C   UNL A   1      32.159  19.515  22.837  1.00  0.00     0.011 A 
ATOM     91  C   UNL A   1      33.594  20.320  24.599  1.00  0.00     0.011 A 
ATOM     92  C   UNL A   1      32.501  18.197  23.144  1.00  0.00     0.086 A 
ATOM     93  C   UNL A   1      33.909  19.004  24.948  1.00  0.00     0.086 A 
ATOM     94  C   UNL A   1      33.340  17.949  24.232  1.00  0.00     0.269 A 
BRANCH  94  95
ATOM     95  N   UNL A   1      33.601  16.570  24.645  1.00  0.00     0.062 N 
ATOM     96  O   UNL A   1      34.262  15.853  23.879  1.00  0.00    -0.258 OA
ATOM     97  O   UNL A   1      33.135  16.200  25.733  1.00  0.00    -0.258 OA
ENDBRANCH  94  95
ENDBRANCH  88  89
ENDBRANCH  80  88
ENDBRANCH  77  80
ENDBRANCH  75  76
ENDBRANCH  74  75
ENDBRANCH   1  74
TORSDOF 17
ENDMDL
MODEL 3
REMARK VINA RESULT:     -12.2      5.576     11.071
REMARK SMILES O=C(NCCCCCCNC(=O)[C@H](Cc1ccc([N+](=O)[O-])cc1)c1ccccc1Br)c1ccc(-c2c3nc(c(-c4c(F)c(F)c(F)c(F)c4F)c4ccc([nH]4)c(-c4c(F)c(F)c(F)c(F)c4F)c4nc(c(-c5c(F)c(F)c(F)c(F)c5F)c5ccc2[nH]5)C=C4)C=C3)cc1
REMARK SMILES IDX 7 1 6 2 5 3 4 4 3 5 1 6 2 7 31 9 32 10 93 11 33 12 92 13
REMARK SMILES IDX 34 14 35 15 36 16 86 17 37 18 91 19 85 20 87 21 38 22 90 23
REMARK SMILES IDX 84 24 83 25 39 27 71 28 51 29 70 30 52 31 55 32 69 33 88 34
REMARK SMILES IDX 53 35 54 36 68 38 89 39 56 40 40 41 41 42 49 43 42 44 43 45
REMARK SMILES IDX 47 46 50 47 44 48 45 49 48 50 46 51 72 52 73 53 81 54 74 55
REMARK SMILES IDX 75 56 79 57 82 58 76 59 77 60 80 61 78 62 57 63 58 64 66 65
REMARK SMILES IDX 59 66 60 67 64 68 67 69 61 70 62 71 65 72 63 73 8 74 9 75
REMARK SMILES IDX 10 76 11 77 12 79 13 80 24 81 25 82 29 83 26 84 28 85 30 86
REMARK SMILES IDX 27 87 14 88 15 89 16 90 23 91 17 92 22 93 18 94 19 95 20 96
REMARK SMILES IDX 21 97
REMARK H PARENT 3 8 87 26 55 37 10 78
REMARK Flexibility Score: inf
ROOT
ATOM      1  C   UNL A   1      36.504  22.165  24.904  1.00  0.00     0.002 C 
ENDROOT
BRANCH   1   2
ATOM      2  C   UNL A   1      36.581  20.640  25.011  1.00  0.00     0.002 C 
BRANCH   2   3
ATOM      3  C   UNL A   1      37.935  20.018  24.675  1.00  0.00     0.021 C 
BRANCH   3   4
ATOM      4  C   UNL A   1      39.043  20.267  25.689  1.00  0.00     0.116 C 
BRANCH   4   5
ATOM      5  N   UNL A   1      40.025  19.198  25.755  1.00  0.00    -0.352 N 
ATOM      6  O   UNL A   1      42.074  18.274  25.967  1.00  0.00    -0.269 OA
ATOM      7  C   UNL A   1      41.371  19.266  26.043  1.00  0.00     0.251 C 
ATOM      8  H   UNL A   1      39.677  18.295  25.569  1.00  0.00     0.163 HD
BRANCH   7   9
ATOM      9  C   UNL A   1      41.969  20.572  26.405  1.00  0.00     0.039 A 
ATOM     10  C   UNL A   1      42.024  20.994  27.734  1.00  0.00     0.014 A 
ATOM     11  C   UNL A   1      42.454  21.399  25.387  1.00  0.00     0.014 A 
ATOM     12  C   UNL A   1      42.398  22.301  28.027  1.00  0.00     0.010 A 
ATOM     13  C   UNL A   1      42.917  22.682  25.694  1.00  0.00     0.010 A 
ATOM     14  C   UNL A   1      42.847  23.162  27.011  1.00  0.00    -0.014 A 
BRANCH  14  15
ATOM     15  C   UNL A   1      43.249  24.549  27.361  1.00  0.00     0.031 A 
ATOM     16  C   UNL A   1      44.637  25.053  27.072  1.00  0.00     0.074 A 
ATOM     17  C   UNL A   1      42.335  25.374  27.906  1.00  0.00     0.049 A 
ATOM     18  N   UNL A   1      45.139  26.250  27.264  1.00  0.00    -0.248 NA
ATOM     19  C   UNL A   1      45.593  24.093  26.499  1.00  0.00     0.031 C 
ATOM     20  C   UNL A   1      40.961  24.997  28.247  1.00  0.00     0.029 A 
ATOM     21  N   UNL A   1      42.408  26.701  28.244  1.00  0.00    -0.354 N 
ATOM     22  C   UNL A   1      46.467  26.177  26.863  1.00  0.00     0.074 A 
ATOM     23  C   UNL A   1      46.703  24.813  26.437  1.00  0.00     0.031 C 
ATOM     24  C   UNL A   1      40.306  26.078  28.693  1.00  0.00     0.029 A 
ATOM     25  C   UNL A   1      41.226  27.210  28.723  1.00  0.00     0.049 A 
ATOM     26  H   UNL A   1      43.229  27.237  28.153  1.00  0.00     0.167 HD
ATOM     27  C   UNL A   1      47.400  27.160  26.845  1.00  0.00     0.037 A 
ATOM     28  C   UNL A   1      40.917  28.449  29.145  1.00  0.00     0.037 A 
ATOM     29  C   UNL A   1      47.154  28.523  27.243  1.00  0.00     0.049 A 
ATOM     30  C   UNL A   1      41.971  29.518  29.111  1.00  0.00     0.074 A 
ATOM     31  C   UNL A   1      48.023  29.601  27.219  1.00  0.00     0.029 A 
ATOM     32  N   UNL A   1      45.949  28.995  27.743  1.00  0.00    -0.354 N 
ATOM     33  N   UNL A   1      43.210  29.446  28.689  1.00  0.00    -0.248 NA
ATOM     34  C   UNL A   1      41.582  30.842  29.612  1.00  0.00     0.031 C 
ATOM     35  C   UNL A   1      47.357  30.714  27.744  1.00  0.00     0.029 A 
ATOM     36  C   UNL A   1      46.057  30.343  28.048  1.00  0.00     0.049 A 
ATOM     37  H   UNL A   1      45.136  28.452  27.864  1.00  0.00     0.167 HD
ATOM     38  C   UNL A   1      43.741  30.718  28.851  1.00  0.00     0.074 A 
ATOM     39  C   UNL A   1      42.683  31.547  29.392  1.00  0.00     0.031 C 
ATOM     40  C   UNL A   1      44.993  31.158  28.576  1.00  0.00     0.037 A 
BRANCH  27  41
ATOM     41  C   UNL A   1      48.787  26.798  26.394  1.00  0.00     0.064 A 
ATOM     42  C   UNL A   1      49.728  26.238  27.271  1.00  0.00     0.173 A 
ATOM     43  C   UNL A   1      49.164  26.969  25.052  1.00  0.00     0.173 A 
ATOM     44  F   UNL A   1      49.424  26.062  28.565  1.00  0.00    -0.203 F 
ATOM     45  C   UNL A   1      51.002  25.887  26.827  1.00  0.00     0.198 A 
ATOM     46  C   UNL A   1      50.428  26.592  24.606  1.00  0.00     0.198 A 
ATOM     47  F   UNL A   1      48.300  27.493  24.170  1.00  0.00    -0.203 F 
ATOM     48  F   UNL A   1      51.899  25.394  27.693  1.00  0.00    -0.200 F 
ATOM     49  C   UNL A   1      51.348  26.057  25.494  1.00  0.00     0.200 A 
ATOM     50  F   UNL A   1      50.755  26.745  23.316  1.00  0.00    -0.200 F 
ATOM     51  F   UNL A   1      52.570  25.712  25.069  1.00  0.00    -0.200 F 
ENDBRANCH  27  41
BRANCH  28  52
ATOM     52  C   UNL A   1      39.540  28.745  29.618  1.00  0.00     0.064 A 
ATOM     53  C   UNL A   1      39.180  28.538  30.956  1.00  0.00     0.173 A 
ATOM     54  C   UNL A   1      38.563  29.249  28.748  1.00  0.00     0.173 A 
ATOM     55  F   UNL A   1      40.075  28.041  31.822  1.00  0.00    -0.203 F 
ATOM     56  C   UNL A   1      37.888  28.808  31.402  1.00  0.00     0.198 A 
ATOM     57  C   UNL A   1      37.281  29.549  29.201  1.00  0.00     0.198 A 
ATOM     58  F   UNL A   1      38.861  29.471  27.459  1.00  0.00    -0.203 F 
ATOM     59  F   UNL A   1      37.557  28.563  32.678  1.00  0.00    -0.200 F 
ATOM     60  C   UNL A   1      36.942  29.320  30.527  1.00  0.00     0.200 A 
ATOM     61  F   UNL A   1      36.376  30.059  28.356  1.00  0.00    -0.200 F 
ATOM     62  F   UNL A   1      35.703  29.589  30.958  1.00  0.00    -0.200 F 
ENDBRANCH  28  52
BRANCH  40  63
ATOM     63  C   UNL A   1      45.272  32.612  28.816  1.00  0.00     0.064 A 
ATOM     64  C   UNL A   1      45.017  33.585  27.837  1.00  0.00     0.173 A 
ATOM     65  C   UNL A   1      45.789  33.040  30.048  1.00  0.00     0.173 A 
ATOM     66  F   UNL A   1      44.538  33.224  26.636  1.00  0.00    -0.203 F 
ATOM     67  C   UNL A   1      45.301  34.927  28.072  1.00  0.00     0.198 A 
ATOM     68  C   UNL A   1      46.044  34.387  30.290  1.00  0.00     0.198 A 
ATOM     69  F   UNL A   1      46.045  32.151  31.019  1.00  0.00    -0.203 F 
ATOM     70  F   UNL A   1      45.101  35.832  27.103  1.00  0.00    -0.200 F 
ATOM     71  C   UNL A   1      45.808  35.328  29.299  1.00  0.00     0.200 A 
ATOM     72  F   UNL A   1      46.523  34.773  31.480  1.00  0.00    -0.200 F 
ATOM     73  F   UNL A   1      46.080  36.621  29.523  1.00  0.00    -0.200 F 
ENDBRANCH  40  63
ENDBRANCH  14  15
ENDBRANCH   7   9
ENDBRANCH   4   5
ENDBRANCH   3   4
ENDBRANCH   2   3
ENDBRANCH   1   2
BRANCH   1  74
ATOM     74  C   UNL A   1      35.676  22.874  25.982  1.00  0.00     0.021 C 
BRANCH  74  75
ATOM     75  C   UNL A   1      35.134  24.249  25.596  1.00  0.00     0.116 C 
BRANCH  75  76
ATOM     76  N   UNL A   1      35.021  24.406  24.163  1.00  0.00    -0.356 N 
ATOM     77  C   UNL A   1      33.936  24.749  23.414  1.00  0.00     0.227 C 
ATOM     78  H   UNL A   1      35.848  24.243  23.655  1.00  0.00     0.163 HD
ATOM     79  O   UNL A   1      34.095  24.777  22.192  1.00  0.00    -0.274 OA
BRANCH  77  80
ATOM     80  C   UNL A   1      32.569  25.007  24.076  1.00  0.00     0.114 C 
BRANCH  80  81
ATOM     81  C   UNL A   1      32.027  26.424  23.852  1.00  0.00    -0.021 A 
ATOM     82  C   UNL A   1      31.094  26.599  22.801  1.00  0.00     0.006 A 
ATOM     83  C   UNL A   1      32.414  27.568  24.568  1.00  0.00     0.021 A 
ATOM     84  C   UNL A   1      30.611  27.857  22.444  1.00  0.00     0.000 A 
ATOM     85  C   UNL A   1      31.913  28.830  24.215  1.00  0.00     0.016 A 
ATOM     86  Br  UNL A   1      33.607  27.530  26.042  1.00  0.00    -0.051 Br
ATOM     87  C   UNL A   1      31.026  28.977  23.149  1.00  0.00     0.001 A 
ENDBRANCH  80  81
BRANCH  80  88
ATOM     88  C   UNL A   1      31.589  23.863  23.670  1.00  0.00     0.053 C 
BRANCH  88  89
ATOM     89  C   UNL A   1      31.996  22.416  23.868  1.00  0.00    -0.046 A 
ATOM     90  C   UNL A   1      32.110  21.595  22.731  1.00  0.00     0.011 A 
ATOM     91  C   UNL A   1      32.262  21.856  25.123  1.00  0.00     0.011 A 
ATOM     92  C   UNL A   1      32.356  20.227  22.852  1.00  0.00     0.086 A 
ATOM     93  C   UNL A   1      32.463  20.481  25.264  1.00  0.00     0.086 A 
ATOM     94  C   UNL A   1      32.484  19.670  24.127  1.00  0.00     0.269 A 
BRANCH  94  95
ATOM     95  N   UNL A   1      32.611  18.220  24.274  1.00  0.00     0.062 N 
ATOM     96  O   UNL A   1      33.189  17.597  23.372  1.00  0.00    -0.258 OA
ATOM     97  O   UNL A   1      32.122  17.703  25.289  1.00  0.00    -0.258 OA
ENDBRANCH  94  95
ENDBRANCH  88  89
ENDBRANCH  80  88
ENDBRANCH  77  80
ENDBRANCH  75  76
ENDBRANCH  74  75
ENDBRANCH   1  74
TORSDOF 17
ENDMDL
