MODEL 1
REMARK VINA RESULT:     -11.3      0.000      0.000
REMARK SMILES COc1cc(/C=C2/SC(=O)N(c3ccc(O)cc3C)C2=O)ccc1OCC(=O)NCCCCCCNC(=O)c1ccc(-c2c3nc(c(-c4c(F)c(F)c(F)c(F)c4F)c4ccc([nH]4)c(-c4c(F)c(F)c(F)c(F)c4F)c4nc(c(-c5c(F)c(F)c(F)c(F)c5F)c5ccc2[nH]5)C=C4)C=C3)cc1
REMARK SMILES IDX 31 1 30 2 29 3 27 4 28 5 26 7 25 8 24 9 3 10 4 11 5 12 23 13
REMARK SMILES IDX 22 14 2 15 1 16 6 17 7 18 8 19 20 20 9 21 11 22 21 23 10 24
REMARK SMILES IDX 12 25 13 26 18 27 14 28 17 29 19 30 15 31 16 32 32 34 33 35
REMARK SMILES IDX 34 36 35 37 36 38 37 39 38 41 39 42 40 43 101 44 41 45
REMARK SMILES IDX 100 46 42 47 43 48 44 49 94 50 45 51 99 52 93 53 95 54 46 55
REMARK SMILES IDX 98 56 92 57 91 58 47 60 79 61 59 62 78 63 60 64 63 65 77 66
REMARK SMILES IDX 96 67 61 68 62 69 76 71 97 72 64 73 48 74 49 75 57 76 50 77
REMARK SMILES IDX 51 78 55 79 58 80 52 81 53 82 56 83 54 84 80 85 81 86 89 87
REMARK SMILES IDX 82 88 83 89 87 90 90 91 84 92 85 93 88 94 86 95 65 96 66 97
REMARK SMILES IDX 74 98 67 99 68 100 72 101 75 102 69 103 70 104 73 105 71 106
REMARK H PARENT 29 6 16 33 36 40 95 59 63 70
REMARK Flexibility Score: inf
ROOT
ATOM      1  C   UNL A   1      32.832  22.336  24.883  1.00  0.00     0.021 C 
ENDROOT
BRANCH   1   2
ATOM      2  C   UNL A   1      31.633  23.207  24.512  1.00  0.00     0.116 C 
BRANCH   2   3
ATOM      3  N   UNL A   1      30.873  23.631  25.668  1.00  0.00    -0.353 N 
ATOM      4  C   UNL A   1      30.229  24.815  25.882  1.00  0.00     0.257 C 
ATOM      5  O   UNL A   1      29.479  24.891  26.858  1.00  0.00    -0.271 OA
ATOM      6  H   UNL A   1      30.812  22.976  26.399  1.00  0.00     0.163 HD
BRANCH   4   7
ATOM      7  C   UNL A   1      30.384  25.965  24.882  1.00  0.00     0.329 C 
BRANCH   7   8
ATOM      8  O   UNL A   1      30.317  27.279  25.404  1.00  0.00    -0.480 OA
BRANCH   8   9
ATOM      9  C   UNL A   1      31.453  27.973  25.703  1.00  0.00     0.161 A 
ATOM     10  C   UNL A   1      32.224  28.796  24.876  1.00  0.00     0.161 A 
ATOM     11  C   UNL A   1      33.445  29.308  25.341  1.00  0.00     0.058 A 
ATOM     12  C   UNL A   1      33.886  29.030  26.640  1.00  0.00    -0.020 A 
ATOM     13  C   UNL A   1      31.876  27.754  27.023  1.00  0.00     0.051 A 
ATOM     14  C   UNL A   1      33.070  28.292  27.499  1.00  0.00     0.012 A 
BRANCH  10  15
ATOM     15  O   UNL A   1      31.890  28.988  23.564  1.00  0.00    -0.493 OA
ATOM     16  C   UNL A   1      32.543  28.059  22.698  1.00  0.00     0.278 C 
ENDBRANCH  10  15
BRANCH  12  17
ATOM     17  C   UNL A   1      35.262  29.351  27.029  1.00  0.00     0.029 C 
ATOM     18  C   UNL A   1      35.584  30.474  27.693  1.00  0.00     0.083 C 
ATOM     19  S   UNL A   1      37.195  30.880  28.141  1.00  0.00    -0.022 SA
ATOM     20  C   UNL A   1      34.650  31.561  28.122  1.00  0.00     0.272 C 
ATOM     21  C   UNL A   1      36.713  32.428  28.830  1.00  0.00     0.298 C 
ATOM     22  N   UNL A   1      35.361  32.619  28.660  1.00  0.00    -0.236 N 
ATOM     23  O   UNL A   1      33.437  31.513  27.963  1.00  0.00    -0.268 OA
ATOM     24  O   UNL A   1      37.522  33.143  29.399  1.00  0.00    -0.260 OA
BRANCH  22  25
ATOM     25  C   UNL A   1      34.696  33.816  29.057  1.00  0.00     0.056 A 
ATOM     26  C   UNL A   1      34.549  34.851  28.111  1.00  0.00     0.031 A 
ATOM     27  C   UNL A   1      34.244  34.032  30.377  1.00  0.00    -0.023 A 
ATOM     28  C   UNL A   1      33.947  36.063  28.448  1.00  0.00     0.048 A 
ATOM     29  C   UNL A   1      33.624  35.258  30.697  1.00  0.00     0.051 A 
ATOM     30  C   UNL A   1      34.445  33.062  31.510  1.00  0.00     0.047 C 
ATOM     31  C   UNL A   1      33.488  36.258  29.739  1.00  0.00     0.115 A 
BRANCH  31  32
ATOM     32  O   UNL A   1      32.924  37.460  30.037  1.00  0.00    -0.508 OA
ATOM     33  H   UNL A   1      31.996  37.527  30.152  1.00  0.00     0.293 HD
ENDBRANCH  31  32
ENDBRANCH  22  25
ENDBRANCH  12  17
ENDBRANCH   8   9
ENDBRANCH   7   8
ENDBRANCH   4   7
ENDBRANCH   2   3
ENDBRANCH   1   2
BRANCH   1  34
ATOM     34  C   UNL A   1      33.866  22.126  23.770  1.00  0.00     0.002 C 
BRANCH  34  35
ATOM     35  C   UNL A   1      35.282  22.625  24.063  1.00  0.00     0.002 C 
BRANCH  35  36
ATOM     36  C   UNL A   1      35.390  23.763  25.079  1.00  0.00     0.021 C 
BRANCH  36  37
ATOM     37  C   UNL A   1      36.420  23.552  26.179  1.00  0.00     0.116 C 
BRANCH  37  38
ATOM     38  N   UNL A   1      37.190  22.335  25.996  1.00  0.00    -0.352 N 
ATOM     39  C   UNL A   1      38.545  22.142  26.108  1.00  0.00     0.251 C 
ATOM     40  H   UNL A   1      36.667  21.535  25.757  1.00  0.00     0.163 HD
ATOM     41  O   UNL A   1      39.051  21.081  25.758  1.00  0.00    -0.269 OA
BRANCH  39  42
ATOM     42  C   UNL A   1      39.403  23.229  26.627  1.00  0.00     0.039 A 
ATOM     43  C   UNL A   1      40.363  22.926  27.596  1.00  0.00     0.014 A 
ATOM     44  C   UNL A   1      39.265  24.540  26.161  1.00  0.00     0.014 A 
ATOM     45  C   UNL A   1      41.226  23.925  28.053  1.00  0.00     0.010 A 
ATOM     46  C   UNL A   1      40.172  25.518  26.563  1.00  0.00     0.010 A 
ATOM     47  C   UNL A   1      41.160  25.221  27.515  1.00  0.00    -0.014 A 
BRANCH  47  48
ATOM     48  C   UNL A   1      42.112  26.279  27.941  1.00  0.00     0.031 A 
ATOM     49  C   UNL A   1      41.724  27.255  29.018  1.00  0.00     0.074 A 
ATOM     50  C   UNL A   1      43.299  26.402  27.315  1.00  0.00     0.049 A 
ATOM     51  N   UNL A   1      42.383  28.290  29.476  1.00  0.00    -0.248 NA
ATOM     52  C   UNL A   1      40.408  27.058  29.647  1.00  0.00     0.031 C 
ATOM     53  C   UNL A   1      43.771  25.548  26.224  1.00  0.00     0.029 A 
ATOM     54  N   UNL A   1      44.321  27.300  27.498  1.00  0.00    -0.354 N 
ATOM     55  C   UNL A   1      41.559  28.872  30.430  1.00  0.00     0.074 A 
ATOM     56  C   UNL A   1      40.331  28.108  30.452  1.00  0.00     0.031 C 
ATOM     57  C   UNL A   1      44.994  25.952  25.846  1.00  0.00     0.029 A 
ATOM     58  C   UNL A   1      45.378  27.115  26.640  1.00  0.00     0.049 A 
ATOM     59  H   UNL A   1      44.298  28.010  28.180  1.00  0.00     0.167 HD
ATOM     60  C   UNL A   1      41.814  29.935  31.229  1.00  0.00     0.037 A 
ATOM     61  C   UNL A   1      46.521  27.813  26.502  1.00  0.00     0.037 A 
ATOM     62  C   UNL A   1      43.048  30.673  31.228  1.00  0.00     0.049 A 
ATOM     63  C   UNL A   1      46.777  28.991  27.407  1.00  0.00     0.074 A 
ATOM     64  C   UNL A   1      43.427  31.722  32.047  1.00  0.00     0.029 A 
ATOM     65  N   UNL A   1      44.108  30.439  30.363  1.00  0.00    -0.354 N 
ATOM     66  N   UNL A   1      46.021  29.484  28.356  1.00  0.00    -0.248 NA
ATOM     67  C   UNL A   1      48.050  29.701  27.225  1.00  0.00     0.031 C 
ATOM     68  C   UNL A   1      44.695  32.155  31.647  1.00  0.00     0.029 A 
ATOM     69  C   UNL A   1      45.130  31.339  30.613  1.00  0.00     0.049 A 
ATOM     70  H   UNL A   1      44.129  29.737  29.672  1.00  0.00     0.167 HD
ATOM     71  C   UNL A   1      46.737  30.540  28.904  1.00  0.00     0.074 A 
ATOM     72  C   UNL A   1      47.996  30.605  28.193  1.00  0.00     0.031 C 
ATOM     73  C   UNL A   1      46.383  31.382  29.906  1.00  0.00     0.037 A 
BRANCH  60  74
ATOM     74  C   UNL A   1      40.738  30.366  32.184  1.00  0.00     0.064 A 
ATOM     75  C   UNL A   1      39.670  31.177  31.772  1.00  0.00     0.173 A 
ATOM     76  C   UNL A   1      40.740  29.908  33.510  1.00  0.00     0.173 A 
ATOM     77  F   UNL A   1      39.627  31.650  30.517  1.00  0.00    -0.203 F 
ATOM     78  C   UNL A   1      38.657  31.532  32.658  1.00  0.00     0.198 A 
ATOM     79  C   UNL A   1      39.709  30.240  34.385  1.00  0.00     0.198 A 
ATOM     80  F   UNL A   1      41.734  29.124  33.955  1.00  0.00    -0.203 F 
ATOM     81  F   UNL A   1      37.668  32.341  32.252  1.00  0.00    -0.200 F 
ATOM     82  C   UNL A   1      38.671  31.055  33.960  1.00  0.00     0.200 A 
ATOM     83  F   UNL A   1      39.717  29.768  35.639  1.00  0.00    -0.200 F 
ATOM     84  F   UNL A   1      37.687  31.385  34.806  1.00  0.00    -0.200 F 
ENDBRANCH  60  74
BRANCH  61  85
ATOM     85  C   UNL A   1      47.522  27.417  25.476  1.00  0.00     0.064 A 
ATOM     86  C   UNL A   1      48.638  26.639  25.819  1.00  0.00     0.173 A 
ATOM     87  C   UNL A   1      47.402  27.829  24.140  1.00  0.00     0.173 A 
ATOM     88  F   UNL A   1      48.810  26.238  27.087  1.00  0.00    -0.203 F 
ATOM     89  C   UNL A   1      49.609  26.315  24.874  1.00  0.00     0.198 A 
ATOM     90  C   UNL A   1      48.357  27.478  23.189  1.00  0.00     0.198 A 
ATOM     91  F   UNL A   1      46.350  28.570  23.759  1.00  0.00    -0.203 F 
ATOM     92  F   UNL A   1      50.695  25.622  25.241  1.00  0.00    -0.200 F 
ATOM     93  C   UNL A   1      49.466  26.732  23.558  1.00  0.00     0.200 A 
ATOM     94  F   UNL A   1      48.207  27.870  21.917  1.00  0.00    -0.200 F 
ATOM     95  F   UNL A   1      50.401  26.424  22.650  1.00  0.00    -0.200 F 
ENDBRANCH  61  85
BRANCH  73  96
ATOM     96  C   UNL A   1      47.386  32.418  30.323  1.00  0.00     0.064 A 
ATOM     97  C   UNL A   1      47.409  33.697  29.746  1.00  0.00     0.173 A 
ATOM     98  C   UNL A   1      48.309  32.141  31.343  1.00  0.00     0.173 A 
ATOM     99  F   UNL A   1      46.557  34.006  28.757  1.00  0.00    -0.203 F 
ATOM    100  C   UNL A   1      48.337  34.649  30.156  1.00  0.00     0.198 A 
ATOM    101  C   UNL A   1      49.214  33.107  31.772  1.00  0.00     0.198 A 
ATOM    102  F   UNL A   1      48.323  30.936  31.933  1.00  0.00    -0.203 F 
ATOM    103  F   UNL A   1      48.373  35.848  29.557  1.00  0.00    -0.200 F 
ATOM    104  C   UNL A   1      49.232  34.357  31.174  1.00  0.00     0.200 A 
ATOM    105  F   UNL A   1      50.069  32.828  32.767  1.00  0.00    -0.200 F 
ATOM    106  F   UNL A   1      50.119  35.279  31.574  1.00  0.00    -0.200 F 
ENDBRANCH  73  96
ENDBRANCH  47  48
ENDBRANCH  39  42
ENDBRANCH  37  38
ENDBRANCH  36  37
ENDBRANCH  35  36
ENDBRANCH  34  35
ENDBRANCH   1  34
TORSDOF 19
ENDMDL
MODEL 2
REMARK VINA RESULT:     -11.1      0.999      6.924
REMARK SMILES COc1cc(/C=C2/SC(=O)N(c3ccc(O)cc3C)C2=O)ccc1OCC(=O)NCCCCCCNC(=O)c1ccc(-c2c3nc(c(-c4c(F)c(F)c(F)c(F)c4F)c4ccc([nH]4)c(-c4c(F)c(F)c(F)c(F)c4F)c4nc(c(-c5c(F)c(F)c(F)c(F)c5F)c5ccc2[nH]5)C=C4)C=C3)cc1
REMARK SMILES IDX 31 1 30 2 29 3 27 4 28 5 26 7 25 8 24 9 3 10 4 11 5 12 23 13
REMARK SMILES IDX 22 14 2 15 1 16 6 17 7 18 8 19 20 20 9 21 11 22 21 23 10 24
REMARK SMILES IDX 12 25 13 26 18 27 14 28 17 29 19 30 15 31 16 32 32 34 33 35
REMARK SMILES IDX 34 36 35 37 36 38 37 39 38 41 39 42 40 43 101 44 41 45
REMARK SMILES IDX 100 46 42 47 43 48 44 49 94 50 45 51 99 52 93 53 95 54 46 55
REMARK SMILES IDX 98 56 92 57 91 58 47 60 79 61 59 62 78 63 60 64 63 65 77 66
REMARK SMILES IDX 96 67 61 68 62 69 76 71 97 72 64 73 48 74 49 75 57 76 50 77
REMARK SMILES IDX 51 78 55 79 58 80 52 81 53 82 56 83 54 84 80 85 81 86 89 87
REMARK SMILES IDX 82 88 83 89 87 90 90 91 84 92 85 93 88 94 86 95 65 96 66 97
REMARK SMILES IDX 74 98 67 99 68 100 72 101 75 102 69 103 70 104 73 105 71 106
REMARK H PARENT 29 6 16 33 36 40 95 59 63 70
REMARK Flexibility Score: inf
ROOT
ATOM      1  C   UNL A   1      33.161  22.561  24.151  1.00  0.00     0.021 C 
ENDROOT
BRANCH   1   2
ATOM      2  C   UNL A   1      31.786  23.219  24.035  1.00  0.00     0.116 C 
BRANCH   2   3
ATOM      3  N   UNL A   1      31.205  23.527  25.323  1.00  0.00    -0.353 N 
ATOM      4  C   UNL A   1      30.513  24.639  25.706  1.00  0.00     0.257 C 
ATOM      5  O   UNL A   1      29.939  24.609  26.797  1.00  0.00    -0.271 OA
ATOM      6  H   UNL A   1      31.325  22.841  26.017  1.00  0.00     0.163 HD
BRANCH   4   7
ATOM      7  C   UNL A   1      30.399  25.837  24.758  1.00  0.00     0.329 C 
BRANCH   7   8
ATOM      8  O   UNL A   1      30.341  27.119  25.353  1.00  0.00    -0.480 OA
BRANCH   8   9
ATOM      9  C   UNL A   1      31.481  27.810  25.646  1.00  0.00     0.161 A 
ATOM     10  C   UNL A   1      32.294  28.565  24.795  1.00  0.00     0.161 A 
ATOM     11  C   UNL A   1      33.511  29.082  25.267  1.00  0.00     0.058 A 
ATOM     12  C   UNL A   1      33.906  28.876  26.593  1.00  0.00    -0.020 A 
ATOM     13  C   UNL A   1      31.859  27.664  26.989  1.00  0.00     0.051 A 
ATOM     14  C   UNL A   1      33.049  28.208  27.470  1.00  0.00     0.012 A 
BRANCH  10  15
ATOM     15  O   UNL A   1      32.004  28.683  23.463  1.00  0.00    -0.493 OA
ATOM     16  C   UNL A   1      33.181  28.716  22.655  1.00  0.00     0.278 C 
ENDBRANCH  10  15
BRANCH  12  17
ATOM     17  C   UNL A   1      35.275  29.195  27.006  1.00  0.00     0.029 C 
ATOM     18  C   UNL A   1      35.590  30.324  27.662  1.00  0.00     0.083 C 
ATOM     19  S   UNL A   1      37.194  30.727  28.138  1.00  0.00    -0.022 SA
ATOM     20  C   UNL A   1      34.654  31.421  28.061  1.00  0.00     0.272 C 
ATOM     21  C   UNL A   1      36.707  32.285  28.800  1.00  0.00     0.298 C 
ATOM     22  N   UNL A   1      35.359  32.481  28.601  1.00  0.00    -0.236 N 
ATOM     23  O   UNL A   1      33.444  31.377  27.880  1.00  0.00    -0.268 OA
ATOM     24  O   UNL A   1      37.508  33.003  29.376  1.00  0.00    -0.260 OA
BRANCH  22  25
ATOM     25  C   UNL A   1      34.693  33.685  28.971  1.00  0.00     0.056 A 
ATOM     26  C   UNL A   1      34.536  34.695  28.000  1.00  0.00     0.031 A 
ATOM     27  C   UNL A   1      34.250  33.934  30.289  1.00  0.00    -0.023 A 
ATOM     28  C   UNL A   1      33.932  35.913  28.310  1.00  0.00     0.048 A 
ATOM     29  C   UNL A   1      33.627  35.166  30.581  1.00  0.00     0.051 A 
ATOM     30  C   UNL A   1      34.462  32.995  31.445  1.00  0.00     0.047 C 
ATOM     31  C   UNL A   1      33.481  36.140  29.598  1.00  0.00     0.115 A 
BRANCH  31  32
ATOM     32  O   UNL A   1      32.915  37.348  29.869  1.00  0.00    -0.508 OA
ATOM     33  H   UNL A   1      32.338  37.745  29.246  1.00  0.00     0.293 HD
ENDBRANCH  31  32
ENDBRANCH  22  25
ENDBRANCH  12  17
ENDBRANCH   8   9
ENDBRANCH   7   8
ENDBRANCH   4   7
ENDBRANCH   2   3
ENDBRANCH   1   2
BRANCH   1  34
ATOM     34  C   UNL A   1      34.243  23.123  23.222  1.00  0.00     0.002 C 
BRANCH  34  35
ATOM     35  C   UNL A   1      35.583  23.468  23.878  1.00  0.00     0.002 C 
BRANCH  35  36
ATOM     36  C   UNL A   1      35.520  23.857  25.355  1.00  0.00     0.021 C 
BRANCH  36  37
ATOM     37  C   UNL A   1      36.859  23.870  26.078  1.00  0.00     0.116 C 
BRANCH  37  38
ATOM     38  N   UNL A   1      37.526  22.581  26.038  1.00  0.00    -0.352 N 
ATOM     39  C   UNL A   1      38.847  22.283  26.261  1.00  0.00     0.251 C 
ATOM     40  H   UNL A   1      36.950  21.813  25.819  1.00  0.00     0.163 HD
ATOM     41  O   UNL A   1      39.278  21.160  26.025  1.00  0.00    -0.269 OA
BRANCH  39  42
ATOM     42  C   UNL A   1      39.764  23.331  26.762  1.00  0.00     0.039 A 
ATOM     43  C   UNL A   1      39.700  24.608  26.198  1.00  0.00     0.014 A 
ATOM     44  C   UNL A   1      40.678  23.060  27.784  1.00  0.00     0.014 A 
ATOM     45  C   UNL A   1      40.512  25.628  26.700  1.00  0.00     0.010 A 
ATOM     46  C   UNL A   1      41.433  24.094  28.331  1.00  0.00     0.010 A 
ATOM     47  C   UNL A   1      41.360  25.389  27.793  1.00  0.00    -0.014 A 
BRANCH  47  48
ATOM     48  C   UNL A   1      42.181  26.477  28.382  1.00  0.00     0.031 A 
ATOM     49  C   UNL A   1      43.635  26.608  28.019  1.00  0.00     0.074 A 
ATOM     50  C   UNL A   1      41.635  27.309  29.292  1.00  0.00     0.049 A 
ATOM     51  N   UNL A   1      44.533  27.442  28.479  1.00  0.00    -0.248 NA
ATOM     52  C   UNL A   1      44.156  25.657  27.023  1.00  0.00     0.031 C 
ATOM     53  C   UNL A   1      40.251  27.254  29.763  1.00  0.00     0.029 A 
ATOM     54  N   UNL A   1      42.183  28.355  29.993  1.00  0.00    -0.354 N 
ATOM     55  C   UNL A   1      45.722  27.107  27.844  1.00  0.00     0.074 A 
ATOM     56  C   UNL A   1      45.445  25.964  27.003  1.00  0.00     0.031 C 
ATOM     57  C   UNL A   1      40.053  28.232  30.661  1.00  0.00     0.029 A 
ATOM     58  C   UNL A   1      41.304  28.959  30.859  1.00  0.00     0.049 A 
ATOM     59  H   UNL A   1      43.118  28.644  29.885  1.00  0.00     0.167 HD
ATOM     60  C   UNL A   1      46.929  27.714  27.939  1.00  0.00     0.037 A 
ATOM     61  C   UNL A   1      41.490  29.976  31.722  1.00  0.00     0.037 A 
ATOM     62  C   UNL A   1      47.193  28.872  28.751  1.00  0.00     0.049 A 
ATOM     63  C   UNL A   1      42.844  30.631  31.804  1.00  0.00     0.074 A 
ATOM     64  C   UNL A   1      48.365  29.599  28.861  1.00  0.00     0.029 A 
ATOM     65  N   UNL A   1      46.269  29.472  29.594  1.00  0.00    -0.354 N 
ATOM     66  N   UNL A   1      43.939  30.352  31.142  1.00  0.00    -0.248 NA
ATOM     67  C   UNL A   1      42.982  31.748  32.748  1.00  0.00     0.031 C 
ATOM     68  C   UNL A   1      48.166  30.610  29.807  1.00  0.00     0.029 A 
ATOM     69  C   UNL A   1      46.853  30.546  30.245  1.00  0.00     0.049 A 
ATOM     70  H   UNL A   1      45.337  29.178  29.713  1.00  0.00     0.167 HD
ATOM     71  C   UNL A   1      44.885  31.277  31.565  1.00  0.00     0.074 A 
ATOM     72  C   UNL A   1      44.230  32.135  32.528  1.00  0.00     0.031 C 
ATOM     73  C   UNL A   1      46.183  31.401  31.191  1.00  0.00     0.037 A 
BRANCH  60  74
ATOM     74  C   UNL A   1      48.063  27.144  27.137  1.00  0.00     0.064 A 
ATOM     75  C   UNL A   1      48.316  27.561  25.821  1.00  0.00     0.173 A 
ATOM     76  C   UNL A   1      48.947  26.220  27.714  1.00  0.00     0.173 A 
ATOM     77  F   UNL A   1      47.494  28.435  25.220  1.00  0.00    -0.203 F 
ATOM     78  C   UNL A   1      49.398  27.055  25.106  1.00  0.00     0.198 A 
ATOM     79  C   UNL A   1      50.045  25.740  27.005  1.00  0.00     0.198 A 
ATOM     80  F   UNL A   1      48.755  25.793  28.971  1.00  0.00    -0.203 F 
ATOM     81  F   UNL A   1      49.595  27.438  23.836  1.00  0.00    -0.200 F 
ATOM     82  C   UNL A   1      50.267  26.154  25.701  1.00  0.00     0.200 A 
ATOM     83  F   UNL A   1      50.892  24.879  27.586  1.00  0.00    -0.200 F 
ATOM     84  F   UNL A   1      51.316  25.681  25.015  1.00  0.00    -0.200 F 
ENDBRANCH  60  74
BRANCH  61  85
ATOM     85  C   UNL A   1      40.366  30.450  32.573  1.00  0.00     0.064 A 
ATOM     86  C   UNL A   1      39.439  31.384  32.090  1.00  0.00     0.173 A 
ATOM     87  C   UNL A   1      40.213  30.004  33.895  1.00  0.00     0.173 A 
ATOM     88  F   UNL A   1      39.555  31.857  30.841  1.00  0.00    -0.203 F 
ATOM     89  C   UNL A   1      38.420  31.876  32.904  1.00  0.00     0.198 A 
ATOM     90  C   UNL A   1      39.175  30.473  34.697  1.00  0.00     0.198 A 
ATOM     91  F   UNL A   1      41.070  29.107  34.404  1.00  0.00    -0.203 F 
ATOM     92  F   UNL A   1      37.584  32.812  32.435  1.00  0.00    -0.200 F 
ATOM     93  C   UNL A   1      38.287  31.417  34.206  1.00  0.00     0.200 A 
ATOM     94  F   UNL A   1      39.041  30.015  35.950  1.00  0.00    -0.200 F 
ATOM     95  F   UNL A   1      37.310  31.893  34.990  1.00  0.00    -0.200 F 
ENDBRANCH  61  85
BRANCH  73  96
ATOM     96  C   UNL A   1      46.967  32.532  31.790  1.00  0.00     0.064 A 
ATOM     97  C   UNL A   1      46.996  33.804  31.200  1.00  0.00     0.173 A 
ATOM     98  C   UNL A   1      47.665  32.350  32.994  1.00  0.00     0.173 A 
ATOM     99  F   UNL A   1      46.356  34.025  30.042  1.00  0.00    -0.203 F 
ATOM    100  C   UNL A   1      47.716  34.844  31.779  1.00  0.00     0.198 A 
ATOM    101  C   UNL A   1      48.359  33.401  33.586  1.00  0.00     0.198 A 
ATOM    102  F   UNL A   1      47.663  31.154  33.602  1.00  0.00    -0.203 F 
ATOM    103  F   UNL A   1      47.770  36.039  31.172  1.00  0.00    -0.200 F 
ATOM    104  C   UNL A   1      48.390  34.644  32.974  1.00  0.00     0.200 A 
ATOM    105  F   UNL A   1      48.997  33.210  34.749  1.00  0.00    -0.200 F 
ATOM    106  F   UNL A   1      49.077  35.651  33.535  1.00  0.00    -0.200 F 
ENDBRANCH  73  96
ENDBRANCH  47  48
ENDBRANCH  39  42
ENDBRANCH  37  38
ENDBRANCH  36  37
ENDBRANCH  35  36
ENDBRANCH  34  35
ENDBRANCH   1  34
TORSDOF 19
ENDMDL
MODEL 3
REMARK VINA RESULT:     -11.1      3.138      8.317
REMARK SMILES COc1cc(/C=C2/SC(=O)N(c3ccc(O)cc3C)C2=O)ccc1OCC(=O)NCCCCCCNC(=O)c1ccc(-c2c3nc(c(-c4c(F)c(F)c(F)c(F)c4F)c4ccc([nH]4)c(-c4c(F)c(F)c(F)c(F)c4F)c4nc(c(-c5c(F)c(F)c(F)c(F)c5F)c5ccc2[nH]5)C=C4)C=C3)cc1
REMARK SMILES IDX 31 1 30 2 29 3 27 4 28 5 26 7 25 8 24 9 3 10 4 11 5 12 23 13
REMARK SMILES IDX 22 14 2 15 1 16 6 17 7 18 8 19 20 20 9 21 11 22 21 23 10 24
REMARK SMILES IDX 12 25 13 26 18 27 14 28 17 29 19 30 15 31 16 32 32 34 33 35
REMARK SMILES IDX 34 36 35 37 36 38 37 39 38 41 39 42 40 43 101 44 41 45
REMARK SMILES IDX 100 46 42 47 43 48 44 49 94 50 45 51 99 52 93 53 95 54 46 55
REMARK SMILES IDX 98 56 92 57 91 58 47 60 79 61 59 62 78 63 60 64 63 65 77 66
REMARK SMILES IDX 96 67 61 68 62 69 76 71 97 72 64 73 48 74 49 75 57 76 50 77
REMARK SMILES IDX 51 78 55 79 58 80 52 81 53 82 56 83 54 84 80 85 81 86 89 87
REMARK SMILES IDX 82 88 83 89 87 90 90 91 84 92 85 93 88 94 86 95 65 96 66 97
REMARK SMILES IDX 74 98 67 99 68 100 72 101 75 102 69 103 70 104 73 105 71 106
REMARK H PARENT 29 6 16 33 36 40 95 59 63 70
REMARK Flexibility Score: inf
ROOT
ATOM      1  C   UNL A   1      39.665  22.703  26.922  1.00  0.00     0.021 C 
ENDROOT
BRANCH   1   2
ATOM      2  C   UNL A   1      38.454  22.296  26.084  1.00  0.00     0.116 C 
BRANCH   2   3
ATOM      3  N   UNL A   1      37.269  23.060  26.407  1.00  0.00    -0.353 N 
ATOM      4  C   UNL A   1      35.963  22.668  26.380  1.00  0.00     0.257 C 
ATOM      5  O   UNL A   1      35.127  23.423  26.883  1.00  0.00    -0.271 OA
ATOM      6  H   UNL A   1      37.428  23.991  26.686  1.00  0.00     0.163 HD
BRANCH   4   7
ATOM      7  C   UNL A   1      35.585  21.295  25.816  1.00  0.00     0.329 C 
BRANCH   7   8
ATOM      8  O   UNL A   1      34.210  20.964  25.808  1.00  0.00    -0.480 OA
BRANCH   8   9
ATOM      9  C   UNL A   1      33.324  21.661  25.039  1.00  0.00     0.161 A 
ATOM     10  C   UNL A   1      33.509  22.214  23.768  1.00  0.00     0.161 A 
ATOM     11  C   UNL A   1      32.510  23.025  23.206  1.00  0.00     0.058 A 
ATOM     12  C   UNL A   1      31.314  23.260  23.892  1.00  0.00    -0.020 A 
ATOM     13  C   UNL A   1      32.096  21.854  25.689  1.00  0.00     0.051 A 
ATOM     14  C   UNL A   1      31.088  22.628  25.117  1.00  0.00     0.012 A 
BRANCH  10  15
ATOM     15  O   UNL A   1      34.709  22.110  23.121  1.00  0.00    -0.493 OA
ATOM     16  C   UNL A   1      35.317  23.384  22.902  1.00  0.00     0.278 C 
ENDBRANCH  10  15
BRANCH  12  17
ATOM     17  C   UNL A   1      30.393  24.298  23.421  1.00  0.00     0.029 C 
ATOM     18  C   UNL A   1      30.559  25.599  23.709  1.00  0.00     0.083 C 
ATOM     19  S   UNL A   1      29.478  26.831  23.183  1.00  0.00    -0.022 SA
ATOM     20  C   UNL A   1      31.650  26.202  24.537  1.00  0.00     0.272 C 
ATOM     21  C   UNL A   1      30.362  28.099  24.030  1.00  0.00     0.298 C 
ATOM     22  N   UNL A   1      31.417  27.554  24.725  1.00  0.00    -0.236 N 
ATOM     23  O   UNL A   1      32.578  25.558  25.007  1.00  0.00    -0.268 OA
ATOM     24  O   UNL A   1      30.040  29.271  23.921  1.00  0.00    -0.260 OA
BRANCH  22  25
ATOM     25  C   UNL A   1      32.273  28.329  25.561  1.00  0.00     0.056 A 
ATOM     26  C   UNL A   1      31.807  28.708  26.836  1.00  0.00     0.031 A 
ATOM     27  C   UNL A   1      33.535  28.794  25.132  1.00  0.00    -0.023 A 
ATOM     28  C   UNL A   1      32.578  29.502  27.685  1.00  0.00     0.048 A 
ATOM     29  C   UNL A   1      34.308  29.585  26.009  1.00  0.00     0.051 A 
ATOM     30  C   UNL A   1      34.100  28.566  23.756  1.00  0.00     0.047 C 
ATOM     31  C   UNL A   1      33.823  29.935  27.265  1.00  0.00     0.115 A 
BRANCH  31  32
ATOM     32  O   UNL A   1      34.539  30.726  28.111  1.00  0.00    -0.508 OA
ATOM     33  H   UNL A   1      35.420  30.964  27.898  1.00  0.00     0.293 HD
ENDBRANCH  31  32
ENDBRANCH  22  25
ENDBRANCH  12  17
ENDBRANCH   8   9
ENDBRANCH   7   8
ENDBRANCH   4   7
ENDBRANCH   2   3
ENDBRANCH   1   2
BRANCH   1  34
ATOM     34  C   UNL A   1      40.996  22.060  26.516  1.00  0.00     0.002 C 
BRANCH  34  35
ATOM     35  C   UNL A   1      41.671  21.183  27.574  1.00  0.00     0.002 C 
BRANCH  35  36
ATOM     36  C   UNL A   1      42.275  19.874  27.066  1.00  0.00     0.021 C 
BRANCH  36  37
ATOM     37  C   UNL A   1      42.102  19.616  25.576  1.00  0.00     0.116 C 
BRANCH  37  38
ATOM     38  N   UNL A   1      43.280  19.019  24.973  1.00  0.00    -0.352 N 
ATOM     39  C   UNL A   1      44.465  19.613  24.616  1.00  0.00     0.251 C 
ATOM     40  H   UNL A   1      43.221  18.052  24.796  1.00  0.00     0.163 HD
ATOM     41  O   UNL A   1      45.299  18.992  23.966  1.00  0.00    -0.269 OA
BRANCH  39  42
ATOM     42  C   UNL A   1      44.726  21.020  24.993  1.00  0.00     0.039 A 
ATOM     43  C   UNL A   1      44.336  22.036  24.117  1.00  0.00     0.014 A 
ATOM     44  C   UNL A   1      45.350  21.338  26.203  1.00  0.00     0.014 A 
ATOM     45  C   UNL A   1      44.515  23.372  24.481  1.00  0.00     0.010 A 
ATOM     46  C   UNL A   1      45.461  22.669  26.597  1.00  0.00     0.010 A 
ATOM     47  C   UNL A   1      45.048  23.700  25.739  1.00  0.00    -0.014 A 
BRANCH  47  48
ATOM     48  C   UNL A   1      45.185  25.114  26.171  1.00  0.00     0.031 A 
ATOM     49  C   UNL A   1      46.528  25.790  26.129  1.00  0.00     0.074 A 
ATOM     50  C   UNL A   1      44.114  25.771  26.661  1.00  0.00     0.049 A 
ATOM     51  N   UNL A   1      46.866  26.990  26.529  1.00  0.00    -0.248 NA
ATOM     52  C   UNL A   1      47.648  25.003  25.587  1.00  0.00     0.031 C 
ATOM     53  C   UNL A   1      42.769  25.210  26.798  1.00  0.00     0.029 A 
ATOM     54  N   UNL A   1      43.991  27.050  27.146  1.00  0.00    -0.354 N 
ATOM     55  C   UNL A   1      48.232  27.094  26.304  1.00  0.00     0.074 A 
ATOM     56  C   UNL A   1      48.673  25.821  25.778  1.00  0.00     0.031 C 
ATOM     57  C   UNL A   1      41.954  26.143  27.315  1.00  0.00     0.029 A 
ATOM     58  C   UNL A   1      42.724  27.354  27.582  1.00  0.00     0.049 A 
ATOM     59  H   UNL A   1      44.740  27.687  27.178  1.00  0.00     0.167 HD
ATOM     60  C   UNL A   1      49.040  28.164  26.499  1.00  0.00     0.037 A 
ATOM     61  C   UNL A   1      42.243  28.479  28.143  1.00  0.00     0.037 A 
ATOM     62  C   UNL A   1      48.593  29.439  26.992  1.00  0.00     0.049 A 
ATOM     63  C   UNL A   1      43.166  29.652  28.347  1.00  0.00     0.074 A 
ATOM     64  C   UNL A   1      49.322  30.603  27.159  1.00  0.00     0.029 A 
ATOM     65  N   UNL A   1      47.296  29.718  27.397  1.00  0.00    -0.354 N 
ATOM     66  N   UNL A   1      44.439  29.762  28.059  1.00  0.00    -0.248 NA
ATOM     67  C   UNL A   1      42.580  30.860  28.945  1.00  0.00     0.031 C 
ATOM     68  C   UNL A   1      48.479  31.573  27.711  1.00  0.00     0.029 A 
ATOM     69  C   UNL A   1      47.210  31.029  27.836  1.00  0.00     0.049 A 
ATOM     70  H   UNL A   1      46.547  29.078  27.377  1.00  0.00     0.167 HD
ATOM     71  C   UNL A   1      44.799  31.057  28.411  1.00  0.00     0.074 A 
ATOM     72  C   UNL A   1      43.605  31.699  28.917  1.00  0.00     0.031 C 
ATOM     73  C   UNL A   1      46.011  31.659  28.324  1.00  0.00     0.037 A 
BRANCH  60  74
ATOM     74  C   UNL A   1      50.497  28.008  26.172  1.00  0.00     0.064 A 
ATOM     75  C   UNL A   1      50.975  28.149  24.860  1.00  0.00     0.173 A 
ATOM     76  C   UNL A   1      51.434  27.781  27.190  1.00  0.00     0.173 A 
ATOM     77  F   UNL A   1      50.119  28.358  23.848  1.00  0.00    -0.203 F 
ATOM     78  C   UNL A   1      52.335  28.046  24.578  1.00  0.00     0.198 A 
ATOM     79  C   UNL A   1      52.796  27.708  26.909  1.00  0.00     0.198 A 
ATOM     80  F   UNL A   1      51.032  27.644  28.463  1.00  0.00    -0.203 F 
ATOM     81  F   UNL A   1      52.764  28.145  23.312  1.00  0.00    -0.200 F 
ATOM     82  C   UNL A   1      53.245  27.836  25.603  1.00  0.00     0.200 A 
ATOM     83  F   UNL A   1      53.675  27.517  27.902  1.00  0.00    -0.200 F 
ATOM     84  F   UNL A   1      54.554  27.752  25.332  1.00  0.00    -0.200 F 
ENDBRANCH  60  74
BRANCH  61  85
ATOM     85  C   UNL A   1      40.814  28.562  28.547  1.00  0.00     0.064 A 
ATOM     86  C   UNL A   1      39.838  29.033  27.655  1.00  0.00     0.173 A 
ATOM     87  C   UNL A   1      40.397  28.203  29.838  1.00  0.00     0.173 A 
ATOM     88  F   UNL A   1      40.190  29.410  26.417  1.00  0.00    -0.203 F 
ATOM     89  C   UNL A   1      38.508  29.169  28.048  1.00  0.00     0.198 A 
ATOM     90  C   UNL A   1      39.061  28.309  30.218  1.00  0.00     0.198 A 
ATOM     91  F   UNL A   1      41.289  27.741  30.727  1.00  0.00    -0.203 F 
ATOM     92  F   UNL A   1      37.609  29.677  27.195  1.00  0.00    -0.200 F 
ATOM     93  C   UNL A   1      38.120  28.803  29.329  1.00  0.00     0.200 A 
ATOM     94  F   UNL A   1      38.688  27.940  31.451  1.00  0.00    -0.200 F 
ATOM     95  F   UNL A   1      36.842  28.938  29.707  1.00  0.00    -0.200 F 
ENDBRANCH  61  85
BRANCH  73  96
ATOM     96  C   UNL A   1      46.098  33.097  28.745  1.00  0.00     0.064 A 
ATOM     97  C   UNL A   1      45.838  34.145  27.849  1.00  0.00     0.173 A 
ATOM     98  C   UNL A   1      46.403  33.429  30.074  1.00  0.00     0.173 A 
ATOM     99  F   UNL A   1      45.555  33.880  26.565  1.00  0.00    -0.203 F 
ATOM    100  C   UNL A   1      45.908  35.472  28.263  1.00  0.00     0.198 A 
ATOM    101  C   UNL A   1      46.442  34.756  30.491  1.00  0.00     0.198 A 
ATOM    102  F   UNL A   1      46.652  32.463  30.972  1.00  0.00    -0.203 F 
ATOM    103  F   UNL A   1      45.705  36.459  27.378  1.00  0.00    -0.200 F 
ATOM    104  C   UNL A   1      46.202  35.776  29.583  1.00  0.00     0.200 A 
ATOM    105  F   UNL A   1      46.710  35.047  31.771  1.00  0.00    -0.200 F 
ATOM    106  F   UNL A   1      46.260  37.055  29.981  1.00  0.00    -0.200 F 
ENDBRANCH  73  96
ENDBRANCH  47  48
ENDBRANCH  39  42
ENDBRANCH  37  38
ENDBRANCH  36  37
ENDBRANCH  35  36
ENDBRANCH  34  35
ENDBRANCH   1  34
TORSDOF 19
ENDMDL
