MODEL 1
REMARK VINA RESULT:     -11.6      0.000      0.000
REMARK SMILES C[C@@H]1[C@H](C(=O)NCCCCCCNC(=O)c2ccc(-c3c4nc(c(-c5c(F)c(F)c(F)c(F)c5F)c5ccc([nH]5)c(-c5c(F)c(F)c(F)c(F)c5F)c5nc(c(-c6c(F)c(F)c(F)c(F)c6F)c6ccc3[nH]6)C=C5)C=C4)cc2)CCN1C(=O)N1CCc2ccccc21
REMARK SMILES IDX 9 1 8 2 7 3 6 4 4 5 5 6 3 8 1 9 2 10 81 11 79 12 80 13 82 14
REMARK SMILES IDX 83 15 84 16 85 17 92 18 86 19 87 20 91 21 88 22 90 23 89 24
REMARK SMILES IDX 10 25 11 26 12 27 13 28 14 29 15 31 16 32 17 33 78 34 18 35
REMARK SMILES IDX 77 36 19 37 20 38 21 39 71 40 22 41 76 42 70 43 72 44 23 45
REMARK SMILES IDX 75 46 69 47 68 48 24 50 56 51 36 52 55 53 37 54 40 55 54 56
REMARK SMILES IDX 73 57 38 58 39 59 53 61 74 62 41 63 25 64 26 65 34 66 27 67
REMARK SMILES IDX 28 68 32 69 35 70 29 71 30 72 33 73 31 74 57 75 58 76 66 77
REMARK SMILES IDX 59 78 60 79 64 80 67 81 61 82 62 83 65 84 63 85 42 86 43 87
REMARK SMILES IDX 51 88 44 89 45 90 49 91 52 92 46 93 47 94 50 95 48 96
REMARK H PARENT 6 7 13 30 72 49 40 60
REMARK Flexibility Score: inf
ROOT
ATOM      1  C   UNL A   1      33.090  28.445  23.074  1.00  0.00     0.002 C 
ENDROOT
BRANCH   1   2
ATOM      2  C   UNL A   1      31.710  28.928  22.618  1.00  0.00     0.021 C 
BRANCH   2   3
ATOM      3  C   UNL A   1      30.647  27.830  22.520  1.00  0.00     0.116 C 
BRANCH   3   4
ATOM      4  N   UNL A   1      30.305  27.312  23.832  1.00  0.00    -0.356 N 
ATOM      5  C   UNL A   1      30.506  26.121  24.446  1.00  0.00     0.225 C 
ATOM      6  O   UNL A   1      29.927  25.967  25.528  1.00  0.00    -0.275 OA
ATOM      7  H   UNL A   1      29.826  27.963  24.395  1.00  0.00     0.163 HD
BRANCH   5   8
ATOM      8  C   UNL A   1      31.357  24.985  23.899  1.00  0.00     0.102 C 
ATOM      9  C   UNL A   1      32.378  24.501  26.229  1.00  0.00     0.032 C 
ATOM     10  C   UNL A   1      32.571  24.521  24.718  1.00  0.00     0.096 C 
ATOM     11  N   UNL A   1      32.853  23.173  24.202  1.00  0.00    -0.321 N 
ATOM     12  C   UNL A   1      30.653  23.707  23.469  1.00  0.00     0.037 C 
ATOM     13  C   UNL A   1      31.811  22.742  23.283  1.00  0.00     0.122 C 
BRANCH  11  14
ATOM     14  C   UNL A   1      34.168  22.771  23.933  1.00  0.00     0.324 C 
ATOM     15  O   UNL A   1      34.715  22.958  22.851  1.00  0.00    -0.248 OA
BRANCH  14  16
ATOM     16  N   UNL A   1      34.716  21.984  24.942  1.00  0.00    -0.294 N 
ATOM     17  C   UNL A   1      34.771  20.522  24.835  1.00  0.00     0.132 C 
ATOM     18  C   UNL A   1      35.931  22.406  25.510  1.00  0.00     0.049 A 
ATOM     19  C   UNL A   1      36.251  20.111  25.001  1.00  0.00     0.060 C 
ATOM     20  C   UNL A   1      36.882  21.396  25.434  1.00  0.00    -0.022 A 
ATOM     21  C   UNL A   1      36.240  23.698  25.900  1.00  0.00     0.027 A 
ATOM     22  C   UNL A   1      38.219  21.702  25.612  1.00  0.00     0.006 A 
ATOM     23  C   UNL A   1      37.577  24.002  26.128  1.00  0.00     0.002 A 
ATOM     24  C   UNL A   1      38.564  23.019  25.943  1.00  0.00     0.000 A 
ENDBRANCH  14  16
ENDBRANCH  11  14
ENDBRANCH   5   8
ENDBRANCH   3   4
ENDBRANCH   2   3
ENDBRANCH   1   2
BRANCH   1  25
ATOM     25  C   UNL A   1      33.542  28.953  24.447  1.00  0.00     0.002 C 
BRANCH  25  26
ATOM     26  C   UNL A   1      33.924  27.872  25.462  1.00  0.00     0.021 C 
BRANCH  26  27
ATOM     27  C   UNL A   1      33.617  28.202  26.921  1.00  0.00     0.116 C 
BRANCH  27  28
ATOM     28  N   UNL A   1      33.465  29.627  27.147  1.00  0.00    -0.352 N 
ATOM     29  C   UNL A   1      34.310  30.515  27.765  1.00  0.00     0.251 C 
ATOM     30  H   UNL A   1      32.628  30.018  26.806  1.00  0.00     0.163 HD
ATOM     31  O   UNL A   1      33.926  31.654  28.011  1.00  0.00    -0.269 OA
BRANCH  29  32
ATOM     32  C   UNL A   1      35.678  30.105  28.156  1.00  0.00     0.039 A 
ATOM     33  C   UNL A   1      35.903  29.709  29.477  1.00  0.00     0.014 A 
ATOM     34  C   UNL A   1      36.742  30.153  27.251  1.00  0.00     0.014 A 
ATOM     35  C   UNL A   1      37.183  29.321  29.879  1.00  0.00     0.010 A 
ATOM     36  C   UNL A   1      38.005  29.704  27.635  1.00  0.00     0.010 A 
ATOM     37  C   UNL A   1      38.241  29.293  28.956  1.00  0.00    -0.014 A 
BRANCH  37  38
ATOM     38  C   UNL A   1      39.598  28.855  29.370  1.00  0.00     0.031 A 
ATOM     39  C   UNL A   1      40.428  29.713  30.285  1.00  0.00     0.074 A 
ATOM     40  C   UNL A   1      40.100  27.700  28.893  1.00  0.00     0.049 A 
ATOM     41  N   UNL A   1      41.640  29.510  30.739  1.00  0.00    -0.248 NA
ATOM     42  C   UNL A   1      39.826  30.979  30.731  1.00  0.00     0.031 C 
ATOM     43  C   UNL A   1      39.413  26.802  27.964  1.00  0.00     0.029 A 
ATOM     44  N   UNL A   1      41.304  27.083  29.122  1.00  0.00    -0.354 N 
ATOM     45  C   UNL A   1      41.946  30.622  31.513  1.00  0.00     0.074 A 
ATOM     46  C   UNL A   1      40.817  31.523  31.423  1.00  0.00     0.031 C 
ATOM     47  C   UNL A   1      40.195  25.737  27.722  1.00  0.00     0.029 A 
ATOM     48  C   UNL A   1      41.450  25.892  28.454  1.00  0.00     0.049 A 
ATOM     49  H   UNL A   1      41.999  27.458  29.710  1.00  0.00     0.167 HD
ATOM     50  C   UNL A   1      43.056  30.859  32.251  1.00  0.00     0.037 A 
ATOM     51  C   UNL A   1      42.478  25.023  28.434  1.00  0.00     0.037 A 
ATOM     52  C   UNL A   1      44.167  29.950  32.362  1.00  0.00     0.049 A 
ATOM     53  C   UNL A   1      43.700  25.311  29.264  1.00  0.00     0.074 A 
ATOM     54  C   UNL A   1      45.310  30.072  33.132  1.00  0.00     0.029 A 
ATOM     55  N   UNL A   1      44.273  28.749  31.677  1.00  0.00    -0.354 N 
ATOM     56  N   UNL A   1      43.947  26.332  30.047  1.00  0.00    -0.248 NA
ATOM     57  C   UNL A   1      44.784  24.319  29.211  1.00  0.00     0.031 C 
ATOM     58  C   UNL A   1      46.128  28.965  32.881  1.00  0.00     0.029 A 
ATOM     59  C   UNL A   1      45.473  28.131  31.990  1.00  0.00     0.049 A 
ATOM     60  H   UNL A   1      43.597  28.388  31.060  1.00  0.00     0.167 HD
ATOM     61  C   UNL A   1      45.199  26.095  30.600  1.00  0.00     0.074 A 
ATOM     62  C   UNL A   1      45.653  24.825  30.075  1.00  0.00     0.031 C 
ATOM     63  C   UNL A   1      45.909  26.864  31.462  1.00  0.00     0.037 A 
BRANCH  50  64
ATOM     64  C   UNL A   1      43.123  32.155  33.008  1.00  0.00     0.064 A 
ATOM     65  C   UNL A   1      43.674  33.313  32.436  1.00  0.00     0.173 A 
ATOM     66  C   UNL A   1      42.595  32.252  34.304  1.00  0.00     0.173 A 
ATOM     67  F   UNL A   1      44.202  33.271  31.204  1.00  0.00    -0.203 F 
ATOM     68  C   UNL A   1      43.723  34.509  33.146  1.00  0.00     0.198 A 
ATOM     69  C   UNL A   1      42.618  33.459  35.000  1.00  0.00     0.198 A 
ATOM     70  F   UNL A   1      42.051  31.177  34.896  1.00  0.00    -0.203 F 
ATOM     71  F   UNL A   1      44.298  35.588  32.598  1.00  0.00    -0.200 F 
ATOM     72  C   UNL A   1      43.189  34.584  34.424  1.00  0.00     0.200 A 
ATOM     73  F   UNL A   1      42.091  33.532  36.229  1.00  0.00    -0.200 F 
ATOM     74  F   UNL A   1      43.229  35.738  35.102  1.00  0.00    -0.200 F 
ENDBRANCH  50  64
BRANCH  51  75
ATOM     75  C   UNL A   1      42.386  23.782  27.622  1.00  0.00     0.064 A 
ATOM     76  C   UNL A   1      41.874  22.598  28.173  1.00  0.00     0.173 A 
ATOM     77  C   UNL A   1      42.811  23.750  26.286  1.00  0.00     0.173 A 
ATOM     78  F   UNL A   1      41.474  22.574  29.452  1.00  0.00    -0.203 F 
ATOM     79  C   UNL A   1      41.810  21.426  27.425  1.00  0.00     0.198 A 
ATOM     80  C   UNL A   1      42.720  22.584  25.530  1.00  0.00     0.198 A 
ATOM     81  F   UNL A   1      43.303  24.857  25.711  1.00  0.00    -0.203 F 
ATOM     82  F   UNL A   1      41.358  20.297  27.990  1.00  0.00    -0.200 F 
ATOM     83  C   UNL A   1      42.228  21.420  26.102  1.00  0.00     0.200 A 
ATOM     84  F   UNL A   1      43.112  22.585  24.249  1.00  0.00    -0.200 F 
ATOM     85  F   UNL A   1      42.163  20.292  25.382  1.00  0.00    -0.200 F 
ENDBRANCH  51  75
BRANCH  63  86
ATOM     86  C   UNL A   1      47.241  26.337  31.911  1.00  0.00     0.064 A 
ATOM     87  C   UNL A   1      48.425  26.657  31.230  1.00  0.00     0.173 A 
ATOM     88  C   UNL A   1      47.337  25.531  33.056  1.00  0.00     0.173 A 
ATOM     89  F   UNL A   1      48.383  27.412  30.122  1.00  0.00    -0.203 F 
ATOM     90  C   UNL A   1      49.654  26.167  31.664  1.00  0.00     0.198 A 
ATOM     91  C   UNL A   1      48.572  25.068  33.503  1.00  0.00     0.198 A 
ATOM     92  F   UNL A   1      46.235  25.201  33.746  1.00  0.00    -0.203 F 
ATOM     93  F   UNL A   1      50.766  26.445  30.970  1.00  0.00    -0.200 F 
ATOM     94  C   UNL A   1      49.727  25.379  32.803  1.00  0.00     0.200 A 
ATOM     95  F   UNL A   1      48.641  24.317  34.611  1.00  0.00    -0.200 F 
ATOM     96  F   UNL A   1      50.912  24.914  33.222  1.00  0.00    -0.200 F 
ENDBRANCH  63  86
ENDBRANCH  37  38
ENDBRANCH  29  32
ENDBRANCH  27  28
ENDBRANCH  26  27
ENDBRANCH  25  26
ENDBRANCH   1  25
TORSDOF 15
ENDMDL
MODEL 2
REMARK VINA RESULT:     -11.5      3.014      4.586
REMARK SMILES C[C@@H]1[C@H](C(=O)NCCCCCCNC(=O)c2ccc(-c3c4nc(c(-c5c(F)c(F)c(F)c(F)c5F)c5ccc([nH]5)c(-c5c(F)c(F)c(F)c(F)c5F)c5nc(c(-c6c(F)c(F)c(F)c(F)c6F)c6ccc3[nH]6)C=C5)C=C4)cc2)CCN1C(=O)N1CCc2ccccc21
REMARK SMILES IDX 9 1 8 2 7 3 6 4 4 5 5 6 3 8 1 9 2 10 81 11 79 12 80 13 82 14
REMARK SMILES IDX 83 15 84 16 85 17 92 18 86 19 87 20 91 21 88 22 90 23 89 24
REMARK SMILES IDX 10 25 11 26 12 27 13 28 14 29 15 31 16 32 17 33 78 34 18 35
REMARK SMILES IDX 77 36 19 37 20 38 21 39 71 40 22 41 76 42 70 43 72 44 23 45
REMARK SMILES IDX 75 46 69 47 68 48 24 50 56 51 36 52 55 53 37 54 40 55 54 56
REMARK SMILES IDX 73 57 38 58 39 59 53 61 74 62 41 63 25 64 26 65 34 66 27 67
REMARK SMILES IDX 28 68 32 69 35 70 29 71 30 72 33 73 31 74 57 75 58 76 66 77
REMARK SMILES IDX 59 78 60 79 64 80 67 81 61 82 62 83 65 84 63 85 42 86 43 87
REMARK SMILES IDX 51 88 44 89 45 90 49 91 52 92 46 93 47 94 50 95 48 96
REMARK H PARENT 6 7 13 30 72 49 40 60
REMARK Flexibility Score: inf
ROOT
ATOM      1  C   UNL A   1      33.090  30.167  27.282  1.00  0.00     0.002 C 
ENDROOT
BRANCH   1   2
ATOM      2  C   UNL A   1      33.447  28.721  26.927  1.00  0.00     0.021 C 
BRANCH   2   3
ATOM      3  C   UNL A   1      34.353  28.567  25.702  1.00  0.00     0.116 C 
BRANCH   3   4
ATOM      4  N   UNL A   1      33.670  28.980  24.489  1.00  0.00    -0.356 N 
ATOM      5  C   UNL A   1      33.273  28.322  23.372  1.00  0.00     0.225 C 
ATOM      6  O   UNL A   1      32.856  29.031  22.449  1.00  0.00    -0.275 OA
ATOM      7  H   UNL A   1      33.449  29.939  24.474  1.00  0.00     0.163 HD
BRANCH   5   8
ATOM      8  C   UNL A   1      33.324  26.815  23.178  1.00  0.00     0.102 C 
ATOM      9  C   UNL A   1      31.246  26.456  24.681  1.00  0.00     0.032 C 
ATOM     10  C   UNL A   1      32.584  25.922  24.186  1.00  0.00     0.096 C 
ATOM     11  N   UNL A   1      32.415  24.647  23.475  1.00  0.00    -0.321 N 
ATOM     12  C   UNL A   1      32.961  26.257  21.811  1.00  0.00     0.037 C 
ATOM     13  C   UNL A   1      32.833  24.769  22.086  1.00  0.00     0.122 C 
BRANCH  11  14
ATOM     14  C   UNL A   1      32.657  23.428  24.124  1.00  0.00     0.324 C 
ATOM     15  O   UNL A   1      32.000  22.414  23.905  1.00  0.00    -0.248 OA
BRANCH  14  16
ATOM     16  N   UNL A   1      33.580  23.534  25.159  1.00  0.00    -0.294 N 
ATOM     17  C   UNL A   1      33.246  23.144  26.533  1.00  0.00     0.132 C 
ATOM     18  C   UNL A   1      34.892  23.094  24.909  1.00  0.00     0.049 A 
ATOM     19  C   UNL A   1      34.286  22.088  26.971  1.00  0.00     0.060 C 
ATOM     20  C   UNL A   1      35.280  22.154  25.855  1.00  0.00    -0.022 A 
ATOM     21  C   UNL A   1      35.639  23.369  23.776  1.00  0.00     0.027 A 
ATOM     22  C   UNL A   1      36.377  21.348  25.607  1.00  0.00     0.006 A 
ATOM     23  C   UNL A   1      36.771  22.595  23.544  1.00  0.00     0.002 A 
ATOM     24  C   UNL A   1      37.112  21.563  24.434  1.00  0.00     0.000 A 
ENDBRANCH  14  16
ENDBRANCH  11  14
ENDBRANCH   5   8
ENDBRANCH   3   4
ENDBRANCH   2   3
ENDBRANCH   1   2
BRANCH   1  25
ATOM     25  C   UNL A   1      31.686  30.617  26.865  1.00  0.00     0.002 C 
BRANCH  25  26
ATOM     26  C   UNL A   1      31.448  32.130  26.859  1.00  0.00     0.021 C 
BRANCH  26  27
ATOM     27  C   UNL A   1      32.706  32.994  26.901  1.00  0.00     0.116 C 
BRANCH  27  28
ATOM     28  N   UNL A   1      32.500  34.242  27.612  1.00  0.00    -0.352 N 
ATOM     29  C   UNL A   1      33.100  34.715  28.752  1.00  0.00     0.251 C 
ATOM     30  H   UNL A   1      31.827  34.841  27.216  1.00  0.00     0.163 HD
ATOM     31  O   UNL A   1      32.666  35.725  29.297  1.00  0.00    -0.269 OA
BRANCH  29  32
ATOM     32  C   UNL A   1      34.257  34.007  29.343  1.00  0.00     0.039 A 
ATOM     33  C   UNL A   1      35.544  34.427  28.995  1.00  0.00     0.014 A 
ATOM     34  C   UNL A   1      34.088  32.911  30.194  1.00  0.00     0.014 A 
ATOM     35  C   UNL A   1      36.658  33.777  29.531  1.00  0.00     0.010 A 
ATOM     36  C   UNL A   1      35.198  32.305  30.780  1.00  0.00     0.010 A 
ATOM     37  C   UNL A   1      36.495  32.725  30.446  1.00  0.00    -0.014 A 
BRANCH  37  38
ATOM     38  C   UNL A   1      37.675  32.046  31.042  1.00  0.00     0.031 A 
ATOM     39  C   UNL A   1      38.148  32.416  32.421  1.00  0.00     0.074 A 
ATOM     40  C   UNL A   1      38.342  31.121  30.328  1.00  0.00     0.049 A 
ATOM     41  N   UNL A   1      39.167  31.952  33.100  1.00  0.00    -0.248 NA
ATOM     42  C   UNL A   1      37.390  33.463  33.122  1.00  0.00     0.031 C 
ATOM     43  C   UNL A   1      38.011  30.708  28.963  1.00  0.00     0.029 A 
ATOM     44  N   UNL A   1      39.440  30.361  30.647  1.00  0.00    -0.354 N 
ATOM     45  C   UNL A   1      39.177  32.653  34.298  1.00  0.00     0.074 A 
ATOM     46  C   UNL A   1      38.097  33.615  34.233  1.00  0.00     0.031 C 
ATOM     47  C   UNL A   1      38.870  29.752  28.572  1.00  0.00     0.029 A 
ATOM     48  C   UNL A   1      39.831  29.507  29.645  1.00  0.00     0.049 A 
ATOM     49  H   UNL A   1      39.905  30.423  31.513  1.00  0.00     0.167 HD
ATOM     50  C   UNL A   1      39.994  32.495  35.365  1.00  0.00     0.037 A 
ATOM     51  C   UNL A   1      40.847  28.626  29.597  1.00  0.00     0.037 A 
ATOM     52  C   UNL A   1      41.052  31.520  35.440  1.00  0.00     0.049 A 
ATOM     53  C   UNL A   1      41.742  28.470  30.797  1.00  0.00     0.074 A 
ATOM     54  C   UNL A   1      41.895  31.239  36.500  1.00  0.00     0.029 A 
ATOM     55  N   UNL A   1      41.410  30.665  34.408  1.00  0.00    -0.354 N 
ATOM     56  N   UNL A   1      41.695  29.089  31.950  1.00  0.00    -0.248 NA
ATOM     57  C   UNL A   1      42.826  27.482  30.690  1.00  0.00     0.031 C 
ATOM     58  C   UNL A   1      42.792  30.245  36.096  1.00  0.00     0.029 A 
ATOM     59  C   UNL A   1      42.477  29.873  34.799  1.00  0.00     0.049 A 
ATOM     60  H   UNL A   1      40.971  30.627  33.527  1.00  0.00     0.167 HD
ATOM     61  C   UNL A   1      42.723  28.553  32.714  1.00  0.00     0.074 A 
ATOM     62  C   UNL A   1      43.365  27.543  31.898  1.00  0.00     0.031 C 
ATOM     63  C   UNL A   1      43.104  28.870  33.976  1.00  0.00     0.037 A 
BRANCH  50  64
ATOM     64  C   UNL A   1      39.775  33.394  36.548  1.00  0.00     0.064 A 
ATOM     65  C   UNL A   1      40.423  34.634  36.659  1.00  0.00     0.173 A 
ATOM     66  C   UNL A   1      38.878  33.029  37.564  1.00  0.00     0.173 A 
ATOM     67  F   UNL A   1      41.298  35.024  35.721  1.00  0.00    -0.203 F 
ATOM     68  C   UNL A   1      40.204  35.461  37.758  1.00  0.00     0.198 A 
ATOM     69  C   UNL A   1      38.639  33.873  38.646  1.00  0.00     0.198 A 
ATOM     70  F   UNL A   1      38.228  31.857  37.505  1.00  0.00    -0.203 F 
ATOM     71  F   UNL A   1      40.871  36.618  37.866  1.00  0.00    -0.200 F 
ATOM     72  C   UNL A   1      39.307  35.084  38.746  1.00  0.00     0.200 A 
ATOM     73  F   UNL A   1      37.764  33.513  39.594  1.00  0.00    -0.200 F 
ATOM     74  F   UNL A   1      39.093  35.885  39.799  1.00  0.00    -0.200 F 
ENDBRANCH  50  64
BRANCH  51  75
ATOM     75  C   UNL A   1      41.058  27.800  28.379  1.00  0.00     0.064 A 
ATOM     76  C   UNL A   1      41.915  28.232  27.356  1.00  0.00     0.173 A 
ATOM     77  C   UNL A   1      40.407  26.570  28.210  1.00  0.00     0.173 A 
ATOM     78  F   UNL A   1      42.543  29.411  27.464  1.00  0.00    -0.203 F 
ATOM     79  C   UNL A   1      42.095  27.475  26.202  1.00  0.00     0.198 A 
ATOM     80  C   UNL A   1      40.610  25.800  27.067  1.00  0.00     0.198 A 
ATOM     81  F   UNL A   1      39.581  26.110  29.162  1.00  0.00    -0.203 F 
ATOM     82  F   UNL A   1      42.884  27.932  25.220  1.00  0.00    -0.200 F 
ATOM     83  C   UNL A   1      41.447  26.256  26.060  1.00  0.00     0.200 A 
ATOM     84  F   UNL A   1      39.993  24.617  26.940  1.00  0.00    -0.200 F 
ATOM     85  F   UNL A   1      41.624  25.526  24.951  1.00  0.00    -0.200 F 
ENDBRANCH  51  75
BRANCH  63  86
ATOM     86  C   UNL A   1      44.251  28.099  34.561  1.00  0.00     0.064 A 
ATOM     87  C   UNL A   1      44.056  26.872  35.210  1.00  0.00     0.173 A 
ATOM     88  C   UNL A   1      45.564  28.579  34.440  1.00  0.00     0.173 A 
ATOM     89  F   UNL A   1      42.817  26.379  35.364  1.00  0.00    -0.203 F 
ATOM     90  C   UNL A   1      45.131  26.165  35.741  1.00  0.00     0.198 A 
ATOM     91  C   UNL A   1      46.640  27.853  34.946  1.00  0.00     0.198 A 
ATOM     92  F   UNL A   1      45.805  29.745  33.823  1.00  0.00    -0.203 F 
ATOM     93  F   UNL A   1      44.916  25.018  36.400  1.00  0.00    -0.200 F 
ATOM     94  C   UNL A   1      46.422  26.652  35.603  1.00  0.00     0.200 A 
ATOM     95  F   UNL A   1      47.888  28.321  34.800  1.00  0.00    -0.200 F 
ATOM     96  F   UNL A   1      47.456  25.967  36.109  1.00  0.00    -0.200 F 
ENDBRANCH  63  86
ENDBRANCH  37  38
ENDBRANCH  29  32
ENDBRANCH  27  28
ENDBRANCH  26  27
ENDBRANCH  25  26
ENDBRANCH   1  25
TORSDOF 15
ENDMDL
MODEL 3
REMARK VINA RESULT:     -11.5      4.310      9.494
REMARK SMILES C[C@@H]1[C@H](C(=O)NCCCCCCNC(=O)c2ccc(-c3c4nc(c(-c5c(F)c(F)c(F)c(F)c5F)c5ccc([nH]5)c(-c5c(F)c(F)c(F)c(F)c5F)c5nc(c(-c6c(F)c(F)c(F)c(F)c6F)c6ccc3[nH]6)C=C5)C=C4)cc2)CCN1C(=O)N1CCc2ccccc21
REMARK SMILES IDX 9 1 8 2 7 3 6 4 4 5 5 6 3 8 1 9 2 10 81 11 79 12 80 13 82 14
REMARK SMILES IDX 83 15 84 16 85 17 92 18 86 19 87 20 91 21 88 22 90 23 89 24
REMARK SMILES IDX 10 25 11 26 12 27 13 28 14 29 15 31 16 32 17 33 78 34 18 35
REMARK SMILES IDX 77 36 19 37 20 38 21 39 71 40 22 41 76 42 70 43 72 44 23 45
REMARK SMILES IDX 75 46 69 47 68 48 24 50 56 51 36 52 55 53 37 54 40 55 54 56
REMARK SMILES IDX 73 57 38 58 39 59 53 61 74 62 41 63 25 64 26 65 34 66 27 67
REMARK SMILES IDX 28 68 32 69 35 70 29 71 30 72 33 73 31 74 57 75 58 76 66 77
REMARK SMILES IDX 59 78 60 79 64 80 67 81 61 82 62 83 65 84 63 85 42 86 43 87
REMARK SMILES IDX 51 88 44 89 45 90 49 91 52 92 46 93 47 94 50 95 48 96
REMARK H PARENT 6 7 13 30 72 49 40 60
REMARK Flexibility Score: inf
ROOT
ATOM      1  C   UNL A   1      41.254  21.911  26.079  1.00  0.00     0.002 C 
ENDROOT
BRANCH   1   2
ATOM      2  C   UNL A   1      40.316  22.767  26.934  1.00  0.00     0.021 C 
BRANCH   2   3
ATOM      3  C   UNL A   1      38.844  22.721  26.513  1.00  0.00     0.116 C 
BRANCH   3   4
ATOM      4  N   UNL A   1      38.627  21.737  25.468  1.00  0.00    -0.356 N 
ATOM      5  C   UNL A   1      37.539  21.045  25.050  1.00  0.00     0.225 C 
ATOM      6  O   UNL A   1      37.754  20.151  24.223  1.00  0.00    -0.275 OA
ATOM      7  H   UNL A   1      39.442  21.527  24.956  1.00  0.00     0.163 HD
BRANCH   5   8
ATOM      8  C   UNL A   1      36.115  21.276  25.530  1.00  0.00     0.102 C 
ATOM      9  C   UNL A   1      35.916  23.477  24.181  1.00  0.00     0.032 C 
ATOM     10  C   UNL A   1      35.530  22.693  25.428  1.00  0.00     0.096 C 
ATOM     11  N   UNL A   1      34.076  22.482  25.493  1.00  0.00    -0.321 N 
ATOM     12  C   UNL A   1      35.025  20.355  25.006  1.00  0.00     0.037 C 
ATOM     13  C   UNL A   1      33.756  21.063  25.448  1.00  0.00     0.122 C 
BRANCH  11  14
ATOM     14  C   UNL A   1      33.268  23.308  26.285  1.00  0.00     0.324 C 
ATOM     15  O   UNL A   1      33.167  23.176  27.501  1.00  0.00    -0.248 OA
BRANCH  14  16
ATOM     16  N   UNL A   1      32.459  24.160  25.539  1.00  0.00    -0.294 N 
ATOM     17  C   UNL A   1      31.020  23.923  25.389  1.00  0.00     0.132 C 
ATOM     18  C   UNL A   1      32.638  25.544  25.712  1.00  0.00     0.049 A 
ATOM     19  C   UNL A   1      30.296  25.196  25.881  1.00  0.00     0.060 C 
ATOM     20  C   UNL A   1      31.435  26.152  26.048  1.00  0.00    -0.022 A 
ATOM     21  C   UNL A   1      33.852  26.207  25.762  1.00  0.00     0.027 A 
ATOM     22  C   UNL A   1      31.441  27.424  26.593  1.00  0.00     0.006 A 
ATOM     23  C   UNL A   1      33.860  27.504  26.263  1.00  0.00     0.002 A 
ATOM     24  C   UNL A   1      32.667  28.091  26.716  1.00  0.00     0.000 A 
ENDBRANCH  14  16
ENDBRANCH  11  14
ENDBRANCH   5   8
ENDBRANCH   3   4
ENDBRANCH   2   3
ENDBRANCH   1   2
BRANCH   1  25
ATOM     25  C   UNL A   1      41.880  20.710  26.794  1.00  0.00     0.002 C 
BRANCH  25  26
ATOM     26  C   UNL A   1      42.082  19.457  25.937  1.00  0.00     0.021 C 
BRANCH  26  27
ATOM     27  C   UNL A   1      43.439  18.773  26.082  1.00  0.00     0.116 C 
BRANCH  27  28
ATOM     28  N   UNL A   1      44.134  18.642  24.814  1.00  0.00    -0.352 N 
ATOM     29  C   UNL A   1      44.724  19.603  24.032  1.00  0.00     0.251 C 
ATOM     30  H   UNL A   1      44.191  17.725  24.462  1.00  0.00     0.163 HD
ATOM     31  O   UNL A   1      45.115  19.317  22.905  1.00  0.00    -0.269 OA
BRANCH  29  32
ATOM     32  C   UNL A   1      44.878  20.989  24.528  1.00  0.00     0.039 A 
ATOM     33  C   UNL A   1      45.502  21.190  25.763  1.00  0.00     0.014 A 
ATOM     34  C   UNL A   1      44.374  22.081  23.816  1.00  0.00     0.014 A 
ATOM     35  C   UNL A   1      45.658  22.484  26.262  1.00  0.00     0.010 A 
ATOM     36  C   UNL A   1      44.588  23.377  24.283  1.00  0.00     0.010 A 
ATOM     37  C   UNL A   1      45.223  23.592  25.516  1.00  0.00    -0.014 A 
BRANCH  37  38
ATOM     38  C   UNL A   1      45.411  24.973  26.028  1.00  0.00     0.031 A 
ATOM     39  C   UNL A   1      46.767  25.623  25.985  1.00  0.00     0.074 A 
ATOM     40  C   UNL A   1      44.366  25.633  26.564  1.00  0.00     0.049 A 
ATOM     41  N   UNL A   1      47.131  26.809  26.401  1.00  0.00    -0.248 NA
ATOM     42  C   UNL A   1      47.865  24.823  25.421  1.00  0.00     0.031 C 
ATOM     43  C   UNL A   1      43.012  25.096  26.705  1.00  0.00     0.029 A 
ATOM     44  N   UNL A   1      44.279  26.897  27.092  1.00  0.00    -0.354 N 
ATOM     45  C   UNL A   1      48.496  26.894  26.158  1.00  0.00     0.074 A 
ATOM     46  C   UNL A   1      48.907  25.620  25.610  1.00  0.00     0.031 C 
ATOM     47  C   UNL A   1      42.223  26.032  27.257  1.00  0.00     0.029 A 
ATOM     48  C   UNL A   1      43.022  27.223  27.538  1.00  0.00     0.049 A 
ATOM     49  H   UNL A   1      45.046  27.512  27.147  1.00  0.00     0.167 HD
ATOM     50  C   UNL A   1      49.326  27.946  26.351  1.00  0.00     0.037 A 
ATOM     51  C   UNL A   1      42.564  28.354  28.108  1.00  0.00     0.037 A 
ATOM     52  C   UNL A   1      48.911  29.223  26.872  1.00  0.00     0.049 A 
ATOM     53  C   UNL A   1      43.508  29.508  28.311  1.00  0.00     0.074 A 
ATOM     54  C   UNL A   1      49.663  30.371  27.046  1.00  0.00     0.029 A 
ATOM     55  N   UNL A   1      47.626  29.518  27.303  1.00  0.00    -0.354 N 
ATOM     56  N   UNL A   1      44.780  29.600  28.011  1.00  0.00    -0.248 NA
ATOM     57  C   UNL A   1      42.948  30.721  28.925  1.00  0.00     0.031 C 
ATOM     58  C   UNL A   1      48.845  31.348  27.624  1.00  0.00     0.029 A 
ATOM     59  C   UNL A   1      47.570  30.823  27.765  1.00  0.00     0.049 A 
ATOM     60  H   UNL A   1      46.865  28.893  27.284  1.00  0.00     0.167 HD
ATOM     61  C   UNL A   1      45.167  30.883  28.375  1.00  0.00     0.074 A 
ATOM     62  C   UNL A   1      43.989  31.540  28.902  1.00  0.00     0.031 C 
ATOM     63  C   UNL A   1      46.389  31.464  28.284  1.00  0.00     0.037 A 
BRANCH  50  64
ATOM     64  C   UNL A   1      50.772  27.765  25.990  1.00  0.00     0.064 A 
ATOM     65  C   UNL A   1      51.731  27.407  26.951  1.00  0.00     0.173 A 
ATOM     66  C   UNL A   1      51.199  27.914  24.662  1.00  0.00     0.173 A 
ATOM     67  F   UNL A   1      51.376  27.263  28.236  1.00  0.00    -0.203 F 
ATOM     68  C   UNL A   1      53.068  27.234  26.601  1.00  0.00     0.198 A 
ATOM     69  C   UNL A   1      52.532  27.710  24.310  1.00  0.00     0.198 A 
ATOM     70  F   UNL A   1      50.324  28.250  23.702  1.00  0.00    -0.203 F 
ATOM     71  F   UNL A   1      53.973  26.940  27.544  1.00  0.00    -0.200 F 
ATOM     72  C   UNL A   1      53.466  27.379  25.280  1.00  0.00     0.200 A 
ATOM     73  F   UNL A   1      52.913  27.839  23.032  1.00  0.00    -0.200 F 
ATOM     74  F   UNL A   1      54.751  27.205  24.944  1.00  0.00    -0.200 F 
ENDBRANCH  50  64
BRANCH  51  75
ATOM     75  C   UNL A   1      41.135  28.462  28.501  1.00  0.00     0.064 A 
ATOM     76  C   UNL A   1      40.705  28.048  29.770  1.00  0.00     0.173 A 
ATOM     77  C   UNL A   1      40.173  28.975  27.620  1.00  0.00     0.173 A 
ATOM     78  F   UNL A   1      41.585  27.531  30.639  1.00  0.00    -0.203 F 
ATOM     79  C   UNL A   1      39.363  28.123  30.134  1.00  0.00     0.198 A 
ATOM     80  C   UNL A   1      38.835  29.076  27.996  1.00  0.00     0.198 A 
ATOM     81  F   UNL A   1      40.535  29.390  26.397  1.00  0.00    -0.203 F 
ATOM     82  F   UNL A   1      38.972  27.678  31.336  1.00  0.00    -0.200 F 
ATOM     83  C   UNL A   1      38.430  28.642  29.249  1.00  0.00     0.200 A 
ATOM     84  F   UNL A   1      37.938  29.591  27.143  1.00  0.00    -0.200 F 
ATOM     85  F   UNL A   1      37.139  28.717  29.601  1.00  0.00    -0.200 F 
ENDBRANCH  51  75
BRANCH  63  86
ATOM     86  C   UNL A   1      46.506  32.888  28.740  1.00  0.00     0.064 A 
ATOM     87  C   UNL A   1      46.853  33.211  30.060  1.00  0.00     0.173 A 
ATOM     88  C   UNL A   1      46.302  33.944  27.837  1.00  0.00     0.173 A 
ATOM     89  F   UNL A   1      47.044  32.237  30.965  1.00  0.00    -0.203 F 
ATOM     90  C   UNL A   1      46.966  34.537  30.467  1.00  0.00     0.198 A 
ATOM     91  C   UNL A   1      46.445  35.268  28.241  1.00  0.00     0.198 A 
ATOM     92  F   UNL A   1      45.974  33.689  26.562  1.00  0.00    -0.203 F 
ATOM     93  F   UNL A   1      47.251  34.822  31.745  1.00  0.00    -0.200 F 
ATOM     94  C   UNL A   1      46.769  35.564  29.556  1.00  0.00     0.200 A 
ATOM     95  F   UNL A   1      46.266  36.259  27.355  1.00  0.00    -0.200 F 
ATOM     96  F   UNL A   1      46.884  36.840  29.948  1.00  0.00    -0.200 F 
ENDBRANCH  63  86
ENDBRANCH  37  38
ENDBRANCH  29  32
ENDBRANCH  27  28
ENDBRANCH  26  27
ENDBRANCH  25  26
ENDBRANCH   1  25
TORSDOF 15
ENDMDL
