MODEL 1
REMARK VINA RESULT:     -11.0      0.000      0.000
REMARK SMILES C[C@@H](C(=O)NCCCCCCNC(=O)c1ccc(-c2c3nc(c(-c4c(F)c(F)c(F)c(F)c4F)c4ccc([nH]4)c(-c4c(F)c(F)c(F)c(F)c4F)c4nc(c(-c5c(F)c(F)c(F)c(F)c5F)c5ccc2[nH]5)C=C4)C=C3)cc1)c1cccn(C(F)F)c1=O
REMARK SMILES IDX 8 1 7 2 6 3 5 4 3 5 4 6 2 8 1 9 78 10 79 11 86 12 80 13
REMARK SMILES IDX 82 14 87 15 81 16 83 17 84 18 85 19 9 20 10 21 11 22 12 23
REMARK SMILES IDX 13 24 14 26 15 27 16 28 77 29 17 30 76 31 18 32 19 33 20 34
REMARK SMILES IDX 70 35 21 36 75 37 69 38 71 39 22 40 74 41 68 42 67 43 23 45
REMARK SMILES IDX 55 46 35 47 54 48 36 49 39 50 53 51 72 52 37 53 38 54 52 56
REMARK SMILES IDX 73 57 40 58 24 59 25 60 33 61 26 62 27 63 31 64 34 65 28 66
REMARK SMILES IDX 29 67 32 68 30 69 56 70 57 71 65 72 58 73 59 74 63 75 66 76
REMARK SMILES IDX 60 77 61 78 64 79 62 80 41 81 42 82 50 83 43 84 44 85 48 86
REMARK SMILES IDX 51 87 45 88 46 89 49 90 47 91
REMARK H PARENT 5 7 12 25 71 44 39 55
REMARK Flexibility Score: inf
ROOT
ATOM      1  C   UNL A   1      41.477  21.891  26.238  1.00  0.00     0.002 C 
ENDROOT
BRANCH   1   2
ATOM      2  C   UNL A   1      40.147  22.469  26.741  1.00  0.00     0.021 C 
BRANCH   2   3
ATOM      3  C   UNL A   1      38.901  21.830  26.119  1.00  0.00     0.116 C 
BRANCH   3   4
ATOM      4  N   UNL A   1      37.717  22.607  26.420  1.00  0.00    -0.356 N 
ATOM      5  C   UNL A   1      36.609  22.856  25.665  1.00  0.00     0.227 C 
ATOM      6  O   UNL A   1      35.794  23.659  26.126  1.00  0.00    -0.274 OA
ATOM      7  H   UNL A   1      37.711  23.023  27.312  1.00  0.00     0.163 HD
BRANCH   5   8
ATOM      8  C   UNL A   1      36.416  22.151  24.311  1.00  0.00     0.111 C 
ATOM      9  C   UNL A   1      36.655  23.089  23.125  1.00  0.00     0.023 C 
BRANCH   8  10
ATOM     10  C   UNL A   1      35.025  21.541  24.274  1.00  0.00     0.030 A 
ATOM     11  C   UNL A   1      33.907  22.201  23.914  1.00  0.00     0.012 A 
ATOM     12  C   UNL A   1      34.901  20.095  24.674  1.00  0.00     0.258 A 
ATOM     13  C   UNL A   1      32.620  21.561  23.901  1.00  0.00     0.019 A 
ATOM     14  N   UNL A   1      33.628  19.551  24.628  1.00  0.00    -0.258 N 
ATOM     15  O   UNL A   1      35.900  19.457  25.001  1.00  0.00    -0.269 OA
ATOM     16  C   UNL A   1      32.515  20.276  24.248  1.00  0.00     0.095 A 
BRANCH  14  17
ATOM     17  C   UNL A   1      33.476  18.162  24.973  1.00  0.00     0.451 C 
ATOM     18  F   UNL A   1      32.155  17.839  25.017  1.00  0.00    -0.185 F 
ATOM     19  F   UNL A   1      34.017  17.392  23.989  1.00  0.00    -0.185 F 
ENDBRANCH  14  17
ENDBRANCH   8  10
ENDBRANCH   5   8
ENDBRANCH   3   4
ENDBRANCH   2   3
ENDBRANCH   1   2
BRANCH   1  20
ATOM     20  C   UNL A   1      41.931  20.597  26.918  1.00  0.00     0.002 C 
BRANCH  20  21
ATOM     21  C   UNL A   1      42.128  19.400  25.983  1.00  0.00     0.021 C 
BRANCH  21  22
ATOM     22  C   UNL A   1      43.464  18.679  26.132  1.00  0.00     0.116 C 
BRANCH  22  23
ATOM     23  N   UNL A   1      44.155  18.527  24.862  1.00  0.00    -0.352 N 
ATOM     24  C   UNL A   1      44.727  19.482  24.062  1.00  0.00     0.251 C 
ATOM     25  H   UNL A   1      44.222  17.603  24.528  1.00  0.00     0.163 HD
ATOM     26  O   UNL A   1      45.121  19.186  22.935  1.00  0.00    -0.269 OA
BRANCH  24  27
ATOM     27  C   UNL A   1      44.858  20.876  24.537  1.00  0.00     0.039 A 
ATOM     28  C   UNL A   1      45.501  21.114  25.756  1.00  0.00     0.014 A 
ATOM     29  C   UNL A   1      44.324  21.943  23.809  1.00  0.00     0.014 A 
ATOM     30  C   UNL A   1      45.651  22.423  26.219  1.00  0.00     0.010 A 
ATOM     31  C   UNL A   1      44.529  23.252  24.240  1.00  0.00     0.010 A 
ATOM     32  C   UNL A   1      45.187  23.504  25.455  1.00  0.00    -0.014 A 
BRANCH  32  33
ATOM     33  C   UNL A   1      45.364  24.903  25.919  1.00  0.00     0.031 A 
ATOM     34  C   UNL A   1      46.709  25.567  25.820  1.00  0.00     0.074 A 
ATOM     35  C   UNL A   1      44.329  25.557  26.479  1.00  0.00     0.049 A 
ATOM     36  N   UNL A   1      47.076  26.760  26.217  1.00  0.00    -0.248 NA
ATOM     37  C   UNL A   1      47.793  24.775  25.218  1.00  0.00     0.031 C 
ATOM     38  C   UNL A   1      42.986  25.008  26.671  1.00  0.00     0.029 A 
ATOM     39  N   UNL A   1      44.247  26.826  26.997  1.00  0.00    -0.354 N 
ATOM     40  C   UNL A   1      48.432  26.853  25.930  1.00  0.00     0.074 A 
ATOM     41  C   UNL A   1      48.834  25.581  25.370  1.00  0.00     0.031 C 
ATOM     42  C   UNL A   1      42.207  25.941  27.241  1.00  0.00     0.029 A 
ATOM     43  C   UNL A   1      43.002  27.141  27.482  1.00  0.00     0.049 A 
ATOM     44  H   UNL A   1      45.008  27.450  27.018  1.00  0.00     0.167 HD
ATOM     45  C   UNL A   1      49.261  27.911  26.097  1.00  0.00     0.037 A 
ATOM     46  C   UNL A   1      42.554  28.274  28.057  1.00  0.00     0.037 A 
ATOM     47  C   UNL A   1      48.853  29.187  26.624  1.00  0.00     0.049 A 
ATOM     48  C   UNL A   1      43.493  29.436  28.225  1.00  0.00     0.074 A 
ATOM     49  C   UNL A   1      49.601  30.341  26.771  1.00  0.00     0.029 A 
ATOM     50  N   UNL A   1      47.578  29.475  27.089  1.00  0.00    -0.354 N 
ATOM     51  N   UNL A   1      44.757  29.536  27.889  1.00  0.00    -0.248 NA
ATOM     52  C   UNL A   1      42.941  30.647  28.849  1.00  0.00     0.031 C 
ATOM     53  C   UNL A   1      48.791  31.317  27.362  1.00  0.00     0.029 A 
ATOM     54  C   UNL A   1      47.524  30.784  27.542  1.00  0.00     0.049 A 
ATOM     55  H   UNL A   1      46.823  28.843  27.096  1.00  0.00     0.167 HD
ATOM     56  C   UNL A   1      45.142  30.826  28.229  1.00  0.00     0.074 A 
ATOM     57  C   UNL A   1      43.975  31.475  28.790  1.00  0.00     0.031 C 
ATOM     58  C   UNL A   1      46.352  31.418  28.087  1.00  0.00     0.037 A 
BRANCH  45  59
ATOM     59  C   UNL A   1      50.699  27.732  25.703  1.00  0.00     0.064 A 
ATOM     60  C   UNL A   1      51.125  27.904  24.377  1.00  0.00     0.173 A 
ATOM     61  C   UNL A   1      51.665  27.407  26.666  1.00  0.00     0.173 A 
ATOM     62  F   UNL A   1      50.237  28.203  23.417  1.00  0.00    -0.203 F 
ATOM     63  C   UNL A   1      52.460  27.727  24.024  1.00  0.00     0.198 A 
ATOM     64  C   UNL A   1      53.005  27.259  26.315  1.00  0.00     0.198 A 
ATOM     65  F   UNL A   1      51.313  27.236  27.949  1.00  0.00    -0.203 F 
ATOM     66  F   UNL A   1      52.835  27.846  22.743  1.00  0.00    -0.200 F 
ATOM     67  C   UNL A   1      53.399  27.410  24.994  1.00  0.00     0.200 A 
ATOM     68  F   UNL A   1      53.915  26.964  27.255  1.00  0.00    -0.200 F 
ATOM     69  F   UNL A   1      54.685  27.242  24.654  1.00  0.00    -0.200 F 
ENDBRANCH  45  59
BRANCH  46  70
ATOM     70  C   UNL A   1      41.133  28.380  28.477  1.00  0.00     0.064 A 
ATOM     71  C   UNL A   1      40.166  28.902  27.608  1.00  0.00     0.173 A 
ATOM     72  C   UNL A   1      40.714  27.967  29.750  1.00  0.00     0.173 A 
ATOM     73  F   UNL A   1      40.526  29.329  26.388  1.00  0.00    -0.203 F 
ATOM     74  C   UNL A   1      38.836  29.024  28.000  1.00  0.00     0.198 A 
ATOM     75  C   UNL A   1      39.378  28.066  30.133  1.00  0.00     0.198 A 
ATOM     76  F   UNL A   1      41.600  27.457  30.618  1.00  0.00    -0.203 F 
ATOM     77  F   UNL A   1      37.940  29.564  27.163  1.00  0.00    -0.200 F 
ATOM     78  C   UNL A   1      38.441  28.601  29.260  1.00  0.00     0.200 A 
ATOM     79  F   UNL A   1      38.998  27.646  31.347  1.00  0.00    -0.200 F 
ATOM     80  F   UNL A   1      37.161  28.715  29.637  1.00  0.00    -0.200 F 
ENDBRANCH  46  70
BRANCH  58  81
ATOM     81  C   UNL A   1      46.467  32.853  28.511  1.00  0.00     0.064 A 
ATOM     82  C   UNL A   1      46.830  33.208  29.817  1.00  0.00     0.173 A 
ATOM     83  C   UNL A   1      46.239  33.884  27.587  1.00  0.00     0.173 A 
ATOM     84  F   UNL A   1      47.041  32.258  30.741  1.00  0.00    -0.203 F 
ATOM     85  C   UNL A   1      46.937  34.545  30.192  1.00  0.00     0.198 A 
ATOM     86  C   UNL A   1      46.374  35.220  27.957  1.00  0.00     0.198 A 
ATOM     87  F   UNL A   1      45.894  33.597  26.323  1.00  0.00    -0.203 F 
ATOM     88  F   UNL A   1      47.240  34.862  31.458  1.00  0.00    -0.200 F 
ATOM     89  C   UNL A   1      46.716  35.549  29.260  1.00  0.00     0.200 A 
ATOM     90  F   UNL A   1      46.171  36.189  27.054  1.00  0.00    -0.200 F 
ATOM     91  F   UNL A   1      46.825  36.835  29.621  1.00  0.00    -0.200 F 
ENDBRANCH  58  81
ENDBRANCH  32  33
ENDBRANCH  24  27
ENDBRANCH  22  23
ENDBRANCH  21  22
ENDBRANCH  20  21
ENDBRANCH   1  20
TORSDOF 15
ENDMDL
MODEL 2
REMARK VINA RESULT:     -10.9      7.653     13.117
REMARK SMILES C[C@@H](C(=O)NCCCCCCNC(=O)c1ccc(-c2c3nc(c(-c4c(F)c(F)c(F)c(F)c4F)c4ccc([nH]4)c(-c4c(F)c(F)c(F)c(F)c4F)c4nc(c(-c5c(F)c(F)c(F)c(F)c5F)c5ccc2[nH]5)C=C4)C=C3)cc1)c1cccn(C(F)F)c1=O
REMARK SMILES IDX 8 1 7 2 6 3 5 4 3 5 4 6 2 8 1 9 78 10 79 11 86 12 80 13
REMARK SMILES IDX 82 14 87 15 81 16 83 17 84 18 85 19 9 20 10 21 11 22 12 23
REMARK SMILES IDX 13 24 14 26 15 27 16 28 77 29 17 30 76 31 18 32 19 33 20 34
REMARK SMILES IDX 70 35 21 36 75 37 69 38 71 39 22 40 74 41 68 42 67 43 23 45
REMARK SMILES IDX 55 46 35 47 54 48 36 49 39 50 53 51 72 52 37 53 38 54 52 56
REMARK SMILES IDX 73 57 40 58 24 59 25 60 33 61 26 62 27 63 31 64 34 65 28 66
REMARK SMILES IDX 29 67 32 68 30 69 56 70 57 71 65 72 58 73 59 74 63 75 66 76
REMARK SMILES IDX 60 77 61 78 64 79 62 80 41 81 42 82 50 83 43 84 44 85 48 86
REMARK SMILES IDX 51 87 45 88 46 89 49 90 47 91
REMARK H PARENT 5 7 12 25 71 44 39 55
REMARK Flexibility Score: inf
ROOT
ATOM      1  C   UNL A   1      34.677  32.349  28.619  1.00  0.00     0.002 C 
ENDROOT
BRANCH   1   2
ATOM      2  C   UNL A   1      33.652  31.798  27.617  1.00  0.00     0.021 C 
BRANCH   2   3
ATOM      3  C   UNL A   1      33.630  30.270  27.507  1.00  0.00     0.116 C 
BRANCH   3   4
ATOM      4  N   UNL A   1      34.018  29.843  26.179  1.00  0.00    -0.356 N 
ATOM      5  C   UNL A   1      33.540  28.827  25.403  1.00  0.00     0.227 C 
ATOM      6  O   UNL A   1      34.140  28.607  24.349  1.00  0.00    -0.274 OA
ATOM      7  H   UNL A   1      34.743  30.368  25.771  1.00  0.00     0.163 HD
BRANCH   5   8
ATOM      8  C   UNL A   1      32.310  28.020  25.852  1.00  0.00     0.111 C 
ATOM      9  C   UNL A   1      32.648  26.555  26.145  1.00  0.00     0.023 C 
BRANCH   8  10
ATOM     10  C   UNL A   1      31.232  28.145  24.788  1.00  0.00     0.030 A 
ATOM     11  C   UNL A   1      30.734  27.116  24.077  1.00  0.00     0.012 A 
ATOM     12  C   UNL A   1      30.693  29.525  24.520  1.00  0.00     0.258 A 
ATOM     13  C   UNL A   1      29.712  27.305  23.083  1.00  0.00     0.019 A 
ATOM     14  N   UNL A   1      29.705  29.621  23.553  1.00  0.00    -0.258 N 
ATOM     15  O   UNL A   1      31.118  30.488  25.155  1.00  0.00    -0.269 OA
ATOM     16  C   UNL A   1      29.229  28.530  22.854  1.00  0.00     0.095 A 
BRANCH  14  17
ATOM     17  C   UNL A   1      29.144  30.921  23.292  1.00  0.00     0.451 C 
ATOM     18  F   UNL A   1      29.090  31.139  21.950  1.00  0.00    -0.185 F 
ATOM     19  F   UNL A   1      27.855  30.950  23.728  1.00  0.00    -0.185 F 
ENDBRANCH  14  17
ENDBRANCH   8  10
ENDBRANCH   5   8
ENDBRANCH   3   4
ENDBRANCH   2   3
ENDBRANCH   1   2
BRANCH   1  20
ATOM     20  C   UNL A   1      34.669  33.869  28.799  1.00  0.00     0.002 C 
BRANCH  20  21
ATOM     21  C   UNL A   1      33.282  34.508  28.907  1.00  0.00     0.021 C 
BRANCH  21  22
ATOM     22  C   UNL A   1      33.279  35.975  29.328  1.00  0.00     0.116 C 
BRANCH  22  23
ATOM     23  N   UNL A   1      32.431  36.217  30.483  1.00  0.00    -0.352 N 
ATOM     24  C   UNL A   1      32.561  35.759  31.769  1.00  0.00     0.251 C 
ATOM     25  H   UNL A   1      31.651  36.794  30.318  1.00  0.00     0.163 HD
ATOM     26  O   UNL A   1      31.650  35.932  32.578  1.00  0.00    -0.269 OA
BRANCH  24  27
ATOM     27  C   UNL A   1      33.783  35.042  32.189  1.00  0.00     0.039 A 
ATOM     28  C   UNL A   1      33.669  33.719  32.628  1.00  0.00     0.014 A 
ATOM     29  C   UNL A   1      35.031  35.671  32.187  1.00  0.00     0.014 A 
ATOM     30  C   UNL A   1      34.810  33.013  33.016  1.00  0.00     0.010 A 
ATOM     31  C   UNL A   1      36.176  34.949  32.514  1.00  0.00     0.010 A 
ATOM     32  C   UNL A   1      36.076  33.615  32.940  1.00  0.00    -0.014 A 
BRANCH  32  33
ATOM     33  C   UNL A   1      37.302  32.870  33.321  1.00  0.00     0.031 A 
ATOM     34  C   UNL A   1      37.998  33.174  34.618  1.00  0.00     0.074 A 
ATOM     35  C   UNL A   1      37.819  31.959  32.475  1.00  0.00     0.049 A 
ATOM     36  N   UNL A   1      39.105  32.669  35.104  1.00  0.00    -0.248 NA
ATOM     37  C   UNL A   1      37.381  34.200  35.474  1.00  0.00     0.031 C 
ATOM     38  C   UNL A   1      37.262  31.605  31.170  1.00  0.00     0.029 A 
ATOM     39  N   UNL A   1      38.936  31.167  32.587  1.00  0.00    -0.354 N 
ATOM     40  C   UNL A   1      39.325  33.328  36.307  1.00  0.00     0.074 A 
ATOM     41  C   UNL A   1      38.265  34.301  36.456  1.00  0.00     0.031 C 
ATOM     42  C   UNL A   1      38.024  30.650  30.611  1.00  0.00     0.029 A 
ATOM     43  C   UNL A   1      39.138  30.348  31.505  1.00  0.00     0.049 A 
ATOM     44  H   UNL A   1      39.534  31.186  33.368  1.00  0.00     0.167 HD
ATOM     45  C   UNL A   1      40.309  33.124  37.215  1.00  0.00     0.037 A 
ATOM     46  C   UNL A   1      40.115  29.452  31.261  1.00  0.00     0.037 A 
ATOM     47  C   UNL A   1      41.345  32.133  37.080  1.00  0.00     0.049 A 
ATOM     48  C   UNL A   1      41.192  29.240  32.289  1.00  0.00     0.074 A 
ATOM     49  C   UNL A   1      42.348  31.804  37.975  1.00  0.00     0.029 A 
ATOM     50  N   UNL A   1      41.507  31.308  35.977  1.00  0.00    -0.354 N 
ATOM     51  N   UNL A   1      41.352  29.821  33.453  1.00  0.00    -0.248 NA
ATOM     52  C   UNL A   1      42.222  28.242  31.970  1.00  0.00     0.031 C 
ATOM     53  C   UNL A   1      43.142  30.807  37.397  1.00  0.00     0.029 A 
ATOM     54  C   UNL A   1      42.606  30.484  36.160  1.00  0.00     0.049 A 
ATOM     55  H   UNL A   1      40.927  31.308  35.181  1.00  0.00     0.167 HD
ATOM     56  C   UNL A   1      42.479  29.239  34.019  1.00  0.00     0.074 A 
ATOM     57  C   UNL A   1      42.957  28.252  33.073  1.00  0.00     0.031 C 
ATOM     58  C   UNL A   1      43.062  29.498  35.214  1.00  0.00     0.037 A 
BRANCH  45  59
ATOM     59  C   UNL A   1      40.310  33.992  38.439  1.00  0.00     0.064 A 
ATOM     60  C   UNL A   1      39.588  33.643  39.590  1.00  0.00     0.173 A 
ATOM     61  C   UNL A   1      41.062  35.176  38.471  1.00  0.00     0.173 A 
ATOM     62  F   UNL A   1      38.843  32.527  39.606  1.00  0.00    -0.203 F 
ATOM     63  C   UNL A   1      39.592  34.462  40.716  1.00  0.00     0.198 A 
ATOM     64  C   UNL A   1      41.088  35.979  39.609  1.00  0.00     0.198 A 
ATOM     65  F   UNL A   1      41.776  35.554  37.400  1.00  0.00    -0.203 F 
ATOM     66  F   UNL A   1      38.853  34.134  41.784  1.00  0.00    -0.200 F 
ATOM     67  C   UNL A   1      40.346  35.626  40.727  1.00  0.00     0.200 A 
ATOM     68  F   UNL A   1      41.826  37.098  39.623  1.00  0.00    -0.200 F 
ATOM     69  F   UNL A   1      40.351  36.412  41.811  1.00  0.00    -0.200 F 
ENDBRANCH  45  59
BRANCH  46  70
ATOM     70  C   UNL A   1      40.094  28.656  30.008  1.00  0.00     0.064 A 
ATOM     71  C   UNL A   1      40.689  29.148  28.838  1.00  0.00     0.173 A 
ATOM     72  C   UNL A   1      39.483  27.395  29.951  1.00  0.00     0.173 A 
ATOM     73  F   UNL A   1      41.267  30.358  28.840  1.00  0.00    -0.203 F 
ATOM     74  C   UNL A   1      40.657  28.417  27.653  1.00  0.00     0.198 A 
ATOM     75  C   UNL A   1      39.473  26.655  28.771  1.00  0.00     0.198 A 
ATOM     76  F   UNL A   1      38.903  26.879  31.044  1.00  0.00    -0.203 F 
ATOM     77  F   UNL A   1      41.198  28.929  26.538  1.00  0.00    -0.200 F 
ATOM     78  C   UNL A   1      40.055  27.169  27.621  1.00  0.00     0.200 A 
ATOM     79  F   UNL A   1      38.900  25.443  28.748  1.00  0.00    -0.200 F 
ATOM     80  F   UNL A   1      40.027  26.464  26.482  1.00  0.00    -0.200 F 
ENDBRANCH  46  70
BRANCH  58  81
ATOM     81  C   UNL A   1      44.261  28.676  35.584  1.00  0.00     0.064 A 
ATOM     82  C   UNL A   1      44.137  27.470  36.289  1.00  0.00     0.173 A 
ATOM     83  C   UNL A   1      45.547  29.086  35.201  1.00  0.00     0.173 A 
ATOM     84  F   UNL A   1      42.930  27.045  36.692  1.00  0.00    -0.203 F 
ATOM     85  C   UNL A   1      45.259  26.716  36.620  1.00  0.00     0.198 A 
ATOM     86  C   UNL A   1      46.666  28.315  35.510  1.00  0.00     0.198 A 
ATOM     87  F   UNL A   1      45.719  30.229  34.521  1.00  0.00    -0.203 F 
ATOM     88  F   UNL A   1      45.122  25.591  37.334  1.00  0.00    -0.200 F 
ATOM     89  C   UNL A   1      46.522  27.136  36.223  1.00  0.00     0.200 A 
ATOM     90  F   UNL A   1      47.883  28.716  35.117  1.00  0.00    -0.200 F 
ATOM     91  F   UNL A   1      47.601  26.406  36.539  1.00  0.00    -0.200 F 
ENDBRANCH  58  81
ENDBRANCH  32  33
ENDBRANCH  24  27
ENDBRANCH  22  23
ENDBRANCH  21  22
ENDBRANCH  20  21
ENDBRANCH   1  20
TORSDOF 15
ENDMDL
MODEL 3
REMARK VINA RESULT:     -10.6      4.153      9.093
REMARK SMILES C[C@@H](C(=O)NCCCCCCNC(=O)c1ccc(-c2c3nc(c(-c4c(F)c(F)c(F)c(F)c4F)c4ccc([nH]4)c(-c4c(F)c(F)c(F)c(F)c4F)c4nc(c(-c5c(F)c(F)c(F)c(F)c5F)c5ccc2[nH]5)C=C4)C=C3)cc1)c1cccn(C(F)F)c1=O
REMARK SMILES IDX 8 1 7 2 6 3 5 4 3 5 4 6 2 8 1 9 78 10 79 11 86 12 80 13
REMARK SMILES IDX 82 14 87 15 81 16 83 17 84 18 85 19 9 20 10 21 11 22 12 23
REMARK SMILES IDX 13 24 14 26 15 27 16 28 77 29 17 30 76 31 18 32 19 33 20 34
REMARK SMILES IDX 70 35 21 36 75 37 69 38 71 39 22 40 74 41 68 42 67 43 23 45
REMARK SMILES IDX 55 46 35 47 54 48 36 49 39 50 53 51 72 52 37 53 38 54 52 56
REMARK SMILES IDX 73 57 40 58 24 59 25 60 33 61 26 62 27 63 31 64 34 65 28 66
REMARK SMILES IDX 29 67 32 68 30 69 56 70 57 71 65 72 58 73 59 74 63 75 66 76
REMARK SMILES IDX 60 77 61 78 64 79 62 80 41 81 42 82 50 83 43 84 44 85 48 86
REMARK SMILES IDX 51 87 45 88 46 89 49 90 47 91
REMARK H PARENT 5 7 12 25 71 44 39 55
REMARK Flexibility Score: inf
ROOT
ATOM      1  C   UNL A   1      33.469  25.737  25.412  1.00  0.00     0.002 C 
ENDROOT
BRANCH   1   2
ATOM      2  C   UNL A   1      33.838  26.402  24.078  1.00  0.00     0.021 C 
BRANCH   2   3
ATOM      3  C   UNL A   1      33.271  25.698  22.841  1.00  0.00     0.116 C 
BRANCH   3   4
ATOM      4  N   UNL A   1      32.017  25.043  23.148  1.00  0.00    -0.356 N 
ATOM      5  C   UNL A   1      31.670  23.725  23.082  1.00  0.00     0.227 C 
ATOM      6  O   UNL A   1      30.485  23.455  23.289  1.00  0.00    -0.274 OA
ATOM      7  H   UNL A   1      31.301  25.645  23.452  1.00  0.00     0.163 HD
BRANCH   5   8
ATOM      8  C   UNL A   1      32.731  22.657  22.767  1.00  0.00     0.111 C 
ATOM      9  C   UNL A   1      32.114  21.360  22.235  1.00  0.00     0.023 C 
BRANCH   8  10
ATOM     10  C   UNL A   1      33.562  22.413  24.015  1.00  0.00     0.030 A 
ATOM     11  C   UNL A   1      33.067  21.993  25.195  1.00  0.00     0.012 A 
ATOM     12  C   UNL A   1      35.043  22.666  23.911  1.00  0.00     0.258 A 
ATOM     13  C   UNL A   1      33.913  21.782  26.339  1.00  0.00     0.019 A 
ATOM     14  N   UNL A   1      35.787  22.432  25.055  1.00  0.00    -0.258 N 
ATOM     15  O   UNL A   1      35.531  23.042  22.848  1.00  0.00    -0.269 OA
ATOM     16  C   UNL A   1      35.227  21.998  26.241  1.00  0.00     0.095 A 
BRANCH  14  17
ATOM     17  C   UNL A   1      37.211  22.632  24.984  1.00  0.00     0.451 C 
ATOM     18  F   UNL A   1      37.502  23.946  25.185  1.00  0.00    -0.185 F 
ATOM     19  F   UNL A   1      37.813  21.956  26.001  1.00  0.00    -0.185 F 
ENDBRANCH  14  17
ENDBRANCH   8  10
ENDBRANCH   5   8
ENDBRANCH   3   4
ENDBRANCH   2   3
ENDBRANCH   1   2
BRANCH   1  20
ATOM     20  C   UNL A   1      32.600  26.580  26.349  1.00  0.00     0.002 C 
BRANCH  20  21
ATOM     21  C   UNL A   1      32.862  28.088  26.304  1.00  0.00     0.021 C 
BRANCH  21  22
ATOM     22  C   UNL A   1      34.053  28.560  27.133  1.00  0.00     0.116 C 
BRANCH  22  23
ATOM     23  N   UNL A   1      33.895  29.926  27.602  1.00  0.00    -0.352 N 
ATOM     24  C   UNL A   1      34.752  30.696  28.346  1.00  0.00     0.251 C 
ATOM     25  H   UNL A   1      33.049  30.362  27.350  1.00  0.00     0.163 HD
ATOM     26  O   UNL A   1      34.375  31.778  28.794  1.00  0.00    -0.269 OA
BRANCH  24  27
ATOM     27  C   UNL A   1      36.125  30.228  28.630  1.00  0.00     0.039 A 
ATOM     28  C   UNL A   1      37.113  30.413  27.659  1.00  0.00     0.014 A 
ATOM     29  C   UNL A   1      36.436  29.579  29.829  1.00  0.00     0.014 A 
ATOM     30  C   UNL A   1      38.422  29.993  27.908  1.00  0.00     0.010 A 
ATOM     31  C   UNL A   1      37.753  29.217  30.103  1.00  0.00     0.010 A 
ATOM     32  C   UNL A   1      38.758  29.412  29.141  1.00  0.00    -0.014 A 
BRANCH  32  33
ATOM     33  C   UNL A   1      40.150  28.987  29.434  1.00  0.00     0.031 A 
ATOM     34  C   UNL A   1      41.056  29.872  30.243  1.00  0.00     0.074 A 
ATOM     35  C   UNL A   1      40.614  27.829  28.926  1.00  0.00     0.049 A 
ATOM     36  N   UNL A   1      42.315  29.700  30.561  1.00  0.00    -0.248 NA
ATOM     37  C   UNL A   1      40.477  31.130  30.740  1.00  0.00     0.031 C 
ATOM     38  C   UNL A   1      39.847  26.904  28.092  1.00  0.00     0.029 A 
ATOM     39  N   UNL A   1      41.848  27.237  29.034  1.00  0.00    -0.354 N 
ATOM     40  C   UNL A   1      42.681  30.834  31.276  1.00  0.00     0.074 A 
ATOM     41  C   UNL A   1      41.528  31.707  31.305  1.00  0.00     0.031 C 
ATOM     42  C   UNL A   1      40.619  25.849  27.783  1.00  0.00     0.029 A 
ATOM     43  C   UNL A   1      41.941  26.039  28.371  1.00  0.00     0.049 A 
ATOM     44  H   UNL A   1      42.594  27.634  29.538  1.00  0.00     0.167 HD
ATOM     45  C   UNL A   1      43.865  31.110  31.873  1.00  0.00     0.037 A 
ATOM     46  C   UNL A   1      42.979  25.188  28.252  1.00  0.00     0.037 A 
ATOM     47  C   UNL A   1      45.001  30.226  31.871  1.00  0.00     0.049 A 
ATOM     48  C   UNL A   1      44.281  25.516  28.931  1.00  0.00     0.074 A 
ATOM     49  C   UNL A   1      46.222  30.386  32.503  1.00  0.00     0.029 A 
ATOM     50  N   UNL A   1      45.052  29.011  31.204  1.00  0.00    -0.354 N 
ATOM     51  N   UNL A   1      44.596  26.559  29.661  1.00  0.00    -0.248 NA
ATOM     52  C   UNL A   1      45.371  24.544  28.772  1.00  0.00     0.031 C 
ATOM     53  C   UNL A   1      47.027  29.286  32.185  1.00  0.00     0.029 A 
ATOM     54  C   UNL A   1      46.292  28.420  31.392  1.00  0.00     0.049 A 
ATOM     55  H   UNL A   1      44.317  28.626  30.675  1.00  0.00     0.167 HD
ATOM     56  C   UNL A   1      45.905  26.354  30.075  1.00  0.00     0.074 A 
ATOM     57  C   UNL A   1      46.323  25.083  29.523  1.00  0.00     0.031 C 
ATOM     58  C   UNL A   1      46.688  27.148  30.844  1.00  0.00     0.037 A 
BRANCH  45  59
ATOM     59  C   UNL A   1      43.990  32.427  32.582  1.00  0.00     0.064 A 
ATOM     60  C   UNL A   1      44.457  33.576  31.924  1.00  0.00     0.173 A 
ATOM     61  C   UNL A   1      43.616  32.549  33.929  1.00  0.00     0.173 A 
ATOM     62  F   UNL A   1      44.839  33.508  30.640  1.00  0.00    -0.203 F 
ATOM     63  C   UNL A   1      44.576  34.789  32.597  1.00  0.00     0.198 A 
ATOM     64  C   UNL A   1      43.708  33.771  34.591  1.00  0.00     0.198 A 
ATOM     65  F   UNL A   1      43.158  31.484  34.604  1.00  0.00    -0.203 F 
ATOM     66  F   UNL A   1      45.073  35.859  31.962  1.00  0.00    -0.200 F 
ATOM     67  C   UNL A   1      44.196  34.887  33.927  1.00  0.00     0.200 A 
ATOM     68  F   UNL A   1      43.330  33.868  35.873  1.00  0.00    -0.200 F 
ATOM     69  F   UNL A   1      44.307  36.056  34.572  1.00  0.00    -0.200 F 
ENDBRANCH  45  59
BRANCH  46  70
ATOM     70  C   UNL A   1      42.817  23.922  27.494  1.00  0.00     0.064 A 
ATOM     71  C   UNL A   1      43.119  23.863  26.127  1.00  0.00     0.173 A 
ATOM     72  C   UNL A   1      42.357  22.751  28.113  1.00  0.00     0.173 A 
ATOM     73  F   UNL A   1      43.543  24.963  25.488  1.00  0.00    -0.203 F 
ATOM     74  C   UNL A   1      42.951  22.685  25.403  1.00  0.00     0.198 A 
ATOM     75  C   UNL A   1      42.212  21.567  27.393  1.00  0.00     0.198 A 
ATOM     76  F   UNL A   1      42.057  22.755  29.420  1.00  0.00    -0.203 F 
ATOM     77  F   UNL A   1      43.209  22.667  24.088  1.00  0.00    -0.200 F 
ATOM     78  C   UNL A   1      42.503  21.537  26.037  1.00  0.00     0.200 A 
ATOM     79  F   UNL A   1      41.790  20.456  28.013  1.00  0.00    -0.200 F 
ATOM     80  F   UNL A   1      42.344  20.403  25.342  1.00  0.00    -0.200 F 
ENDBRANCH  46  70
BRANCH  58  81
ATOM     81  C   UNL A   1      48.065  26.647  31.167  1.00  0.00     0.064 A 
ATOM     82  C   UNL A   1      48.303  25.802  32.260  1.00  0.00     0.173 A 
ATOM     83  C   UNL A   1      49.154  26.993  30.352  1.00  0.00     0.173 A 
ATOM     84  F   UNL A   1      47.297  25.456  33.078  1.00  0.00    -0.203 F 
ATOM     85  C   UNL A   1      49.586  25.341  32.541  1.00  0.00     0.198 A 
ATOM     86  C   UNL A   1      50.432  26.508  30.621  1.00  0.00     0.198 A 
ATOM     87  F   UNL A   1      48.977  27.795  29.292  1.00  0.00    -0.203 F 
ATOM     88  F   UNL A   1      49.799  24.572  33.618  1.00  0.00    -0.200 F 
ATOM     89  C   UNL A   1      50.648  25.689  31.718  1.00  0.00     0.200 A 
ATOM     90  F   UNL A   1      51.453  26.836  29.818  1.00  0.00    -0.200 F 
ATOM     91  F   UNL A   1      51.882  25.240  31.988  1.00  0.00    -0.200 F 
ENDBRANCH  58  81
ENDBRANCH  32  33
ENDBRANCH  24  27
ENDBRANCH  22  23
ENDBRANCH  21  22
ENDBRANCH  20  21
ENDBRANCH   1  20
TORSDOF 15
ENDMDL
