MODEL 1
REMARK VINA RESULT:     -14.0      0.000      0.000
REMARK SMILES [NH3+][C@@]1(C(=O)NCCCCCCNC(=O)c2ccc(-c3c4nc(c(-c5c(F)c(F)c(F)c(F)c5F)c5ccc([nH]5)c(-c5c(F)c(F)c(F)c(F)c5F)c5nc(c(-c6c(F)c(F)c(F)c(F)c6F)c6ccc3[nH]6)C=C5)C=C4)cc2)CC[N@H+](Cc2ccc(OCC(=O)N3CCCCC3)cc2)C1
REMARK SMILES IDX 7 1 6 2 5 3 3 4 4 5 2 7 78 8 98 9 79 10 80 11 1 13 81 17
REMARK SMILES IDX 82 18 83 19 97 20 84 21 96 22 85 23 86 24 87 25 88 26 89 27
REMARK SMILES IDX 90 28 91 29 95 30 92 31 94 32 93 33 8 34 9 35 10 36 11 37
REMARK SMILES IDX 12 38 13 39 14 41 15 42 16 43 77 44 17 45 76 46 18 47 19 48
REMARK SMILES IDX 20 49 70 50 21 51 75 52 69 53 71 54 22 55 74 56 68 57 67 58
REMARK SMILES IDX 23 60 55 61 35 62 54 63 36 64 39 65 53 66 72 67 37 68 38 69
REMARK SMILES IDX 52 71 73 72 40 73 24 74 25 75 33 76 26 77 27 78 31 79 34 80
REMARK SMILES IDX 28 81 29 82 32 83 30 84 56 85 57 86 65 87 58 88 59 89 63 90
REMARK SMILES IDX 66 91 60 92 61 93 64 94 62 95 41 96 42 97 50 98 43 99 44 100
REMARK SMILES IDX 48 101 51 102 45 103 46 104 49 105 47 106
REMARK H PARENT 5 6 80 12 1 14 1 15 1 16 12 40 71 59 39 70
REMARK Flexibility Score: inf
ROOT
ATOM      1  C   UNL A   1      34.868  31.332  27.798  1.00  0.00     0.021 C 
ENDROOT
BRANCH   1   2
ATOM      2  C   UNL A   1      33.602  29.997  26.635  1.00  0.00     0.116 C 
BRANCH   2   3
ATOM      3  N   UNL A   1      32.583  28.893  26.902  1.00  0.00    -0.350 N 
ATOM      4  C   UNL A   1      31.729  28.366  25.965  1.00  0.00     0.287 C 
ATOM      5  O   UNL A   1      31.205  27.279  26.258  1.00  0.00    -0.268 OA
ATOM      6  H   UNL A   1      32.536  28.530  27.816  1.00  0.00     0.163 HD
BRANCH   4   7
ATOM      7  C   UNL A   1      31.424  29.023  24.518  1.00  0.00     0.228 C 
ATOM      8  C   UNL A   1      30.271  28.330  23.778  1.00  0.00     0.146 C 
ATOM      9  C   UNL A   1      32.562  29.042  23.456  1.00  0.00     0.342 C 
ATOM     10  C   UNL A   1      30.860  27.645  22.540  1.00  0.00     0.270 C 
ATOM     11  N   UNL A   1      32.241  28.081  22.373  1.00  0.00    -0.325 N 
ATOM     12  H   UNL A   1      32.345  28.602  21.502  1.00  0.00     0.348 HD
BRANCH   7  13
ATOM     13  N   UNL A   1      31.048  30.444  24.836  1.00  0.00    -0.340 N 
ATOM     14  H   UNL A   1      30.756  30.508  25.811  1.00  0.00     0.345 HD
ATOM     15  H   UNL A   1      30.279  30.736  24.232  1.00  0.00     0.345 HD
ATOM     16  H   UNL A   1      31.852  31.051  24.681  1.00  0.00     0.345 HD
ENDBRANCH   7  13
BRANCH  11  17
ATOM     17  C   UNL A   1      33.220  27.024  22.020  1.00  0.00     0.299 C 
BRANCH  17  18
ATOM     18  C   UNL A   1      33.197  25.784  22.931  1.00  0.00     0.006 A 
ATOM     19  C   UNL A   1      32.967  24.231  22.042  1.00  0.00     0.013 A 
ATOM     20  C   UNL A   1      34.127  25.787  24.493  1.00  0.00     0.013 A 
ATOM     21  C   UNL A   1      33.631  22.696  22.691  1.00  0.00     0.047 A 
ATOM     22  C   UNL A   1      34.827  24.235  25.139  1.00  0.00     0.047 A 
ATOM     23  C   UNL A   1      34.584  22.701  24.216  1.00  0.00     0.120 A 
BRANCH  23  24
ATOM     24  O   UNL A   1      34.965  21.450  24.579  1.00  0.00    -0.484 OA
BRANCH  24  25
ATOM     25  C   UNL A   1      34.295  20.840  25.657  1.00  0.00     0.329 C 
BRANCH  25  26
ATOM     26  C   UNL A   1      33.169  19.945  25.167  1.00  0.00     0.260 C 
ATOM     27  O   UNL A   1      32.003  20.335  25.287  1.00  0.00    -0.271 OA
ATOM     28  N   UNL A   1      33.501  18.734  24.569  1.00  0.00    -0.340 N 
ATOM     29  C   UNL A   1      32.426  17.870  24.104  1.00  0.00     0.119 C 
ATOM     30  C   UNL A   1      34.840  18.144  24.431  1.00  0.00     0.119 C 
ATOM     31  C   UNL A   1      32.412  16.589  24.928  1.00  0.00     0.022 C 
ATOM     32  C   UNL A   1      34.932  16.812  25.182  1.00  0.00     0.022 C 
ATOM     33  C   UNL A   1      33.764  15.878  24.856  1.00  0.00     0.004 C 
ENDBRANCH  25  26
ENDBRANCH  24  25
ENDBRANCH  23  24
ENDBRANCH  17  18
ENDBRANCH  11  17
ENDBRANCH   4   7
ENDBRANCH   2   3
ENDBRANCH   1   2
BRANCH   1  34
ATOM     34  C   UNL A   1      34.884  33.055  28.111  1.00  0.00     0.002 C 
BRANCH  34  35
ATOM     35  C   UNL A   1      34.186  33.639  29.358  1.00  0.00     0.002 C 
BRANCH  35  36
ATOM     36  C   UNL A   1      33.165  34.730  29.062  1.00  0.00     0.021 C 
BRANCH  36  37
ATOM     37  C   UNL A   1      33.554  36.067  29.669  1.00  0.00     0.116 C 
BRANCH  37  38
ATOM     38  N   UNL A   1      32.636  36.443  30.744  1.00  0.00    -0.352 N 
ATOM     39  C   UNL A   1      32.534  35.905  31.997  1.00  0.00     0.251 C 
ATOM     40  H   UNL A   1      32.012  37.177  30.539  1.00  0.00     0.163 HD
ATOM     41  O   UNL A   1      31.547  36.070  32.700  1.00  0.00    -0.269 OA
BRANCH  39  42
ATOM     42  C   UNL A   1      33.682  35.127  32.471  1.00  0.00     0.039 A 
ATOM     43  C   UNL A   1      33.506  33.818  32.913  1.00  0.00     0.014 A 
ATOM     44  C   UNL A   1      34.952  35.702  32.360  1.00  0.00     0.014 A 
ATOM     45  C   UNL A   1      34.633  33.060  33.216  1.00  0.00     0.010 A 
ATOM     46  C   UNL A   1      36.067  34.913  32.550  1.00  0.00     0.010 A 
ATOM     47  C   UNL A   1      35.914  33.600  33.016  1.00  0.00    -0.014 A 
BRANCH  47  48
ATOM     48  C   UNL A   1      37.135  32.852  33.371  1.00  0.00     0.031 A 
ATOM     49  C   UNL A   1      37.808  33.164  34.678  1.00  0.00     0.074 A 
ATOM     50  C   UNL A   1      37.661  31.975  32.499  1.00  0.00     0.049 A 
ATOM     51  N   UNL A   1      38.948  32.732  35.147  1.00  0.00    -0.248 NA
ATOM     52  C   UNL A   1      37.131  34.138  35.553  1.00  0.00     0.031 C 
ATOM     53  C   UNL A   1      37.112  31.652  31.181  1.00  0.00     0.029 A 
ATOM     54  N   UNL A   1      38.786  31.198  32.592  1.00  0.00    -0.354 N 
ATOM     55  C   UNL A   1      39.129  33.400  36.351  1.00  0.00     0.074 A 
ATOM     56  C   UNL A   1      38.033  34.326  36.502  1.00  0.00     0.031 C 
ATOM     57  C   UNL A   1      37.884  30.718  30.602  1.00  0.00     0.029 A 
ATOM     58  C   UNL A   1      38.996  30.404  31.492  1.00  0.00     0.049 A 
ATOM     59  H   UNL A   1      39.386  31.209  33.372  1.00  0.00     0.167 HD
ATOM     60  C   UNL A   1      40.104  33.221  37.271  1.00  0.00     0.037 A 
ATOM     61  C   UNL A   1      39.980  29.520  31.248  1.00  0.00     0.037 A 
ATOM     62  C   UNL A   1      41.158  32.256  37.126  1.00  0.00     0.049 A 
ATOM     63  C   UNL A   1      41.038  29.319  32.301  1.00  0.00     0.074 A 
ATOM     64  C   UNL A   1      42.176  31.947  38.007  1.00  0.00     0.029 A 
ATOM     65  N   UNL A   1      41.312  31.430  36.021  1.00  0.00    -0.354 N 
ATOM     66  N   UNL A   1      41.173  29.913  33.463  1.00  0.00    -0.248 NA
ATOM     67  C   UNL A   1      42.073  28.318  32.014  1.00  0.00     0.031 C 
ATOM     68  C   UNL A   1      42.963  30.949  37.422  1.00  0.00     0.029 A 
ATOM     69  C   UNL A   1      42.411  30.609  36.196  1.00  0.00     0.049 A 
ATOM     70  H   UNL A   1      40.726  31.429  35.230  1.00  0.00     0.167 HD
ATOM     71  C   UNL A   1      42.285  29.336  34.060  1.00  0.00     0.074 A 
ATOM     72  C   UNL A   1      42.779  28.335  33.136  1.00  0.00     0.031 C 
ATOM     73  C   UNL A   1      42.855  29.609  35.260  1.00  0.00     0.037 A 
BRANCH  60  74
ATOM     74  C   UNL A   1      40.046  34.063  38.512  1.00  0.00     0.064 A 
ATOM     75  C   UNL A   1      39.262  33.690  39.615  1.00  0.00     0.173 A 
ATOM     76  C   UNL A   1      40.778  35.256  38.603  1.00  0.00     0.173 A 
ATOM     77  F   UNL A   1      38.525  32.568  39.571  1.00  0.00    -0.203 F 
ATOM     78  C   UNL A   1      39.185  34.493  40.748  1.00  0.00     0.198 A 
ATOM     79  C   UNL A   1      40.724  36.042  39.752  1.00  0.00     0.198 A 
ATOM     80  F   UNL A   1      41.542  35.662  37.578  1.00  0.00    -0.203 F 
ATOM     81  F   UNL A   1      38.380  34.146  41.761  1.00  0.00    -0.200 F 
ATOM     82  C   UNL A   1      39.922  35.666  40.819  1.00  0.00     0.200 A 
ATOM     83  F   UNL A   1      41.445  37.170  39.824  1.00  0.00    -0.200 F 
ATOM     84  F   UNL A   1      39.850  36.439  41.911  1.00  0.00    -0.200 F 
ENDBRANCH  60  74
BRANCH  61  85
ATOM     85  C   UNL A   1      39.985  28.730  29.991  1.00  0.00     0.064 A 
ATOM     86  C   UNL A   1      39.387  27.463  29.939  1.00  0.00     0.173 A 
ATOM     87  C   UNL A   1      40.589  29.212  28.820  1.00  0.00     0.173 A 
ATOM     88  F   UNL A   1      38.807  26.953  31.036  1.00  0.00    -0.203 F 
ATOM     89  C   UNL A   1      39.417  26.696  28.776  1.00  0.00     0.198 A 
ATOM     90  C   UNL A   1      40.595  28.456  27.650  1.00  0.00     0.198 A 
ATOM     91  F   UNL A   1      41.166  30.423  28.811  1.00  0.00    -0.203 F 
ATOM     92  F   UNL A   1      38.881  25.469  28.772  1.00  0.00    -0.200 F 
ATOM     93  C   UNL A   1      40.020  27.195  27.631  1.00  0.00     0.200 A 
ATOM     94  F   UNL A   1      41.163  28.948  26.540  1.00  0.00    -0.200 F 
ATOM     95  F   UNL A   1      40.051  26.457  26.512  1.00  0.00    -0.200 F 
ENDBRANCH  61  85
BRANCH  73  96
ATOM     96  C   UNL A   1      44.040  28.782  35.654  1.00  0.00     0.064 A 
ATOM     97  C   UNL A   1      45.348  29.178  35.339  1.00  0.00     0.173 A 
ATOM     98  C   UNL A   1      43.866  27.608  36.402  1.00  0.00     0.173 A 
ATOM     99  F   UNL A   1      45.561  30.287  34.614  1.00  0.00    -0.203 F 
ATOM    100  C   UNL A   1      46.439  28.412  35.736  1.00  0.00     0.198 A 
ATOM    101  C   UNL A   1      44.960  26.861  36.823  1.00  0.00     0.198 A 
ATOM    102  F   UNL A   1      42.633  27.196  36.735  1.00  0.00    -0.203 F 
ATOM    103  F   UNL A   1      47.677  28.782  35.385  1.00  0.00    -0.200 F 
ATOM    104  C   UNL A   1      46.244  27.259  36.484  1.00  0.00     0.200 A 
ATOM    105  F   UNL A   1      44.772  25.757  37.558  1.00  0.00    -0.200 F 
ATOM    106  F   UNL A   1      47.298  26.528  36.874  1.00  0.00    -0.200 F 
ENDBRANCH  73  96
ENDBRANCH  47  48
ENDBRANCH  39  42
ENDBRANCH  37  38
ENDBRANCH  36  37
ENDBRANCH  35  36
ENDBRANCH  34  35
ENDBRANCH   1  34
TORSDOF 19
ENDMDL
MODEL 2
REMARK VINA RESULT:     -14.0      5.816     10.109
REMARK SMILES [NH3+][C@@]1(C(=O)NCCCCCCNC(=O)c2ccc(-c3c4nc(c(-c5c(F)c(F)c(F)c(F)c5F)c5ccc([nH]5)c(-c5c(F)c(F)c(F)c(F)c5F)c5nc(c(-c6c(F)c(F)c(F)c(F)c6F)c6ccc3[nH]6)C=C5)C=C4)cc2)CC[N@H+](Cc2ccc(OCC(=O)N3CCCCC3)cc2)C1
REMARK SMILES IDX 7 1 6 2 5 3 3 4 4 5 2 7 78 8 98 9 79 10 80 11 1 13 81 17
REMARK SMILES IDX 82 18 83 19 97 20 84 21 96 22 85 23 86 24 87 25 88 26 89 27
REMARK SMILES IDX 90 28 91 29 95 30 92 31 94 32 93 33 8 34 9 35 10 36 11 37
REMARK SMILES IDX 12 38 13 39 14 41 15 42 16 43 77 44 17 45 76 46 18 47 19 48
REMARK SMILES IDX 20 49 70 50 21 51 75 52 69 53 71 54 22 55 74 56 68 57 67 58
REMARK SMILES IDX 23 60 55 61 35 62 54 63 36 64 39 65 53 66 72 67 37 68 38 69
REMARK SMILES IDX 52 71 73 72 40 73 24 74 25 75 33 76 26 77 27 78 31 79 34 80
REMARK SMILES IDX 28 81 29 82 32 83 30 84 56 85 57 86 65 87 58 88 59 89 63 90
REMARK SMILES IDX 66 91 60 92 61 93 64 94 62 95 41 96 42 97 50 98 43 99 44 100
REMARK SMILES IDX 48 101 51 102 45 103 46 104 49 105 47 106
REMARK H PARENT 5 6 80 12 1 14 1 15 1 16 12 40 71 59 39 70
REMARK Flexibility Score: inf
ROOT
ATOM      1  C   UNL A   1      35.958  23.356  25.515  1.00  0.00     0.021 C 
ENDROOT
BRANCH   1   2
ATOM      2  C   UNL A   1      34.329  24.799  25.578  1.00  0.00     0.116 C 
BRANCH   2   3
ATOM      3  N   UNL A   1      33.082  25.053  26.419  1.00  0.00    -0.350 N 
ATOM      4  C   UNL A   1      32.325  26.198  26.378  1.00  0.00     0.287 C 
ATOM      5  O   UNL A   1      31.188  26.115  26.872  1.00  0.00    -0.268 OA
ATOM      6  H   UNL A   1      32.797  24.342  27.037  1.00  0.00     0.163 HD
BRANCH   4   7
ATOM      7  C   UNL A   1      32.785  27.588  25.687  1.00  0.00     0.228 C 
ATOM      8  C   UNL A   1      31.805  28.740  25.952  1.00  0.00     0.146 C 
ATOM      9  C   UNL A   1      32.962  27.625  24.141  1.00  0.00     0.342 C 
ATOM     10  C   UNL A   1      31.166  29.122  24.613  1.00  0.00     0.270 C 
ATOM     11  N   UNL A   1      31.871  28.432  23.540  1.00  0.00    -0.325 N 
ATOM     12  H   UNL A   1      32.332  29.106  22.928  1.00  0.00     0.348 HD
BRANCH   7  13
ATOM     13  N   UNL A   1      34.113  27.887  26.324  1.00  0.00    -0.340 N 
ATOM     14  H   UNL A   1      34.828  27.966  25.601  1.00  0.00     0.345 HD
ATOM     15  H   UNL A   1      34.361  27.133  26.965  1.00  0.00     0.345 HD
ATOM     16  H   UNL A   1      34.053  28.764  26.841  1.00  0.00     0.345 HD
ENDBRANCH   7  13
BRANCH  11  17
ATOM     17  C   UNL A   1      31.023  27.837  22.479  1.00  0.00     0.299 C 
BRANCH  17  18
ATOM     18  C   UNL A   1      31.106  26.306  22.359  1.00  0.00     0.006 A 
ATOM     19  C   UNL A   1      32.615  25.718  21.564  1.00  0.00     0.013 A 
ATOM     20  C   UNL A   1      30.279  25.252  23.588  1.00  0.00     0.013 A 
ATOM     21  C   UNL A   1      33.292  24.106  21.961  1.00  0.00     0.047 A 
ATOM     22  C   UNL A   1      30.980  23.627  24.015  1.00  0.00     0.047 A 
ATOM     23  C   UNL A   1      32.498  23.077  23.204  1.00  0.00     0.120 A 
BRANCH  23  24
ATOM     24  O   UNL A   1      33.118  21.877  23.341  1.00  0.00    -0.484 OA
BRANCH  24  25
ATOM     25  C   UNL A   1      32.377  20.713  23.058  1.00  0.00     0.329 C 
BRANCH  25  26
ATOM     26  C   UNL A   1      32.322  19.791  24.264  1.00  0.00     0.260 C 
ATOM     27  O   UNL A   1      32.146  20.284  25.383  1.00  0.00    -0.271 OA
ATOM     28  N   UNL A   1      32.436  18.421  24.054  1.00  0.00    -0.340 N 
ATOM     29  C   UNL A   1      32.390  17.534  25.206  1.00  0.00     0.119 C 
ATOM     30  C   UNL A   1      32.709  17.733  22.784  1.00  0.00     0.119 C 
ATOM     31  C   UNL A   1      33.741  16.851  25.376  1.00  0.00     0.022 C 
ATOM     32  C   UNL A   1      34.031  16.960  22.852  1.00  0.00     0.022 C 
ATOM     33  C   UNL A   1      34.132  16.091  24.107  1.00  0.00     0.004 C 
ENDBRANCH  25  26
ENDBRANCH  24  25
ENDBRANCH  23  24
ENDBRANCH  17  18
ENDBRANCH  11  17
ENDBRANCH   4   7
ENDBRANCH   2   3
ENDBRANCH   1   2
BRANCH   1  34
ATOM     34  C   UNL A   1      36.383  22.022  24.463  1.00  0.00     0.002 C 
BRANCH  34  35
ATOM     35  C   UNL A   1      36.433  20.575  25.001  1.00  0.00     0.002 C 
BRANCH  35  36
ATOM     36  C   UNL A   1      37.764  19.866  24.794  1.00  0.00     0.021 C 
BRANCH  36  37
ATOM     37  C   UNL A   1      38.833  20.349  25.760  1.00  0.00     0.116 C 
BRANCH  37  38
ATOM     38  N   UNL A   1      39.867  19.331  25.951  1.00  0.00    -0.352 N 
ATOM     39  C   UNL A   1      41.215  19.511  26.098  1.00  0.00     0.251 C 
ATOM     40  H   UNL A   1      39.552  18.398  25.976  1.00  0.00     0.163 HD
ATOM     41  O   UNL A   1      42.015  18.600  25.939  1.00  0.00    -0.269 OA
BRANCH  39  42
ATOM     42  C   UNL A   1      41.658  20.855  26.476  1.00  0.00     0.039 A 
ATOM     43  C   UNL A   1      42.115  21.105  27.768  1.00  0.00     0.014 A 
ATOM     44  C   UNL A   1      41.707  21.831  25.475  1.00  0.00     0.014 A 
ATOM     45  C   UNL A   1      42.665  22.351  28.050  1.00  0.00     0.010 A 
ATOM     46  C   UNL A   1      42.357  23.021  25.728  1.00  0.00     0.010 A 
ATOM     47  C   UNL A   1      42.805  23.303  27.026  1.00  0.00    -0.014 A 
BRANCH  47  48
ATOM     48  C   UNL A   1      43.335  24.654  27.291  1.00  0.00     0.031 A 
ATOM     49  C   UNL A   1      42.403  25.687  27.859  1.00  0.00     0.074 A 
ATOM     50  C   UNL A   1      44.600  24.956  26.952  1.00  0.00     0.049 A 
ATOM     51  N   UNL A   1      42.603  26.963  28.058  1.00  0.00    -0.248 NA
ATOM     52  C   UNL A   1      41.042  25.234  28.198  1.00  0.00     0.031 C 
ATOM     53  C   UNL A   1      45.560  24.035  26.339  1.00  0.00     0.029 A 
ATOM     54  N   UNL A   1      45.294  26.131  27.070  1.00  0.00    -0.354 N 
ATOM     55  C   UNL A   1      41.390  27.459  28.518  1.00  0.00     0.074 A 
ATOM     56  C   UNL A   1      40.439  26.374  28.488  1.00  0.00     0.031 C 
ATOM     57  C   UNL A   1      46.729  24.673  26.165  1.00  0.00     0.029 A 
ATOM     58  C   UNL A   1      46.590  26.050  26.623  1.00  0.00     0.049 A 
ATOM     59  H   UNL A   1      44.901  26.954  27.439  1.00  0.00     0.167 HD
ATOM     60  C   UNL A   1      41.110  28.703  28.969  1.00  0.00     0.037 A 
ATOM     61  C   UNL A   1      47.548  26.994  26.599  1.00  0.00     0.037 A 
ATOM     62  C   UNL A   1      42.085  29.754  29.040  1.00  0.00     0.049 A 
ATOM     63  C   UNL A   1      47.218  28.362  27.133  1.00  0.00     0.074 A 
ATOM     64  C   UNL A   1      41.938  31.041  29.520  1.00  0.00     0.029 A 
ATOM     65  N   UNL A   1      43.404  29.624  28.627  1.00  0.00    -0.354 N 
ATOM     66  N   UNL A   1      46.085  28.811  27.619  1.00  0.00    -0.248 NA
ATOM     67  C   UNL A   1      48.302  29.353  27.124  1.00  0.00     0.031 C 
ATOM     68  C   UNL A   1      43.164  31.699  29.374  1.00  0.00     0.029 A 
ATOM     69  C   UNL A   1      44.084  30.809  28.840  1.00  0.00     0.049 A 
ATOM     70  H   UNL A   1      43.797  28.808  28.239  1.00  0.00     0.167 HD
ATOM     71  C   UNL A   1      46.327  30.122  28.005  1.00  0.00     0.074 A 
ATOM     72  C   UNL A   1      47.720  30.391  27.709  1.00  0.00     0.031 C 
ATOM     73  C   UNL A   1      45.478  31.027  28.551  1.00  0.00     0.037 A 
BRANCH  60  74
ATOM     74  C   UNL A   1      39.710  28.967  29.441  1.00  0.00     0.064 A 
ATOM     75  C   UNL A   1      39.329  28.730  30.771  1.00  0.00     0.173 A 
ATOM     76  C   UNL A   1      38.738  29.462  28.559  1.00  0.00     0.173 A 
ATOM     77  F   UNL A   1      40.215  28.237  31.650  1.00  0.00    -0.203 F 
ATOM     78  C   UNL A   1      38.020  28.943  31.193  1.00  0.00     0.198 A 
ATOM     79  C   UNL A   1      37.437  29.705  28.994  1.00  0.00     0.198 A 
ATOM     80  F   UNL A   1      39.047  29.704  27.277  1.00  0.00    -0.203 F 
ATOM     81  F   UNL A   1      37.666  28.649  32.451  1.00  0.00    -0.200 F 
ATOM     82  C   UNL A   1      37.076  29.438  30.305  1.00  0.00     0.200 A 
ATOM     83  F   UNL A   1      36.528  30.193  28.137  1.00  0.00    -0.200 F 
ATOM     84  F   UNL A   1      35.817  29.646  30.713  1.00  0.00    -0.200 F 
ENDBRANCH  60  74
BRANCH  61  85
ATOM     85  C   UNL A   1      48.910  26.667  26.103  1.00  0.00     0.064 A 
ATOM     86  C   UNL A   1      49.276  26.949  24.780  1.00  0.00     0.173 A 
ATOM     87  C   UNL A   1      49.868  26.062  26.929  1.00  0.00     0.173 A 
ATOM     88  F   UNL A   1      48.391  27.516  23.947  1.00  0.00    -0.203 F 
ATOM     89  C   UNL A   1      50.538  26.614  24.292  1.00  0.00     0.198 A 
ATOM     90  C   UNL A   1      51.138  25.751  26.448  1.00  0.00     0.198 A 
ATOM     91  F   UNL A   1      49.574  25.780  28.206  1.00  0.00    -0.203 F 
ATOM     92  F   UNL A   1      50.842  26.850  23.010  1.00  0.00    -0.200 F 
ATOM     93  C   UNL A   1      51.469  26.017  25.128  1.00  0.00     0.200 A 
ATOM     94  F   UNL A   1      52.043  25.190  27.263  1.00  0.00    -0.200 F 
ATOM     95  F   UNL A   1      52.682  25.692  24.659  1.00  0.00    -0.200 F 
ENDBRANCH  61  85
BRANCH  73  96
ATOM     96  C   UNL A   1      46.047  32.368  28.902  1.00  0.00     0.064 A 
ATOM     97  C   UNL A   1      46.020  33.436  27.994  1.00  0.00     0.173 A 
ATOM     98  C   UNL A   1      46.577  32.598  30.180  1.00  0.00     0.173 A 
ATOM     99  F   UNL A   1      45.534  33.257  26.756  1.00  0.00    -0.203 F 
ATOM    100  C   UNL A   1      46.528  34.682  28.346  1.00  0.00     0.198 A 
ATOM    101  C   UNL A   1      47.056  33.853  30.539  1.00  0.00     0.198 A 
ATOM    102  F   UNL A   1      46.615  31.608  31.085  1.00  0.00    -0.203 F 
ATOM    103  F   UNL A   1      46.535  35.677  27.450  1.00  0.00    -0.200 F 
ATOM    104  C   UNL A   1      47.038  34.892  29.620  1.00  0.00     0.200 A 
ATOM    105  F   UNL A   1      47.535  34.058  31.773  1.00  0.00    -0.200 F 
ATOM    106  F   UNL A   1      47.518  36.096  29.959  1.00  0.00    -0.200 F 
ENDBRANCH  73  96
ENDBRANCH  47  48
ENDBRANCH  39  42
ENDBRANCH  37  38
ENDBRANCH  36  37
ENDBRANCH  35  36
ENDBRANCH  34  35
ENDBRANCH   1  34
TORSDOF 19
ENDMDL
MODEL 3
REMARK VINA RESULT:     -13.8      1.310      2.078
REMARK SMILES [NH3+][C@@]1(C(=O)NCCCCCCNC(=O)c2ccc(-c3c4nc(c(-c5c(F)c(F)c(F)c(F)c5F)c5ccc([nH]5)c(-c5c(F)c(F)c(F)c(F)c5F)c5nc(c(-c6c(F)c(F)c(F)c(F)c6F)c6ccc3[nH]6)C=C5)C=C4)cc2)CC[N@H+](Cc2ccc(OCC(=O)N3CCCCC3)cc2)C1
REMARK SMILES IDX 7 1 6 2 5 3 3 4 4 5 2 7 78 8 98 9 79 10 80 11 1 13 81 17
REMARK SMILES IDX 82 18 83 19 97 20 84 21 96 22 85 23 86 24 87 25 88 26 89 27
REMARK SMILES IDX 90 28 91 29 95 30 92 31 94 32 93 33 8 34 9 35 10 36 11 37
REMARK SMILES IDX 12 38 13 39 14 41 15 42 16 43 77 44 17 45 76 46 18 47 19 48
REMARK SMILES IDX 20 49 70 50 21 51 75 52 69 53 71 54 22 55 74 56 68 57 67 58
REMARK SMILES IDX 23 60 55 61 35 62 54 63 36 64 39 65 53 66 72 67 37 68 38 69
REMARK SMILES IDX 52 71 73 72 40 73 24 74 25 75 33 76 26 77 27 78 31 79 34 80
REMARK SMILES IDX 28 81 29 82 32 83 30 84 56 85 57 86 65 87 58 88 59 89 63 90
REMARK SMILES IDX 66 91 60 92 61 93 64 94 62 95 41 96 42 97 50 98 43 99 44 100
REMARK SMILES IDX 48 101 51 102 45 103 46 104 49 105 47 106
REMARK H PARENT 5 6 80 12 1 14 1 15 1 16 12 40 71 59 39 70
REMARK Flexibility Score: inf
ROOT
ATOM      1  C   UNL A   1      34.728  31.158  28.176  1.00  0.00     0.021 C 
ENDROOT
BRANCH   1   2
ATOM      2  C   UNL A   1      33.911  29.483  27.051  1.00  0.00     0.116 C 
BRANCH   2   3
ATOM      3  N   UNL A   1      32.700  28.558  27.127  1.00  0.00    -0.350 N 
ATOM      4  C   UNL A   1      31.792  28.365  26.116  1.00  0.00     0.287 C 
ATOM      5  O   UNL A   1      31.070  27.360  26.220  1.00  0.00    -0.268 OA
ATOM      6  H   UNL A   1      32.560  28.062  27.965  1.00  0.00     0.163 HD
BRANCH   4   7
ATOM      7  C   UNL A   1      31.654  29.302  24.804  1.00  0.00     0.228 C 
ATOM      8  C   UNL A   1      30.494  28.884  23.889  1.00  0.00     0.146 C 
ATOM      9  C   UNL A   1      32.860  29.388  23.823  1.00  0.00     0.342 C 
ATOM     10  C   UNL A   1      31.098  28.374  22.577  1.00  0.00     0.270 C 
ATOM     11  N   UNL A   1      32.523  28.680  22.564  1.00  0.00    -0.325 N 
ATOM     12  H   UNL A   1      32.738  29.335  21.813  1.00  0.00     0.348 HD
BRANCH   7  13
ATOM     13  N   UNL A   1      31.398  30.674  25.363  1.00  0.00    -0.340 N 
ATOM     14  H   UNL A   1      31.005  30.592  26.301  1.00  0.00     0.345 HD
ATOM     15  H   UNL A   1      30.738  31.169  24.762  1.00  0.00     0.345 HD
ATOM     16  H   UNL A   1      32.274  31.194  25.405  1.00  0.00     0.345 HD
ENDBRANCH   7  13
BRANCH  11  17
ATOM     17  C   UNL A   1      33.416  27.604  22.070  1.00  0.00     0.299 C 
BRANCH  17  18
ATOM     18  C   UNL A   1      33.294  26.262  22.814  1.00  0.00     0.006 A 
ATOM     19  C   UNL A   1      34.151  26.228  24.400  1.00  0.00     0.013 A 
ATOM     20  C   UNL A   1      31.822  25.222  22.574  1.00  0.00     0.013 A 
ATOM     21  C   UNL A   1      33.578  25.169  25.729  1.00  0.00     0.047 A 
ATOM     22  C   UNL A   1      31.220  24.168  23.931  1.00  0.00     0.047 A 
ATOM     23  C   UNL A   1      32.100  24.167  25.509  1.00  0.00     0.120 A 
BRANCH  23  24
ATOM     24  O   UNL A   1      31.843  23.397  26.597  1.00  0.00    -0.484 OA
BRANCH  24  25
ATOM     25  C   UNL A   1      32.245  22.048  26.563  1.00  0.00     0.329 C 
BRANCH  25  26
ATOM     26  C   UNL A   1      33.746  21.917  26.751  1.00  0.00     0.260 C 
ATOM     27  O   UNL A   1      34.214  22.009  27.890  1.00  0.00    -0.271 OA
ATOM     28  N   UNL A   1      34.533  21.664  25.632  1.00  0.00    -0.340 N 
ATOM     29  C   UNL A   1      35.973  21.545  25.806  1.00  0.00     0.119 C 
ATOM     30  C   UNL A   1      34.095  21.600  24.231  1.00  0.00     0.119 C 
ATOM     31  C   UNL A   1      36.667  22.696  25.091  1.00  0.00     0.022 C 
ATOM     32  C   UNL A   1      34.774  22.688  23.393  1.00  0.00     0.022 C 
ATOM     33  C   UNL A   1      36.289  22.728  23.609  1.00  0.00     0.004 C 
ENDBRANCH  25  26
ENDBRANCH  24  25
ENDBRANCH  23  24
ENDBRANCH  17  18
ENDBRANCH  11  17
ENDBRANCH   4   7
ENDBRANCH   2   3
ENDBRANCH   1   2
BRANCH   1  34
ATOM     34  C   UNL A   1      34.670  32.901  28.010  1.00  0.00     0.002 C 
BRANCH  34  35
ATOM     35  C   UNL A   1      34.458  33.807  29.242  1.00  0.00     0.002 C 
BRANCH  35  36
ATOM     36  C   UNL A   1      33.236  34.713  29.163  1.00  0.00     0.021 C 
BRANCH  36  37
ATOM     37  C   UNL A   1      33.513  36.106  29.700  1.00  0.00     0.116 C 
BRANCH  37  38
ATOM     38  N   UNL A   1      32.580  36.451  30.772  1.00  0.00    -0.352 N 
ATOM     39  C   UNL A   1      32.473  35.888  32.014  1.00  0.00     0.251 C 
ATOM     40  H   UNL A   1      31.949  37.181  30.575  1.00  0.00     0.163 HD
ATOM     41  O   UNL A   1      31.477  36.027  32.710  1.00  0.00    -0.269 OA
BRANCH  39  42
ATOM     42  C   UNL A   1      33.626  35.114  32.484  1.00  0.00     0.039 A 
ATOM     43  C   UNL A   1      33.465  33.789  32.881  1.00  0.00     0.014 A 
ATOM     44  C   UNL A   1      34.887  35.715  32.416  1.00  0.00     0.014 A 
ATOM     45  C   UNL A   1      34.599  33.042  33.181  1.00  0.00     0.010 A 
ATOM     46  C   UNL A   1      36.012  34.940  32.601  1.00  0.00     0.010 A 
ATOM     47  C   UNL A   1      35.875  33.610  33.022  1.00  0.00    -0.014 A 
BRANCH  47  48
ATOM     48  C   UNL A   1      37.101  32.872  33.377  1.00  0.00     0.031 A 
ATOM     49  C   UNL A   1      37.775  33.192  34.681  1.00  0.00     0.074 A 
ATOM     50  C   UNL A   1      37.633  31.997  32.505  1.00  0.00     0.049 A 
ATOM     51  N   UNL A   1      38.919  32.769  35.149  1.00  0.00    -0.248 NA
ATOM     52  C   UNL A   1      37.092  34.162  35.556  1.00  0.00     0.031 C 
ATOM     53  C   UNL A   1      37.083  31.667  31.188  1.00  0.00     0.029 A 
ATOM     54  N   UNL A   1      38.763  31.229  32.597  1.00  0.00    -0.354 N 
ATOM     55  C   UNL A   1      39.098  33.441  36.351  1.00  0.00     0.074 A 
ATOM     56  C   UNL A   1      37.994  34.359  36.502  1.00  0.00     0.031 C 
ATOM     57  C   UNL A   1      37.862  30.738  30.609  1.00  0.00     0.029 A 
ATOM     58  C   UNL A   1      38.977  30.434  31.498  1.00  0.00     0.049 A 
ATOM     59  H   UNL A   1      39.365  31.246  33.375  1.00  0.00     0.167 HD
ATOM     60  C   UNL A   1      40.075  33.271  37.269  1.00  0.00     0.037 A 
ATOM     61  C   UNL A   1      39.968  29.558  31.254  1.00  0.00     0.037 A 
ATOM     62  C   UNL A   1      41.136  32.314  37.124  1.00  0.00     0.049 A 
ATOM     63  C   UNL A   1      41.029  29.367  32.305  1.00  0.00     0.074 A 
ATOM     64  C   UNL A   1      42.159  32.015  38.003  1.00  0.00     0.029 A 
ATOM     65  N   UNL A   1      41.295  31.487  36.020  1.00  0.00    -0.354 N 
ATOM     66  N   UNL A   1      41.162  29.964  33.466  1.00  0.00    -0.248 NA
ATOM     67  C   UNL A   1      42.072  28.374  32.018  1.00  0.00     0.031 C 
ATOM     68  C   UNL A   1      42.952  31.021  37.419  1.00  0.00     0.029 A 
ATOM     69  C   UNL A   1      42.400  30.675  36.195  1.00  0.00     0.049 A 
ATOM     70  H   UNL A   1      40.707  31.480  35.230  1.00  0.00     0.167 HD
ATOM     71  C   UNL A   1      42.280  29.397  34.061  1.00  0.00     0.074 A 
ATOM     72  C   UNL A   1      42.780  28.398  33.138  1.00  0.00     0.031 C 
ATOM     73  C   UNL A   1      42.850  29.677  35.260  1.00  0.00     0.037 A 
BRANCH  60  74
ATOM     74  C   UNL A   1      40.014  34.115  38.509  1.00  0.00     0.064 A 
ATOM     75  C   UNL A   1      40.706  35.334  38.600  1.00  0.00     0.173 A 
ATOM     76  C   UNL A   1      39.259  33.707  39.618  1.00  0.00     0.173 A 
ATOM     77  F   UNL A   1      41.461  35.760  37.575  1.00  0.00    -0.203 F 
ATOM     78  C   UNL A   1      40.674  36.094  39.765  1.00  0.00     0.198 A 
ATOM     79  C   UNL A   1      39.202  34.487  40.770  1.00  0.00     0.198 A 
ATOM     80  F   UNL A   1      38.580  32.551  39.586  1.00  0.00    -0.203 F 
ATOM     81  F   UNL A   1      41.394  37.221  39.849  1.00  0.00    -0.200 F 
ATOM     82  C   UNL A   1      39.916  35.673  40.847  1.00  0.00     0.200 A 
ATOM     83  F   UNL A   1      38.461  34.084  41.813  1.00  0.00    -0.200 F 
ATOM     84  F   UNL A   1      39.882  36.407  41.968  1.00  0.00    -0.200 F 
ENDBRANCH  60  74
BRANCH  61  85
ATOM     85  C   UNL A   1      39.976  28.765  29.998  1.00  0.00     0.064 A 
ATOM     86  C   UNL A   1      39.398  27.489  29.953  1.00  0.00     0.173 A 
ATOM     87  C   UNL A   1      40.564  29.255  28.822  1.00  0.00     0.173 A 
ATOM     88  F   UNL A   1      38.835  26.971  31.055  1.00  0.00    -0.203 F 
ATOM     89  C   UNL A   1      39.433  26.720  28.791  1.00  0.00     0.198 A 
ATOM     90  C   UNL A   1      40.574  28.497  27.653  1.00  0.00     0.198 A 
ATOM     91  F   UNL A   1      41.121  30.475  28.806  1.00  0.00    -0.203 F 
ATOM     92  F   UNL A   1      38.917  25.484  28.793  1.00  0.00    -0.200 F 
ATOM     93  C   UNL A   1      40.018  27.227  27.641  1.00  0.00     0.200 A 
ATOM     94  F   UNL A   1      41.125  28.996  26.538  1.00  0.00    -0.200 F 
ATOM     95  F   UNL A   1      40.053  26.487  26.524  1.00  0.00    -0.200 F 
ENDBRANCH  61  85
BRANCH  73  96
ATOM     96  C   UNL A   1      44.042  28.860  35.653  1.00  0.00     0.064 A 
ATOM     97  C   UNL A   1      45.345  29.259  35.324  1.00  0.00     0.173 A 
ATOM     98  C   UNL A   1      43.879  27.692  36.413  1.00  0.00     0.173 A 
ATOM     99  F   UNL A   1      45.548  30.362  34.587  1.00  0.00    -0.203 F 
ATOM    100  C   UNL A   1      46.443  28.502  35.720  1.00  0.00     0.198 A 
ATOM    101  C   UNL A   1      44.981  26.955  36.834  1.00  0.00     0.198 A 
ATOM    102  F   UNL A   1      42.651  27.277  36.759  1.00  0.00    -0.203 F 
ATOM    103  F   UNL A   1      47.677  28.876  35.357  1.00  0.00    -0.200 F 
ATOM    104  C   UNL A   1      46.260  27.356  36.481  1.00  0.00     0.200 A 
ATOM    105  F   UNL A   1      44.804  25.857  37.581  1.00  0.00    -0.200 F 
ATOM    106  F   UNL A   1      47.321  26.634  36.870  1.00  0.00    -0.200 F 
ENDBRANCH  73  96
ENDBRANCH  47  48
ENDBRANCH  39  42
ENDBRANCH  37  38
ENDBRANCH  36  37
ENDBRANCH  35  36
ENDBRANCH  34  35
ENDBRANCH   1  34
TORSDOF 19
ENDMDL
