MODEL 1
REMARK VINA RESULT:     -13.0      0.000      0.000
REMARK SMILES N#Cc1ccc2c(c1)C=C(C(=O)NCCCCCCNC(=O)c1ccc(-c3c4nc(c(-c5c(F)c(F)c(F)c(F)c5F)c5ccc([nH]5)c(-c5c(F)c(F)c(F)c(F)c5F)c5nc(c(-c6c(F)c(F)c(F)c(F)c6F)c6ccc3[nH]6)C=C5)C=C4)cc1)[C@@H](C(F)(F)F)O2
REMARK SMILES IDX 17 1 16 2 15 3 14 4 13 5 11 6 12 7 10 9 3 10 4 11 8 12 5 13
REMARK SMILES IDX 7 14 6 15 9 16 91 17 86 18 2 19 1 20 87 21 88 22 89 23 90 24
REMARK SMILES IDX 18 25 19 26 20 27 21 28 22 30 23 31 24 32 85 33 25 34 84 35
REMARK SMILES IDX 26 36 27 37 28 38 78 39 29 40 83 41 77 42 79 43 30 44 82 45
REMARK SMILES IDX 76 46 75 47 31 49 63 50 43 51 62 52 44 53 47 54 61 55 80 56
REMARK SMILES IDX 45 57 46 58 60 60 81 61 48 62 32 63 33 64 41 65 34 66 35 67
REMARK SMILES IDX 39 68 42 69 36 70 37 71 40 72 38 73 64 74 65 75 73 76 66 77
REMARK SMILES IDX 67 78 71 79 74 80 68 81 69 82 72 83 70 84 49 85 50 86 58 87
REMARK SMILES IDX 51 88 52 89 56 90 59 91 53 92 54 93 57 94 55 95
REMARK H PARENT 13 8 20 29 79 48 47 59
REMARK Flexibility Score: inf
ROOT
ATOM      1  C   UNL A   1      31.828  30.597  26.348  1.00  0.00     0.002 C 
ENDROOT
BRANCH   1   2
ATOM      2  C   UNL A   1      32.908  29.872  27.165  1.00  0.00     0.002 C 
BRANCH   2   3
ATOM      3  C   UNL A   1      33.915  29.081  26.328  1.00  0.00     0.021 C 
BRANCH   3   4
ATOM      4  C   UNL A   1      33.703  27.575  26.409  1.00  0.00     0.116 C 
BRANCH   4   5
ATOM      5  N   UNL A   1      33.855  26.939  25.114  1.00  0.00    -0.352 N 
ATOM      6  C   UNL A   1      33.098  26.752  24.007  1.00  0.00     0.251 C 
ATOM      7  O   UNL A   1      33.651  26.153  23.079  1.00  0.00    -0.270 OA
ATOM      8  H   UNL A   1      34.749  26.536  25.012  1.00  0.00     0.163 HD
BRANCH   6   9
ATOM      9  C   UNL A   1      31.684  27.207  23.855  1.00  0.00     0.067 C 
ATOM     10  C   UNL A   1      28.576  30.758  22.784  1.00  0.00     0.053 A 
ATOM     11  C   UNL A   1      27.516  29.848  22.853  1.00  0.00     0.023 A 
ATOM     12  C   UNL A   1      29.892  30.323  22.996  1.00  0.00     0.031 A 
ATOM     13  C   UNL A   1      27.769  28.511  23.138  1.00  0.00     0.048 A 
ATOM     14  C   UNL A   1      30.148  28.978  23.283  1.00  0.00     0.018 A 
ATOM     15  C   UNL A   1      29.076  28.087  23.360  1.00  0.00     0.128 A 
ATOM     16  C   UNL A   1      31.507  28.479  23.455  1.00  0.00     0.025 C 
ATOM     17  O   UNL A   1      29.227  26.760  23.610  1.00  0.00    -0.475 OA
ATOM     18  C   UNL A   1      30.500  26.333  24.152  1.00  0.00     0.314 C 
BRANCH  10  19
ATOM     19  C   UNL A   1      28.308  32.133  22.485  1.00  0.00     0.099 C 
ATOM     20  N   UNL A   1      28.078  33.245  22.243  1.00  0.00    -0.192 NA
ENDBRANCH  10  19
BRANCH  18  21
ATOM     21  C   UNL A   1      30.332  26.055  25.658  1.00  0.00     0.429 C 
ATOM     22  F   UNL A   1      31.182  25.076  26.054  1.00  0.00    -0.167 F 
ATOM     23  F   UNL A   1      30.608  27.131  26.429  1.00  0.00    -0.167 F 
ATOM     24  F   UNL A   1      29.078  25.658  25.971  1.00  0.00    -0.167 F 
ENDBRANCH  18  21
ENDBRANCH   6   9
ENDBRANCH   4   5
ENDBRANCH   3   4
ENDBRANCH   2   3
ENDBRANCH   1   2
BRANCH   1  25
ATOM     25  C   UNL A   1      31.508  32.015  26.823  1.00  0.00     0.021 C 
BRANCH  25  26
ATOM     26  C   UNL A   1      32.704  32.752  27.408  1.00  0.00     0.116 C 
BRANCH  26  27
ATOM     27  N   UNL A   1      32.416  34.160  27.640  1.00  0.00    -0.352 N 
ATOM     28  C   UNL A   1      32.962  35.020  28.561  1.00  0.00     0.251 C 
ATOM     29  H   UNL A   1      31.730  34.553  27.053  1.00  0.00     0.163 HD
ATOM     30  O   UNL A   1      32.460  36.119  28.765  1.00  0.00    -0.269 OA
BRANCH  28  31
ATOM     31  C   UNL A   1      34.142  34.585  29.331  1.00  0.00     0.039 A 
ATOM     32  C   UNL A   1      35.413  34.628  28.754  1.00  0.00     0.014 A 
ATOM     33  C   UNL A   1      33.965  34.068  30.616  1.00  0.00     0.014 A 
ATOM     34  C   UNL A   1      36.467  33.971  29.374  1.00  0.00     0.010 A 
ATOM     35  C   UNL A   1      35.053  33.505  31.284  1.00  0.00     0.010 A 
ATOM     36  C   UNL A   1      36.297  33.396  30.643  1.00  0.00    -0.014 A 
BRANCH  36  37
ATOM     37  C   UNL A   1      37.420  32.654  31.272  1.00  0.00     0.031 A 
ATOM     38  C   UNL A   1      37.885  33.002  32.660  1.00  0.00     0.074 A 
ATOM     39  C   UNL A   1      37.997  31.637  30.603  1.00  0.00     0.049 A 
ATOM     40  N   UNL A   1      38.871  32.493  33.354  1.00  0.00    -0.248 NA
ATOM     41  C   UNL A   1      37.149  34.066  33.362  1.00  0.00     0.031 C 
ATOM     42  C   UNL A   1      37.613  31.185  29.265  1.00  0.00     0.029 A 
ATOM     43  N   UNL A   1      39.014  30.791  30.962  1.00  0.00    -0.354 N 
ATOM     44  C   UNL A   1      38.886  33.183  34.559  1.00  0.00     0.074 A 
ATOM     45  C   UNL A   1      37.838  34.179  34.488  1.00  0.00     0.031 C 
ATOM     46  C   UNL A   1      38.355  30.119  28.933  1.00  0.00     0.029 A 
ATOM     47  C   UNL A   1      39.319  29.862  29.999  1.00  0.00     0.049 A 
ATOM     48  H   UNL A   1      39.481  30.845  31.827  1.00  0.00     0.167 HD
ATOM     49  C   UNL A   1      39.687  32.990  35.635  1.00  0.00     0.037 A 
ATOM     50  C   UNL A   1      40.281  28.923  29.964  1.00  0.00     0.037 A 
ATOM     51  C   UNL A   1      40.719  31.987  35.704  1.00  0.00     0.049 A 
ATOM     52  C   UNL A   1      41.211  28.786  31.136  1.00  0.00     0.074 A 
ATOM     53  C   UNL A   1      41.574  31.702  36.754  1.00  0.00     0.029 A 
ATOM     54  N   UNL A   1      41.038  31.105  34.681  1.00  0.00    -0.354 N 
ATOM     55  N   UNL A   1      41.208  29.433  32.275  1.00  0.00    -0.248 NA
ATOM     56  C   UNL A   1      42.282  27.789  31.014  1.00  0.00     0.031 C 
ATOM     57  C   UNL A   1      42.452  30.695  36.344  1.00  0.00     0.029 A 
ATOM     58  C   UNL A   1      42.102  30.301  35.063  1.00  0.00     0.049 A 
ATOM     59  H   UNL A   1      40.577  31.057  33.811  1.00  0.00     0.167 HD
ATOM     60  C   UNL A   1      42.261  28.913  33.014  1.00  0.00     0.074 A 
ATOM     61  C   UNL A   1      42.863  27.873  32.203  1.00  0.00     0.031 C 
ATOM     62  C   UNL A   1      42.696  29.271  34.247  1.00  0.00     0.037 A 
BRANCH  49  63
ATOM     63  C   UNL A   1      39.492  33.886  36.826  1.00  0.00     0.064 A 
ATOM     64  C   UNL A   1      38.727  33.488  37.933  1.00  0.00     0.173 A 
ATOM     65  C   UNL A   1      40.130  35.135  36.890  1.00  0.00     0.173 A 
ATOM     66  F   UNL A   1      38.086  32.309  37.923  1.00  0.00    -0.203 F 
ATOM     67  C   UNL A   1      38.589  34.314  39.045  1.00  0.00     0.198 A 
ATOM     68  C   UNL A   1      40.019  35.943  38.018  1.00  0.00     0.198 A 
ATOM     69  F   UNL A   1      40.880  35.566  35.864  1.00  0.00    -0.203 F 
ATOM     70  F   UNL A   1      37.815  33.931  40.070  1.00  0.00    -0.200 F 
ATOM     71  C   UNL A   1      39.243  35.536  39.092  1.00  0.00     0.200 A 
ATOM     72  F   UNL A   1      40.668  37.115  38.069  1.00  0.00    -0.200 F 
ATOM     73  F   UNL A   1      39.123  36.322  40.171  1.00  0.00    -0.200 F 
ENDBRANCH  49  63
BRANCH  50  74
ATOM     74  C   UNL A   1      40.401  28.042  28.773  1.00  0.00     0.064 A 
ATOM     75  C   UNL A   1      39.729  26.814  28.720  1.00  0.00     0.173 A 
ATOM     76  C   UNL A   1      41.154  28.423  27.651  1.00  0.00     0.173 A 
ATOM     77  F   UNL A   1      39.013  26.397  29.774  1.00  0.00    -0.203 F 
ATOM     78  C   UNL A   1      39.808  25.999  27.593  1.00  0.00     0.198 A 
ATOM     79  C   UNL A   1      41.204  27.624  26.513  1.00  0.00     0.198 A 
ATOM     80  F   UNL A   1      41.814  29.591  27.649  1.00  0.00    -0.203 F 
ATOM     81  F   UNL A   1      39.182  24.814  27.581  1.00  0.00    -0.200 F 
ATOM     82  C   UNL A   1      40.536  26.410  26.486  1.00  0.00     0.200 A 
ATOM     83  F   UNL A   1      41.891  28.035  25.438  1.00  0.00    -0.200 F 
ATOM     84  F   UNL A   1      40.593  25.635  25.395  1.00  0.00    -0.200 F 
ENDBRANCH  50  74
BRANCH  62  85
ATOM     85  C   UNL A   1      43.879  28.530  34.807  1.00  0.00     0.064 A 
ATOM     86  C   UNL A   1      45.187  29.013  34.654  1.00  0.00     0.173 A 
ATOM     87  C   UNL A   1      43.698  27.354  35.551  1.00  0.00     0.173 A 
ATOM     88  F   UNL A   1      45.417  30.125  33.941  1.00  0.00    -0.203 F 
ATOM     89  C   UNL A   1      46.271  28.332  35.201  1.00  0.00     0.198 A 
ATOM     90  C   UNL A   1      44.780  26.698  36.131  1.00  0.00     0.198 A 
ATOM     91  F   UNL A   1      42.468  26.851  35.737  1.00  0.00    -0.203 F 
ATOM     92  F   UNL A   1      47.516  28.784  34.997  1.00  0.00    -0.200 F 
ATOM     93  C   UNL A   1      46.067  27.182  35.948  1.00  0.00     0.200 A 
ATOM     94  F   UNL A   1      44.578  25.598  36.870  1.00  0.00    -0.200 F 
ATOM     95  F   UNL A   1      47.110  26.536  36.488  1.00  0.00    -0.200 F 
ENDBRANCH  62  85
ENDBRANCH  36  37
ENDBRANCH  28  31
ENDBRANCH  26  27
ENDBRANCH  25  26
ENDBRANCH   1  25
TORSDOF 15
ENDMDL
MODEL 2
REMARK VINA RESULT:     -13.0      0.271      7.335
REMARK SMILES N#Cc1ccc2c(c1)C=C(C(=O)NCCCCCCNC(=O)c1ccc(-c3c4nc(c(-c5c(F)c(F)c(F)c(F)c5F)c5ccc([nH]5)c(-c5c(F)c(F)c(F)c(F)c5F)c5nc(c(-c6c(F)c(F)c(F)c(F)c6F)c6ccc3[nH]6)C=C5)C=C4)cc1)[C@@H](C(F)(F)F)O2
REMARK SMILES IDX 17 1 16 2 15 3 14 4 13 5 11 6 12 7 10 9 3 10 4 11 8 12 5 13
REMARK SMILES IDX 7 14 6 15 9 16 91 17 86 18 2 19 1 20 87 21 88 22 89 23 90 24
REMARK SMILES IDX 18 25 19 26 20 27 21 28 22 30 23 31 24 32 85 33 25 34 84 35
REMARK SMILES IDX 26 36 27 37 28 38 78 39 29 40 83 41 77 42 79 43 30 44 82 45
REMARK SMILES IDX 76 46 75 47 31 49 63 50 43 51 62 52 44 53 47 54 61 55 80 56
REMARK SMILES IDX 45 57 46 58 60 60 81 61 48 62 32 63 33 64 41 65 34 66 35 67
REMARK SMILES IDX 39 68 42 69 36 70 37 71 40 72 38 73 64 74 65 75 73 76 66 77
REMARK SMILES IDX 67 78 71 79 74 80 68 81 69 82 72 83 70 84 49 85 50 86 58 87
REMARK SMILES IDX 51 88 52 89 56 90 59 91 53 92 54 93 57 94 55 95
REMARK H PARENT 13 8 20 29 79 48 47 59
REMARK Flexibility Score: inf
ROOT
ATOM      1  C   UNL A   1      31.946  30.471  26.475  1.00  0.00     0.002 C 
ENDROOT
BRANCH   1   2
ATOM      2  C   UNL A   1      33.224  29.931  27.133  1.00  0.00     0.002 C 
BRANCH   2   3
ATOM      3  C   UNL A   1      34.060  29.013  26.240  1.00  0.00     0.021 C 
BRANCH   3   4
ATOM      4  C   UNL A   1      33.675  27.545  26.369  1.00  0.00     0.116 C 
BRANCH   4   5
ATOM      5  N   UNL A   1      33.782  26.846  25.102  1.00  0.00    -0.352 N 
ATOM      6  C   UNL A   1      32.998  26.636  24.018  1.00  0.00     0.251 C 
ATOM      7  O   UNL A   1      33.513  25.977  23.109  1.00  0.00    -0.270 OA
ATOM      8  H   UNL A   1      34.659  26.409  25.003  1.00  0.00     0.163 HD
BRANCH   6   9
ATOM      9  C   UNL A   1      31.597  27.131  23.870  1.00  0.00     0.067 C 
ATOM     10  C   UNL A   1      28.589  30.786  22.865  1.00  0.00     0.053 A 
ATOM     11  C   UNL A   1      27.505  29.903  22.910  1.00  0.00     0.023 A 
ATOM     12  C   UNL A   1      29.892  30.311  23.073  1.00  0.00     0.031 A 
ATOM     13  C   UNL A   1      27.721  28.554  23.167  1.00  0.00     0.048 A 
ATOM     14  C   UNL A   1      30.111  28.955  23.331  1.00  0.00     0.018 A 
ATOM     15  C   UNL A   1      29.016  28.091  23.384  1.00  0.00     0.128 A 
ATOM     16  C   UNL A   1      31.455  28.416  23.498  1.00  0.00     0.025 C 
ATOM     17  O   UNL A   1      29.130  26.755  23.605  1.00  0.00    -0.475 OA
ATOM     18  C   UNL A   1      30.389  26.282  24.143  1.00  0.00     0.314 C 
BRANCH  10  19
ATOM     19  C   UNL A   1      28.358  32.174  22.596  1.00  0.00     0.099 C 
ATOM     20  N   UNL A   1      28.159  33.296  22.375  1.00  0.00    -0.192 NA
ENDBRANCH  10  19
BRANCH  18  21
ATOM     21  C   UNL A   1      30.206  25.976  25.642  1.00  0.00     0.429 C 
ATOM     22  F   UNL A   1      28.908  25.688  25.909  1.00  0.00    -0.167 F 
ATOM     23  F   UNL A   1      30.924  24.908  26.056  1.00  0.00    -0.167 F 
ATOM     24  F   UNL A   1      30.562  27.018  26.427  1.00  0.00    -0.167 F 
ENDBRANCH  18  21
ENDBRANCH   6   9
ENDBRANCH   4   5
ENDBRANCH   3   4
ENDBRANCH   2   3
ENDBRANCH   1   2
BRANCH   1  25
ATOM     25  C   UNL A   1      31.632  31.935  26.787  1.00  0.00     0.021 C 
BRANCH  25  26
ATOM     26  C   UNL A   1      32.794  32.693  27.411  1.00  0.00     0.116 C 
BRANCH  26  27
ATOM     27  N   UNL A   1      32.472  34.095  27.636  1.00  0.00    -0.352 N 
ATOM     28  C   UNL A   1      32.978  34.965  28.569  1.00  0.00     0.251 C 
ATOM     29  H   UNL A   1      31.793  34.474  27.032  1.00  0.00     0.163 HD
ATOM     30  O   UNL A   1      32.450  36.054  28.760  1.00  0.00    -0.269 OA
BRANCH  28  31
ATOM     31  C   UNL A   1      34.148  34.554  29.368  1.00  0.00     0.039 A 
ATOM     32  C   UNL A   1      35.430  34.617  28.820  1.00  0.00     0.014 A 
ATOM     33  C   UNL A   1      33.950  34.041  30.651  1.00  0.00     0.014 A 
ATOM     34  C   UNL A   1      36.482  33.981  29.466  1.00  0.00     0.010 A 
ATOM     35  C   UNL A   1      35.032  33.499  31.346  1.00  0.00     0.010 A 
ATOM     36  C   UNL A   1      36.293  33.409  30.734  1.00  0.00    -0.014 A 
BRANCH  36  37
ATOM     37  C   UNL A   1      37.414  32.689  31.391  1.00  0.00     0.031 A 
ATOM     38  C   UNL A   1      38.124  31.569  30.681  1.00  0.00     0.074 A 
ATOM     39  C   UNL A   1      37.817  33.072  32.617  1.00  0.00     0.049 A 
ATOM     40  N   UNL A   1      39.095  30.802  31.108  1.00  0.00    -0.248 NA
ATOM     41  C   UNL A   1      37.685  31.265  29.309  1.00  0.00     0.031 C 
ATOM     42  C   UNL A   1      37.228  34.164  33.394  1.00  0.00     0.029 A 
ATOM     43  N   UNL A   1      38.825  32.600  33.417  1.00  0.00    -0.354 N 
ATOM     44  C   UNL A   1      39.369  29.918  30.073  1.00  0.00     0.074 A 
ATOM     45  C   UNL A   1      38.433  30.213  29.009  1.00  0.00     0.031 C 
ATOM     46  C   UNL A   1      37.910  34.305  34.539  1.00  0.00     0.029 A 
ATOM     47  C   UNL A   1      38.932  33.266  34.613  1.00  0.00     0.049 A 
ATOM     48  H   UNL A   1      39.414  31.854  33.161  1.00  0.00     0.167 HD
ATOM     49  C   UNL A   1      40.326  28.962  30.007  1.00  0.00     0.037 A 
ATOM     50  C   UNL A   1      39.744  33.051  35.663  1.00  0.00     0.037 A 
ATOM     51  C   UNL A   1      41.264  28.684  31.065  1.00  0.00     0.049 A 
ATOM     52  C   UNL A   1      40.742  31.929  35.598  1.00  0.00     0.074 A 
ATOM     53  C   UNL A   1      42.281  27.745  31.090  1.00  0.00     0.029 A 
ATOM     54  N   UNL A   1      41.299  29.341  32.287  1.00  0.00    -0.354 N 
ATOM     55  N   UNL A   1      41.001  31.109  34.610  1.00  0.00    -0.248 NA
ATOM     56  C   UNL A   1      41.556  31.701  36.798  1.00  0.00     0.031 C 
ATOM     57  C   UNL A   1      42.888  27.789  32.348  1.00  0.00     0.029 A 
ATOM     58  C   UNL A   1      42.298  28.802  33.086  1.00  0.00     0.049 A 
ATOM     59  H   UNL A   1      40.703  30.080  32.549  1.00  0.00     0.167 HD
ATOM     60  C   UNL A   1      42.018  30.279  35.059  1.00  0.00     0.074 A 
ATOM     61  C   UNL A   1      42.350  30.717  36.400  1.00  0.00     0.031 C 
ATOM     62  C   UNL A   1      42.616  29.242  34.422  1.00  0.00     0.037 A 
BRANCH  49  63
ATOM     63  C   UNL A   1      40.408  28.133  28.755  1.00  0.00     0.064 A 
ATOM     64  C   UNL A   1      41.188  28.527  27.657  1.00  0.00     0.173 A 
ATOM     65  C   UNL A   1      39.747  26.897  28.675  1.00  0.00     0.173 A 
ATOM     66  F   UNL A   1      41.832  29.704  27.674  1.00  0.00    -0.203 F 
ATOM     67  C   UNL A   1      41.283  27.729  26.520  1.00  0.00     0.198 A 
ATOM     68  C   UNL A   1      39.874  26.084  27.552  1.00  0.00     0.198 A 
ATOM     69  F   UNL A   1      38.993  26.465  29.697  1.00  0.00    -0.203 F 
ATOM     70  F   UNL A   1      41.997  28.150  25.467  1.00  0.00    -0.200 F 
ATOM     71  C   UNL A   1      40.636  26.504  26.472  1.00  0.00     0.200 A 
ATOM     72  F   UNL A   1      39.262  24.891  27.515  1.00  0.00    -0.200 F 
ATOM     73  F   UNL A   1      40.743  25.729  25.384  1.00  0.00    -0.200 F 
ENDBRANCH  49  63
BRANCH  50  74
ATOM     74  C   UNL A   1      39.642  33.927  36.859  1.00  0.00     0.064 A 
ATOM     75  C   UNL A   1      40.306  35.160  36.903  1.00  0.00     0.173 A 
ATOM     76  C   UNL A   1      38.850  33.573  37.962  1.00  0.00     0.173 A 
ATOM     77  F   UNL A   1      41.090  35.534  35.882  1.00  0.00    -0.203 F 
ATOM     78  C   UNL A   1      40.187  36.002  38.006  1.00  0.00     0.198 A 
ATOM     79  C   UNL A   1      38.703  34.431  39.049  1.00  0.00     0.198 A 
ATOM     80  F   UNL A   1      38.189  32.405  37.969  1.00  0.00    -0.203 F 
ATOM     81  F   UNL A   1      40.859  37.161  38.037  1.00  0.00    -0.200 F 
ATOM     82  C   UNL A   1      39.376  35.643  39.073  1.00  0.00     0.200 A 
ATOM     83  F   UNL A   1      37.902  34.089  40.067  1.00  0.00    -0.200 F 
ATOM     84  F   UNL A   1      39.244  36.464  40.123  1.00  0.00    -0.200 F 
ENDBRANCH  50  74
BRANCH  62  85
ATOM     85  C   UNL A   1      43.700  28.507  35.160  1.00  0.00     0.064 A 
ATOM     86  C   UNL A   1      45.049  28.871  35.037  1.00  0.00     0.173 A 
ATOM     87  C   UNL A   1      43.382  27.463  36.043  1.00  0.00     0.173 A 
ATOM     88  F   UNL A   1      45.410  29.854  34.199  1.00  0.00    -0.203 F 
ATOM     89  C   UNL A   1      46.040  28.201  35.749  1.00  0.00     0.198 A 
ATOM     90  C   UNL A   1      44.372  26.821  36.783  1.00  0.00     0.198 A 
ATOM     91  F   UNL A   1      42.108  27.078  36.207  1.00  0.00    -0.203 F 
ATOM     92  F   UNL A   1      47.327  28.532  35.575  1.00  0.00    -0.200 F 
ATOM     93  C   UNL A   1      45.701  27.184  36.629  1.00  0.00     0.200 A 
ATOM     94  F   UNL A   1      44.038  25.853  37.648  1.00  0.00    -0.200 F 
ATOM     95  F   UNL A   1      46.655  26.551  37.324  1.00  0.00    -0.200 F 
ENDBRANCH  62  85
ENDBRANCH  36  37
ENDBRANCH  28  31
ENDBRANCH  26  27
ENDBRANCH  25  26
ENDBRANCH   1  25
TORSDOF 15
ENDMDL
MODEL 3
REMARK VINA RESULT:     -12.8      6.335     10.630
REMARK SMILES N#Cc1ccc2c(c1)C=C(C(=O)NCCCCCCNC(=O)c1ccc(-c3c4nc(c(-c5c(F)c(F)c(F)c(F)c5F)c5ccc([nH]5)c(-c5c(F)c(F)c(F)c(F)c5F)c5nc(c(-c6c(F)c(F)c(F)c(F)c6F)c6ccc3[nH]6)C=C5)C=C4)cc1)[C@@H](C(F)(F)F)O2
REMARK SMILES IDX 17 1 16 2 15 3 14 4 13 5 11 6 12 7 10 9 3 10 4 11 8 12 5 13
REMARK SMILES IDX 7 14 6 15 9 16 91 17 86 18 2 19 1 20 87 21 88 22 89 23 90 24
REMARK SMILES IDX 18 25 19 26 20 27 21 28 22 30 23 31 24 32 85 33 25 34 84 35
REMARK SMILES IDX 26 36 27 37 28 38 78 39 29 40 83 41 77 42 79 43 30 44 82 45
REMARK SMILES IDX 76 46 75 47 31 49 63 50 43 51 62 52 44 53 47 54 61 55 80 56
REMARK SMILES IDX 45 57 46 58 60 60 81 61 48 62 32 63 33 64 41 65 34 66 35 67
REMARK SMILES IDX 39 68 42 69 36 70 37 71 40 72 38 73 64 74 65 75 73 76 66 77
REMARK SMILES IDX 67 78 71 79 74 80 68 81 69 82 72 83 70 84 49 85 50 86 58 87
REMARK SMILES IDX 51 88 52 89 56 90 59 91 53 92 54 93 57 94 55 95
REMARK H PARENT 13 8 20 29 79 48 47 59
REMARK Flexibility Score: inf
ROOT
ATOM      1  C   UNL A   1      37.060  21.304  24.618  1.00  0.00     0.002 C 
ENDROOT
BRANCH   1   2
ATOM      2  C   UNL A   1      37.523  22.624  25.250  1.00  0.00     0.002 C 
BRANCH   2   3
ATOM      3  C   UNL A   1      36.478  23.308  26.134  1.00  0.00     0.021 C 
BRANCH   3   4
ATOM      4  C   UNL A   1      35.522  24.195  25.348  1.00  0.00     0.116 C 
BRANCH   4   5
ATOM      5  N   UNL A   1      34.180  24.165  25.902  1.00  0.00    -0.352 N 
ATOM      6  C   UNL A   1      33.087  23.372  25.806  1.00  0.00     0.251 C 
ATOM      7  O   UNL A   1      32.123  23.710  26.500  1.00  0.00    -0.270 OA
ATOM      8  H   UNL A   1      34.024  24.924  26.510  1.00  0.00     0.163 HD
BRANCH   6   9
ATOM      9  C   UNL A   1      32.985  22.162  24.937  1.00  0.00     0.067 C 
ATOM     10  C   UNL A   1      33.923  17.462  24.268  1.00  0.00     0.053 A 
ATOM     11  C   UNL A   1      33.149  17.476  23.102  1.00  0.00     0.023 A 
ATOM     12  C   UNL A   1      34.061  18.628  25.035  1.00  0.00     0.031 A 
ATOM     13  C   UNL A   1      32.521  18.650  22.702  1.00  0.00     0.048 A 
ATOM     14  C   UNL A   1      33.429  19.809  24.634  1.00  0.00     0.018 A 
ATOM     15  C   UNL A   1      32.671  19.807  23.462  1.00  0.00     0.128 A 
ATOM     16  C   UNL A   1      33.505  21.025  25.435  1.00  0.00     0.025 C 
ATOM     17  O   UNL A   1      32.003  20.898  23.005  1.00  0.00    -0.475 OA
ATOM     18  C   UNL A   1      32.374  22.180  23.566  1.00  0.00     0.314 C 
BRANCH  10  19
ATOM     19  C   UNL A   1      34.563  16.247  24.675  1.00  0.00     0.099 C 
ATOM     20  N   UNL A   1      35.073  15.256  25.001  1.00  0.00    -0.192 NA
ENDBRANCH  10  19
BRANCH  18  21
ATOM     21  C   UNL A   1      33.238  22.940  22.542  1.00  0.00     0.429 C 
ATOM     22  F   UNL A   1      32.904  22.574  21.279  1.00  0.00    -0.167 F 
ATOM     23  F   UNL A   1      33.076  24.281  22.602  1.00  0.00    -0.167 F 
ATOM     24  F   UNL A   1      34.559  22.696  22.701  1.00  0.00    -0.167 F 
ENDBRANCH  18  21
ENDBRANCH   6   9
ENDBRANCH   4   5
ENDBRANCH   3   4
ENDBRANCH   2   3
ENDBRANCH   1   2
BRANCH   1  25
ATOM     25  C   UNL A   1      37.897  20.082  24.998  1.00  0.00     0.021 C 
BRANCH  25  26
ATOM     26  C   UNL A   1      39.165  20.420  25.769  1.00  0.00     0.116 C 
BRANCH  26  27
ATOM     27  N   UNL A   1      40.041  19.267  25.911  1.00  0.00    -0.352 N 
ATOM     28  C   UNL A   1      41.402  19.224  26.085  1.00  0.00     0.251 C 
ATOM     29  H   UNL A   1      39.594  18.390  25.875  1.00  0.00     0.163 HD
ATOM     30  O   UNL A   1      42.014  18.168  25.977  1.00  0.00    -0.269 OA
BRANCH  28  31
ATOM     31  C   UNL A   1      42.126  20.479  26.367  1.00  0.00     0.039 A 
ATOM     32  C   UNL A   1      42.251  20.938  27.679  1.00  0.00     0.014 A 
ATOM     33  C   UNL A   1      42.623  21.232  25.303  1.00  0.00     0.014 A 
ATOM     34  C   UNL A   1      42.685  22.236  27.911  1.00  0.00     0.010 A 
ATOM     35  C   UNL A   1      43.161  22.496  25.550  1.00  0.00     0.010 A 
ATOM     36  C   UNL A   1      43.139  23.032  26.848  1.00  0.00    -0.014 A 
BRANCH  36  37
ATOM     37  C   UNL A   1      43.554  24.435  27.104  1.00  0.00     0.031 A 
ATOM     38  C   UNL A   1      42.576  25.431  27.666  1.00  0.00     0.074 A 
ATOM     39  C   UNL A   1      44.827  24.802  26.865  1.00  0.00     0.049 A 
ATOM     40  N   UNL A   1      42.744  26.705  27.917  1.00  0.00    -0.248 NA
ATOM     41  C   UNL A   1      41.227  24.935  27.984  1.00  0.00     0.031 C 
ATOM     42  C   UNL A   1      45.875  23.920  26.351  1.00  0.00     0.029 A 
ATOM     43  N   UNL A   1      45.460  26.006  27.038  1.00  0.00    -0.354 N 
ATOM     44  C   UNL A   1      41.526  27.163  28.402  1.00  0.00     0.074 A 
ATOM     45  C   UNL A   1      40.611  26.043  28.370  1.00  0.00     0.031 C 
ATOM     46  C   UNL A   1      47.029  24.598  26.289  1.00  0.00     0.029 A 
ATOM     47  C   UNL A   1      46.786  25.982  26.684  1.00  0.00     0.049 A 
ATOM     48  H   UNL A   1      45.008  26.810  27.382  1.00  0.00     0.167 HD
ATOM     49  C   UNL A   1      41.206  28.401  28.852  1.00  0.00     0.037 A 
ATOM     50  C   UNL A   1      47.701  26.968  26.656  1.00  0.00     0.037 A 
ATOM     51  C   UNL A   1      42.128  29.508  28.895  1.00  0.00     0.049 A 
ATOM     52  C   UNL A   1      47.297  28.351  27.081  1.00  0.00     0.074 A 
ATOM     53  C   UNL A   1      41.904  30.797  29.346  1.00  0.00     0.029 A 
ATOM     54  N   UNL A   1      43.447  29.459  28.468  1.00  0.00    -0.354 N 
ATOM     55  N   UNL A   1      46.148  28.771  27.551  1.00  0.00    -0.248 NA
ATOM     56  C   UNL A   1      48.319  29.400  26.967  1.00  0.00     0.031 C 
ATOM     57  C   UNL A   1      43.065  31.544  29.133  1.00  0.00     0.029 A 
ATOM     58  C   UNL A   1      44.038  30.706  28.613  1.00  0.00     0.049 A 
ATOM     59  H   UNL A   1      43.897  28.658  28.114  1.00  0.00     0.167 HD
ATOM     60  C   UNL A   1      46.310  30.125  27.805  1.00  0.00     0.074 A 
ATOM     61  C   UNL A   1      47.682  30.450  27.466  1.00  0.00     0.031 C 
ATOM     62  C   UNL A   1      45.403  31.020  28.268  1.00  0.00     0.037 A 
BRANCH  49  63
ATOM     63  C   UNL A   1      39.799  28.634  29.328  1.00  0.00     0.064 A 
ATOM     64  C   UNL A   1      39.424  28.418  30.663  1.00  0.00     0.173 A 
ATOM     65  C   UNL A   1      38.826  29.139  28.451  1.00  0.00     0.173 A 
ATOM     66  F   UNL A   1      40.311  27.926  31.542  1.00  0.00    -0.203 F 
ATOM     67  C   UNL A   1      38.126  28.676  31.095  1.00  0.00     0.198 A 
ATOM     68  C   UNL A   1      37.539  29.431  28.895  1.00  0.00     0.198 A 
ATOM     69  F   UNL A   1      39.128  29.372  27.164  1.00  0.00    -0.203 F 
ATOM     70  F   UNL A   1      37.782  28.418  32.364  1.00  0.00    -0.200 F 
ATOM     71  C   UNL A   1      37.188  29.193  30.215  1.00  0.00     0.200 A 
ATOM     72  F   UNL A   1      36.638  29.948  28.046  1.00  0.00    -0.200 F 
ATOM     73  F   UNL A   1      35.944  29.457  30.638  1.00  0.00    -0.200 F 
ENDBRANCH  49  63
BRANCH  50  74
ATOM     74  C   UNL A   1      49.087  26.668  26.211  1.00  0.00     0.064 A 
ATOM     75  C   UNL A   1      49.471  26.868  24.879  1.00  0.00     0.173 A 
ATOM     76  C   UNL A   1      50.064  26.216  27.111  1.00  0.00     0.173 A 
ATOM     77  F   UNL A   1      48.568  27.280  23.977  1.00  0.00    -0.203 F 
ATOM     78  C   UNL A   1      50.777  26.622  24.462  1.00  0.00     0.198 A 
ATOM     79  C   UNL A   1      51.378  26.004  26.701  1.00  0.00     0.198 A 
ATOM     80  F   UNL A   1      49.749  26.012  28.400  1.00  0.00    -0.203 F 
ATOM     81  F   UNL A   1      51.109  26.790  23.175  1.00  0.00    -0.200 F 
ATOM     82  C   UNL A   1      51.733  26.202  25.376  1.00  0.00     0.200 A 
ATOM     83  F   UNL A   1      52.301  25.619  27.593  1.00  0.00    -0.200 F 
ATOM     84  F   UNL A   1      52.994  25.987  24.979  1.00  0.00    -0.200 F 
ENDBRANCH  50  74
BRANCH  62  85
ATOM     85  C   UNL A   1      45.860  32.441  28.446  1.00  0.00     0.064 A 
ATOM     86  C   UNL A   1      46.475  32.872  29.631  1.00  0.00     0.173 A 
ATOM     87  C   UNL A   1      45.731  33.369  27.400  1.00  0.00     0.173 A 
ATOM     88  F   UNL A   1      46.611  32.030  30.665  1.00  0.00    -0.203 F 
ATOM     89  C   UNL A   1      46.919  34.184  29.772  1.00  0.00     0.198 A 
ATOM     90  C   UNL A   1      46.213  34.669  27.531  1.00  0.00     0.198 A 
ATOM     91  F   UNL A   1      45.159  33.011  26.242  1.00  0.00    -0.203 F 
ATOM     92  F   UNL A   1      47.456  34.586  30.933  1.00  0.00    -0.200 F 
ATOM     93  C   UNL A   1      46.798  35.078  28.720  1.00  0.00     0.200 A 
ATOM     94  F   UNL A   1      46.114  35.525  26.504  1.00  0.00    -0.200 F 
ATOM     95  F   UNL A   1      47.241  36.336  28.852  1.00  0.00    -0.200 F 
ENDBRANCH  62  85
ENDBRANCH  36  37
ENDBRANCH  28  31
ENDBRANCH  26  27
ENDBRANCH  25  26
ENDBRANCH   1  25
TORSDOF 15
ENDMDL
