MODEL 1
REMARK VINA RESULT:     -13.5      0.000      0.000
REMARK SMILES CC1(C)S[C@@H](c2cccc3c2sc2ccccc23)[NH2+][C@@H]1C(=O)NCCCCCCNC(=O)c1ccc(-c2c3nc(c(-c4c(F)c(F)c(F)c(F)c4F)c4ccc([nH]4)c(-c4c(F)c(F)c(F)c(F)c4F)c4nc(c(-c5c(F)c(F)c(F)c(F)c5F)c5ccc2[nH]5)C=C4)C=C3)cc1
REMARK SMILES IDX 27 1 26 2 25 3 24 4 23 5 21 6 22 7 20 9 1 10 2 11 3 12 4 13
REMARK SMILES IDX 5 14 19 15 6 18 7 19 11 20 8 21 10 22 12 23 9 24 18 25 13 26
REMARK SMILES IDX 17 27 14 28 16 29 15 30 28 31 29 32 30 33 31 34 32 36 33 37
REMARK SMILES IDX 34 38 95 39 35 40 94 41 36 42 37 43 38 44 88 45 39 46 93 47
REMARK SMILES IDX 87 48 89 49 40 50 92 51 86 52 85 53 41 55 73 56 53 57 72 58
REMARK SMILES IDX 54 59 57 60 71 61 90 62 55 63 56 64 70 66 91 67 58 68 42 69
REMARK SMILES IDX 43 70 51 71 44 72 45 73 49 74 52 75 46 76 47 77 50 78 48 79
REMARK SMILES IDX 74 80 75 81 83 82 76 83 77 84 81 85 84 86 78 87 79 88 82 89
REMARK SMILES IDX 80 90 59 91 60 92 68 93 61 94 62 95 66 96 69 97 63 98 64 99
REMARK SMILES IDX 67 100 65 101
REMARK H PARENT 23 8 19 16 19 17 30 35 89 54 57 65
REMARK Flexibility Score: inf
ROOT
ATOM      1  C   UNL A   1      31.091  31.039  25.475  1.00  0.00     0.002 C 
ENDROOT
BRANCH   1   2
ATOM      2  C   UNL A   1      31.810  29.725  25.790  1.00  0.00     0.002 C 
BRANCH   2   3
ATOM      3  C   UNL A   1      31.777  29.271  27.253  1.00  0.00     0.021 C 
BRANCH   3   4
ATOM      4  C   UNL A   1      32.071  27.794  27.508  1.00  0.00     0.116 C 
BRANCH   4   5
ATOM      5  N   UNL A   1      31.128  26.918  26.845  1.00  0.00    -0.351 N 
ATOM      6  C   UNL A   1      31.278  26.110  25.755  1.00  0.00     0.279 C 
ATOM      7  O   UNL A   1      30.278  25.462  25.440  1.00  0.00    -0.268 OA
ATOM      8  H   UNL A   1      30.229  26.902  27.247  1.00  0.00     0.163 HD
BRANCH   6   9
ATOM      9  C   UNL A   1      32.581  26.127  24.903  1.00  0.00     0.289 C 
ATOM     10  C   UNL A   1      33.655  26.497  22.617  1.00  0.00     0.030 C 
ATOM     11  C   UNL A   1      32.426  25.938  23.364  1.00  0.00     0.077 C 
ATOM     12  C   UNL A   1      31.175  26.525  22.707  1.00  0.00     0.030 C 
ATOM     13  S   UNL A   1      32.443  24.117  23.153  1.00  0.00    -0.081 SA
ATOM     14  C   UNL A   1      33.085  23.802  24.823  1.00  0.00     0.276 C 
ATOM     15  N   UNL A   1      33.548  25.085  25.364  1.00  0.00    -0.320 N 
ATOM     16  H   UNL A   1      34.482  25.295  25.014  1.00  0.00     0.348 HD
ATOM     17  H   UNL A   1      33.594  25.055  26.382  1.00  0.00     0.348 HD
BRANCH  14  18
ATOM     18  C   UNL A   1      34.191  22.760  24.868  1.00  0.00     0.038 A 
ATOM     19  C   UNL A   1      35.537  23.156  25.069  1.00  0.00     0.012 A 
ATOM     20  C   UNL A   1      33.950  21.358  24.761  1.00  0.00     0.046 A 
ATOM     21  C   UNL A   1      36.575  22.241  25.135  1.00  0.00     0.001 A 
ATOM     22  C   UNL A   1      34.983  20.415  24.810  1.00  0.00     0.001 A 
ATOM     23  S   UNL A   1      32.429  20.565  24.570  1.00  0.00    -0.135 S 
ATOM     24  C   UNL A   1      36.309  20.883  25.001  1.00  0.00     0.010 A 
ATOM     25  C   UNL A   1      34.506  19.054  24.640  1.00  0.00     0.000 A 
ATOM     26  C   UNL A   1      33.122  19.002  24.501  1.00  0.00     0.036 A 
ATOM     27  C   UNL A   1      35.221  17.827  24.594  1.00  0.00     0.010 A 
ATOM     28  C   UNL A   1      32.439  17.780  24.325  1.00  0.00     0.019 A 
ATOM     29  C   UNL A   1      34.551  16.614  24.413  1.00  0.00     0.001 A 
ATOM     30  C   UNL A   1      33.172  16.592  24.281  1.00  0.00     0.002 A 
ENDBRANCH  14  18
ENDBRANCH   6   9
ENDBRANCH   4   5
ENDBRANCH   3   4
ENDBRANCH   2   3
ENDBRANCH   1   2
BRANCH   1  31
ATOM     31  C   UNL A   1      31.090  32.086  26.589  1.00  0.00     0.021 C 
BRANCH  31  32
ATOM     32  C   UNL A   1      32.443  32.714  26.912  1.00  0.00     0.116 C 
BRANCH  32  33
ATOM     33  N   UNL A   1      32.338  34.067  27.426  1.00  0.00    -0.352 N 
ATOM     34  C   UNL A   1      33.065  34.684  28.409  1.00  0.00     0.251 C 
ATOM     35  H   UNL A   1      31.643  34.623  27.005  1.00  0.00     0.163 HD
ATOM     36  O   UNL A   1      32.753  35.818  28.778  1.00  0.00    -0.269 OA
BRANCH  34  37
ATOM     37  C   UNL A   1      34.208  34.001  29.056  1.00  0.00     0.039 A 
ATOM     38  C   UNL A   1      35.502  34.414  28.725  1.00  0.00     0.014 A 
ATOM     39  C   UNL A   1      34.026  32.934  29.942  1.00  0.00     0.014 A 
ATOM     40  C   UNL A   1      36.606  33.786  29.304  1.00  0.00     0.010 A 
ATOM     41  C   UNL A   1      35.126  32.351  30.570  1.00  0.00     0.010 A 
ATOM     42  C   UNL A   1      36.428  32.759  30.244  1.00  0.00    -0.014 A 
BRANCH  42  43
ATOM     43  C   UNL A   1      37.599  32.082  30.857  1.00  0.00     0.031 A 
ATOM     44  C   UNL A   1      38.055  32.461  32.239  1.00  0.00     0.074 A 
ATOM     45  C   UNL A   1      38.267  31.143  30.162  1.00  0.00     0.049 A 
ATOM     46  N   UNL A   1      39.051  31.986  32.944  1.00  0.00    -0.248 NA
ATOM     47  C   UNL A   1      37.307  33.536  32.910  1.00  0.00     0.031 C 
ATOM     48  C   UNL A   1      37.959  30.724  28.795  1.00  0.00     0.029 A 
ATOM     49  N   UNL A   1      39.348  30.371  30.512  1.00  0.00    -0.354 N 
ATOM     50  C   UNL A   1      39.056  32.709  34.129  1.00  0.00     0.074 A 
ATOM     51  C   UNL A   1      37.999  33.692  34.028  1.00  0.00     0.031 C 
ATOM     52  C   UNL A   1      38.812  29.752  28.430  1.00  0.00     0.029 A 
ATOM     53  C   UNL A   1      39.740  29.496  29.529  1.00  0.00     0.049 A 
ATOM     54  H   UNL A   1      39.798  30.439  31.384  1.00  0.00     0.167 HD
ATOM     55  C   UNL A   1      39.853  32.553  35.214  1.00  0.00     0.037 A 
ATOM     56  C   UNL A   1      40.731  28.584  29.520  1.00  0.00     0.037 A 
ATOM     57  C   UNL A   1      40.884  31.554  35.326  1.00  0.00     0.049 A 
ATOM     58  C   UNL A   1      41.582  28.410  30.748  1.00  0.00     0.074 A 
ATOM     59  C   UNL A   1      41.702  31.274  36.406  1.00  0.00     0.029 A 
ATOM     60  N   UNL A   1      41.233  30.667  34.319  1.00  0.00    -0.354 N 
ATOM     61  N   UNL A   1      41.530  29.051  31.890  1.00  0.00    -0.248 NA
ATOM     62  C   UNL A   1      42.621  27.372  30.689  1.00  0.00     0.031 C 
ATOM     63  C   UNL A   1      42.572  30.241  36.041  1.00  0.00     0.029 A 
ATOM     64  C   UNL A   1      42.267  29.849  34.747  1.00  0.00     0.049 A 
ATOM     65  H   UNL A   1      40.811  30.625  33.431  1.00  0.00     0.167 HD
ATOM     66  C   UNL A   1      42.510  28.483  32.692  1.00  0.00     0.074 A 
ATOM     67  C   UNL A   1      43.127  27.429  31.912  1.00  0.00     0.031 C 
ATOM     68  C   UNL A   1      42.869  28.805  33.958  1.00  0.00     0.037 A 
BRANCH  55  69
ATOM     69  C   UNL A   1      39.633  33.481  36.372  1.00  0.00     0.064 A 
ATOM     70  C   UNL A   1      38.799  33.133  37.445  1.00  0.00     0.173 A 
ATOM     71  C   UNL A   1      40.283  34.723  36.424  1.00  0.00     0.173 A 
ATOM     72  F   UNL A   1      38.144  31.961  37.438  1.00  0.00    -0.203 F 
ATOM     73  C   UNL A   1      38.601  34.005  38.512  1.00  0.00     0.198 A 
ATOM     74  C   UNL A   1      40.104  35.581  37.506  1.00  0.00     0.198 A 
ATOM     75  F   UNL A   1      41.095  35.105  35.426  1.00  0.00    -0.203 F 
ATOM     76  F   UNL A   1      37.759  33.670  39.501  1.00  0.00    -0.200 F 
ATOM     77  C   UNL A   1      39.257  35.224  38.545  1.00  0.00     0.200 A 
ATOM     78  F   UNL A   1      40.748  36.757  37.542  1.00  0.00    -0.200 F 
ATOM     79  F   UNL A   1      39.068  36.062  39.575  1.00  0.00    -0.200 F 
ENDBRANCH  55  69
BRANCH  56  80
ATOM     80  C   UNL A   1      40.943  27.733  28.321  1.00  0.00     0.064 A 
ATOM     81  C   UNL A   1      40.308  26.491  28.200  1.00  0.00     0.173 A 
ATOM     82  C   UNL A   1      41.787  28.141  27.278  1.00  0.00     0.173 A 
ATOM     83  F   UNL A   1      39.509  26.049  29.183  1.00  0.00    -0.203 F 
ATOM     84  C   UNL A   1      40.523  25.677  27.089  1.00  0.00     0.198 A 
ATOM     85  C   UNL A   1      41.982  27.338  26.157  1.00  0.00     0.198 A 
ATOM     86  F   UNL A   1      42.415  29.324  27.345  1.00  0.00    -0.203 F 
ATOM     87  F   UNL A   1      39.938  24.474  27.020  1.00  0.00    -0.200 F 
ATOM     88  C   UNL A   1      41.356  26.104  26.067  1.00  0.00     0.200 A 
ATOM     89  F   UNL A   1      42.778  27.759  25.163  1.00  0.00    -0.200 F 
ATOM     90  F   UNL A   1      41.562  25.322  24.997  1.00  0.00    -0.200 F 
ENDBRANCH  56  80
BRANCH  68  91
ATOM     91  C   UNL A   1      43.965  27.995  34.585  1.00  0.00     0.064 A 
ATOM     92  C   UNL A   1      43.692  26.816  35.294  1.00  0.00     0.173 A 
ATOM     93  C   UNL A   1      45.305  28.391  34.459  1.00  0.00     0.173 A 
ATOM     94  F   UNL A   1      42.425  26.403  35.456  1.00  0.00    -0.203 F 
ATOM     95  C   UNL A   1      44.717  26.079  35.879  1.00  0.00     0.198 A 
ATOM     96  C   UNL A   1      46.330  27.636  35.022  1.00  0.00     0.198 A 
ATOM     97  F   UNL A   1      45.619  29.507  33.786  1.00  0.00    -0.203 F 
ATOM     98  F   UNL A   1      44.428  24.984  36.597  1.00  0.00    -0.200 F 
ATOM     99  C   UNL A   1      46.035  26.487  35.740  1.00  0.00     0.200 A 
ATOM    100  F   UNL A   1      47.604  28.026  34.876  1.00  0.00    -0.200 F 
ATOM    101  F   UNL A   1      47.021  25.777  36.304  1.00  0.00    -0.200 F 
ENDBRANCH  68  91
ENDBRANCH  42  43
ENDBRANCH  34  37
ENDBRANCH  32  33
ENDBRANCH  31  32
ENDBRANCH   1  31
TORSDOF 14
ENDMDL
MODEL 2
REMARK VINA RESULT:     -13.5      0.125      1.204
REMARK SMILES CC1(C)S[C@@H](c2cccc3c2sc2ccccc23)[NH2+][C@@H]1C(=O)NCCCCCCNC(=O)c1ccc(-c2c3nc(c(-c4c(F)c(F)c(F)c(F)c4F)c4ccc([nH]4)c(-c4c(F)c(F)c(F)c(F)c4F)c4nc(c(-c5c(F)c(F)c(F)c(F)c5F)c5ccc2[nH]5)C=C4)C=C3)cc1
REMARK SMILES IDX 27 1 26 2 25 3 24 4 23 5 21 6 22 7 20 9 1 10 2 11 3 12 4 13
REMARK SMILES IDX 5 14 19 15 6 18 7 19 11 20 8 21 10 22 12 23 9 24 18 25 13 26
REMARK SMILES IDX 17 27 14 28 16 29 15 30 28 31 29 32 30 33 31 34 32 36 33 37
REMARK SMILES IDX 34 38 95 39 35 40 94 41 36 42 37 43 38 44 88 45 39 46 93 47
REMARK SMILES IDX 87 48 89 49 40 50 92 51 86 52 85 53 41 55 73 56 53 57 72 58
REMARK SMILES IDX 54 59 57 60 71 61 90 62 55 63 56 64 70 66 91 67 58 68 42 69
REMARK SMILES IDX 43 70 51 71 44 72 45 73 49 74 52 75 46 76 47 77 50 78 48 79
REMARK SMILES IDX 74 80 75 81 83 82 76 83 77 84 81 85 84 86 78 87 79 88 82 89
REMARK SMILES IDX 80 90 59 91 60 92 68 93 61 94 62 95 66 96 69 97 63 98 64 99
REMARK SMILES IDX 67 100 65 101
REMARK H PARENT 23 8 19 16 19 17 30 35 89 54 57 65
REMARK Flexibility Score: inf
ROOT
ATOM      1  C   UNL A   1      31.164  31.121  25.573  1.00  0.00     0.002 C 
ENDROOT
BRANCH   1   2
ATOM      2  C   UNL A   1      31.776  29.742  25.829  1.00  0.00     0.002 C 
BRANCH   2   3
ATOM      3  C   UNL A   1      31.797  29.272  27.288  1.00  0.00     0.021 C 
BRANCH   3   4
ATOM      4  C   UNL A   1      32.092  27.791  27.516  1.00  0.00     0.116 C 
BRANCH   4   5
ATOM      5  N   UNL A   1      31.122  26.927  26.875  1.00  0.00    -0.351 N 
ATOM      6  C   UNL A   1      31.235  26.123  25.778  1.00  0.00     0.279 C 
ATOM      7  O   UNL A   1      30.220  25.487  25.488  1.00  0.00    -0.268 OA
ATOM      8  H   UNL A   1      30.234  26.919  27.301  1.00  0.00     0.163 HD
BRANCH   6   9
ATOM      9  C   UNL A   1      32.514  26.131  24.890  1.00  0.00     0.289 C 
ATOM     10  C   UNL A   1      33.525  26.471  22.572  1.00  0.00     0.030 C 
ATOM     11  C   UNL A   1      32.318  25.920  23.359  1.00  0.00     0.077 C 
ATOM     12  C   UNL A   1      31.048  26.496  22.728  1.00  0.00     0.030 C 
ATOM     13  S   UNL A   1      32.334  24.097  23.173  1.00  0.00    -0.081 SA
ATOM     14  C   UNL A   1      33.021  23.805  24.829  1.00  0.00     0.276 C 
ATOM     15  N   UNL A   1      33.495  25.097  25.339  1.00  0.00    -0.320 N 
ATOM     16  H   UNL A   1      34.420  25.303  24.962  1.00  0.00     0.348 HD
ATOM     17  H   UNL A   1      33.569  25.081  26.356  1.00  0.00     0.348 HD
BRANCH  14  18
ATOM     18  C   UNL A   1      34.130  22.767  24.858  1.00  0.00     0.038 A 
ATOM     19  C   UNL A   1      35.478  23.166  25.036  1.00  0.00     0.012 A 
ATOM     20  C   UNL A   1      33.891  21.364  24.758  1.00  0.00     0.046 A 
ATOM     21  C   UNL A   1      36.519  22.254  25.087  1.00  0.00     0.001 A 
ATOM     22  C   UNL A   1      34.927  20.423  24.793  1.00  0.00     0.001 A 
ATOM     23  S   UNL A   1      32.369  20.566  24.594  1.00  0.00    -0.135 S 
ATOM     24  C   UNL A   1      36.254  20.895  24.961  1.00  0.00     0.010 A 
ATOM     25  C   UNL A   1      34.450  19.061  24.633  1.00  0.00     0.000 A 
ATOM     26  C   UNL A   1      33.064  19.005  24.516  1.00  0.00     0.036 A 
ATOM     27  C   UNL A   1      35.167  17.836  24.578  1.00  0.00     0.010 A 
ATOM     28  C   UNL A   1      32.381  17.781  24.355  1.00  0.00     0.019 A 
ATOM     29  C   UNL A   1      34.498  16.620  24.410  1.00  0.00     0.001 A 
ATOM     30  C   UNL A   1      33.116  16.595  24.300  1.00  0.00     0.002 A 
ENDBRANCH  14  18
ENDBRANCH   6   9
ENDBRANCH   4   5
ENDBRANCH   3   4
ENDBRANCH   2   3
ENDBRANCH   1   2
BRANCH   1  31
ATOM     31  C   UNL A   1      31.201  32.099  26.748  1.00  0.00     0.021 C 
BRANCH  31  32
ATOM     32  C   UNL A   1      32.528  32.820  26.969  1.00  0.00     0.116 C 
BRANCH  32  33
ATOM     33  N   UNL A   1      32.373  34.137  27.559  1.00  0.00    -0.352 N 
ATOM     34  C   UNL A   1      33.097  34.736  28.556  1.00  0.00     0.251 C 
ATOM     35  H   UNL A   1      31.641  34.680  27.187  1.00  0.00     0.163 HD
ATOM     36  O   UNL A   1      32.742  35.832  28.993  1.00  0.00    -0.269 OA
BRANCH  34  37
ATOM     37  C   UNL A   1      34.289  34.076  29.135  1.00  0.00     0.039 A 
ATOM     38  C   UNL A   1      34.093  33.006  30.014  1.00  0.00     0.014 A 
ATOM     39  C   UNL A   1      35.586  34.522  28.864  1.00  0.00     0.014 A 
ATOM     40  C   UNL A   1      35.191  32.365  30.591  1.00  0.00     0.010 A 
ATOM     41  C   UNL A   1      36.685  33.840  29.389  1.00  0.00     0.010 A 
ATOM     42  C   UNL A   1      36.497  32.766  30.271  1.00  0.00    -0.014 A 
BRANCH  42  43
ATOM     43  C   UNL A   1      37.668  32.093  30.887  1.00  0.00     0.031 A 
ATOM     44  C   UNL A   1      38.104  32.456  32.280  1.00  0.00     0.074 A 
ATOM     45  C   UNL A   1      38.355  31.171  30.186  1.00  0.00     0.049 A 
ATOM     46  N   UNL A   1      39.098  31.980  32.989  1.00  0.00    -0.248 NA
ATOM     47  C   UNL A   1      37.337  33.512  32.959  1.00  0.00     0.031 C 
ATOM     48  C   UNL A   1      38.066  30.770  28.809  1.00  0.00     0.029 A 
ATOM     49  N   UNL A   1      39.439  30.406  30.537  1.00  0.00    -0.354 N 
ATOM     50  C   UNL A   1      39.081  32.686  34.185  1.00  0.00     0.074 A 
ATOM     51  C   UNL A   1      38.015  33.659  34.087  1.00  0.00     0.031 C 
ATOM     52  C   UNL A   1      38.934  29.812  28.440  1.00  0.00     0.029 A 
ATOM     53  C   UNL A   1      39.852  29.550  29.545  1.00  0.00     0.049 A 
ATOM     54  H   UNL A   1      39.879  30.465  31.415  1.00  0.00     0.167 HD
ATOM     55  C   UNL A   1      39.868  32.521  35.276  1.00  0.00     0.037 A 
ATOM     56  C   UNL A   1      40.852  28.649  29.534  1.00  0.00     0.037 A 
ATOM     57  C   UNL A   1      40.908  31.532  35.385  1.00  0.00     0.049 A 
ATOM     58  C   UNL A   1      41.691  28.465  30.769  1.00  0.00     0.074 A 
ATOM     59  C   UNL A   1      41.717  31.245  36.471  1.00  0.00     0.029 A 
ATOM     60  N   UNL A   1      41.278  30.665  34.369  1.00  0.00    -0.354 N 
ATOM     61  N   UNL A   1      41.620  29.088  31.920  1.00  0.00    -0.248 NA
ATOM     62  C   UNL A   1      42.742  27.439  30.707  1.00  0.00     0.031 C 
ATOM     63  C   UNL A   1      42.602  30.227  36.100  1.00  0.00     0.029 A 
ATOM     64  C   UNL A   1      42.316  29.851  34.797  1.00  0.00     0.049 A 
ATOM     65  H   UNL A   1      40.866  30.632  33.476  1.00  0.00     0.167 HD
ATOM     66  C   UNL A   1      42.597  28.519  32.724  1.00  0.00     0.074 A 
ATOM     67  C   UNL A   1      43.234  27.484  31.936  1.00  0.00     0.031 C 
ATOM     68  C   UNL A   1      42.938  28.826  33.999  1.00  0.00     0.037 A 
BRANCH  55  69
ATOM     69  C   UNL A   1      39.624  33.430  36.446  1.00  0.00     0.064 A 
ATOM     70  C   UNL A   1      38.758  33.070  37.488  1.00  0.00     0.173 A 
ATOM     71  C   UNL A   1      40.284  34.664  36.539  1.00  0.00     0.173 A 
ATOM     72  F   UNL A   1      38.092  31.905  37.440  1.00  0.00    -0.203 F 
ATOM     73  C   UNL A   1      38.538  33.923  38.566  1.00  0.00     0.198 A 
ATOM     74  C   UNL A   1      40.084  35.503  37.633  1.00  0.00     0.198 A 
ATOM     75  F   UNL A   1      41.128  35.056  35.572  1.00  0.00    -0.203 F 
ATOM     76  F   UNL A   1      37.666  33.578  39.525  1.00  0.00    -0.200 F 
ATOM     77  C   UNL A   1      39.205  35.135  38.641  1.00  0.00     0.200 A 
ATOM     78  F   UNL A   1      40.738  36.671  37.709  1.00  0.00    -0.200 F 
ATOM     79  F   UNL A   1      38.996  35.955  39.681  1.00  0.00    -0.200 F 
ENDBRANCH  55  69
BRANCH  56  80
ATOM     80  C   UNL A   1      41.088  27.819  28.325  1.00  0.00     0.064 A 
ATOM     81  C   UNL A   1      40.433  26.592  28.157  1.00  0.00     0.173 A 
ATOM     82  C   UNL A   1      41.973  28.230  27.319  1.00  0.00     0.173 A 
ATOM     83  F   UNL A   1      39.593  26.147  29.104  1.00  0.00    -0.203 F 
ATOM     84  C   UNL A   1      40.668  25.797  27.037  1.00  0.00     0.198 A 
ATOM     85  C   UNL A   1      42.190  27.446  26.188  1.00  0.00     0.198 A 
ATOM     86  F   UNL A   1      42.623  29.399  27.432  1.00  0.00    -0.203 F 
ATOM     87  F   UNL A   1      40.062  24.608  26.923  1.00  0.00    -0.200 F 
ATOM     88  C   UNL A   1      41.542  26.227  26.052  1.00  0.00     0.200 A 
ATOM     89  F   UNL A   1      43.026  27.871  25.231  1.00  0.00    -0.200 F 
ATOM     90  F   UNL A   1      41.768  25.464  24.973  1.00  0.00    -0.200 F 
ENDBRANCH  56  80
BRANCH  68  91
ATOM     91  C   UNL A   1      44.035  28.017  34.626  1.00  0.00     0.064 A 
ATOM     92  C   UNL A   1      45.374  28.435  34.579  1.00  0.00     0.173 A 
ATOM     93  C   UNL A   1      43.743  26.821  35.299  1.00  0.00     0.173 A 
ATOM     94  F   UNL A   1      45.706  29.564  33.934  1.00  0.00    -0.203 F 
ATOM     95  C   UNL A   1      46.383  27.670  35.156  1.00  0.00     0.198 A 
ATOM     96  C   UNL A   1      44.752  26.072  35.899  1.00  0.00     0.198 A 
ATOM     97  F   UNL A   1      42.479  26.381  35.377  1.00  0.00    -0.203 F 
ATOM     98  F   UNL A   1      47.661  28.063  35.053  1.00  0.00    -0.200 F 
ATOM     99  C   UNL A   1      46.072  26.492  35.819  1.00  0.00     0.200 A 
ATOM    100  F   UNL A   1      44.448  24.940  36.548  1.00  0.00    -0.200 F 
ATOM    101  F   UNL A   1      47.044  25.756  36.373  1.00  0.00    -0.200 F 
ENDBRANCH  68  91
ENDBRANCH  42  43
ENDBRANCH  34  37
ENDBRANCH  32  33
ENDBRANCH  31  32
ENDBRANCH   1  31
TORSDOF 14
ENDMDL
MODEL 3
REMARK VINA RESULT:     -13.2      0.495      1.691
REMARK SMILES CC1(C)S[C@@H](c2cccc3c2sc2ccccc23)[NH2+][C@@H]1C(=O)NCCCCCCNC(=O)c1ccc(-c2c3nc(c(-c4c(F)c(F)c(F)c(F)c4F)c4ccc([nH]4)c(-c4c(F)c(F)c(F)c(F)c4F)c4nc(c(-c5c(F)c(F)c(F)c(F)c5F)c5ccc2[nH]5)C=C4)C=C3)cc1
REMARK SMILES IDX 27 1 26 2 25 3 24 4 23 5 21 6 22 7 20 9 1 10 2 11 3 12 4 13
REMARK SMILES IDX 5 14 19 15 6 18 7 19 11 20 8 21 10 22 12 23 9 24 18 25 13 26
REMARK SMILES IDX 17 27 14 28 16 29 15 30 28 31 29 32 30 33 31 34 32 36 33 37
REMARK SMILES IDX 34 38 95 39 35 40 94 41 36 42 37 43 38 44 88 45 39 46 93 47
REMARK SMILES IDX 87 48 89 49 40 50 92 51 86 52 85 53 41 55 73 56 53 57 72 58
REMARK SMILES IDX 54 59 57 60 71 61 90 62 55 63 56 64 70 66 91 67 58 68 42 69
REMARK SMILES IDX 43 70 51 71 44 72 45 73 49 74 52 75 46 76 47 77 50 78 48 79
REMARK SMILES IDX 74 80 75 81 83 82 76 83 77 84 81 85 84 86 78 87 79 88 82 89
REMARK SMILES IDX 80 90 59 91 60 92 68 93 61 94 62 95 66 96 69 97 63 98 64 99
REMARK SMILES IDX 67 100 65 101
REMARK H PARENT 23 8 19 16 19 17 30 35 89 54 57 65
REMARK Flexibility Score: inf
ROOT
ATOM      1  C   UNL A   1      31.075  31.572  26.278  1.00  0.00     0.002 C 
ENDROOT
BRANCH   1   2
ATOM      2  C   UNL A   1      32.214  30.605  26.609  1.00  0.00     0.002 C 
BRANCH   2   3
ATOM      3  C   UNL A   1      31.944  29.123  26.328  1.00  0.00     0.021 C 
BRANCH   3   4
ATOM      4  C   UNL A   1      31.802  28.218  27.550  1.00  0.00     0.116 C 
BRANCH   4   5
ATOM      5  N   UNL A   1      31.111  26.982  27.248  1.00  0.00    -0.351 N 
ATOM      6  C   UNL A   1      31.463  25.941  26.439  1.00  0.00     0.279 C 
ATOM      7  O   UNL A   1      30.659  25.008  26.405  1.00  0.00    -0.268 OA
ATOM      8  H   UNL A   1      30.244  26.875  27.702  1.00  0.00     0.163 HD
BRANCH   6   9
ATOM      9  C   UNL A   1      32.723  26.009  25.525  1.00  0.00     0.289 C 
ATOM     10  C   UNL A   1      33.690  26.556  23.227  1.00  0.00     0.030 C 
ATOM     11  C   UNL A   1      32.487  25.955  23.986  1.00  0.00     0.077 C 
ATOM     12  C   UNL A   1      31.218  26.618  23.446  1.00  0.00     0.030 C 
ATOM     13  S   UNL A   1      32.456  24.159  23.621  1.00  0.00    -0.081 SA
ATOM     14  C   UNL A   1      33.172  23.691  25.223  1.00  0.00     0.276 C 
ATOM     15  N   UNL A   1      33.688  24.915  25.846  1.00  0.00    -0.320 N 
ATOM     16  H   UNL A   1      34.609  25.138  25.468  1.00  0.00     0.348 HD
ATOM     17  H   UNL A   1      33.784  24.797  26.854  1.00  0.00     0.348 HD
BRANCH  14  18
ATOM     18  C   UNL A   1      34.257  22.631  25.123  1.00  0.00     0.038 A 
ATOM     19  C   UNL A   1      35.621  22.991  25.251  1.00  0.00     0.012 A 
ATOM     20  C   UNL A   1      33.980  21.243  24.946  1.00  0.00     0.046 A 
ATOM     21  C   UNL A   1      36.642  22.057  25.185  1.00  0.00     0.001 A 
ATOM     22  C   UNL A   1      34.994  20.282  24.861  1.00  0.00     0.001 A 
ATOM     23  S   UNL A   1      32.433  20.488  24.815  1.00  0.00    -0.135 S 
ATOM     24  C   UNL A   1      36.339  20.714  24.985  1.00  0.00     0.010 A 
ATOM     25  C   UNL A   1      34.477  18.942  24.640  1.00  0.00     0.000 A 
ATOM     26  C   UNL A   1      33.086  18.922  24.598  1.00  0.00     0.036 A 
ATOM     27  C   UNL A   1      35.162  17.709  24.466  1.00  0.00     0.010 A 
ATOM     28  C   UNL A   1      32.367  17.725  24.396  1.00  0.00     0.019 A 
ATOM     29  C   UNL A   1      34.455  16.521  24.258  1.00  0.00     0.001 A 
ATOM     30  C   UNL A   1      33.070  16.531  24.224  1.00  0.00     0.002 A 
ENDBRANCH  14  18
ENDBRANCH   6   9
ENDBRANCH   4   5
ENDBRANCH   3   4
ENDBRANCH   2   3
ENDBRANCH   1   2
BRANCH   1  31
ATOM     31  C   UNL A   1      31.388  33.059  26.448  1.00  0.00     0.021 C 
BRANCH  31  32
ATOM     32  C   UNL A   1      32.575  33.388  27.349  1.00  0.00     0.116 C 
BRANCH  32  33
ATOM     33  N   UNL A   1      32.462  34.683  27.996  1.00  0.00    -0.352 N 
ATOM     34  C   UNL A   1      33.212  35.220  29.008  1.00  0.00     0.251 C 
ATOM     35  H   UNL A   1      31.740  35.260  27.656  1.00  0.00     0.163 HD
ATOM     36  O   UNL A   1      32.890  36.305  29.496  1.00  0.00    -0.269 OA
BRANCH  34  37
ATOM     37  C   UNL A   1      34.392  34.505  29.545  1.00  0.00     0.039 A 
ATOM     38  C   UNL A   1      34.216  33.671  30.653  1.00  0.00     0.014 A 
ATOM     39  C   UNL A   1      35.671  34.679  29.004  1.00  0.00     0.014 A 
ATOM     40  C   UNL A   1      35.307  32.989  31.195  1.00  0.00     0.010 A 
ATOM     41  C   UNL A   1      36.748  33.948  29.504  1.00  0.00     0.010 A 
ATOM     42  C   UNL A   1      36.580  33.109  30.616  1.00  0.00    -0.014 A 
BRANCH  42  43
ATOM     43  C   UNL A   1      37.745  32.392  31.194  1.00  0.00     0.031 A 
ATOM     44  C   UNL A   1      38.251  32.749  32.564  1.00  0.00     0.074 A 
ATOM     45  C   UNL A   1      38.363  31.435  30.476  1.00  0.00     0.049 A 
ATOM     46  N   UNL A   1      39.251  32.239  33.238  1.00  0.00    -0.248 NA
ATOM     47  C   UNL A   1      37.558  33.845  33.260  1.00  0.00     0.031 C 
ATOM     48  C   UNL A   1      38.003  31.033  29.117  1.00  0.00     0.029 A 
ATOM     49  N   UNL A   1      39.427  30.627  30.793  1.00  0.00    -0.354 N 
ATOM     50  C   UNL A   1      39.313  32.956  34.426  1.00  0.00     0.074 A 
ATOM     51  C   UNL A   1      38.286  33.973  34.359  1.00  0.00     0.031 C 
ATOM     52  C   UNL A   1      38.813  30.035  28.725  1.00  0.00     0.029 A 
ATOM     53  C   UNL A   1      39.763  29.744  29.796  1.00  0.00     0.049 A 
ATOM     54  H   UNL A   1      39.904  30.676  31.652  1.00  0.00     0.167 HD
ATOM     55  C   UNL A   1      40.135  32.769  35.487  1.00  0.00     0.037 A 
ATOM     56  C   UNL A   1      40.722  28.801  29.756  1.00  0.00     0.037 A 
ATOM     57  C   UNL A   1      41.135  31.737  35.566  1.00  0.00     0.049 A 
ATOM     58  C   UNL A   1      41.601  28.593  30.959  1.00  0.00     0.074 A 
ATOM     59  C   UNL A   1      41.974  31.426  36.622  1.00  0.00     0.029 A 
ATOM     60  N   UNL A   1      41.427  30.844  34.546  1.00  0.00    -0.354 N 
ATOM     61  N   UNL A   1      41.603  29.230  32.104  1.00  0.00    -0.248 NA
ATOM     62  C   UNL A   1      42.605  27.523  30.866  1.00  0.00     0.031 C 
ATOM     63  C   UNL A   1      42.799  30.366  36.228  1.00  0.00     0.029 A 
ATOM     64  C   UNL A   1      42.446  29.991  34.942  1.00  0.00     0.049 A 
ATOM     65  H   UNL A   1      40.978  30.820  33.670  1.00  0.00     0.167 HD
ATOM     66  C   UNL A   1      42.586  28.627  32.876  1.00  0.00     0.074 A 
ATOM     67  C   UNL A   1      43.147  27.558  32.075  1.00  0.00     0.031 C 
ATOM     68  C   UNL A   1      42.990  28.932  34.132  1.00  0.00     0.037 A 
BRANCH  55  69
ATOM     69  C   UNL A   1      39.977  33.699  36.654  1.00  0.00     0.064 A 
ATOM     70  C   UNL A   1      40.728  34.879  36.760  1.00  0.00     0.173 A 
ATOM     71  C   UNL A   1      39.045  33.422  37.666  1.00  0.00     0.173 A 
ATOM     72  F   UNL A   1      41.642  35.183  35.825  1.00  0.00    -0.203 F 
ATOM     73  C   UNL A   1      40.575  35.732  37.850  1.00  0.00     0.198 A 
ATOM     74  C   UNL A   1      38.874  34.292  38.739  1.00  0.00     0.198 A 
ATOM     75  F   UNL A   1      38.297  32.310  37.611  1.00  0.00    -0.203 F 
ATOM     76  F   UNL A   1      41.341  36.827  37.954  1.00  0.00    -0.200 F 
ATOM     77  C   UNL A   1      39.644  35.441  38.834  1.00  0.00     0.200 A 
ATOM     78  F   UNL A   1      37.966  34.016  39.687  1.00  0.00    -0.200 F 
ATOM     79  F   UNL A   1      39.494  36.266  39.881  1.00  0.00    -0.200 F 
ENDBRANCH  55  69
BRANCH  56  80
ATOM     80  C   UNL A   1      40.874  27.949  28.548  1.00  0.00     0.064 A 
ATOM     81  C   UNL A   1      41.690  28.352  27.483  1.00  0.00     0.173 A 
ATOM     82  C   UNL A   1      40.204  26.724  28.431  1.00  0.00     0.173 A 
ATOM     83  F   UNL A   1      42.333  29.529  27.541  1.00  0.00    -0.203 F 
ATOM     84  C   UNL A   1      41.816  27.571  26.337  1.00  0.00     0.198 A 
ATOM     85  C   UNL A   1      40.350  25.931  27.295  1.00  0.00     0.198 A 
ATOM     86  F   UNL A   1      39.414  26.291  29.425  1.00  0.00    -0.203 F 
ATOM     87  F   UNL A   1      42.568  28.001  25.315  1.00  0.00    -0.200 F 
ATOM     88  C   UNL A   1      41.151  26.359  26.245  1.00  0.00     0.200 A 
ATOM     89  F   UNL A   1      39.715  24.753  27.215  1.00  0.00    -0.200 F 
ATOM     90  F   UNL A   1      41.273  25.606  25.144  1.00  0.00    -0.200 F 
ENDBRANCH  56  80
BRANCH  68  91
ATOM     91  C   UNL A   1      44.077  28.083  34.725  1.00  0.00     0.064 A 
ATOM     92  C   UNL A   1      43.791  26.868  35.366  1.00  0.00     0.173 A 
ATOM     93  C   UNL A   1      45.419  28.480  34.635  1.00  0.00     0.173 A 
ATOM     94  F   UNL A   1      42.521  26.453  35.492  1.00  0.00    -0.203 F 
ATOM     95  C   UNL A   1      44.808  26.096  35.920  1.00  0.00     0.198 A 
ATOM     96  C   UNL A   1      46.436  27.691  35.166  1.00  0.00     0.198 A 
ATOM     97  F   UNL A   1      45.745  29.630  34.027  1.00  0.00    -0.203 F 
ATOM     98  F   UNL A   1      44.507  24.964  36.573  1.00  0.00    -0.200 F 
ATOM     99  C   UNL A   1      46.129  26.505  35.816  1.00  0.00     0.200 A 
ATOM    100  F   UNL A   1      47.713  28.083  35.055  1.00  0.00    -0.200 F 
ATOM    101  F   UNL A   1      47.106  25.761  36.351  1.00  0.00    -0.200 F 
ENDBRANCH  68  91
ENDBRANCH  42  43
ENDBRANCH  34  37
ENDBRANCH  32  33
ENDBRANCH  31  32
ENDBRANCH   1  31
TORSDOF 14
ENDMDL
