MODEL 1
REMARK VINA RESULT:     -12.8      0.000      0.000
REMARK SMILES O=C(NCCCCCCNC(=O)[C@H](NC(=O)c1ccc(Br)nc1)c1ccccc1)c1ccc(-c2c3nc(c(-c4c(F)c(F)c(F)c(F)c4F)c4ccc([nH]4)c(-c4c(F)c(F)c(F)c(F)c4F)c4nc(c(-c5c(F)c(F)c(F)c(F)c5F)c5ccc2[nH]5)C=C4)C=C3)cc1
REMARK SMILES IDX 6 1 5 2 4 3 3 4 1 5 2 6 30 8 31 9 92 10 32 11 91 12 33 13
REMARK SMILES IDX 34 14 35 15 85 16 36 17 90 18 84 19 86 20 37 21 89 22 83 23
REMARK SMILES IDX 82 24 38 26 70 27 50 28 69 29 51 30 54 31 68 32 87 33 52 34
REMARK SMILES IDX 53 35 67 37 88 38 55 39 39 40 40 41 48 42 41 43 42 44 46 45
REMARK SMILES IDX 49 46 43 47 44 48 47 49 45 50 71 51 72 52 80 53 73 54 74 55
REMARK SMILES IDX 78 56 81 57 75 58 76 59 79 60 77 61 56 62 57 63 65 64 58 65
REMARK SMILES IDX 59 66 63 67 66 68 60 69 61 70 64 71 62 72 7 73 8 74 9 75
REMARK SMILES IDX 10 76 11 77 12 79 13 80 24 81 25 82 29 83 26 84 28 85 27 86
REMARK SMILES IDX 14 87 15 88 16 90 17 91 18 92 23 93 19 94 22 95 20 96 21 97
REMARK H PARENT 3 7 86 25 54 36 10 78 14 89
REMARK Flexibility Score: inf
ROOT
ATOM      1  C   UNL A   1      31.441  30.808  26.161  1.00  0.00     0.002 C 
ENDROOT
BRANCH   1   2
ATOM      2  C   UNL A   1      31.372  32.294  26.544  1.00  0.00     0.021 C 
BRANCH   2   3
ATOM      3  C   UNL A   1      32.607  32.853  27.251  1.00  0.00     0.116 C 
BRANCH   3   4
ATOM      4  N   UNL A   1      32.438  34.251  27.611  1.00  0.00    -0.352 N 
ATOM      5  O   UNL A   1      32.565  36.064  28.946  1.00  0.00    -0.269 OA
ATOM      6  C   UNL A   1      33.015  34.961  28.633  1.00  0.00     0.251 C 
ATOM      7  H   UNL A   1      31.821  34.762  27.038  1.00  0.00     0.163 HD
BRANCH   6   8
ATOM      8  C   UNL A   1      34.170  34.412  29.374  1.00  0.00     0.039 A 
ATOM      9  C   UNL A   1      33.985  33.675  30.546  1.00  0.00     0.014 A 
ATOM     10  C   UNL A   1      35.454  34.561  28.838  1.00  0.00     0.014 A 
ATOM     11  C   UNL A   1      35.087  33.164  31.230  1.00  0.00     0.010 A 
ATOM     12  C   UNL A   1      36.553  33.997  29.493  1.00  0.00     0.010 A 
ATOM     13  C   UNL A   1      36.380  33.299  30.698  1.00  0.00    -0.014 A 
BRANCH  13  14
ATOM     14  C   UNL A   1      37.525  32.618  31.356  1.00  0.00     0.031 A 
ATOM     15  C   UNL A   1      38.226  31.463  30.701  1.00  0.00     0.074 A 
ATOM     16  C   UNL A   1      37.916  33.045  32.572  1.00  0.00     0.049 A 
ATOM     17  N   UNL A   1      39.222  30.741  31.152  1.00  0.00    -0.248 NA
ATOM     18  C   UNL A   1      37.744  31.059  29.373  1.00  0.00     0.031 C 
ATOM     19  C   UNL A   1      37.294  34.143  33.316  1.00  0.00     0.029 A 
ATOM     20  N   UNL A   1      38.921  32.611  33.398  1.00  0.00    -0.354 N 
ATOM     21  C   UNL A   1      39.476  29.790  30.173  1.00  0.00     0.074 A 
ATOM     22  C   UNL A   1      38.518  30.013  29.111  1.00  0.00     0.031 C 
ATOM     23  C   UNL A   1      37.943  34.309  34.478  1.00  0.00     0.029 A 
ATOM     24  C   UNL A   1      38.990  33.298  34.585  1.00  0.00     0.049 A 
ATOM     25  H   UNL A   1      39.535  31.877  33.163  1.00  0.00     0.167 HD
ATOM     26  C   UNL A   1      40.428  28.825  30.164  1.00  0.00     0.037 A 
ATOM     27  C   UNL A   1      39.789  33.121  35.654  1.00  0.00     0.037 A 
ATOM     28  C   UNL A   1      41.393  28.625  31.217  1.00  0.00     0.049 A 
ATOM     29  C   UNL A   1      40.817  32.027  35.625  1.00  0.00     0.074 A 
ATOM     30  C   UNL A   1      42.443  27.723  31.263  1.00  0.00     0.029 A 
ATOM     31  N   UNL A   1      41.418  29.328  32.411  1.00  0.00    -0.354 N 
ATOM     32  N   UNL A   1      41.089  31.175  34.667  1.00  0.00    -0.248 NA
ATOM     33  C   UNL A   1      41.647  31.866  36.827  1.00  0.00     0.031 C 
ATOM     34  C   UNL A   1      43.071  27.845  32.507  1.00  0.00     0.029 A 
ATOM     35  C   UNL A   1      42.444  28.855  33.217  1.00  0.00     0.049 A 
ATOM     36  H   UNL A   1      40.801  30.056  32.652  1.00  0.00     0.167 HD
ATOM     37  C   UNL A   1      42.125  30.385  35.143  1.00  0.00     0.074 A 
ATOM     38  C   UNL A   1      42.448  30.873  36.467  1.00  0.00     0.031 C 
ATOM     39  C   UNL A   1      42.748  29.346  34.536  1.00  0.00     0.037 A 
BRANCH  26  40
ATOM     40  C   UNL A   1      40.475  27.895  28.989  1.00  0.00     0.064 A 
ATOM     41  C   UNL A   1      39.707  26.721  28.945  1.00  0.00     0.173 A 
ATOM     42  C   UNL A   1      41.242  28.219  27.859  1.00  0.00     0.173 A 
ATOM     43  F   UNL A   1      38.962  26.363  30.001  1.00  0.00    -0.203 F 
ATOM     44  C   UNL A   1      39.720  25.899  27.820  1.00  0.00     0.198 A 
ATOM     45  C   UNL A   1      41.234  27.407  26.727  1.00  0.00     0.198 A 
ATOM     46  F   UNL A   1      41.986  29.335  27.845  1.00  0.00    -0.203 F 
ATOM     47  F   UNL A   1      39.003  24.767  27.812  1.00  0.00    -0.200 F 
ATOM     48  C   UNL A   1      40.476  26.246  26.711  1.00  0.00     0.200 A 
ATOM     49  F   UNL A   1      41.954  27.751  25.651  1.00  0.00    -0.200 F 
ATOM     50  F   UNL A   1      40.476  25.459  25.626  1.00  0.00    -0.200 F 
ENDBRANCH  26  40
BRANCH  27  51
ATOM     51  C   UNL A   1      39.628  33.992  36.846  1.00  0.00     0.064 A 
ATOM     52  C   UNL A   1      40.255  35.243  36.918  1.00  0.00     0.173 A 
ATOM     53  C   UNL A   1      38.834  33.595  37.933  1.00  0.00     0.173 A 
ATOM     54  F   UNL A   1      41.042  35.656  35.914  1.00  0.00    -0.203 F 
ATOM     55  C   UNL A   1      40.104  36.058  38.037  1.00  0.00     0.198 A 
ATOM     56  C   UNL A   1      38.660  34.424  39.038  1.00  0.00     0.198 A 
ATOM     57  F   UNL A   1      38.211  32.407  37.911  1.00  0.00    -0.203 F 
ATOM     58  F   UNL A   1      40.747  37.232  38.099  1.00  0.00    -0.200 F 
ATOM     59  C   UNL A   1      39.301  35.652  39.092  1.00  0.00     0.200 A 
ATOM     60  F   UNL A   1      37.873  34.032  40.049  1.00  0.00    -0.200 F 
ATOM     61  F   UNL A   1      39.150  36.440  40.165  1.00  0.00    -0.200 F 
ENDBRANCH  27  51
BRANCH  39  62
ATOM     62  C   UNL A   1      43.849  28.672  35.299  1.00  0.00     0.064 A 
ATOM     63  C   UNL A   1      45.184  29.082  35.168  1.00  0.00     0.173 A 
ATOM     64  C   UNL A   1      43.563  27.631  36.194  1.00  0.00     0.173 A 
ATOM     65  F   UNL A   1      45.510  30.061  34.311  1.00  0.00    -0.203 F 
ATOM     66  C   UNL A   1      46.197  28.461  35.895  1.00  0.00     0.198 A 
ATOM     67  C   UNL A   1      44.575  27.030  36.938  1.00  0.00     0.198 A 
ATOM     68  F   UNL A   1      42.302  27.205  36.356  1.00  0.00    -0.203 F 
ATOM     69  F   UNL A   1      47.470  28.841  35.726  1.00  0.00    -0.200 F 
ATOM     70  C   UNL A   1      45.890  27.441  36.784  1.00  0.00     0.200 A 
ATOM     71  F   UNL A   1      44.276  26.052  37.804  1.00  0.00    -0.200 F 
ATOM     72  F   UNL A   1      46.865  26.850  37.488  1.00  0.00    -0.200 F 
ENDBRANCH  39  62
ENDBRANCH  13  14
ENDBRANCH   6   8
ENDBRANCH   3   4
ENDBRANCH   2   3
ENDBRANCH   1   2
BRANCH   1  73
ATOM     73  C   UNL A   1      32.159  29.883  27.150  1.00  0.00     0.002 C 
BRANCH  73  74
ATOM     74  C   UNL A   1      32.363  28.448  26.666  1.00  0.00     0.021 C 
BRANCH  74  75
ATOM     75  C   UNL A   1      33.734  28.108  26.078  1.00  0.00     0.116 C 
BRANCH  75  76
ATOM     76  N   UNL A   1      33.935  28.744  24.778  1.00  0.00    -0.354 N 
ATOM     77  C   UNL A   1      33.421  28.526  23.527  1.00  0.00     0.247 C 
ATOM     78  H   UNL A   1      34.576  29.490  24.809  1.00  0.00     0.163 HD
ATOM     79  O   UNL A   1      33.810  29.325  22.665  1.00  0.00    -0.272 OA
BRANCH  77  80
ATOM     80  C   UNL A   1      32.334  27.445  23.194  1.00  0.00     0.202 C 
BRANCH  80  81
ATOM     81  C   UNL A   1      30.850  27.814  23.372  1.00  0.00    -0.016 A 
ATOM     82  C   UNL A   1      30.282  29.020  22.939  1.00  0.00     0.006 A 
ATOM     83  C   UNL A   1      29.972  26.815  23.852  1.00  0.00     0.006 A 
ATOM     84  C   UNL A   1      28.895  29.159  22.829  1.00  0.00     0.000 A 
ATOM     85  C   UNL A   1      28.588  26.956  23.747  1.00  0.00     0.000 A 
ATOM     86  C   UNL A   1      28.051  28.115  23.200  1.00  0.00     0.000 A 
ENDBRANCH  80  81
BRANCH  80  87
ATOM     87  N   UNL A   1      32.486  26.726  21.924  1.00  0.00    -0.336 N 
ATOM     88  C   UNL A   1      32.918  25.472  21.585  1.00  0.00     0.253 C 
ATOM     89  H   UNL A   1      32.219  27.264  21.143  1.00  0.00     0.165 HD
ATOM     90  O   UNL A   1      33.105  25.276  20.382  1.00  0.00    -0.269 OA
BRANCH  88  91
ATOM     91  C   UNL A   1      33.120  24.329  22.520  1.00  0.00     0.058 A 
ATOM     92  C   UNL A   1      32.386  23.146  22.563  1.00  0.00     0.018 A 
ATOM     93  C   UNL A   1      34.267  24.358  23.312  1.00  0.00     0.126 A 
ATOM     94  C   UNL A   1      32.813  22.062  23.332  1.00  0.00     0.037 A 
ATOM     95  N   UNL A   1      34.720  23.321  24.065  1.00  0.00    -0.249 NA
ATOM     96  C   UNL A   1      33.987  22.189  24.050  1.00  0.00     0.106 A 
ATOM     97  Br  UNL A   1      34.650  20.683  24.986  1.00  0.00    -0.029 Br
ENDBRANCH  88  91
ENDBRANCH  80  87
ENDBRANCH  77  80
ENDBRANCH  75  76
ENDBRANCH  74  75
ENDBRANCH  73  74
ENDBRANCH   1  73
TORSDOF 16
ENDMDL
MODEL 2
REMARK VINA RESULT:     -12.6      5.541     10.929
REMARK SMILES O=C(NCCCCCCNC(=O)[C@H](NC(=O)c1ccc(Br)nc1)c1ccccc1)c1ccc(-c2c3nc(c(-c4c(F)c(F)c(F)c(F)c4F)c4ccc([nH]4)c(-c4c(F)c(F)c(F)c(F)c4F)c4nc(c(-c5c(F)c(F)c(F)c(F)c5F)c5ccc2[nH]5)C=C4)C=C3)cc1
REMARK SMILES IDX 6 1 5 2 4 3 3 4 1 5 2 6 30 8 31 9 92 10 32 11 91 12 33 13
REMARK SMILES IDX 34 14 35 15 85 16 36 17 90 18 84 19 86 20 37 21 89 22 83 23
REMARK SMILES IDX 82 24 38 26 70 27 50 28 69 29 51 30 54 31 68 32 87 33 52 34
REMARK SMILES IDX 53 35 67 37 88 38 55 39 39 40 40 41 48 42 41 43 42 44 46 45
REMARK SMILES IDX 49 46 43 47 44 48 47 49 45 50 71 51 72 52 80 53 73 54 74 55
REMARK SMILES IDX 78 56 81 57 75 58 76 59 79 60 77 61 56 62 57 63 65 64 58 65
REMARK SMILES IDX 59 66 63 67 66 68 60 69 61 70 64 71 62 72 7 73 8 74 9 75
REMARK SMILES IDX 10 76 11 77 12 79 13 80 24 81 25 82 29 83 26 84 28 85 27 86
REMARK SMILES IDX 14 87 15 88 16 90 17 91 18 92 23 93 19 94 22 95 20 96 21 97
REMARK H PARENT 3 7 86 25 54 36 10 78 14 89
REMARK Flexibility Score: inf
ROOT
ATOM      1  C   UNL A   1      36.724  20.605  24.754  1.00  0.00     0.002 C 
ENDROOT
BRANCH   1   2
ATOM      2  C   UNL A   1      37.880  19.623  25.002  1.00  0.00     0.021 C 
BRANCH   2   3
ATOM      3  C   UNL A   1      39.115  20.215  25.683  1.00  0.00     0.116 C 
BRANCH   3   4
ATOM      4  N   UNL A   1      40.129  19.204  25.932  1.00  0.00    -0.352 N 
ATOM      5  O   UNL A   1      42.223  18.379  26.070  1.00  0.00    -0.269 OA
ATOM      6  C   UNL A   1      41.479  19.358  26.127  1.00  0.00     0.251 C 
ATOM      7  H   UNL A   1      39.802  18.277  25.968  1.00  0.00     0.163 HD
BRANCH   6   8
ATOM      8  C   UNL A   1      42.054  20.692  26.396  1.00  0.00     0.039 A 
ATOM      9  C   UNL A   1      42.316  21.584  25.353  1.00  0.00     0.014 A 
ATOM     10  C   UNL A   1      42.252  21.092  27.722  1.00  0.00     0.014 A 
ATOM     11  C   UNL A   1      42.858  22.839  25.626  1.00  0.00     0.010 A 
ATOM     12  C   UNL A   1      42.739  22.373  28.000  1.00  0.00     0.010 A 
ATOM     13  C   UNL A   1      43.053  23.255  26.954  1.00  0.00    -0.014 A 
BRANCH  13  14
ATOM     14  C   UNL A   1      43.484  24.648  27.236  1.00  0.00     0.031 A 
ATOM     15  C   UNL A   1      42.526  25.666  27.785  1.00  0.00     0.074 A 
ATOM     16  C   UNL A   1      44.758  24.995  26.968  1.00  0.00     0.049 A 
ATOM     17  N   UNL A   1      42.734  26.930  28.059  1.00  0.00    -0.248 NA
ATOM     18  C   UNL A   1      41.154  25.211  28.054  1.00  0.00     0.031 C 
ATOM     19  C   UNL A   1      45.772  24.097  26.411  1.00  0.00     0.029 A 
ATOM     20  N   UNL A   1      45.419  26.187  27.124  1.00  0.00    -0.354 N 
ATOM     21  C   UNL A   1      41.520  27.425  28.518  1.00  0.00     0.074 A 
ATOM     22  C   UNL A   1      40.574  26.330  28.467  1.00  0.00     0.031 C 
ATOM     23  C   UNL A   1      46.930  24.763  26.290  1.00  0.00     0.029 A 
ATOM     24  C   UNL A   1      46.727  26.146  26.710  1.00  0.00     0.049 A 
ATOM     25  H   UNL A   1      44.995  26.995  27.497  1.00  0.00     0.167 HD
ATOM     26  C   UNL A   1      41.231  28.677  28.947  1.00  0.00     0.037 A 
ATOM     27  C   UNL A   1      47.657  27.118  26.650  1.00  0.00     0.037 A 
ATOM     28  C   UNL A   1      42.185  29.755  29.014  1.00  0.00     0.049 A 
ATOM     29  C   UNL A   1      47.298  28.502  27.108  1.00  0.00     0.074 A 
ATOM     30  C   UNL A   1      42.004  31.037  29.506  1.00  0.00     0.029 A 
ATOM     31  N   UNL A   1      43.496  29.681  28.568  1.00  0.00    -0.354 N 
ATOM     32  N   UNL A   1      46.165  28.941  27.599  1.00  0.00    -0.248 NA
ATOM     33  C   UNL A   1      48.344  29.528  27.000  1.00  0.00     0.031 C 
ATOM     34  C   UNL A   1      43.189  31.754  29.308  1.00  0.00     0.029 A 
ATOM     35  C   UNL A   1      44.124  30.906  28.738  1.00  0.00     0.049 A 
ATOM     36  H   UNL A   1      43.919  28.877  28.187  1.00  0.00     0.167 HD
ATOM     37  C   UNL A   1      46.363  30.288  27.868  1.00  0.00     0.074 A 
ATOM     38  C   UNL A   1      47.733  30.589  27.507  1.00  0.00     0.031 C 
ATOM     39  C   UNL A   1      45.486  31.192  28.366  1.00  0.00     0.037 A 
BRANCH  26  40
ATOM     40  C   UNL A   1      39.820  28.967  29.367  1.00  0.00     0.064 A 
ATOM     41  C   UNL A   1      38.859  29.431  28.456  1.00  0.00     0.173 A 
ATOM     42  C   UNL A   1      39.406  28.708  30.683  1.00  0.00     0.173 A 
ATOM     43  F   UNL A   1      39.205  29.699  27.188  1.00  0.00    -0.203 F 
ATOM     44  C   UNL A   1      37.540  29.640  28.852  1.00  0.00     0.198 A 
ATOM     45  C   UNL A   1      38.080  28.896  31.068  1.00  0.00     0.198 A 
ATOM     46  F   UNL A   1      40.282  28.254  31.590  1.00  0.00    -0.203 F 
ATOM     47  F   UNL A   1      36.645  30.111  27.973  1.00  0.00    -0.200 F 
ATOM     48  C   UNL A   1      37.150  29.365  30.154  1.00  0.00     0.200 A 
ATOM     49  F   UNL A   1      37.703  28.616  32.323  1.00  0.00    -0.200 F 
ATOM     50  F   UNL A   1      35.877  29.554  30.528  1.00  0.00    -0.200 F 
ENDBRANCH  26  40
BRANCH  27  51
ATOM     51  C   UNL A   1      49.008  26.812  26.116  1.00  0.00     0.064 A 
ATOM     52  C   UNL A   1      50.015  26.301  26.944  1.00  0.00     0.173 A 
ATOM     53  C   UNL A   1      49.316  27.016  24.761  1.00  0.00     0.173 A 
ATOM     54  F   UNL A   1      49.776  26.111  28.250  1.00  0.00    -0.203 F 
ATOM     55  C   UNL A   1      51.283  26.016  26.441  1.00  0.00     0.198 A 
ATOM     56  C   UNL A   1      50.574  26.703  24.254  1.00  0.00     0.198 A 
ATOM     57  F   UNL A   1      48.384  27.502  23.927  1.00  0.00    -0.203 F 
ATOM     58  F   UNL A   1      52.241  25.565  27.263  1.00  0.00    -0.200 F 
ATOM     59  C   UNL A   1      51.558  26.209  25.096  1.00  0.00     0.200 A 
ATOM     60  F   UNL A   1      50.832  26.879  22.951  1.00  0.00    -0.200 F 
ATOM     61  F   UNL A   1      52.776  25.928  24.612  1.00  0.00    -0.200 F 
ENDBRANCH  27  51
BRANCH  39  62
ATOM     62  C   UNL A   1      45.985  32.593  28.558  1.00  0.00     0.064 A 
ATOM     63  C   UNL A   1      46.629  32.984  29.741  1.00  0.00     0.173 A 
ATOM     64  C   UNL A   1      45.851  33.544  27.535  1.00  0.00     0.173 A 
ATOM     65  F   UNL A   1      46.765  32.115  30.754  1.00  0.00    -0.203 F 
ATOM     66  C   UNL A   1      47.105  34.282  29.900  1.00  0.00     0.198 A 
ATOM     67  C   UNL A   1      46.350  34.834  27.688  1.00  0.00     0.198 A 
ATOM     68  F   UNL A   1      45.245  33.218  26.384  1.00  0.00    -0.203 F 
ATOM     69  F   UNL A   1      47.681  34.646  31.054  1.00  0.00    -0.200 F 
ATOM     70  C   UNL A   1      46.972  35.204  28.871  1.00  0.00     0.200 A 
ATOM     71  F   UNL A   1      46.231  35.720  26.690  1.00  0.00    -0.200 F 
ATOM     72  F   UNL A   1      47.437  36.451  29.024  1.00  0.00    -0.200 F 
ENDBRANCH  39  62
ENDBRANCH  13  14
ENDBRANCH   6   8
ENDBRANCH   3   4
ENDBRANCH   2   3
ENDBRANCH   1   2
BRANCH   1  73
ATOM     73  C   UNL A   1      37.117  22.037  24.376  1.00  0.00     0.002 C 
BRANCH  73  74
ATOM     74  C   UNL A   1      35.985  22.892  23.806  1.00  0.00     0.021 C 
BRANCH  74  75
ATOM     75  C   UNL A   1      35.408  23.971  24.723  1.00  0.00     0.116 C 
BRANCH  75  76
ATOM     76  N   UNL A   1      34.326  24.707  24.073  1.00  0.00    -0.354 N 
ATOM     77  C   UNL A   1      33.294  25.481  24.536  1.00  0.00     0.247 C 
ATOM     78  H   UNL A   1      34.342  24.631  23.092  1.00  0.00     0.163 HD
ATOM     79  O   UNL A   1      32.594  25.987  23.649  1.00  0.00    -0.272 OA
BRANCH  77  80
ATOM     80  C   UNL A   1      33.058  25.827  26.048  1.00  0.00     0.202 C 
BRANCH  80  81
ATOM     81  C   UNL A   1      33.053  27.306  26.473  1.00  0.00    -0.016 A 
ATOM     82  C   UNL A   1      34.048  28.229  26.120  1.00  0.00     0.006 A 
ATOM     83  C   UNL A   1      31.899  27.806  27.119  1.00  0.00     0.006 A 
ATOM     84  C   UNL A   1      33.825  29.604  26.249  1.00  0.00     0.000 A 
ATOM     85  C   UNL A   1      31.680  29.178  27.252  1.00  0.00     0.000 A 
ATOM     86  C   UNL A   1      32.630  30.077  26.783  1.00  0.00     0.000 A 
ENDBRANCH  80  81
BRANCH  80  87
ATOM     87  N   UNL A   1      31.942  25.146  26.713  1.00  0.00    -0.336 N 
ATOM     88  C   UNL A   1      31.483  23.857  26.725  1.00  0.00     0.253 C 
ATOM     89  H   UNL A   1      31.405  25.751  27.277  1.00  0.00     0.165 HD
ATOM     90  O   UNL A   1      30.380  23.686  27.249  1.00  0.00    -0.269 OA
BRANCH  88  91
ATOM     91  C   UNL A   1      32.214  22.659  26.222  1.00  0.00     0.058 A 
ATOM     92  C   UNL A   1      33.165  21.912  26.913  1.00  0.00     0.018 A 
ATOM     93  C   UNL A   1      31.779  22.117  25.015  1.00  0.00     0.126 A 
ATOM     94  C   UNL A   1      33.612  20.684  26.420  1.00  0.00     0.037 A 
ATOM     95  N   UNL A   1      32.182  20.921  24.508  1.00  0.00    -0.249 NA
ATOM     96  C   UNL A   1      33.084  20.225  25.229  1.00  0.00     0.106 A 
ATOM     97  Br  UNL A   1      33.576  18.501  24.618  1.00  0.00    -0.029 Br
ENDBRANCH  88  91
ENDBRANCH  80  87
ENDBRANCH  77  80
ENDBRANCH  75  76
ENDBRANCH  74  75
ENDBRANCH  73  74
ENDBRANCH   1  73
TORSDOF 16
ENDMDL
MODEL 3
REMARK VINA RESULT:     -12.5      5.753     11.188
REMARK SMILES O=C(NCCCCCCNC(=O)[C@H](NC(=O)c1ccc(Br)nc1)c1ccccc1)c1ccc(-c2c3nc(c(-c4c(F)c(F)c(F)c(F)c4F)c4ccc([nH]4)c(-c4c(F)c(F)c(F)c(F)c4F)c4nc(c(-c5c(F)c(F)c(F)c(F)c5F)c5ccc2[nH]5)C=C4)C=C3)cc1
REMARK SMILES IDX 6 1 5 2 4 3 3 4 1 5 2 6 30 8 31 9 92 10 32 11 91 12 33 13
REMARK SMILES IDX 34 14 35 15 85 16 36 17 90 18 84 19 86 20 37 21 89 22 83 23
REMARK SMILES IDX 82 24 38 26 70 27 50 28 69 29 51 30 54 31 68 32 87 33 52 34
REMARK SMILES IDX 53 35 67 37 88 38 55 39 39 40 40 41 48 42 41 43 42 44 46 45
REMARK SMILES IDX 49 46 43 47 44 48 47 49 45 50 71 51 72 52 80 53 73 54 74 55
REMARK SMILES IDX 78 56 81 57 75 58 76 59 79 60 77 61 56 62 57 63 65 64 58 65
REMARK SMILES IDX 59 66 63 67 66 68 60 69 61 70 64 71 62 72 7 73 8 74 9 75
REMARK SMILES IDX 10 76 11 77 12 79 13 80 24 81 25 82 29 83 26 84 28 85 27 86
REMARK SMILES IDX 14 87 15 88 16 90 17 91 18 92 23 93 19 94 22 95 20 96 21 97
REMARK H PARENT 3 7 86 25 54 36 10 78 14 89
REMARK Flexibility Score: inf
ROOT
ATOM      1  C   UNL A   1      36.725  20.487  24.901  1.00  0.00     0.002 C 
ENDROOT
BRANCH   1   2
ATOM      2  C   UNL A   1      37.941  19.555  25.018  1.00  0.00     0.021 C 
BRANCH   2   3
ATOM      3  C   UNL A   1      39.144  20.129  25.767  1.00  0.00     0.116 C 
BRANCH   3   4
ATOM      4  N   UNL A   1      40.180  19.130  25.971  1.00  0.00    -0.352 N 
ATOM      5  O   UNL A   1      42.290  18.334  26.034  1.00  0.00    -0.269 OA
ATOM      6  C   UNL A   1      41.533  19.301  26.128  1.00  0.00     0.251 C 
ATOM      7  H   UNL A   1      39.867  18.197  26.001  1.00  0.00     0.163 HD
BRANCH   6   8
ATOM      8  C   UNL A   1      42.097  20.639  26.401  1.00  0.00     0.039 A 
ATOM      9  C   UNL A   1      42.374  21.527  25.358  1.00  0.00     0.014 A 
ATOM     10  C   UNL A   1      42.268  21.047  27.728  1.00  0.00     0.014 A 
ATOM     11  C   UNL A   1      42.905  22.786  25.636  1.00  0.00     0.010 A 
ATOM     12  C   UNL A   1      42.743  22.332  28.009  1.00  0.00     0.010 A 
ATOM     13  C   UNL A   1      43.072  23.210  26.965  1.00  0.00    -0.014 A 
BRANCH  13  14
ATOM     14  C   UNL A   1      43.491  24.606  27.247  1.00  0.00     0.031 A 
ATOM     15  C   UNL A   1      42.520  25.620  27.778  1.00  0.00     0.074 A 
ATOM     16  C   UNL A   1      44.767  24.959  26.997  1.00  0.00     0.049 A 
ATOM     17  N   UNL A   1      42.717  26.887  28.051  1.00  0.00    -0.248 NA
ATOM     18  C   UNL A   1      41.147  25.159  28.029  1.00  0.00     0.031 C 
ATOM     19  C   UNL A   1      45.795  24.065  26.459  1.00  0.00     0.029 A 
ATOM     20  N   UNL A   1      45.419  26.156  27.158  1.00  0.00    -0.354 N 
ATOM     21  C   UNL A   1      41.493  27.376  28.490  1.00  0.00     0.074 A 
ATOM     22  C   UNL A   1      40.554  26.276  28.429  1.00  0.00     0.031 C 
ATOM     23  C   UNL A   1      46.950  24.737  26.352  1.00  0.00     0.029 A 
ATOM     24  C   UNL A   1      46.734  26.121  26.764  1.00  0.00     0.049 A 
ATOM     25  H   UNL A   1      44.985  26.962  27.522  1.00  0.00     0.167 HD
ATOM     26  C   UNL A   1      41.190  28.628  28.909  1.00  0.00     0.037 A 
ATOM     27  C   UNL A   1      47.658  27.098  26.713  1.00  0.00     0.037 A 
ATOM     28  C   UNL A   1      42.138  29.712  28.987  1.00  0.00     0.049 A 
ATOM     29  C   UNL A   1      47.285  28.481  27.161  1.00  0.00     0.074 A 
ATOM     30  C   UNL A   1      41.942  30.995  29.471  1.00  0.00     0.029 A 
ATOM     31  N   UNL A   1      43.455  29.644  28.561  1.00  0.00    -0.354 N 
ATOM     32  N   UNL A   1      46.142  28.916  27.634  1.00  0.00    -0.248 NA
ATOM     33  C   UNL A   1      48.327  29.513  27.065  1.00  0.00     0.031 C 
ATOM     34  C   UNL A   1      43.126  31.718  29.288  1.00  0.00     0.029 A 
ATOM     35  C   UNL A   1      44.074  30.873  28.735  1.00  0.00     0.049 A 
ATOM     36  H   UNL A   1      43.888  28.842  28.189  1.00  0.00     0.167 HD
ATOM     37  C   UNL A   1      46.329  30.264  27.900  1.00  0.00     0.074 A 
ATOM     38  C   UNL A   1      47.702  30.573  27.558  1.00  0.00     0.031 C 
ATOM     39  C   UNL A   1      45.439  31.166  28.382  1.00  0.00     0.037 A 
BRANCH  26  40
ATOM     40  C   UNL A   1      39.772  28.912  29.307  1.00  0.00     0.064 A 
ATOM     41  C   UNL A   1      39.322  28.724  30.623  1.00  0.00     0.173 A 
ATOM     42  C   UNL A   1      38.870  29.451  28.376  1.00  0.00     0.173 A 
ATOM     43  F   UNL A   1      40.143  28.207  31.549  1.00  0.00    -0.203 F 
ATOM     44  C   UNL A   1      38.017  29.048  30.987  1.00  0.00     0.198 A 
ATOM     45  C   UNL A   1      37.573  29.796  28.750  1.00  0.00     0.198 A 
ATOM     46  F   UNL A   1      39.252  29.661  27.109  1.00  0.00    -0.203 F 
ATOM     47  F   UNL A   1      37.600  28.831  32.242  1.00  0.00    -0.200 F 
ATOM     48  C   UNL A   1      37.147  29.590  30.053  1.00  0.00     0.200 A 
ATOM     49  F   UNL A   1      36.738  30.333  27.850  1.00  0.00    -0.200 F 
ATOM     50  F   UNL A   1      35.896  29.913  30.409  1.00  0.00    -0.200 F 
ENDBRANCH  26  40
BRANCH  27  51
ATOM     51  C   UNL A   1      49.019  26.798  26.201  1.00  0.00     0.064 A 
ATOM     52  C   UNL A   1      49.352  27.021  24.858  1.00  0.00     0.173 A 
ATOM     53  C   UNL A   1      50.017  26.290  27.047  1.00  0.00     0.173 A 
ATOM     54  F   UNL A   1      48.426  27.484  24.006  1.00  0.00    -0.203 F 
ATOM     55  C   UNL A   1      50.629  26.737  24.379  1.00  0.00     0.198 A 
ATOM     56  C   UNL A   1      51.301  26.035  26.573  1.00  0.00     0.198 A 
ATOM     57  F   UNL A   1      49.748  26.061  28.341  1.00  0.00    -0.203 F 
ATOM     58  F   UNL A   1      50.911  26.921  23.081  1.00  0.00    -0.200 F 
ATOM     59  C   UNL A   1      51.604  26.252  25.238  1.00  0.00     0.200 A 
ATOM     60  F   UNL A   1      52.243  25.579  27.409  1.00  0.00    -0.200 F 
ATOM     61  F   UNL A   1      52.834  25.986  24.777  1.00  0.00    -0.200 F 
ENDBRANCH  27  51
BRANCH  39  62
ATOM     62  C   UNL A   1      45.928  32.570  28.576  1.00  0.00     0.064 A 
ATOM     63  C   UNL A   1      46.558  32.967  29.764  1.00  0.00     0.173 A 
ATOM     64  C   UNL A   1      45.797  33.518  27.550  1.00  0.00     0.173 A 
ATOM     65  F   UNL A   1      46.689  32.102  30.781  1.00  0.00    -0.203 F 
ATOM     66  C   UNL A   1      47.023  34.269  29.925  1.00  0.00     0.198 A 
ATOM     67  C   UNL A   1      46.287  34.812  27.705  1.00  0.00     0.198 A 
ATOM     68  F   UNL A   1      45.205  33.186  26.393  1.00  0.00    -0.203 F 
ATOM     69  F   UNL A   1      47.586  34.639  31.084  1.00  0.00    -0.200 F 
ATOM     70  C   UNL A   1      46.895  35.188  28.894  1.00  0.00     0.200 A 
ATOM     71  F   UNL A   1      46.172  35.695  26.704  1.00  0.00    -0.200 F 
ATOM     72  F   UNL A   1      47.351  36.438  29.048  1.00  0.00    -0.200 F 
ENDBRANCH  39  62
ENDBRANCH  13  14
ENDBRANCH   6   8
ENDBRANCH   3   4
ENDBRANCH   2   3
ENDBRANCH   1   2
BRANCH   1  73
ATOM     73  C   UNL A   1      36.970  21.843  24.232  1.00  0.00     0.002 C 
BRANCH  73  74
ATOM     74  C   UNL A   1      37.174  23.015  25.193  1.00  0.00     0.021 C 
BRANCH  74  75
ATOM     75  C   UNL A   1      35.914  23.737  25.675  1.00  0.00     0.116 C 
BRANCH  75  76
ATOM     76  N   UNL A   1      35.349  23.099  26.861  1.00  0.00    -0.354 N 
ATOM     77  C   UNL A   1      34.134  22.531  27.145  1.00  0.00     0.247 C 
ATOM     78  H   UNL A   1      35.976  23.069  27.619  1.00  0.00     0.163 HD
ATOM     79  O   UNL A   1      34.048  22.041  28.278  1.00  0.00    -0.272 OA
BRANCH  77  80
ATOM     80  C   UNL A   1      32.966  22.381  26.109  1.00  0.00     0.202 C 
BRANCH  80  81
ATOM     81  C   UNL A   1      32.966  21.162  25.170  1.00  0.00    -0.016 A 
ATOM     82  C   UNL A   1      33.156  19.840  25.597  1.00  0.00     0.006 A 
ATOM     83  C   UNL A   1      32.590  21.363  23.822  1.00  0.00     0.006 A 
ATOM     84  C   UNL A   1      32.820  18.765  24.768  1.00  0.00     0.000 A 
ATOM     85  C   UNL A   1      32.261  20.290  22.993  1.00  0.00     0.000 A 
ATOM     86  C   UNL A   1      32.341  18.991  23.481  1.00  0.00     0.000 A 
ENDBRANCH  80  81
BRANCH  80  87
ATOM     87  N   UNL A   1      31.604  22.577  26.618  1.00  0.00    -0.336 N 
ATOM     88  C   UNL A   1      30.683  23.585  26.512  1.00  0.00     0.253 C 
ATOM     89  H   UNL A   1      31.281  21.816  27.155  1.00  0.00     0.165 HD
ATOM     90  O   UNL A   1      29.700  23.491  27.251  1.00  0.00    -0.269 OA
BRANCH  88  91
ATOM     91  C   UNL A   1      30.736  24.728  25.558  1.00  0.00     0.058 A 
ATOM     92  C   UNL A   1      30.646  24.660  24.169  1.00  0.00     0.018 A 
ATOM     93  C   UNL A   1      30.689  26.009  26.106  1.00  0.00     0.126 A 
ATOM     94  C   UNL A   1      30.485  25.815  23.402  1.00  0.00     0.037 A 
ATOM     95  N   UNL A   1      30.522  27.155  25.393  1.00  0.00    -0.249 NA
ATOM     96  C   UNL A   1      30.412  27.031  24.055  1.00  0.00     0.106 A 
ATOM     97  Br  UNL A   1      30.055  28.590  23.041  1.00  0.00    -0.029 Br
ENDBRANCH  88  91
ENDBRANCH  80  87
ENDBRANCH  77  80
ENDBRANCH  75  76
ENDBRANCH  74  75
ENDBRANCH  73  74
ENDBRANCH   1  73
TORSDOF 16
ENDMDL
