MODEL 1
REMARK VINA RESULT:     -13.9      0.000      0.000
REMARK SMILES Cc1cc(F)ccc1NC(=O)[C@H]1CC=CC[C@@H]1C(=O)NCCCCCCNC(=O)c1ccc(-c2c3nc(c(-c4c(F)c(F)c(F)c(F)c4F)c4ccc([nH]4)c(-c4c(F)c(F)c(F)c(F)c4F)c4nc(c(-c5c(F)c(F)c(F)c(F)c5F)c5ccc2[nH]5)C=C4)C=C3)cc1
REMARK SMILES IDX 23 1 22 2 21 3 20 4 18 5 19 6 17 8 12 9 13 10 14 11 16 12
REMARK SMILES IDX 15 13 10 14 9 15 11 17 8 18 1 19 2 20 3 21 4 22 7 23 5 24
REMARK SMILES IDX 6 25 24 26 25 27 26 28 27 29 28 30 29 32 30 33 31 34 92 35
REMARK SMILES IDX 32 36 91 37 33 38 34 39 35 40 85 41 36 42 90 43 84 44 86 45
REMARK SMILES IDX 37 46 89 47 83 48 82 49 38 51 70 52 50 53 69 54 51 55 54 56
REMARK SMILES IDX 68 57 87 58 52 59 53 60 67 62 88 63 55 64 39 65 40 66 48 67
REMARK SMILES IDX 41 68 42 69 46 70 49 71 43 72 44 73 47 74 45 75 71 76 72 77
REMARK SMILES IDX 80 78 73 79 74 80 78 81 81 82 75 83 76 84 79 85 77 86 56 87
REMARK SMILES IDX 57 88 65 89 58 90 59 91 63 92 66 93 60 94 61 95 64 96 62 97
REMARK H PARENT 20 7 9 16 27 31 86 50 54 61
REMARK Flexibility Score: inf
ROOT
ATOM      1  C   UNL A   1      35.446  21.280  25.268  1.00  0.00     0.002 C 
ENDROOT
BRANCH   1   2
ATOM      2  C   UNL A   1      34.588  20.158  24.708  1.00  0.00     0.021 C 
BRANCH   2   3
ATOM      3  C   UNL A   1      33.199  19.879  25.351  1.00  0.00     0.116 C 
BRANCH   3   4
ATOM      4  N   UNL A   1      32.480  20.975  26.033  1.00  0.00    -0.356 N 
ATOM      5  C   UNL A   1      31.622  21.913  25.451  1.00  0.00     0.224 C 
ATOM      6  O   UNL A   1      30.481  22.009  25.909  1.00  0.00    -0.275 OA
ATOM      7  H   UNL A   1      32.620  21.054  27.004  1.00  0.00     0.163 HD
BRANCH   5   8
ATOM      8  C   UNL A   1      32.170  23.001  24.491  1.00  0.00     0.095 C 
ATOM      9  C   UNL A   1      33.302  23.992  24.781  1.00  0.00     0.095 C 
ATOM     10  C   UNL A   1      33.105  24.534  26.205  1.00  0.00     0.041 C 
ATOM     11  C   UNL A   1      31.818  25.291  26.191  1.00  0.00    -0.030 C 
ATOM     12  C   UNL A   1      31.068  23.911  24.174  1.00  0.00     0.041 C 
ATOM     13  C   UNL A   1      30.935  25.068  25.203  1.00  0.00    -0.030 C 
BRANCH   9  14
ATOM     14  C   UNL A   1      33.525  25.293  23.798  1.00  0.00     0.228 C 
ATOM     15  N   UNL A   1      33.495  26.679  23.875  1.00  0.00    -0.326 N 
ATOM     16  H   UNL A   1      33.851  26.970  23.005  1.00  0.00     0.169 HD
ATOM     17  O   UNL A   1      33.909  24.953  22.651  1.00  0.00    -0.274 OA
BRANCH  15  18
ATOM     18  C   UNL A   1      33.209  27.943  24.579  1.00  0.00     0.044 A 
ATOM     19  C   UNL A   1      31.174  28.423  23.033  1.00  0.00     0.047 C 
ATOM     20  C   UNL A   1      31.996  28.623  24.281  1.00  0.00    -0.025 A 
ATOM     21  C   UNL A   1      31.523  29.700  25.099  1.00  0.00     0.044 A 
ATOM     22  C   UNL A   1      32.237  30.165  26.185  1.00  0.00     0.123 A 
ATOM     23  C   UNL A   1      33.941  28.618  25.581  1.00  0.00     0.029 A 
ATOM     24  F   UNL A   1      31.777  31.160  26.948  1.00  0.00    -0.207 F 
ATOM     25  C   UNL A   1      33.476  29.650  26.411  1.00  0.00     0.041 A 
ENDBRANCH  15  18
ENDBRANCH   9  14
ENDBRANCH   5   8
ENDBRANCH   3   4
ENDBRANCH   2   3
ENDBRANCH   1   2
BRANCH   1  26
ATOM     26  C   UNL A   1      36.488  21.810  24.297  1.00  0.00     0.002 C 
BRANCH  26  27
ATOM     27  C   UNL A   1      36.863  23.289  24.489  1.00  0.00     0.021 C 
BRANCH  27  28
ATOM     28  C   UNL A   1      37.067  23.678  25.948  1.00  0.00     0.116 C 
BRANCH  28  29
ATOM     29  N   UNL A   1      38.205  22.950  26.494  1.00  0.00    -0.352 N 
ATOM     30  C   UNL A   1      39.437  23.402  26.872  1.00  0.00     0.251 C 
ATOM     31  H   UNL A   1      38.065  21.982  26.606  1.00  0.00     0.163 HD
ATOM     32  O   UNL A   1      40.379  22.626  26.954  1.00  0.00    -0.269 OA
BRANCH  30  33
ATOM     33  C   UNL A   1      39.607  24.810  27.251  1.00  0.00     0.039 A 
ATOM     34  C   UNL A   1      40.186  25.713  26.345  1.00  0.00     0.014 A 
ATOM     35  C   UNL A   1      39.312  25.187  28.558  1.00  0.00     0.014 A 
ATOM     36  C   UNL A   1      40.460  27.016  26.750  1.00  0.00     0.010 A 
ATOM     37  C   UNL A   1      39.545  26.479  28.947  1.00  0.00     0.010 A 
ATOM     38  C   UNL A   1      40.143  27.381  28.055  1.00  0.00    -0.014 A 
BRANCH  38  39
ATOM     39  C   UNL A   1      40.369  28.688  28.641  1.00  0.00     0.031 A 
ATOM     40  C   UNL A   1      39.268  29.663  28.733  1.00  0.00     0.074 A 
ATOM     41  C   UNL A   1      41.473  28.786  29.410  1.00  0.00     0.049 A 
ATOM     42  N   UNL A   1      39.413  30.872  29.150  1.00  0.00    -0.248 NA
ATOM     43  C   UNL A   1      37.892  29.348  28.359  1.00  0.00     0.031 C 
ATOM     44  C   UNL A   1      41.698  29.659  30.553  1.00  0.00     0.029 A 
ATOM     45  N   UNL A   1      42.700  28.128  29.228  1.00  0.00    -0.354 N 
ATOM     46  C   UNL A   1      38.158  31.382  29.395  1.00  0.00     0.074 A 
ATOM     47  C   UNL A   1      37.242  30.431  28.805  1.00  0.00     0.031 C 
ATOM     48  C   UNL A   1      43.017  29.710  30.807  1.00  0.00     0.029 A 
ATOM     49  C   UNL A   1      43.676  29.029  29.705  1.00  0.00     0.049 A 
ATOM     50  H   UNL A   1      42.846  27.231  28.849  1.00  0.00     0.167 HD
ATOM     51  C   UNL A   1      38.039  32.473  30.204  1.00  0.00     0.037 A 
ATOM     52  C   UNL A   1      44.534  29.637  28.831  1.00  0.00     0.037 A 
ATOM     53  C   UNL A   1      39.352  32.927  30.652  1.00  0.00     0.049 A 
ATOM     54  C   UNL A   1      44.421  31.141  28.848  1.00  0.00     0.074 A 
ATOM     55  C   UNL A   1      40.072  32.678  31.808  1.00  0.00     0.029 A 
ATOM     56  N   UNL A   1      40.248  33.451  29.729  1.00  0.00    -0.354 N 
ATOM     57  N   UNL A   1      43.323  31.785  29.131  1.00  0.00    -0.248 NA
ATOM     58  C   UNL A   1      45.549  32.029  28.597  1.00  0.00     0.031 C 
ATOM     59  C   UNL A   1      41.423  33.022  31.565  1.00  0.00     0.029 A 
ATOM     60  C   UNL A   1      41.517  33.493  30.266  1.00  0.00     0.049 A 
ATOM     61  H   UNL A   1      40.011  33.750  28.821  1.00  0.00     0.167 HD
ATOM     62  C   UNL A   1      43.585  33.131  29.162  1.00  0.00     0.074 A 
ATOM     63  C   UNL A   1      44.987  33.233  28.803  1.00  0.00     0.031 C 
ATOM     64  C   UNL A   1      42.632  34.045  29.520  1.00  0.00     0.037 A 
BRANCH  51  65
ATOM     65  C   UNL A   1      36.748  32.957  30.818  1.00  0.00     0.064 A 
ATOM     66  C   UNL A   1      35.843  33.751  30.076  1.00  0.00     0.173 A 
ATOM     67  C   UNL A   1      36.347  32.681  32.137  1.00  0.00     0.173 A 
ATOM     68  F   UNL A   1      36.055  34.040  28.785  1.00  0.00    -0.203 F 
ATOM     69  C   UNL A   1      34.683  34.293  30.632  1.00  0.00     0.198 A 
ATOM     70  C   UNL A   1      35.205  33.258  32.707  1.00  0.00     0.198 A 
ATOM     71  F   UNL A   1      37.024  31.812  32.899  1.00  0.00    -0.203 F 
ATOM     72  F   UNL A   1      33.870  35.044  29.874  1.00  0.00    -0.200 F 
ATOM     73  C   UNL A   1      34.377  34.069  31.956  1.00  0.00     0.200 A 
ATOM     74  F   UNL A   1      34.912  33.021  33.994  1.00  0.00    -0.200 F 
ATOM     75  F   UNL A   1      33.281  34.615  32.501  1.00  0.00    -0.200 F 
ENDBRANCH  51  65
BRANCH  52  76
ATOM     76  C   UNL A   1      44.792  28.803  27.623  1.00  0.00     0.064 A 
ATOM     77  C   UNL A   1      45.623  27.675  27.777  1.00  0.00     0.173 A 
ATOM     78  C   UNL A   1      43.902  28.809  26.539  1.00  0.00     0.173 A 
ATOM     79  F   UNL A   1      46.489  27.619  28.802  1.00  0.00    -0.203 F 
ATOM     80  C   UNL A   1      45.467  26.547  26.974  1.00  0.00     0.198 A 
ATOM     81  C   UNL A   1      43.754  27.677  25.733  1.00  0.00     0.198 A 
ATOM     82  F   UNL A   1      43.086  29.853  26.337  1.00  0.00    -0.203 F 
ATOM     83  F   UNL A   1      46.184  25.442  27.227  1.00  0.00    -0.200 F 
ATOM     84  C   UNL A   1      44.508  26.537  25.974  1.00  0.00     0.200 A 
ATOM     85  F   UNL A   1      42.818  27.660  24.772  1.00  0.00    -0.200 F 
ATOM     86  F   UNL A   1      44.287  25.420  25.269  1.00  0.00    -0.200 F 
ENDBRANCH  52  76
BRANCH  64  87
ATOM     87  C   UNL A   1      42.697  35.546  29.343  1.00  0.00     0.064 A 
ATOM     88  C   UNL A   1      43.477  36.398  30.139  1.00  0.00     0.173 A 
ATOM     89  C   UNL A   1      42.070  36.167  28.231  1.00  0.00     0.173 A 
ATOM     90  F   UNL A   1      44.228  35.925  31.141  1.00  0.00    -0.203 F 
ATOM     91  C   UNL A   1      43.565  37.770  29.889  1.00  0.00     0.198 A 
ATOM     92  C   UNL A   1      42.212  37.524  27.947  1.00  0.00     0.198 A 
ATOM     93  F   UNL A   1      41.324  35.475  27.356  1.00  0.00    -0.203 F 
ATOM     94  F   UNL A   1      44.287  38.546  30.709  1.00  0.00    -0.200 F 
ATOM     95  C   UNL A   1      42.944  38.331  28.789  1.00  0.00     0.200 A 
ATOM     96  F   UNL A   1      41.652  38.035  26.842  1.00  0.00    -0.200 F 
ATOM     97  F   UNL A   1      43.073  39.638  28.527  1.00  0.00    -0.200 F 
ENDBRANCH  64  87
ENDBRANCH  38  39
ENDBRANCH  30  33
ENDBRANCH  28  29
ENDBRANCH  27  28
ENDBRANCH  26  27
ENDBRANCH   1  26
TORSDOF 15
ENDMDL
MODEL 2
REMARK VINA RESULT:     -13.8      3.850      9.937
REMARK SMILES Cc1cc(F)ccc1NC(=O)[C@H]1CC=CC[C@@H]1C(=O)NCCCCCCNC(=O)c1ccc(-c2c3nc(c(-c4c(F)c(F)c(F)c(F)c4F)c4ccc([nH]4)c(-c4c(F)c(F)c(F)c(F)c4F)c4nc(c(-c5c(F)c(F)c(F)c(F)c5F)c5ccc2[nH]5)C=C4)C=C3)cc1
REMARK SMILES IDX 23 1 22 2 21 3 20 4 18 5 19 6 17 8 12 9 13 10 14 11 16 12
REMARK SMILES IDX 15 13 10 14 9 15 11 17 8 18 1 19 2 20 3 21 4 22 7 23 5 24
REMARK SMILES IDX 6 25 24 26 25 27 26 28 27 29 28 30 29 32 30 33 31 34 92 35
REMARK SMILES IDX 32 36 91 37 33 38 34 39 35 40 85 41 36 42 90 43 84 44 86 45
REMARK SMILES IDX 37 46 89 47 83 48 82 49 38 51 70 52 50 53 69 54 51 55 54 56
REMARK SMILES IDX 68 57 87 58 52 59 53 60 67 62 88 63 55 64 39 65 40 66 48 67
REMARK SMILES IDX 41 68 42 69 46 70 49 71 43 72 44 73 47 74 45 75 71 76 72 77
REMARK SMILES IDX 80 78 73 79 74 80 78 81 81 82 75 83 76 84 79 85 77 86 56 87
REMARK SMILES IDX 57 88 65 89 58 90 59 91 63 92 66 93 60 94 61 95 64 96 62 97
REMARK H PARENT 20 7 9 16 27 31 86 50 54 61
REMARK Flexibility Score: inf
ROOT
ATOM      1  C   UNL A   1      31.901  29.511  24.942  1.00  0.00     0.002 C 
ENDROOT
BRANCH   1   2
ATOM      2  C   UNL A   1      30.567  29.717  24.244  1.00  0.00     0.021 C 
BRANCH   2   3
ATOM      3  C   UNL A   1      30.371  29.147  22.809  1.00  0.00     0.116 C 
BRANCH   3   4
ATOM      4  N   UNL A   1      31.371  28.209  22.257  1.00  0.00    -0.356 N 
ATOM      5  C   UNL A   1      31.293  26.813  22.226  1.00  0.00     0.224 C 
ATOM      6  O   UNL A   1      31.404  26.256  21.132  1.00  0.00    -0.275 OA
ATOM      7  H   UNL A   1      32.181  28.610  21.868  1.00  0.00     0.163 HD
BRANCH   5   8
ATOM      8  C   UNL A   1      31.381  25.984  23.534  1.00  0.00     0.095 C 
ATOM      9  C   UNL A   1      32.487  26.061  24.594  1.00  0.00     0.095 C 
ATOM     10  C   UNL A   1      33.838  26.126  23.866  1.00  0.00     0.041 C 
ATOM     11  C   UNL A   1      33.983  24.831  23.136  1.00  0.00    -0.030 C 
ATOM     12  C   UNL A   1      31.441  24.570  23.162  1.00  0.00     0.041 C 
ATOM     13  C   UNL A   1      32.892  24.081  22.905  1.00  0.00    -0.030 C 
BRANCH   9  14
ATOM     14  C   UNL A   1      32.611  24.882  25.735  1.00  0.00     0.228 C 
ATOM     15  N   UNL A   1      33.524  23.922  26.152  1.00  0.00    -0.326 N 
ATOM     16  H   UNL A   1      33.134  23.576  26.987  1.00  0.00     0.169 HD
ATOM     17  O   UNL A   1      31.630  24.885  26.520  1.00  0.00    -0.274 OA
BRANCH  15  18
ATOM     18  C   UNL A   1      34.770  23.149  25.996  1.00  0.00     0.044 A 
ATOM     19  C   UNL A   1      33.443  20.928  25.746  1.00  0.00     0.047 C 
ATOM     20  C   UNL A   1      34.676  21.785  25.608  1.00  0.00    -0.025 A 
ATOM     21  C   UNL A   1      35.829  21.048  25.184  1.00  0.00     0.044 A 
ATOM     22  C   UNL A   1      37.093  21.604  25.173  1.00  0.00     0.123 A 
ATOM     23  C   UNL A   1      36.118  23.552  26.130  1.00  0.00     0.029 A 
ATOM     24  F   UNL A   1      38.157  20.910  24.760  1.00  0.00    -0.207 F 
ATOM     25  C   UNL A   1      37.252  22.854  25.687  1.00  0.00     0.041 A 
ENDBRANCH  15  18
ENDBRANCH   9  14
ENDBRANCH   5   8
ENDBRANCH   3   4
ENDBRANCH   2   3
ENDBRANCH   1   2
BRANCH   1  26
ATOM     26  C   UNL A   1      31.832  29.607  26.456  1.00  0.00     0.002 C 
BRANCH  26  27
ATOM     27  C   UNL A   1      32.784  28.665  27.212  1.00  0.00     0.021 C 
BRANCH  27  28
ATOM     28  C   UNL A   1      34.238  28.794  26.775  1.00  0.00     0.116 C 
BRANCH  28  29
ATOM     29  N   UNL A   1      34.657  30.186  26.876  1.00  0.00    -0.352 N 
ATOM     30  C   UNL A   1      35.646  30.752  27.629  1.00  0.00     0.251 C 
ATOM     31  H   UNL A   1      34.148  30.816  26.316  1.00  0.00     0.163 HD
ATOM     32  O   UNL A   1      35.622  31.950  27.876  1.00  0.00    -0.269 OA
BRANCH  30  33
ATOM     33  C   UNL A   1      36.776  29.929  28.076  1.00  0.00     0.039 A 
ATOM     34  C   UNL A   1      36.749  29.336  29.349  1.00  0.00     0.014 A 
ATOM     35  C   UNL A   1      37.914  29.870  27.276  1.00  0.00     0.014 A 
ATOM     36  C   UNL A   1      37.872  28.661  29.820  1.00  0.00     0.010 A 
ATOM     37  C   UNL A   1      39.006  29.175  27.721  1.00  0.00     0.010 A 
ATOM     38  C   UNL A   1      38.994  28.597  29.000  1.00  0.00    -0.014 A 
BRANCH  38  39
ATOM     39  C   UNL A   1      40.245  27.947  29.336  1.00  0.00     0.031 A 
ATOM     40  C   UNL A   1      40.560  26.612  28.794  1.00  0.00     0.074 A 
ATOM     41  C   UNL A   1      41.205  28.765  29.815  1.00  0.00     0.049 A 
ATOM     42  N   UNL A   1      41.601  25.932  29.122  1.00  0.00    -0.248 NA
ATOM     43  C   UNL A   1      39.713  25.929  27.820  1.00  0.00     0.031 C 
ATOM     44  C   UNL A   1      42.649  28.622  29.699  1.00  0.00     0.029 A 
ATOM     45  N   UNL A   1      41.032  29.905  30.616  1.00  0.00    -0.354 N 
ATOM     46  C   UNL A   1      41.734  24.908  28.213  1.00  0.00     0.074 A 
ATOM     47  C   UNL A   1      40.490  24.893  27.477  1.00  0.00     0.031 C 
ATOM     48  C   UNL A   1      43.238  29.428  30.598  1.00  0.00     0.029 A 
ATOM     49  C   UNL A   1      42.177  29.954  31.440  1.00  0.00     0.049 A 
ATOM     50  H   UNL A   1      40.274  30.534  30.604  1.00  0.00     0.167 HD
ATOM     51  C   UNL A   1      42.944  24.291  28.089  1.00  0.00     0.037 A 
ATOM     52  C   UNL A   1      42.068  29.707  32.780  1.00  0.00     0.037 A 
ATOM     53  C   UNL A   1      43.908  24.859  29.025  1.00  0.00     0.049 A 
ATOM     54  C   UNL A   1      42.891  28.526  33.228  1.00  0.00     0.074 A 
ATOM     55  C   UNL A   1      44.872  25.843  28.879  1.00  0.00     0.029 A 
ATOM     56  N   UNL A   1      43.725  24.681  30.390  1.00  0.00    -0.354 N 
ATOM     57  N   UNL A   1      43.171  27.503  32.467  1.00  0.00    -0.248 NA
ATOM     58  C   UNL A   1      43.500  28.431  34.549  1.00  0.00     0.031 C 
ATOM     59  C   UNL A   1      45.245  26.286  30.169  1.00  0.00     0.029 A 
ATOM     60  C   UNL A   1      44.518  25.560  31.097  1.00  0.00     0.049 A 
ATOM     61  H   UNL A   1      43.117  24.021  30.795  1.00  0.00     0.167 HD
ATOM     62  C   UNL A   1      44.020  26.660  33.139  1.00  0.00     0.074 A 
ATOM     63  C   UNL A   1      44.181  27.276  34.443  1.00  0.00     0.031 C 
ATOM     64  C   UNL A   1      44.548  25.546  32.548  1.00  0.00     0.037 A 
BRANCH  51  65
ATOM     65  C   UNL A   1      43.340  23.387  26.947  1.00  0.00     0.064 A 
ATOM     66  C   UNL A   1      42.943  22.030  26.924  1.00  0.00     0.173 A 
ATOM     67  C   UNL A   1      44.119  23.794  25.849  1.00  0.00     0.173 A 
ATOM     68  F   UNL A   1      42.142  21.514  27.865  1.00  0.00    -0.203 F 
ATOM     69  C   UNL A   1      43.361  21.138  25.934  1.00  0.00     0.198 A 
ATOM     70  C   UNL A   1      44.573  22.890  24.880  1.00  0.00     0.198 A 
ATOM     71  F   UNL A   1      44.428  25.082  25.660  1.00  0.00    -0.203 F 
ATOM     72  F   UNL A   1      42.953  19.861  25.974  1.00  0.00    -0.200 F 
ATOM     73  C   UNL A   1      44.199  21.562  24.926  1.00  0.00     0.200 A 
ATOM     74  F   UNL A   1      45.378  23.319  23.896  1.00  0.00    -0.200 F 
ATOM     75  F   UNL A   1      44.628  20.699  23.994  1.00  0.00    -0.200 F 
ENDBRANCH  51  65
BRANCH  52  76
ATOM     76  C   UNL A   1      40.727  30.080  33.314  1.00  0.00     0.064 A 
ATOM     77  C   UNL A   1      40.436  31.453  33.438  1.00  0.00     0.173 A 
ATOM     78  C   UNL A   1      39.645  29.192  33.229  1.00  0.00     0.173 A 
ATOM     79  F   UNL A   1      41.438  32.344  33.518  1.00  0.00    -0.203 F 
ATOM     80  C   UNL A   1      39.129  31.927  33.332  1.00  0.00     0.198 A 
ATOM     81  C   UNL A   1      38.336  29.672  33.130  1.00  0.00     0.198 A 
ATOM     82  F   UNL A   1      39.856  27.874  33.112  1.00  0.00    -0.203 F 
ATOM     83  F   UNL A   1      38.896  33.248  33.325  1.00  0.00    -0.200 F 
ATOM     84  C   UNL A   1      38.085  31.038  33.143  1.00  0.00     0.200 A 
ATOM     85  F   UNL A   1      37.324  28.815  32.934  1.00  0.00    -0.200 F 
ATOM     86  F   UNL A   1      36.842  31.496  32.939  1.00  0.00    -0.200 F 
ENDBRANCH  52  76
BRANCH  64  87
ATOM     87  C   UNL A   1      45.267  24.405  33.233  1.00  0.00     0.064 A 
ATOM     88  C   UNL A   1      46.595  24.468  33.680  1.00  0.00     0.173 A 
ATOM     89  C   UNL A   1      44.561  23.231  33.607  1.00  0.00     0.173 A 
ATOM     90  F   UNL A   1      47.337  25.570  33.514  1.00  0.00    -0.203 F 
ATOM     91  C   UNL A   1      47.193  23.414  34.378  1.00  0.00     0.198 A 
ATOM     92  C   UNL A   1      45.140  22.210  34.358  1.00  0.00     0.198 A 
ATOM     93  F   UNL A   1      43.271  23.044  33.287  1.00  0.00    -0.203 F 
ATOM     94  F   UNL A   1      48.479  23.508  34.740  1.00  0.00    -0.200 F 
ATOM     95  C   UNL A   1      46.464  22.293  34.727  1.00  0.00     0.200 A 
ATOM     96  F   UNL A   1      44.399  21.161  34.738  1.00  0.00    -0.200 F 
ATOM     97  F   UNL A   1      47.029  21.309  35.438  1.00  0.00    -0.200 F 
ENDBRANCH  64  87
ENDBRANCH  38  39
ENDBRANCH  30  33
ENDBRANCH  28  29
ENDBRANCH  27  28
ENDBRANCH  26  27
ENDBRANCH   1  26
TORSDOF 15
ENDMDL
MODEL 3
REMARK VINA RESULT:     -13.6      3.853      9.993
REMARK SMILES Cc1cc(F)ccc1NC(=O)[C@H]1CC=CC[C@@H]1C(=O)NCCCCCCNC(=O)c1ccc(-c2c3nc(c(-c4c(F)c(F)c(F)c(F)c4F)c4ccc([nH]4)c(-c4c(F)c(F)c(F)c(F)c4F)c4nc(c(-c5c(F)c(F)c(F)c(F)c5F)c5ccc2[nH]5)C=C4)C=C3)cc1
REMARK SMILES IDX 23 1 22 2 21 3 20 4 18 5 19 6 17 8 12 9 13 10 14 11 16 12
REMARK SMILES IDX 15 13 10 14 9 15 11 17 8 18 1 19 2 20 3 21 4 22 7 23 5 24
REMARK SMILES IDX 6 25 24 26 25 27 26 28 27 29 28 30 29 32 30 33 31 34 92 35
REMARK SMILES IDX 32 36 91 37 33 38 34 39 35 40 85 41 36 42 90 43 84 44 86 45
REMARK SMILES IDX 37 46 89 47 83 48 82 49 38 51 70 52 50 53 69 54 51 55 54 56
REMARK SMILES IDX 68 57 87 58 52 59 53 60 67 62 88 63 55 64 39 65 40 66 48 67
REMARK SMILES IDX 41 68 42 69 46 70 49 71 43 72 44 73 47 74 45 75 71 76 72 77
REMARK SMILES IDX 80 78 73 79 74 80 78 81 81 82 75 83 76 84 79 85 77 86 56 87
REMARK SMILES IDX 57 88 65 89 58 90 59 91 63 92 66 93 60 94 61 95 64 96 62 97
REMARK H PARENT 20 7 9 16 27 31 86 50 54 61
REMARK Flexibility Score: inf
ROOT
ATOM      1  C   UNL A   1      31.768  28.406  25.023  1.00  0.00     0.002 C 
ENDROOT
BRANCH   1   2
ATOM      2  C   UNL A   1      30.646  27.683  24.300  1.00  0.00     0.021 C 
BRANCH   2   3
ATOM      3  C   UNL A   1      30.996  26.760  23.097  1.00  0.00     0.116 C 
BRANCH   3   4
ATOM      4  N   UNL A   1      32.405  26.392  22.849  1.00  0.00    -0.356 N 
ATOM      5  C   UNL A   1      32.899  25.138  22.476  1.00  0.00     0.224 C 
ATOM      6  O   UNL A   1      33.579  25.071  21.450  1.00  0.00    -0.275 OA
ATOM      7  H   UNL A   1      33.071  27.109  22.959  1.00  0.00     0.163 HD
BRANCH   5   8
ATOM      8  C   UNL A   1      32.863  23.945  23.466  1.00  0.00     0.095 C 
ATOM      9  C   UNL A   1      32.684  24.022  24.987  1.00  0.00     0.095 C 
ATOM     10  C   UNL A   1      33.558  25.172  25.509  1.00  0.00     0.041 C 
ATOM     11  C   UNL A   1      34.973  24.786  25.227  1.00  0.00    -0.030 C 
ATOM     12  C   UNL A   1      34.143  23.243  23.365  1.00  0.00     0.041 C 
ATOM     13  C   UNL A   1      35.224  23.833  24.312  1.00  0.00    -0.030 C 
BRANCH   9  14
ATOM     14  C   UNL A   1      33.014  22.706  25.918  1.00  0.00     0.228 C 
ATOM     15  N   UNL A   1      33.309  21.359  25.759  1.00  0.00    -0.326 N 
ATOM     16  H   UNL A   1      33.560  21.066  26.664  1.00  0.00     0.169 HD
ATOM     17  O   UNL A   1      33.101  23.005  27.136  1.00  0.00    -0.274 OA
BRANCH  15  18
ATOM     18  C   UNL A   1      33.443  20.138  24.942  1.00  0.00     0.044 A 
ATOM     19  C   UNL A   1      36.038  20.262  25.060  1.00  0.00     0.047 C 
ATOM     20  C   UNL A   1      34.732  19.551  24.810  1.00  0.00    -0.025 A 
ATOM     21  C   UNL A   1      34.902  18.238  24.263  1.00  0.00     0.044 A 
ATOM     22  C   UNL A   1      33.837  17.496  23.793  1.00  0.00     0.123 A 
ATOM     23  C   UNL A   1      32.464  19.381  24.262  1.00  0.00     0.029 A 
ATOM     24  F   UNL A   1      34.008  16.266  23.299  1.00  0.00    -0.207 F 
ATOM     25  C   UNL A   1      32.610  18.081  23.753  1.00  0.00     0.041 A 
ENDBRANCH  15  18
ENDBRANCH   9  14
ENDBRANCH   5   8
ENDBRANCH   3   4
ENDBRANCH   2   3
ENDBRANCH   1   2
BRANCH   1  26
ATOM     26  C   UNL A   1      31.623  28.426  26.535  1.00  0.00     0.002 C 
BRANCH  26  27
ATOM     27  C   UNL A   1      32.947  28.417  27.317  1.00  0.00     0.021 C 
BRANCH  27  28
ATOM     28  C   UNL A   1      34.141  28.882  26.491  1.00  0.00     0.116 C 
BRANCH  28  29
ATOM     29  N   UNL A   1      34.424  30.280  26.786  1.00  0.00    -0.352 N 
ATOM     30  C   UNL A   1      35.300  30.829  27.680  1.00  0.00     0.251 C 
ATOM     31  H   UNL A   1      33.905  30.931  26.260  1.00  0.00     0.163 HD
ATOM     32  O   UNL A   1      35.149  31.982  28.059  1.00  0.00    -0.269 OA
BRANCH  30  33
ATOM     33  C   UNL A   1      36.462  30.052  28.125  1.00  0.00     0.039 A 
ATOM     34  C   UNL A   1      36.448  29.432  29.384  1.00  0.00     0.014 A 
ATOM     35  C   UNL A   1      37.611  30.064  27.339  1.00  0.00     0.014 A 
ATOM     36  C   UNL A   1      37.595  28.802  29.856  1.00  0.00     0.010 A 
ATOM     37  C   UNL A   1      38.730  29.413  27.784  1.00  0.00     0.010 A 
ATOM     38  C   UNL A   1      38.730  28.809  29.050  1.00  0.00    -0.014 A 
BRANCH  38  39
ATOM     39  C   UNL A   1      40.006  28.211  29.390  1.00  0.00     0.031 A 
ATOM     40  C   UNL A   1      40.366  26.878  28.873  1.00  0.00     0.074 A 
ATOM     41  C   UNL A   1      40.939  29.074  29.843  1.00  0.00     0.049 A 
ATOM     42  N   UNL A   1      41.434  26.244  29.207  1.00  0.00    -0.248 NA
ATOM     43  C   UNL A   1      39.537  26.144  27.921  1.00  0.00     0.031 C 
ATOM     44  C   UNL A   1      42.387  28.981  29.718  1.00  0.00     0.029 A 
ATOM     45  N   UNL A   1      40.730  30.224  30.621  1.00  0.00    -0.354 N 
ATOM     46  C   UNL A   1      41.597  25.205  28.319  1.00  0.00     0.074 A 
ATOM     47  C   UNL A   1      40.348  25.129  27.594  1.00  0.00     0.031 C 
ATOM     48  C   UNL A   1      42.953  29.828  30.594  1.00  0.00     0.029 A 
ATOM     49  C   UNL A   1      41.879  30.333  31.433  1.00  0.00     0.049 A 
ATOM     50  H   UNL A   1      39.950  30.825  30.602  1.00  0.00     0.167 HD
ATOM     51  C   UNL A   1      42.828  24.631  28.198  1.00  0.00     0.037 A 
ATOM     52  C   UNL A   1      41.790  30.111  32.780  1.00  0.00     0.037 A 
ATOM     53  C   UNL A   1      43.778  25.254  29.113  1.00  0.00     0.049 A 
ATOM     54  C   UNL A   1      42.659  28.971  33.246  1.00  0.00     0.074 A 
ATOM     55  C   UNL A   1      44.704  26.268  28.938  1.00  0.00     0.029 A 
ATOM     56  N   UNL A   1      43.611  25.098  30.484  1.00  0.00    -0.354 N 
ATOM     57  N   UNL A   1      42.971  27.943  32.504  1.00  0.00    -0.248 NA
ATOM     58  C   UNL A   1      43.282  28.927  34.563  1.00  0.00     0.031 C 
ATOM     59  C   UNL A   1      45.070  26.753  30.215  1.00  0.00     0.029 A 
ATOM     60  C   UNL A   1      44.377  26.021  31.165  1.00  0.00     0.049 A 
ATOM     61  H   UNL A   1      43.031  24.426  30.908  1.00  0.00     0.167 HD
ATOM     62  C   UNL A   1      43.855  27.146  33.187  1.00  0.00     0.074 A 
ATOM     63  C   UNL A   1      44.003  27.795  34.476  1.00  0.00     0.031 C 
ATOM     64  C   UNL A   1      44.419  26.040  32.616  1.00  0.00     0.037 A 
BRANCH  51  65
ATOM     65  C   UNL A   1      43.248  23.717  27.073  1.00  0.00     0.064 A 
ATOM     66  C   UNL A   1      42.902  22.346  27.082  1.00  0.00     0.173 A 
ATOM     67  C   UNL A   1      44.002  24.128  25.959  1.00  0.00     0.173 A 
ATOM     68  F   UNL A   1      42.129  21.821  28.042  1.00  0.00    -0.203 F 
ATOM     69  C   UNL A   1      43.345  21.449  26.108  1.00  0.00     0.198 A 
ATOM     70  C   UNL A   1      44.481  23.221  25.005  1.00  0.00     0.198 A 
ATOM     71  F   UNL A   1      44.260  25.423  25.738  1.00  0.00    -0.203 F 
ATOM     72  F   UNL A   1      42.986  20.158  26.180  1.00  0.00    -0.200 F 
ATOM     73  C   UNL A   1      44.157  21.881  25.083  1.00  0.00     0.200 A 
ATOM     74  F   UNL A   1      45.260  23.658  24.005  1.00  0.00    -0.200 F 
ATOM     75  F   UNL A   1      44.611  21.015  24.166  1.00  0.00    -0.200 F 
ENDBRANCH  51  65
BRANCH  52  76
ATOM     76  C   UNL A   1      40.440  30.446  33.317  1.00  0.00     0.064 A 
ATOM     77  C   UNL A   1      40.099  31.811  33.412  1.00  0.00     0.173 A 
ATOM     78  C   UNL A   1      39.392  29.518  33.262  1.00  0.00     0.173 A 
ATOM     79  F   UNL A   1      41.068  32.739  33.463  1.00  0.00    -0.203 F 
ATOM     80  C   UNL A   1      38.775  32.233  33.307  1.00  0.00     0.198 A 
ATOM     81  C   UNL A   1      38.065  29.947  33.163  1.00  0.00     0.198 A 
ATOM     82  F   UNL A   1      39.651  28.205  33.173  1.00  0.00    -0.203 F 
ATOM     83  F   UNL A   1      38.493  33.544  33.271  1.00  0.00    -0.200 F 
ATOM     84  C   UNL A   1      37.763  31.301  33.148  1.00  0.00     0.200 A 
ATOM     85  F   UNL A   1      37.084  29.047  32.996  1.00  0.00    -0.200 F 
ATOM     86  F   UNL A   1      36.503  31.709  32.945  1.00  0.00    -0.200 F 
ENDBRANCH  52  76
BRANCH  64  87
ATOM     87  C   UNL A   1      45.184  24.941  33.319  1.00  0.00     0.064 A 
ATOM     88  C   UNL A   1      44.662  23.667  33.587  1.00  0.00     0.173 A 
ATOM     89  C   UNL A   1      46.565  25.099  33.613  1.00  0.00     0.173 A 
ATOM     90  F   UNL A   1      43.412  23.336  33.238  1.00  0.00    -0.203 F 
ATOM     91  C   UNL A   1      45.433  22.657  34.170  1.00  0.00     0.198 A 
ATOM     92  C   UNL A   1      47.347  24.071  34.135  1.00  0.00     0.198 A 
ATOM     93  F   UNL A   1      47.216  26.248  33.373  1.00  0.00    -0.203 F 
ATOM     94  F   UNL A   1      44.870  21.474  34.449  1.00  0.00    -0.200 F 
ATOM     95  C   UNL A   1      46.775  22.854  34.432  1.00  0.00     0.200 A 
ATOM     96  F   UNL A   1      48.660  24.264  34.323  1.00  0.00    -0.200 F 
ATOM     97  F   UNL A   1      47.520  21.867  34.946  1.00  0.00    -0.200 F 
ENDBRANCH  64  87
ENDBRANCH  38  39
ENDBRANCH  30  33
ENDBRANCH  28  29
ENDBRANCH  27  28
ENDBRANCH  26  27
ENDBRANCH   1  26
TORSDOF 15
ENDMDL
