MODEL 1
REMARK VINA RESULT:     -12.9      0.000      0.000
REMARK SMILES Cc1nccn1CCC[NH+]1CCC2(CC1)[C@@H](C(=O)NCCCCCCNC(=O)c1ccc(-c3c4nc(c(-c5c(F)c(F)c(F)c(F)c5F)c5ccc([nH]5)c(-c5c(F)c(F)c(F)c(F)c5F)c5nc(c(-c6c(F)c(F)c(F)c(F)c6F)c6ccc3[nH]6)C=C5)C=C4)cc1)CC(=O)N2C
REMARK SMILES IDX 21 1 20 2 19 3 17 4 18 5 16 7 10 8 11 9 15 10 12 12 14 13
REMARK SMILES IDX 13 14 95 15 92 16 93 17 96 18 94 19 9 20 8 21 7 22 6 23 1 24
REMARK SMILES IDX 2 25 3 26 4 27 5 28 22 29 23 30 24 31 25 32 26 33 27 34
REMARK SMILES IDX 28 36 29 37 30 38 91 39 31 40 90 41 32 42 33 43 34 44 84 45
REMARK SMILES IDX 35 46 89 47 83 48 85 49 36 50 88 51 82 52 81 53 37 55 69 56
REMARK SMILES IDX 49 57 68 58 50 59 53 60 67 61 86 62 51 63 52 64 66 66 87 67
REMARK SMILES IDX 54 68 38 69 39 70 47 71 40 72 41 73 45 74 48 75 42 76 43 77
REMARK SMILES IDX 46 78 44 79 70 80 71 81 79 82 72 83 73 84 77 85 80 86 74 87
REMARK SMILES IDX 75 88 78 89 76 90 55 91 56 92 64 93 57 94 58 95 62 96 65 97
REMARK SMILES IDX 59 98 60 99 63 100 61 101
REMARK H PARENT 19 6 10 11 26 35 85 54 53 65
REMARK Flexibility Score: inf
ROOT
ATOM      1  C   UNL A   1      32.519  28.228  27.290  1.00  0.00     0.021 C 
ENDROOT
BRANCH   1   2
ATOM      2  C   UNL A   1      31.471  27.558  26.403  1.00  0.00     0.116 C 
BRANCH   2   3
ATOM      3  N   UNL A   1      31.176  26.229  26.893  1.00  0.00    -0.356 N 
ATOM      4  C   UNL A   1      31.721  25.023  26.616  1.00  0.00     0.226 C 
ATOM      5  O   UNL A   1      31.166  24.038  27.114  1.00  0.00    -0.275 OA
ATOM      6  H   UNL A   1      30.444  26.197  27.550  1.00  0.00     0.163 HD
BRANCH   4   7
ATOM      7  C   UNL A   1      33.017  24.834  25.841  1.00  0.00     0.114 C 
ATOM      8  N   UNL A   1      32.301  26.901  22.089  1.00  0.00    -0.335 N 
ATOM      9  C   UNL A   1      33.677  26.462  22.362  1.00  0.00     0.264 C 
ATOM     10  C   UNL A   1      31.383  25.790  22.364  1.00  0.00     0.264 C 
ATOM     11  H   UNL A   1      32.206  27.142  21.102  1.00  0.00     0.348 HD
ATOM     12  C   UNL A   1      33.895  25.991  23.799  1.00  0.00     0.091 C 
ATOM     13  C   UNL A   1      31.473  25.221  23.785  1.00  0.00     0.091 C 
ATOM     14  C   UNL A   1      32.902  24.899  24.281  1.00  0.00     0.065 C 
ATOM     15  N   UNL A   1      33.362  23.553  23.886  1.00  0.00    -0.339 N 
ATOM     16  C   UNL A   1      33.850  23.608  26.189  1.00  0.00     0.116 C 
ATOM     17  C   UNL A   1      33.909  22.812  24.922  1.00  0.00     0.223 C 
ATOM     18  C   UNL A   1      33.178  22.947  22.581  1.00  0.00     0.147 C 
ATOM     19  O   UNL A   1      34.343  21.673  24.844  1.00  0.00    -0.275 OA
BRANCH   8  20
ATOM     20  C   UNL A   1      31.964  28.153  22.791  1.00  0.00     0.264 C 
BRANCH  20  21
ATOM     21  C   UNL A   1      30.456  28.379  22.971  1.00  0.00     0.083 C 
BRANCH  21  22
ATOM     22  C   UNL A   1      29.721  29.234  21.938  1.00  0.00     0.129 C 
BRANCH  22  23
ATOM     23  N   UNL A   1      28.802  30.242  22.441  1.00  0.00    -0.335 N 
ATOM     24  C   UNL A   1      26.971  28.703  23.327  1.00  0.00     0.087 C 
ATOM     25  C   UNL A   1      27.624  30.023  23.130  1.00  0.00     0.105 A 
ATOM     26  N   UNL A   1      27.132  31.158  23.588  1.00  0.00    -0.242 NA
ATOM     27  C   UNL A   1      27.984  32.136  23.172  1.00  0.00     0.131 A 
ATOM     28  C   UNL A   1      29.011  31.595  22.444  1.00  0.00     0.107 A 
ENDBRANCH  22  23
ENDBRANCH  21  22
ENDBRANCH  20  21
ENDBRANCH   8  20
ENDBRANCH   4   7
ENDBRANCH   2   3
ENDBRANCH   1   2
BRANCH   1  29
ATOM     29  C   UNL A   1      33.860  28.474  26.585  1.00  0.00     0.002 C 
BRANCH  29  30
ATOM     30  C   UNL A   1      34.798  29.490  27.259  1.00  0.00     0.002 C 
BRANCH  30  31
ATOM     31  C   UNL A   1      34.238  30.903  27.484  1.00  0.00     0.021 C 
BRANCH  31  32
ATOM     32  C   UNL A   1      35.301  31.940  27.797  1.00  0.00     0.116 C 
BRANCH  32  33
ATOM     33  N   UNL A   1      35.080  32.626  29.077  1.00  0.00    -0.352 N 
ATOM     34  C   UNL A   1      35.509  32.254  30.348  1.00  0.00     0.251 C 
ATOM     35  H   UNL A   1      34.559  33.460  29.030  1.00  0.00     0.163 HD
ATOM     36  O   UNL A   1      34.985  32.684  31.356  1.00  0.00    -0.269 OA
BRANCH  34  37
ATOM     37  C   UNL A   1      36.653  31.330  30.432  1.00  0.00     0.039 A 
ATOM     38  C   UNL A   1      36.538  29.937  30.420  1.00  0.00     0.014 A 
ATOM     39  C   UNL A   1      37.897  31.935  30.458  1.00  0.00     0.014 A 
ATOM     40  C   UNL A   1      37.709  29.181  30.382  1.00  0.00     0.010 A 
ATOM     41  C   UNL A   1      38.978  31.221  30.061  1.00  0.00     0.010 A 
ATOM     42  C   UNL A   1      38.929  29.848  30.205  1.00  0.00    -0.014 A 
BRANCH  42  43
ATOM     43  C   UNL A   1      40.220  29.187  30.169  1.00  0.00     0.031 A 
ATOM     44  C   UNL A   1      40.848  28.952  31.488  1.00  0.00     0.074 A 
ATOM     45  C   UNL A   1      40.660  28.585  29.039  1.00  0.00     0.049 A 
ATOM     46  N   UNL A   1      41.943  29.464  31.940  1.00  0.00    -0.248 NA
ATOM     47  C   UNL A   1      40.115  28.140  32.471  1.00  0.00     0.031 C 
ATOM     48  C   UNL A   1      39.988  28.439  27.735  1.00  0.00     0.029 A 
ATOM     49  N   UNL A   1      41.791  27.858  28.858  1.00  0.00    -0.354 N 
ATOM     50  C   UNL A   1      42.142  28.894  33.192  1.00  0.00     0.074 A 
ATOM     51  C   UNL A   1      40.909  28.235  33.539  1.00  0.00     0.031 C 
ATOM     52  C   UNL A   1      40.605  27.484  27.005  1.00  0.00     0.029 A 
ATOM     53  C   UNL A   1      41.813  27.094  27.699  1.00  0.00     0.049 A 
ATOM     54  H   UNL A   1      42.537  27.872  29.499  1.00  0.00     0.167 HD
ATOM     55  C   UNL A   1      43.390  28.804  33.730  1.00  0.00     0.037 A 
ATOM     56  C   UNL A   1      42.755  26.179  27.366  1.00  0.00     0.037 A 
ATOM     57  C   UNL A   1      44.322  29.660  33.040  1.00  0.00     0.049 A 
ATOM     58  C   UNL A   1      43.962  26.494  28.178  1.00  0.00     0.074 A 
ATOM     59  C   UNL A   1      44.391  31.021  32.806  1.00  0.00     0.029 A 
ATOM     60  N   UNL A   1      45.162  29.090  32.112  1.00  0.00    -0.354 N 
ATOM     61  N   UNL A   1      44.657  27.590  28.034  1.00  0.00    -0.248 NA
ATOM     62  C   UNL A   1      44.083  25.841  29.473  1.00  0.00     0.031 C 
ATOM     63  C   UNL A   1      44.834  31.138  31.453  1.00  0.00     0.029 A 
ATOM     64  C   UNL A   1      45.080  29.851  30.973  1.00  0.00     0.049 A 
ATOM     65  H   UNL A   1      45.718  28.287  32.242  1.00  0.00     0.167 HD
ATOM     66  C   UNL A   1      44.964  27.990  29.328  1.00  0.00     0.074 A 
ATOM     67  C   UNL A   1      44.639  26.838  30.169  1.00  0.00     0.031 C 
ATOM     68  C   UNL A   1      45.167  29.305  29.638  1.00  0.00     0.037 A 
BRANCH  55  69
ATOM     69  C   UNL A   1      43.846  27.686  34.630  1.00  0.00     0.064 A 
ATOM     70  C   UNL A   1      43.832  26.365  34.143  1.00  0.00     0.173 A 
ATOM     71  C   UNL A   1      44.007  27.823  36.026  1.00  0.00     0.173 A 
ATOM     72  F   UNL A   1      43.664  26.123  32.834  1.00  0.00    -0.203 F 
ATOM     73  C   UNL A   1      43.897  25.265  35.000  1.00  0.00     0.198 A 
ATOM     74  C   UNL A   1      44.130  26.723  36.872  1.00  0.00     0.198 A 
ATOM     75  F   UNL A   1      43.937  29.011  36.638  1.00  0.00    -0.203 F 
ATOM     76  F   UNL A   1      43.751  24.028  34.507  1.00  0.00    -0.200 F 
ATOM     77  C   UNL A   1      44.039  25.445  36.365  1.00  0.00     0.200 A 
ATOM     78  F   UNL A   1      44.248  26.920  38.193  1.00  0.00    -0.200 F 
ATOM     79  F   UNL A   1      44.038  24.394  37.195  1.00  0.00    -0.200 F 
ENDBRANCH  55  69
BRANCH  56  80
ATOM     80  C   UNL A   1      42.539  24.876  26.694  1.00  0.00     0.064 A 
ATOM     81  C   UNL A   1      43.305  24.493  25.582  1.00  0.00     0.173 A 
ATOM     82  C   UNL A   1      41.760  23.865  27.295  1.00  0.00     0.173 A 
ATOM     83  F   UNL A   1      44.107  25.383  24.980  1.00  0.00    -0.203 F 
ATOM     84  C   UNL A   1      43.305  23.175  25.111  1.00  0.00     0.198 A 
ATOM     85  C   UNL A   1      41.758  22.553  26.822  1.00  0.00     0.198 A 
ATOM     86  F   UNL A   1      41.055  24.111  28.408  1.00  0.00    -0.203 F 
ATOM     87  F   UNL A   1      44.090  22.833  24.080  1.00  0.00    -0.200 F 
ATOM     88  C   UNL A   1      42.540  22.204  25.737  1.00  0.00     0.200 A 
ATOM     89  F   UNL A   1      41.041  21.616  27.461  1.00  0.00    -0.200 F 
ATOM     90  F   UNL A   1      42.587  20.930  25.324  1.00  0.00    -0.200 F 
ENDBRANCH  56  80
BRANCH  68  91
ATOM     91  C   UNL A   1      45.243  30.294  28.504  1.00  0.00     0.064 A 
ATOM     92  C   UNL A   1      44.147  31.046  28.043  1.00  0.00     0.173 A 
ATOM     93  C   UNL A   1      46.498  30.607  27.970  1.00  0.00     0.173 A 
ATOM     94  F   UNL A   1      42.932  30.889  28.574  1.00  0.00    -0.203 F 
ATOM     95  C   UNL A   1      44.294  32.028  27.063  1.00  0.00     0.198 A 
ATOM     96  C   UNL A   1      46.649  31.612  27.015  1.00  0.00     0.198 A 
ATOM     97  F   UNL A   1      47.593  29.970  28.412  1.00  0.00    -0.203 F 
ATOM     98  F   UNL A   1      43.226  32.720  26.640  1.00  0.00    -0.200 F 
ATOM     99  C   UNL A   1      45.547  32.314  26.555  1.00  0.00     0.200 A 
ATOM    100  F   UNL A   1      47.873  31.920  26.564  1.00  0.00    -0.200 F 
ATOM    101  F   UNL A   1      45.698  33.284  25.642  1.00  0.00    -0.200 F 
ENDBRANCH  68  91
ENDBRANCH  42  43
ENDBRANCH  34  37
ENDBRANCH  32  33
ENDBRANCH  31  32
ENDBRANCH  30  31
ENDBRANCH  29  30
ENDBRANCH   1  29
TORSDOF 17
ENDMDL
MODEL 2
REMARK VINA RESULT:     -12.8      3.309      8.587
REMARK SMILES Cc1nccn1CCC[NH+]1CCC2(CC1)[C@@H](C(=O)NCCCCCCNC(=O)c1ccc(-c3c4nc(c(-c5c(F)c(F)c(F)c(F)c5F)c5ccc([nH]5)c(-c5c(F)c(F)c(F)c(F)c5F)c5nc(c(-c6c(F)c(F)c(F)c(F)c6F)c6ccc3[nH]6)C=C5)C=C4)cc1)CC(=O)N2C
REMARK SMILES IDX 21 1 20 2 19 3 17 4 18 5 16 7 10 8 11 9 15 10 12 12 14 13
REMARK SMILES IDX 13 14 95 15 92 16 93 17 96 18 94 19 9 20 8 21 7 22 6 23 1 24
REMARK SMILES IDX 2 25 3 26 4 27 5 28 22 29 23 30 24 31 25 32 26 33 27 34
REMARK SMILES IDX 28 36 29 37 30 38 91 39 31 40 90 41 32 42 33 43 34 44 84 45
REMARK SMILES IDX 35 46 89 47 83 48 85 49 36 50 88 51 82 52 81 53 37 55 69 56
REMARK SMILES IDX 49 57 68 58 50 59 53 60 67 61 86 62 51 63 52 64 66 66 87 67
REMARK SMILES IDX 54 68 38 69 39 70 47 71 40 72 41 73 45 74 48 75 42 76 43 77
REMARK SMILES IDX 46 78 44 79 70 80 71 81 79 82 72 83 73 84 77 85 80 86 74 87
REMARK SMILES IDX 75 88 78 89 76 90 55 91 56 92 64 93 57 94 58 95 62 96 65 97
REMARK SMILES IDX 59 98 60 99 63 100 61 101
REMARK H PARENT 19 6 10 11 26 35 85 54 53 65
REMARK Flexibility Score: inf
ROOT
ATOM      1  C   UNL A   1      36.857  22.704  23.844  1.00  0.00     0.021 C 
ENDROOT
BRANCH   1   2
ATOM      2  C   UNL A   1      35.344  22.584  23.683  1.00  0.00     0.116 C 
BRANCH   2   3
ATOM      3  N   UNL A   1      34.846  23.638  22.827  1.00  0.00    -0.356 N 
ATOM      4  C   UNL A   1      34.103  24.738  23.086  1.00  0.00     0.226 C 
ATOM      5  O   UNL A   1      33.732  25.398  22.110  1.00  0.00    -0.275 OA
ATOM      6  H   UNL A   1      35.095  23.537  21.880  1.00  0.00     0.163 HD
BRANCH   4   7
ATOM      7  C   UNL A   1      33.811  25.254  24.487  1.00  0.00     0.114 C 
ATOM      8  N   UNL A   1      31.717  21.963  26.397  1.00  0.00    -0.335 N 
ATOM      9  C   UNL A   1      32.143  23.077  27.257  1.00  0.00     0.264 C 
ATOM     10  C   UNL A   1      31.053  22.507  25.206  1.00  0.00     0.264 C 
ATOM     11  H   UNL A   1      31.037  21.386  26.894  1.00  0.00     0.348 HD
ATOM     12  C   UNL A   1      33.095  24.052  26.566  1.00  0.00     0.091 C 
ATOM     13  C   UNL A   1      31.900  23.493  24.395  1.00  0.00     0.091 C 
ATOM     14  C   UNL A   1      32.580  24.615  25.214  1.00  0.00     0.065 C 
ATOM     15  N   UNL A   1      31.708  25.787  25.425  1.00  0.00    -0.339 N 
ATOM     16  C   UNL A   1      33.707  26.764  24.652  1.00  0.00     0.116 C 
ATOM     17  C   UNL A   1      32.310  27.002  25.135  1.00  0.00     0.223 C 
ATOM     18  C   UNL A   1      30.303  25.741  25.782  1.00  0.00     0.147 C 
ATOM     19  O   UNL A   1      31.787  28.103  25.219  1.00  0.00    -0.275 OA
BRANCH   8  20
ATOM     20  C   UNL A   1      32.821  21.031  26.102  1.00  0.00     0.264 C 
BRANCH  20  21
ATOM     21  C   UNL A   1      32.555  20.113  24.900  1.00  0.00     0.083 C 
BRANCH  21  22
ATOM     22  C   UNL A   1      33.600  19.052  24.551  1.00  0.00     0.129 C 
BRANCH  22  23
ATOM     23  N   UNL A   1      33.244  17.663  24.790  1.00  0.00    -0.335 N 
ATOM     24  C   UNL A   1      34.340  16.614  22.739  1.00  0.00     0.087 C 
ATOM     25  C   UNL A   1      33.632  16.566  24.044  1.00  0.00     0.105 A 
ATOM     26  N   UNL A   1      33.275  15.445  24.642  1.00  0.00    -0.242 NA
ATOM     27  C   UNL A   1      32.622  15.813  25.779  1.00  0.00     0.131 A 
ATOM     28  C   UNL A   1      32.573  17.178  25.880  1.00  0.00     0.107 A 
ENDBRANCH  22  23
ENDBRANCH  21  22
ENDBRANCH  20  21
ENDBRANCH   8  20
ENDBRANCH   4   7
ENDBRANCH   2   3
ENDBRANCH   1   2
BRANCH   1  29
ATOM     29  C   UNL A   1      37.444  21.760  24.903  1.00  0.00     0.002 C 
BRANCH  29  30
ATOM     30  C   UNL A   1      37.073  20.274  24.758  1.00  0.00     0.002 C 
BRANCH  30  31
ATOM     31  C   UNL A   1      38.190  19.254  25.032  1.00  0.00     0.021 C 
BRANCH  31  32
ATOM     32  C   UNL A   1      39.355  19.819  25.825  1.00  0.00     0.116 C 
BRANCH  32  33
ATOM     33  N   UNL A   1      40.529  18.936  25.834  1.00  0.00    -0.352 N 
ATOM     34  C   UNL A   1      41.875  19.280  25.909  1.00  0.00     0.251 C 
ATOM     35  H   UNL A   1      40.338  17.972  25.779  1.00  0.00     0.163 HD
ATOM     36  O   UNL A   1      42.756  18.521  25.558  1.00  0.00    -0.269 OA
BRANCH  34  37
ATOM     37  C   UNL A   1      42.205  20.605  26.463  1.00  0.00     0.039 A 
ATOM     38  C   UNL A   1      42.885  21.602  25.758  1.00  0.00     0.014 A 
ATOM     39  C   UNL A   1      41.729  20.844  27.740  1.00  0.00     0.014 A 
ATOM     40  C   UNL A   1      43.024  22.853  26.357  1.00  0.00     0.010 A 
ATOM     41  C   UNL A   1      41.554  22.126  28.142  1.00  0.00     0.010 A 
ATOM     42  C   UNL A   1      42.348  23.095  27.562  1.00  0.00    -0.014 A 
BRANCH  42  43
ATOM     43  C   UNL A   1      42.422  24.341  28.301  1.00  0.00     0.031 A 
ATOM     44  C   UNL A   1      41.265  25.247  28.132  1.00  0.00     0.074 A 
ATOM     45  C   UNL A   1      43.341  24.513  29.281  1.00  0.00     0.049 A 
ATOM     46  N   UNL A   1      41.257  26.419  27.591  1.00  0.00    -0.248 NA
ATOM     47  C   UNL A   1      39.933  24.748  28.504  1.00  0.00     0.031 C 
ATOM     48  C   UNL A   1      44.343  23.565  29.800  1.00  0.00     0.029 A 
ATOM     49  N   UNL A   1      43.490  25.570  30.118  1.00  0.00    -0.354 N 
ATOM     50  C   UNL A   1      39.955  26.890  27.723  1.00  0.00     0.074 A 
ATOM     51  C   UNL A   1      39.153  25.762  28.123  1.00  0.00     0.031 C 
ATOM     52  C   UNL A   1      44.810  23.996  30.992  1.00  0.00     0.029 A 
ATOM     53  C   UNL A   1      44.292  25.327  31.225  1.00  0.00     0.049 A 
ATOM     54  H   UNL A   1      43.064  26.441  29.952  1.00  0.00     0.167 HD
ATOM     55  C   UNL A   1      39.692  28.226  27.730  1.00  0.00     0.037 A 
ATOM     56  C   UNL A   1      44.477  26.165  32.274  1.00  0.00     0.037 A 
ATOM     57  C   UNL A   1      40.814  28.985  27.235  1.00  0.00     0.049 A 
ATOM     58  C   UNL A   1      44.095  27.525  31.806  1.00  0.00     0.074 A 
ATOM     59  C   UNL A   1      41.511  29.008  26.042  1.00  0.00     0.029 A 
ATOM     60  N   UNL A   1      41.640  29.592  28.151  1.00  0.00    -0.354 N 
ATOM     61  N   UNL A   1      44.749  28.177  30.884  1.00  0.00    -0.248 NA
ATOM     62  C   UNL A   1      42.709  27.930  31.995  1.00  0.00     0.031 C 
ATOM     63  C   UNL A   1      42.882  29.137  26.422  1.00  0.00     0.029 A 
ATOM     64  C   UNL A   1      42.929  29.262  27.811  1.00  0.00     0.049 A 
ATOM     65  H   UNL A   1      41.361  30.158  28.907  1.00  0.00     0.167 HD
ATOM     66  C   UNL A   1      43.767  28.769  30.100  1.00  0.00     0.074 A 
ATOM     67  C   UNL A   1      42.532  28.634  30.873  1.00  0.00     0.031 C 
ATOM     68  C   UNL A   1      43.979  29.043  28.778  1.00  0.00     0.037 A 
BRANCH  55  69
ATOM     69  C   UNL A   1      38.577  28.866  28.515  1.00  0.00     0.064 A 
ATOM     70  C   UNL A   1      37.773  29.839  27.894  1.00  0.00     0.173 A 
ATOM     71  C   UNL A   1      38.462  28.780  29.919  1.00  0.00     0.173 A 
ATOM     72  F   UNL A   1      37.820  30.017  26.565  1.00  0.00    -0.203 F 
ATOM     73  C   UNL A   1      36.972  30.712  28.633  1.00  0.00     0.198 A 
ATOM     74  C   UNL A   1      37.618  29.615  30.649  1.00  0.00     0.198 A 
ATOM     75  F   UNL A   1      39.240  27.973  30.650  1.00  0.00    -0.203 F 
ATOM     76  F   UNL A   1      36.322  31.706  28.013  1.00  0.00    -0.200 F 
ATOM     77  C   UNL A   1      36.900  30.603  30.010  1.00  0.00     0.200 A 
ATOM     78  F   UNL A   1      37.578  29.505  31.984  1.00  0.00    -0.200 F 
ATOM     79  F   UNL A   1      36.184  31.479  30.727  1.00  0.00    -0.200 F 
ENDBRANCH  55  69
BRANCH  56  80
ATOM     80  C   UNL A   1      44.598  25.796  33.704  1.00  0.00     0.064 A 
ATOM     81  C   UNL A   1      43.463  25.608  34.507  1.00  0.00     0.173 A 
ATOM     82  C   UNL A   1      45.825  25.357  34.243  1.00  0.00     0.173 A 
ATOM     83  F   UNL A   1      42.251  25.957  34.050  1.00  0.00    -0.203 F 
ATOM     84  C   UNL A   1      43.547  25.000  35.766  1.00  0.00     0.198 A 
ATOM     85  C   UNL A   1      45.909  24.756  35.500  1.00  0.00     0.198 A 
ATOM     86  F   UNL A   1      46.955  25.421  33.524  1.00  0.00    -0.203 F 
ATOM     87  F   UNL A   1      42.435  24.788  36.482  1.00  0.00    -0.200 F 
ATOM     88  C   UNL A   1      44.768  24.566  36.256  1.00  0.00     0.200 A 
ATOM     89  F   UNL A   1      47.092  24.307  35.945  1.00  0.00    -0.200 F 
ATOM     90  F   UNL A   1      44.841  23.931  37.434  1.00  0.00    -0.200 F 
ENDBRANCH  56  80
BRANCH  68  91
ATOM     91  C   UNL A   1      45.375  28.870  28.236  1.00  0.00     0.064 A 
ATOM     92  C   UNL A   1      45.850  27.678  27.659  1.00  0.00     0.173 A 
ATOM     93  C   UNL A   1      46.208  29.991  28.156  1.00  0.00     0.173 A 
ATOM     94  F   UNL A   1      45.080  26.589  27.595  1.00  0.00    -0.203 F 
ATOM     95  C   UNL A   1      47.113  27.602  27.073  1.00  0.00     0.198 A 
ATOM     96  C   UNL A   1      47.457  29.923  27.540  1.00  0.00     0.198 A 
ATOM     97  F   UNL A   1      45.789  31.173  28.632  1.00  0.00    -0.203 F 
ATOM     98  F   UNL A   1      47.538  26.447  26.539  1.00  0.00    -0.200 F 
ATOM     99  C   UNL A   1      47.913  28.728  27.009  1.00  0.00     0.200 A 
ATOM    100  F   UNL A   1      48.207  31.029  27.435  1.00  0.00    -0.200 F 
ATOM    101  F   UNL A   1      49.113  28.669  26.412  1.00  0.00    -0.200 F 
ENDBRANCH  68  91
ENDBRANCH  42  43
ENDBRANCH  34  37
ENDBRANCH  32  33
ENDBRANCH  31  32
ENDBRANCH  30  31
ENDBRANCH  29  30
ENDBRANCH   1  29
TORSDOF 17
ENDMDL
MODEL 3
REMARK VINA RESULT:     -12.7      3.281      9.136
REMARK SMILES Cc1nccn1CCC[NH+]1CCC2(CC1)[C@@H](C(=O)NCCCCCCNC(=O)c1ccc(-c3c4nc(c(-c5c(F)c(F)c(F)c(F)c5F)c5ccc([nH]5)c(-c5c(F)c(F)c(F)c(F)c5F)c5nc(c(-c6c(F)c(F)c(F)c(F)c6F)c6ccc3[nH]6)C=C5)C=C4)cc1)CC(=O)N2C
REMARK SMILES IDX 21 1 20 2 19 3 17 4 18 5 16 7 10 8 11 9 15 10 12 12 14 13
REMARK SMILES IDX 13 14 95 15 92 16 93 17 96 18 94 19 9 20 8 21 7 22 6 23 1 24
REMARK SMILES IDX 2 25 3 26 4 27 5 28 22 29 23 30 24 31 25 32 26 33 27 34
REMARK SMILES IDX 28 36 29 37 30 38 91 39 31 40 90 41 32 42 33 43 34 44 84 45
REMARK SMILES IDX 35 46 89 47 83 48 85 49 36 50 88 51 82 52 81 53 37 55 69 56
REMARK SMILES IDX 49 57 68 58 50 59 53 60 67 61 86 62 51 63 52 64 66 66 87 67
REMARK SMILES IDX 54 68 38 69 39 70 47 71 40 72 41 73 45 74 48 75 42 76 43 77
REMARK SMILES IDX 46 78 44 79 70 80 71 81 79 82 72 83 73 84 77 85 80 86 74 87
REMARK SMILES IDX 75 88 78 89 76 90 55 91 56 92 64 93 57 94 58 95 62 96 65 97
REMARK SMILES IDX 59 98 60 99 63 100 61 101
REMARK H PARENT 19 6 10 11 26 35 85 54 53 65
REMARK Flexibility Score: inf
ROOT
ATOM      1  C   UNL A   1      36.742  23.274  23.981  1.00  0.00     0.021 C 
ENDROOT
BRANCH   1   2
ATOM      2  C   UNL A   1      35.356  22.849  23.500  1.00  0.00     0.116 C 
BRANCH   2   3
ATOM      3  N   UNL A   1      34.751  23.906  22.720  1.00  0.00    -0.356 N 
ATOM      4  C   UNL A   1      33.971  24.954  23.069  1.00  0.00     0.226 C 
ATOM      5  O   UNL A   1      33.504  25.629  22.145  1.00  0.00    -0.275 OA
ATOM      6  H   UNL A   1      34.942  23.853  21.755  1.00  0.00     0.163 HD
BRANCH   4   7
ATOM      7  C   UNL A   1      33.745  25.402  24.505  1.00  0.00     0.114 C 
ATOM      8  N   UNL A   1      31.796  21.997  26.368  1.00  0.00    -0.335 N 
ATOM      9  C   UNL A   1      32.252  23.078  27.255  1.00  0.00     0.264 C 
ATOM     10  C   UNL A   1      31.064  22.584  25.239  1.00  0.00     0.264 C 
ATOM     11  H   UNL A   1      31.150  21.389  26.872  1.00  0.00     0.348 HD
ATOM     12  C   UNL A   1      33.154  24.098  26.561  1.00  0.00     0.091 C 
ATOM     13  C   UNL A   1      31.856  23.619  24.431  1.00  0.00     0.091 C 
ATOM     14  C   UNL A   1      32.562  24.712  25.265  1.00  0.00     0.065 C 
ATOM     15  N   UNL A   1      31.687  25.861  25.573  1.00  0.00    -0.339 N 
ATOM     16  C   UNL A   1      33.631  26.902  24.744  1.00  0.00     0.116 C 
ATOM     17  C   UNL A   1      32.257  27.096  25.308  1.00  0.00     0.223 C 
ATOM     18  C   UNL A   1      30.304  25.777  25.999  1.00  0.00     0.147 C 
ATOM     19  O   UNL A   1      31.726  28.185  25.469  1.00  0.00    -0.275 OA
BRANCH   8  20
ATOM     20  C   UNL A   1      32.895  21.097  25.975  1.00  0.00     0.264 C 
BRANCH  20  21
ATOM     21  C   UNL A   1      32.528  20.123  24.845  1.00  0.00     0.083 C 
BRANCH  21  22
ATOM     22  C   UNL A   1      33.551  19.062  24.439  1.00  0.00     0.129 C 
BRANCH  22  23
ATOM     23  N   UNL A   1      33.217  17.675  24.716  1.00  0.00    -0.335 N 
ATOM     24  C   UNL A   1      34.406  16.578  22.743  1.00  0.00     0.087 C 
ATOM     25  C   UNL A   1      33.655  16.560  24.025  1.00  0.00     0.105 A 
ATOM     26  N   UNL A   1      33.301  15.454  24.650  1.00  0.00    -0.242 NA
ATOM     27  C   UNL A   1      32.601  15.847  25.750  1.00  0.00     0.131 A 
ATOM     28  C   UNL A   1      32.519  17.214  25.799  1.00  0.00     0.107 A 
ENDBRANCH  22  23
ENDBRANCH  21  22
ENDBRANCH  20  21
ENDBRANCH   8  20
ENDBRANCH   4   7
ENDBRANCH   2   3
ENDBRANCH   1   2
BRANCH   1  29
ATOM     29  C   UNL A   1      36.821  23.528  25.493  1.00  0.00     0.002 C 
BRANCH  29  30
ATOM     30  C   UNL A   1      38.190  23.271  26.147  1.00  0.00     0.002 C 
BRANCH  30  31
ATOM     31  C   UNL A   1      38.790  21.868  25.965  1.00  0.00     0.021 C 
BRANCH  31  32
ATOM     32  C   UNL A   1      39.986  21.593  26.857  1.00  0.00     0.116 C 
BRANCH  32  33
ATOM     33  N   UNL A   1      41.260  21.576  26.125  1.00  0.00    -0.352 N 
ATOM     34  C   UNL A   1      42.143  22.626  25.891  1.00  0.00     0.251 C 
ATOM     35  H   UNL A   1      41.526  20.706  25.751  1.00  0.00     0.163 HD
ATOM     36  O   UNL A   1      42.964  22.591  24.997  1.00  0.00    -0.269 OA
BRANCH  34  37
ATOM     37  C   UNL A   1      42.065  23.789  26.793  1.00  0.00     0.039 A 
ATOM     38  C   UNL A   1      42.665  23.844  28.054  1.00  0.00     0.014 A 
ATOM     39  C   UNL A   1      41.400  24.888  26.279  1.00  0.00     0.014 A 
ATOM     40  C   UNL A   1      42.618  25.050  28.753  1.00  0.00     0.010 A 
ATOM     41  C   UNL A   1      41.673  26.113  26.790  1.00  0.00     0.010 A 
ATOM     42  C   UNL A   1      42.109  26.181  28.099  1.00  0.00    -0.014 A 
BRANCH  42  43
ATOM     43  C   UNL A   1      41.983  27.489  28.714  1.00  0.00     0.031 A 
ATOM     44  C   UNL A   1      43.002  28.481  28.306  1.00  0.00     0.074 A 
ATOM     45  C   UNL A   1      40.854  27.839  29.375  1.00  0.00     0.049 A 
ATOM     46  N   UNL A   1      43.905  29.029  29.048  1.00  0.00    -0.248 NA
ATOM     47  C   UNL A   1      43.109  28.820  26.880  1.00  0.00     0.031 C 
ATOM     48  C   UNL A   1      39.609  27.075  29.568  1.00  0.00     0.029 A 
ATOM     49  N   UNL A   1      40.540  29.037  29.928  1.00  0.00    -0.354 N 
ATOM     50  C   UNL A   1      44.576  29.929  28.228  1.00  0.00     0.074 A 
ATOM     51  C   UNL A   1      44.170  29.630  26.879  1.00  0.00     0.031 C 
ATOM     52  C   UNL A   1      38.618  27.902  29.968  1.00  0.00     0.029 A 
ATOM     53  C   UNL A   1      39.197  29.200  30.241  1.00  0.00     0.049 A 
ATOM     54  H   UNL A   1      41.213  29.736  30.095  1.00  0.00     0.167 HD
ATOM     55  C   UNL A   1      45.223  31.007  28.753  1.00  0.00     0.037 A 
ATOM     56  C   UNL A   1      38.611  30.346  30.663  1.00  0.00     0.037 A 
ATOM     57  C   UNL A   1      45.413  30.863  30.175  1.00  0.00     0.049 A 
ATOM     58  C   UNL A   1      39.700  31.213  31.191  1.00  0.00     0.074 A 
ATOM     59  C   UNL A   1      46.058  29.938  30.973  1.00  0.00     0.029 A 
ATOM     60  N   UNL A   1      44.551  31.529  31.014  1.00  0.00    -0.354 N 
ATOM     61  N   UNL A   1      40.400  30.918  32.254  1.00  0.00    -0.248 NA
ATOM     62  C   UNL A   1      40.337  32.128  30.256  1.00  0.00     0.031 C 
ATOM     63  C   UNL A   1      45.186  29.746  32.088  1.00  0.00     0.029 A 
ATOM     64  C   UNL A   1      44.107  30.617  31.940  1.00  0.00     0.049 A 
ATOM     65  H   UNL A   1      44.299  32.479  30.962  1.00  0.00     0.167 HD
ATOM     66  C   UNL A   1      41.705  31.263  31.928  1.00  0.00     0.074 A 
ATOM     67  C   UNL A   1      41.593  32.063  30.708  1.00  0.00     0.031 C 
ATOM     68  C   UNL A   1      42.773  30.625  32.495  1.00  0.00     0.037 A 
BRANCH  55  69
ATOM     69  C   UNL A   1      45.356  32.336  28.058  1.00  0.00     0.064 A 
ATOM     70  C   UNL A   1      44.196  33.091  27.795  1.00  0.00     0.173 A 
ATOM     71  C   UNL A   1      46.523  32.751  27.382  1.00  0.00     0.173 A 
ATOM     72  F   UNL A   1      43.028  32.768  28.370  1.00  0.00    -0.203 F 
ATOM     73  C   UNL A   1      44.193  34.133  26.867  1.00  0.00     0.198 A 
ATOM     74  C   UNL A   1      46.529  33.829  26.500  1.00  0.00     0.198 A 
ATOM     75  F   UNL A   1      47.671  32.067  27.456  1.00  0.00    -0.203 F 
ATOM     76  F   UNL A   1      43.041  34.741  26.553  1.00  0.00    -0.200 F 
ATOM     77  C   UNL A   1      45.357  34.498  26.215  1.00  0.00     0.200 A 
ATOM     78  F   UNL A   1      47.664  34.154  25.864  1.00  0.00    -0.200 F 
ATOM     79  F   UNL A   1      45.344  35.455  25.278  1.00  0.00    -0.200 F 
ENDBRANCH  55  69
BRANCH  56  80
ATOM     80  C   UNL A   1      37.269  30.854  30.294  1.00  0.00     0.064 A 
ATOM     81  C   UNL A   1      36.363  31.299  31.270  1.00  0.00     0.173 A 
ATOM     82  C   UNL A   1      36.949  31.164  28.956  1.00  0.00     0.173 A 
ATOM     83  F   UNL A   1      36.617  31.084  32.569  1.00  0.00    -0.203 F 
ATOM     84  C   UNL A   1      35.217  32.027  30.929  1.00  0.00     0.198 A 
ATOM     85  C   UNL A   1      35.803  31.886  28.617  1.00  0.00     0.198 A 
ATOM     86  F   UNL A   1      37.788  30.852  27.957  1.00  0.00    -0.203 F 
ATOM     87  F   UNL A   1      34.403  32.482  31.891  1.00  0.00    -0.200 F 
ATOM     88  C   UNL A   1      34.944  32.328  29.604  1.00  0.00     0.200 A 
ATOM     89  F   UNL A   1      35.572  32.202  27.334  1.00  0.00    -0.200 F 
ATOM     90  F   UNL A   1      33.879  33.075  29.283  1.00  0.00    -0.200 F 
ENDBRANCH  56  80
BRANCH  68  91
ATOM     91  C   UNL A   1      42.505  29.673  33.631  1.00  0.00     0.064 A 
ATOM     92  C   UNL A   1      42.298  28.292  33.466  1.00  0.00     0.173 A 
ATOM     93  C   UNL A   1      42.615  30.146  34.944  1.00  0.00     0.173 A 
ATOM     94  F   UNL A   1      42.287  27.738  32.250  1.00  0.00    -0.203 F 
ATOM     95  C   UNL A   1      42.163  27.436  34.558  1.00  0.00     0.198 A 
ATOM     96  C   UNL A   1      42.514  29.284  36.035  1.00  0.00     0.198 A 
ATOM     97  F   UNL A   1      42.874  31.443  35.169  1.00  0.00    -0.203 F 
ATOM     98  F   UNL A   1      41.959  26.124  34.364  1.00  0.00    -0.200 F 
ATOM     99  C   UNL A   1      42.277  27.933  35.843  1.00  0.00     0.200 A 
ATOM    100  F   UNL A   1      42.676  29.763  37.276  1.00  0.00    -0.200 F 
ATOM    101  F   UNL A   1      42.187  27.107  36.895  1.00  0.00    -0.200 F 
ENDBRANCH  68  91
ENDBRANCH  42  43
ENDBRANCH  34  37
ENDBRANCH  32  33
ENDBRANCH  31  32
ENDBRANCH  30  31
ENDBRANCH  29  30
ENDBRANCH   1  29
TORSDOF 17
ENDMDL
