MODEL 1
REMARK VINA RESULT:     -12.8      0.000      0.000
REMARK SMILES CCC(=O)Nc1cc(NC(=O)/C=C/C(=O)NCCCCCCNC(=O)c2ccc(-c3c4nc(c(-c5c(F)c(F)c(F)c(F)c5F)c5ccc([nH]5)c(-c5c(F)c(F)c(F)c(F)c5F)c5nc(c(-c6c(F)c(F)c(F)c(F)c6F)c6ccc3[nH]6)C=C5)C=C4)cc2)ccc1C
REMARK SMILES IDX 18 1 17 2 16 3 14 4 15 5 13 7 12 8 10 9 9 10 11 12 8 13 6 14
REMARK SMILES IDX 7 15 91 16 90 17 92 18 89 19 5 20 3 21 4 22 2 24 1 25 19 26
REMARK SMILES IDX 20 27 21 28 22 29 23 30 24 31 25 33 26 34 27 35 88 36 28 37
REMARK SMILES IDX 87 38 29 39 30 40 31 41 81 42 32 43 86 44 80 45 82 46 33 47
REMARK SMILES IDX 85 48 79 49 78 50 34 52 66 53 46 54 65 55 47 56 50 57 64 58
REMARK SMILES IDX 83 59 48 60 49 61 63 63 84 64 51 65 35 66 36 67 44 68 37 69
REMARK SMILES IDX 38 70 42 71 45 72 39 73 40 74 43 75 41 76 67 77 68 78 76 79
REMARK SMILES IDX 69 80 70 81 74 82 77 83 71 84 72 85 75 86 73 87 52 88 53 89
REMARK SMILES IDX 61 90 54 91 55 92 59 93 62 94 56 95 57 96 60 97 58 98
REMARK H PARENT 16 6 9 11 5 23 23 32 82 51 50 62
REMARK Flexibility Score: inf
ROOT
ATOM      1  C   UNL A   1      32.251  27.388  26.099  1.00  0.00     0.021 C 
ENDROOT
BRANCH   1   2
ATOM      2  C   UNL A   1      33.599  27.346  25.386  1.00  0.00     0.116 C 
BRANCH   2   3
ATOM      3  N   UNL A   1      33.509  26.628  24.132  1.00  0.00    -0.353 N 
ATOM      4  C   UNL A   1      34.133  25.487  23.754  1.00  0.00     0.244 C 
ATOM      5  O   UNL A   1      34.095  25.111  22.584  1.00  0.00    -0.270 OA
ATOM      6  H   UNL A   1      32.911  27.027  23.458  1.00  0.00     0.163 HD
BRANCH   4   7
ATOM      7  C   UNL A   1      34.815  24.648  24.759  1.00  0.00     0.077 C 
ATOM      8  C   UNL A   1      35.884  23.936  24.366  1.00  0.00     0.077 C 
BRANCH   8   9
ATOM      9  C   UNL A   1      36.849  23.429  25.355  1.00  0.00     0.248 C 
ATOM     10  N   UNL A   1      36.645  22.211  25.949  1.00  0.00    -0.322 N 
ATOM     11  H   UNL A   1      37.333  21.964  26.608  1.00  0.00     0.170 HD
ATOM     12  O   UNL A   1      37.829  24.113  25.637  1.00  0.00    -0.270 OA
BRANCH  10  13
ATOM     13  C   UNL A   1      35.629  21.244  25.787  1.00  0.00     0.043 A 
ATOM     14  C   UNL A   1      33.285  20.565  25.798  1.00  0.00     0.046 A 
ATOM     15  C   UNL A   1      34.322  21.389  26.250  1.00  0.00     0.052 A 
ATOM     16  C   UNL A   1      33.570  19.527  24.906  1.00  0.00    -0.027 A 
ATOM     17  C   UNL A   1      34.917  19.261  24.599  1.00  0.00     0.008 A 
ATOM     18  C   UNL A   1      32.523  18.812  24.097  1.00  0.00     0.046 C 
ATOM     19  C   UNL A   1      35.937  20.112  25.034  1.00  0.00     0.026 A 
BRANCH  14  20
ATOM     20  N   UNL A   1      31.984  21.017  26.055  1.00  0.00    -0.326 N 
ATOM     21  C   UNL A   1      31.358  22.155  25.637  1.00  0.00     0.224 C 
ATOM     22  O   UNL A   1      30.270  22.468  26.127  1.00  0.00    -0.275 OA
ATOM     23  H   UNL A   1      31.440  20.425  26.622  1.00  0.00     0.169 HD
BRANCH  21  24
ATOM     24  C   UNL A   1      31.939  22.957  24.489  1.00  0.00     0.097 C 
ATOM     25  C   UNL A   1      31.729  22.342  23.124  1.00  0.00     0.014 C 
ENDBRANCH  21  24
ENDBRANCH  14  20
ENDBRANCH  10  13
ENDBRANCH   8   9
ENDBRANCH   4   7
ENDBRANCH   2   3
ENDBRANCH   1   2
BRANCH   1  26
ATOM     26  C   UNL A   1      32.162  28.368  27.274  1.00  0.00     0.002 C 
BRANCH  26  27
ATOM     27  C   UNL A   1      31.780  29.820  26.945  1.00  0.00     0.002 C 
BRANCH  27  28
ATOM     28  C   UNL A   1      32.897  30.867  26.969  1.00  0.00     0.021 C 
BRANCH  28  29
ATOM     29  C   UNL A   1      34.193  30.402  27.622  1.00  0.00     0.116 C 
BRANCH  29  30
ATOM     30  N   UNL A   1      34.651  31.242  28.720  1.00  0.00    -0.352 N 
ATOM     31  C   UNL A   1      35.766  31.073  29.521  1.00  0.00     0.251 C 
ATOM     32  H   UNL A   1      34.096  32.031  28.916  1.00  0.00     0.163 HD
ATOM     33  O   UNL A   1      36.034  31.875  30.402  1.00  0.00    -0.269 OA
BRANCH  31  34
ATOM     34  C   UNL A   1      36.699  29.962  29.214  1.00  0.00     0.039 A 
ATOM     35  C   UNL A   1      37.008  29.062  30.239  1.00  0.00     0.014 A 
ATOM     36  C   UNL A   1      37.399  29.929  28.008  1.00  0.00     0.014 A 
ATOM     37  C   UNL A   1      38.164  28.292  30.142  1.00  0.00     0.010 A 
ATOM     38  C   UNL A   1      38.590  29.228  27.945  1.00  0.00     0.010 A 
ATOM     39  C   UNL A   1      39.007  28.469  29.044  1.00  0.00    -0.014 A 
BRANCH  39  40
ATOM     40  C   UNL A   1      40.394  28.018  29.040  1.00  0.00     0.031 A 
ATOM     41  C   UNL A   1      40.752  26.650  28.608  1.00  0.00     0.074 A 
ATOM     42  C   UNL A   1      41.365  28.879  29.422  1.00  0.00     0.049 A 
ATOM     43  N   UNL A   1      41.860  26.065  28.927  1.00  0.00    -0.248 NA
ATOM     44  C   UNL A   1      39.847  25.786  27.855  1.00  0.00     0.031 C 
ATOM     45  C   UNL A   1      42.808  28.722  29.257  1.00  0.00     0.029 A 
ATOM     46  N   UNL A   1      41.230  29.995  30.269  1.00  0.00    -0.354 N 
ATOM     47  C   UNL A   1      41.944  24.905  28.196  1.00  0.00     0.074 A 
ATOM     48  C   UNL A   1      40.616  24.706  27.674  1.00  0.00     0.031 C 
ATOM     49  C   UNL A   1      43.432  29.469  30.181  1.00  0.00     0.029 A 
ATOM     50  C   UNL A   1      42.407  30.014  31.053  1.00  0.00     0.049 A 
ATOM     51  H   UNL A   1      40.477  30.628  30.308  1.00  0.00     0.167 HD
ATOM     52  C   UNL A   1      43.170  24.338  28.010  1.00  0.00     0.037 A 
ATOM     53  C   UNL A   1      42.376  29.867  32.408  1.00  0.00     0.037 A 
ATOM     54  C   UNL A   1      44.151  24.892  28.944  1.00  0.00     0.049 A 
ATOM     55  C   UNL A   1      43.202  28.718  32.933  1.00  0.00     0.074 A 
ATOM     56  C   UNL A   1      45.231  25.747  28.803  1.00  0.00     0.029 A 
ATOM     57  N   UNL A   1      43.938  24.748  30.314  1.00  0.00    -0.354 N 
ATOM     58  N   UNL A   1      43.636  27.737  32.193  1.00  0.00    -0.248 NA
ATOM     59  C   UNL A   1      43.549  28.551  34.343  1.00  0.00     0.031 C 
ATOM     60  C   UNL A   1      45.611  26.184  30.100  1.00  0.00     0.029 A 
ATOM     61  C   UNL A   1      44.791  25.564  31.029  1.00  0.00     0.049 A 
ATOM     62  H   UNL A   1      43.271  24.146  30.716  1.00  0.00     0.167 HD
ATOM     63  C   UNL A   1      44.249  26.805  32.988  1.00  0.00     0.074 A 
ATOM     64  C   UNL A   1      44.199  27.374  34.321  1.00  0.00     0.031 C 
ATOM     65  C   UNL A   1      44.716  25.627  32.481  1.00  0.00     0.037 A 
BRANCH  52  66
ATOM     66  C   UNL A   1      43.560  23.430  26.852  1.00  0.00     0.064 A 
ATOM     67  C   UNL A   1      43.133  22.080  26.836  1.00  0.00     0.173 A 
ATOM     68  C   UNL A   1      44.457  23.763  25.813  1.00  0.00     0.173 A 
ATOM     69  F   UNL A   1      42.274  21.611  27.751  1.00  0.00    -0.203 F 
ATOM     70  C   UNL A   1      43.594  21.150  25.893  1.00  0.00     0.198 A 
ATOM     71  C   UNL A   1      44.876  22.847  24.842  1.00  0.00     0.198 A 
ATOM     72  F   UNL A   1      45.023  24.967  25.710  1.00  0.00    -0.203 F 
ATOM     73  F   UNL A   1      43.205  19.871  25.974  1.00  0.00    -0.200 F 
ATOM     74  C   UNL A   1      44.461  21.536  24.892  1.00  0.00     0.200 A 
ATOM     75  F   UNL A   1      45.717  23.246  23.878  1.00  0.00    -0.200 F 
ATOM     76  F   UNL A   1      44.907  20.649  23.992  1.00  0.00    -0.200 F 
ENDBRANCH  52  66
BRANCH  53  77
ATOM     77  C   UNL A   1      41.120  30.355  33.034  1.00  0.00     0.064 A 
ATOM     78  C   UNL A   1      40.929  31.742  33.170  1.00  0.00     0.173 A 
ATOM     79  C   UNL A   1      40.000  29.529  33.173  1.00  0.00     0.173 A 
ATOM     80  F   UNL A   1      41.973  32.577  33.041  1.00  0.00    -0.203 F 
ATOM     81  C   UNL A   1      39.657  32.286  33.329  1.00  0.00     0.198 A 
ATOM     82  C   UNL A   1      38.727  30.078  33.344  1.00  0.00     0.198 A 
ATOM     83  F   UNL A   1      40.112  28.201  33.032  1.00  0.00    -0.203 F 
ATOM     84  F   UNL A   1      39.498  33.617  33.351  1.00  0.00    -0.200 F 
ATOM     85  C   UNL A   1      38.553  31.453  33.391  1.00  0.00     0.200 A 
ATOM     86  F   UNL A   1      37.654  29.273  33.372  1.00  0.00    -0.200 F 
ATOM     87  F   UNL A   1      37.321  31.975  33.455  1.00  0.00    -0.200 F 
ENDBRANCH  53  77
BRANCH  65  88
ATOM     88  C   UNL A   1      45.203  24.457  33.299  1.00  0.00     0.064 A 
ATOM     89  C   UNL A   1      44.428  23.317  33.574  1.00  0.00     0.173 A 
ATOM     90  C   UNL A   1      46.551  24.396  33.721  1.00  0.00     0.173 A 
ATOM     91  F   UNL A   1      43.172  23.204  33.123  1.00  0.00    -0.203 F 
ATOM     92  C   UNL A   1      44.945  22.225  34.277  1.00  0.00     0.198 A 
ATOM     93  C   UNL A   1      47.079  23.282  34.375  1.00  0.00     0.198 A 
ATOM     94  F   UNL A   1      47.400  25.409  33.490  1.00  0.00    -0.203 F 
ATOM     95  F   UNL A   1      44.154  21.177  34.551  1.00  0.00    -0.200 F 
ATOM     96  C   UNL A   1      46.271  22.203  34.668  1.00  0.00     0.200 A 
ATOM     97  F   UNL A   1      48.378  23.256  34.704  1.00  0.00    -0.200 F 
ATOM     98  F   UNL A   1      46.772  21.137  35.305  1.00  0.00    -0.200 F 
ENDBRANCH  65  88
ENDBRANCH  39  40
ENDBRANCH  31  34
ENDBRANCH  29  30
ENDBRANCH  28  29
ENDBRANCH  27  28
ENDBRANCH  26  27
ENDBRANCH   1  26
TORSDOF 17
ENDMDL
MODEL 2
REMARK VINA RESULT:     -12.7      1.298      2.044
REMARK SMILES CCC(=O)Nc1cc(NC(=O)/C=C/C(=O)NCCCCCCNC(=O)c2ccc(-c3c4nc(c(-c5c(F)c(F)c(F)c(F)c5F)c5ccc([nH]5)c(-c5c(F)c(F)c(F)c(F)c5F)c5nc(c(-c6c(F)c(F)c(F)c(F)c6F)c6ccc3[nH]6)C=C5)C=C4)cc2)ccc1C
REMARK SMILES IDX 18 1 17 2 16 3 14 4 15 5 13 7 12 8 10 9 9 10 11 12 8 13 6 14
REMARK SMILES IDX 7 15 91 16 90 17 92 18 89 19 5 20 3 21 4 22 2 24 1 25 19 26
REMARK SMILES IDX 20 27 21 28 22 29 23 30 24 31 25 33 26 34 27 35 88 36 28 37
REMARK SMILES IDX 87 38 29 39 30 40 31 41 81 42 32 43 86 44 80 45 82 46 33 47
REMARK SMILES IDX 85 48 79 49 78 50 34 52 66 53 46 54 65 55 47 56 50 57 64 58
REMARK SMILES IDX 83 59 48 60 49 61 63 63 84 64 51 65 35 66 36 67 44 68 37 69
REMARK SMILES IDX 38 70 42 71 45 72 39 73 40 74 43 75 41 76 67 77 68 78 76 79
REMARK SMILES IDX 69 80 70 81 74 82 77 83 71 84 72 85 75 86 73 87 52 88 53 89
REMARK SMILES IDX 61 90 54 91 55 92 59 93 62 94 56 95 57 96 60 97 58 98
REMARK H PARENT 16 6 9 11 5 23 23 32 82 51 50 62
REMARK Flexibility Score: inf
ROOT
ATOM      1  C   UNL A   1      33.283  27.790  25.376  1.00  0.00     0.021 C 
ENDROOT
BRANCH   1   2
ATOM      2  C   UNL A   1      33.116  28.897  24.339  1.00  0.00     0.116 C 
BRANCH   2   3
ATOM      3  N   UNL A   1      31.845  28.790  23.654  1.00  0.00    -0.353 N 
ATOM      4  C   UNL A   1      31.539  28.114  22.521  1.00  0.00     0.244 C 
ATOM      5  O   UNL A   1      30.456  28.281  21.965  1.00  0.00    -0.270 OA
ATOM      6  H   UNL A   1      31.098  29.279  24.070  1.00  0.00     0.163 HD
BRANCH   4   7
ATOM      7  C   UNL A   1      32.484  27.121  21.973  1.00  0.00     0.077 C 
ATOM      8  C   UNL A   1      32.407  25.859  22.427  1.00  0.00     0.077 C 
BRANCH   8   9
ATOM      9  C   UNL A   1      32.993  24.751  21.658  1.00  0.00     0.248 C 
ATOM     10  N   UNL A   1      33.334  23.583  22.291  1.00  0.00    -0.322 N 
ATOM     11  H   UNL A   1      33.735  22.906  21.698  1.00  0.00     0.170 HD
ATOM     12  O   UNL A   1      33.172  24.890  20.451  1.00  0.00    -0.270 OA
BRANCH  10  13
ATOM     13  C   UNL A   1      33.215  23.173  23.637  1.00  0.00     0.043 A 
ATOM     14  C   UNL A   1      32.679  21.509  25.337  1.00  0.00     0.046 A 
ATOM     15  C   UNL A   1      32.509  22.048  24.058  1.00  0.00     0.052 A 
ATOM     16  C   UNL A   1      33.530  22.146  26.245  1.00  0.00    -0.027 A 
ATOM     17  C   UNL A   1      34.083  23.387  25.884  1.00  0.00     0.008 A 
ATOM     18  C   UNL A   1      34.055  21.494  27.495  1.00  0.00     0.046 C 
ATOM     19  C   UNL A   1      33.927  23.896  24.591  1.00  0.00     0.026 A 
BRANCH  14  20
ATOM     20  N   UNL A   1      32.198  20.206  25.524  1.00  0.00    -0.326 N 
ATOM     21  C   UNL A   1      32.722  19.015  25.112  1.00  0.00     0.224 C 
ATOM     22  O   UNL A   1      32.049  17.986  25.211  1.00  0.00    -0.275 OA
ATOM     23  H   UNL A   1      31.356  20.138  26.031  1.00  0.00     0.169 HD
BRANCH  21  24
ATOM     24  C   UNL A   1      34.165  18.946  24.651  1.00  0.00     0.097 C 
ATOM     25  C   UNL A   1      34.635  17.561  24.268  1.00  0.00     0.014 C 
ENDBRANCH  21  24
ENDBRANCH  14  20
ENDBRANCH  10  13
ENDBRANCH   8   9
ENDBRANCH   4   7
ENDBRANCH   2   3
ENDBRANCH   1   2
BRANCH   1  26
ATOM     26  C   UNL A   1      33.370  28.262  26.831  1.00  0.00     0.002 C 
BRANCH  26  27
ATOM     27  C   UNL A   1      32.386  29.359  27.269  1.00  0.00     0.002 C 
BRANCH  27  28
ATOM     28  C   UNL A   1      32.913  30.795  27.335  1.00  0.00     0.021 C 
BRANCH  28  29
ATOM     29  C   UNL A   1      34.406  30.914  27.610  1.00  0.00     0.116 C 
BRANCH  29  30
ATOM     30  N   UNL A   1      34.737  31.545  28.881  1.00  0.00    -0.352 N 
ATOM     31  C   UNL A   1      35.727  31.192  29.781  1.00  0.00     0.251 C 
ATOM     32  H   UNL A   1      34.186  32.321  29.130  1.00  0.00     0.163 HD
ATOM     33  O   UNL A   1      35.897  31.830  30.808  1.00  0.00    -0.269 OA
BRANCH  31  34
ATOM     34  C   UNL A   1      36.656  30.095  29.420  1.00  0.00     0.039 A 
ATOM     35  C   UNL A   1      36.969  29.150  30.403  1.00  0.00     0.014 A 
ATOM     36  C   UNL A   1      37.351  30.116  28.211  1.00  0.00     0.014 A 
ATOM     37  C   UNL A   1      38.124  28.383  30.266  1.00  0.00     0.010 A 
ATOM     38  C   UNL A   1      38.540  29.416  28.111  1.00  0.00     0.010 A 
ATOM     39  C   UNL A   1      38.961  28.609  29.173  1.00  0.00    -0.014 A 
BRANCH  39  40
ATOM     40  C   UNL A   1      40.348  28.156  29.142  1.00  0.00     0.031 A 
ATOM     41  C   UNL A   1      40.696  26.788  28.705  1.00  0.00     0.074 A 
ATOM     42  C   UNL A   1      41.327  29.018  29.503  1.00  0.00     0.049 A 
ATOM     43  N   UNL A   1      41.810  26.202  29.003  1.00  0.00    -0.248 NA
ATOM     44  C   UNL A   1      39.776  25.923  27.973  1.00  0.00     0.031 C 
ATOM     45  C   UNL A   1      42.767  28.860  29.310  1.00  0.00     0.029 A 
ATOM     46  N   UNL A   1      41.210  30.135  30.351  1.00  0.00    -0.354 N 
ATOM     47  C   UNL A   1      41.879  25.041  28.274  1.00  0.00     0.074 A 
ATOM     48  C   UNL A   1      40.541  24.842  27.778  1.00  0.00     0.031 C 
ATOM     49  C   UNL A   1      43.409  29.607  30.220  1.00  0.00     0.029 A 
ATOM     50  C   UNL A   1      42.402  30.155  31.111  1.00  0.00     0.049 A 
ATOM     51  H   UNL A   1      40.458  30.769  30.403  1.00  0.00     0.167 HD
ATOM     52  C   UNL A   1      43.100  24.473  28.064  1.00  0.00     0.037 A 
ATOM     53  C   UNL A   1      42.397  30.011  32.467  1.00  0.00     0.037 A 
ATOM     54  C   UNL A   1      44.100  25.028  28.978  1.00  0.00     0.049 A 
ATOM     55  C   UNL A   1      43.233  28.862  32.978  1.00  0.00     0.074 A 
ATOM     56  C   UNL A   1      45.178  25.882  28.814  1.00  0.00     0.029 A 
ATOM     57  N   UNL A   1      43.914  24.886  30.351  1.00  0.00    -0.354 N 
ATOM     58  N   UNL A   1      43.651  27.879  32.231  1.00  0.00    -0.248 NA
ATOM     59  C   UNL A   1      43.608  28.697  34.381  1.00  0.00     0.031 C 
ATOM     60  C   UNL A   1      45.583  26.321  30.102  1.00  0.00     0.029 A 
ATOM     61  C   UNL A   1      44.782  25.703  31.048  1.00  0.00     0.049 A 
ATOM     62  H   UNL A   1      43.255  24.286  30.768  1.00  0.00     0.167 HD
ATOM     63  C   UNL A   1      44.279  26.949  33.015  1.00  0.00     0.074 A 
ATOM     64  C   UNL A   1      44.256  27.520  34.348  1.00  0.00     0.031 C 
ATOM     65  C   UNL A   1      44.736  25.769  32.502  1.00  0.00     0.037 A 
BRANCH  52  66
ATOM     66  C   UNL A   1      43.467  23.562  26.900  1.00  0.00     0.064 A 
ATOM     67  C   UNL A   1      43.094  22.197  26.924  1.00  0.00     0.173 A 
ATOM     68  C   UNL A   1      44.297  23.914  25.811  1.00  0.00     0.173 A 
ATOM     69  F   UNL A   1      42.302  21.709  27.889  1.00  0.00    -0.203 F 
ATOM     70  C   UNL A   1      43.543  21.271  25.972  1.00  0.00     0.198 A 
ATOM     71  C   UNL A   1      44.701  22.999  24.834  1.00  0.00     0.198 A 
ATOM     72  F   UNL A   1      44.808  25.137  25.664  1.00  0.00    -0.203 F 
ATOM     73  F   UNL A   1      43.210  19.979  26.091  1.00  0.00    -0.200 F 
ATOM     74  C   UNL A   1      44.341  21.674  24.923  1.00  0.00     0.200 A 
ATOM     75  F   UNL A   1      45.476  23.415  23.822  1.00  0.00    -0.200 F 
ATOM     76  F   UNL A   1      44.776  20.791  24.014  1.00  0.00    -0.200 F 
ENDBRANCH  52  66
BRANCH  53  77
ATOM     77  C   UNL A   1      41.155  30.500  33.117  1.00  0.00     0.064 A 
ATOM     78  C   UNL A   1      40.965  31.888  33.250  1.00  0.00     0.173 A 
ATOM     79  C   UNL A   1      40.038  29.674  33.282  1.00  0.00     0.173 A 
ATOM     80  F   UNL A   1      42.005  32.723  33.096  1.00  0.00    -0.203 F 
ATOM     81  C   UNL A   1      39.697  32.432  33.433  1.00  0.00     0.198 A 
ATOM     82  C   UNL A   1      38.768  30.223  33.478  1.00  0.00     0.198 A 
ATOM     83  F   UNL A   1      40.149  28.345  33.145  1.00  0.00    -0.203 F 
ATOM     84  F   UNL A   1      39.536  33.763  33.452  1.00  0.00    -0.200 F 
ATOM     85  C   UNL A   1      38.595  31.598  33.523  1.00  0.00     0.200 A 
ATOM     86  F   UNL A   1      37.698  29.418  33.532  1.00  0.00    -0.200 F 
ATOM     87  F   UNL A   1      37.364  32.120  33.610  1.00  0.00    -0.200 F 
ENDBRANCH  53  77
BRANCH  65  88
ATOM     88  C   UNL A   1      45.238  24.600  33.311  1.00  0.00     0.064 A 
ATOM     89  C   UNL A   1      44.481  23.444  33.572  1.00  0.00     0.173 A 
ATOM     90  C   UNL A   1      46.585  24.558  33.741  1.00  0.00     0.173 A 
ATOM     91  F   UNL A   1      43.230  23.314  33.112  1.00  0.00    -0.203 F 
ATOM     92  C   UNL A   1      45.013  22.355  34.268  1.00  0.00     0.198 A 
ATOM     93  C   UNL A   1      47.127  23.448  34.389  1.00  0.00     0.198 A 
ATOM     94  F   UNL A   1      47.417  25.588  33.525  1.00  0.00    -0.203 F 
ATOM     95  F   UNL A   1      44.238  21.291  34.528  1.00  0.00    -0.200 F 
ATOM     96  C   UNL A   1      46.336  22.353  34.667  1.00  0.00     0.200 A 
ATOM     97  F   UNL A   1      48.425  23.441  34.725  1.00  0.00    -0.200 F 
ATOM     98  F   UNL A   1      46.853  21.289  35.297  1.00  0.00    -0.200 F 
ENDBRANCH  65  88
ENDBRANCH  39  40
ENDBRANCH  31  34
ENDBRANCH  29  30
ENDBRANCH  28  29
ENDBRANCH  27  28
ENDBRANCH  26  27
ENDBRANCH   1  26
TORSDOF 17
ENDMDL
MODEL 3
REMARK VINA RESULT:     -12.7      3.643     10.124
REMARK SMILES CCC(=O)Nc1cc(NC(=O)/C=C/C(=O)NCCCCCCNC(=O)c2ccc(-c3c4nc(c(-c5c(F)c(F)c(F)c(F)c5F)c5ccc([nH]5)c(-c5c(F)c(F)c(F)c(F)c5F)c5nc(c(-c6c(F)c(F)c(F)c(F)c6F)c6ccc3[nH]6)C=C5)C=C4)cc2)ccc1C
REMARK SMILES IDX 18 1 17 2 16 3 14 4 15 5 13 7 12 8 10 9 9 10 11 12 8 13 6 14
REMARK SMILES IDX 7 15 91 16 90 17 92 18 89 19 5 20 3 21 4 22 2 24 1 25 19 26
REMARK SMILES IDX 20 27 21 28 22 29 23 30 24 31 25 33 26 34 27 35 88 36 28 37
REMARK SMILES IDX 87 38 29 39 30 40 31 41 81 42 32 43 86 44 80 45 82 46 33 47
REMARK SMILES IDX 85 48 79 49 78 50 34 52 66 53 46 54 65 55 47 56 50 57 64 58
REMARK SMILES IDX 83 59 48 60 49 61 63 63 84 64 51 65 35 66 36 67 44 68 37 69
REMARK SMILES IDX 38 70 42 71 45 72 39 73 40 74 43 75 41 76 67 77 68 78 76 79
REMARK SMILES IDX 69 80 70 81 74 82 77 83 71 84 72 85 75 86 73 87 52 88 53 89
REMARK SMILES IDX 61 90 54 91 55 92 59 93 62 94 56 95 57 96 60 97 58 98
REMARK H PARENT 16 6 9 11 5 23 23 32 82 51 50 62
REMARK Flexibility Score: inf
ROOT
ATOM      1  C   UNL A   1      34.186  22.667  23.387  1.00  0.00     0.021 C 
ENDROOT
BRANCH   1   2
ATOM      2  C   UNL A   1      33.599  21.734  24.442  1.00  0.00     0.116 C 
BRANCH   2   3
ATOM      3  N   UNL A   1      34.256  21.905  25.720  1.00  0.00    -0.353 N 
ATOM      4  C   UNL A   1      33.751  22.377  26.885  1.00  0.00     0.244 C 
ATOM      5  O   UNL A   1      34.493  22.637  27.830  1.00  0.00    -0.270 OA
ATOM      6  H   UNL A   1      35.206  21.642  25.746  1.00  0.00     0.163 HD
BRANCH   4   7
ATOM      7  C   UNL A   1      32.292  22.525  27.053  1.00  0.00     0.077 C 
ATOM      8  C   UNL A   1      31.771  23.762  26.984  1.00  0.00     0.077 C 
BRANCH   8   9
ATOM      9  C   UNL A   1      30.337  23.955  26.718  1.00  0.00     0.248 C 
ATOM     10  N   UNL A   1      29.929  24.905  25.818  1.00  0.00    -0.322 N 
ATOM     11  H   UNL A   1      28.952  24.973  25.719  1.00  0.00     0.170 HD
ATOM     12  O   UNL A   1      29.520  23.258  27.314  1.00  0.00    -0.270 OA
BRANCH  10  13
ATOM     13  C   UNL A   1      30.655  25.803  25.005  1.00  0.00     0.043 A 
ATOM     14  C   UNL A   1      31.585  28.010  24.540  1.00  0.00     0.046 A 
ATOM     15  C   UNL A   1      30.625  27.190  25.143  1.00  0.00     0.052 A 
ATOM     16  C   UNL A   1      32.567  27.437  23.726  1.00  0.00    -0.027 A 
ATOM     17  C   UNL A   1      32.473  26.065  23.431  1.00  0.00     0.008 A 
ATOM     18  C   UNL A   1      33.828  28.147  23.315  1.00  0.00     0.046 C 
ATOM     19  C   UNL A   1      31.526  25.255  24.066  1.00  0.00     0.026 A 
BRANCH  14  20
ATOM     20  N   UNL A   1      31.663  29.323  25.023  1.00  0.00    -0.326 N 
ATOM     21  C   UNL A   1      32.052  29.780  26.249  1.00  0.00     0.224 C 
ATOM     22  O   UNL A   1      31.870  30.964  26.544  1.00  0.00    -0.275 OA
ATOM     23  H   UNL A   1      31.397  30.022  24.382  1.00  0.00     0.169 HD
BRANCH  21  24
ATOM     24  C   UNL A   1      32.815  28.865  27.186  1.00  0.00     0.097 C 
ATOM     25  C   UNL A   1      34.313  28.867  26.983  1.00  0.00     0.014 C 
ENDBRANCH  21  24
ENDBRANCH  14  20
ENDBRANCH  10  13
ENDBRANCH   8   9
ENDBRANCH   4   7
ENDBRANCH   2   3
ENDBRANCH   1   2
BRANCH   1  26
ATOM     26  C   UNL A   1      35.343  23.551  23.864  1.00  0.00     0.002 C 
BRANCH  26  27
ATOM     27  C   UNL A   1      36.768  23.052  23.576  1.00  0.00     0.002 C 
BRANCH  27  28
ATOM     28  C   UNL A   1      37.504  22.325  24.706  1.00  0.00     0.021 C 
BRANCH  28  29
ATOM     29  C   UNL A   1      38.062  23.237  25.792  1.00  0.00     0.116 C 
BRANCH  29  30
ATOM     30  N   UNL A   1      39.468  23.017  26.100  1.00  0.00    -0.352 N 
ATOM     31  C   UNL A   1      40.384  23.918  26.613  1.00  0.00     0.251 C 
ATOM     32  H   UNL A   1      39.810  22.112  25.920  1.00  0.00     0.163 HD
ATOM     33  O   UNL A   1      41.537  23.584  26.835  1.00  0.00    -0.269 OA
BRANCH  31  34
ATOM     34  C   UNL A   1      39.911  25.269  27.000  1.00  0.00     0.039 A 
ATOM     35  C   UNL A   1      40.499  26.374  26.376  1.00  0.00     0.014 A 
ATOM     36  C   UNL A   1      39.055  25.442  28.087  1.00  0.00     0.014 A 
ATOM     37  C   UNL A   1      40.414  27.624  26.984  1.00  0.00     0.010 A 
ATOM     38  C   UNL A   1      39.038  26.664  28.737  1.00  0.00     0.010 A 
ATOM     39  C   UNL A   1      39.780  27.733  28.223  1.00  0.00    -0.014 A 
BRANCH  39  40
ATOM     40  C   UNL A   1      39.975  28.878  29.104  1.00  0.00     0.031 A 
ATOM     41  C   UNL A   1      38.994  29.984  29.150  1.00  0.00     0.074 A 
ATOM     42  C   UNL A   1      41.066  28.912  29.904  1.00  0.00     0.049 A 
ATOM     43  N   UNL A   1      39.268  31.167  29.593  1.00  0.00    -0.248 NA
ATOM     44  C   UNL A   1      37.642  29.877  28.611  1.00  0.00     0.031 C 
ATOM     45  C   UNL A   1      41.322  29.820  31.020  1.00  0.00     0.029 A 
ATOM     46  N   UNL A   1      42.293  28.255  29.701  1.00  0.00    -0.354 N 
ATOM     47  C   UNL A   1      38.088  31.865  29.676  1.00  0.00     0.074 A 
ATOM     48  C   UNL A   1      37.147  31.082  28.918  1.00  0.00     0.031 C 
ATOM     49  C   UNL A   1      42.647  29.905  31.212  1.00  0.00     0.029 A 
ATOM     50  C   UNL A   1      43.283  29.166  30.136  1.00  0.00     0.049 A 
ATOM     51  H   UNL A   1      42.433  27.351  29.335  1.00  0.00     0.167 HD
ATOM     52  C   UNL A   1      38.027  32.948  30.503  1.00  0.00     0.037 A 
ATOM     53  C   UNL A   1      44.220  29.675  29.287  1.00  0.00     0.037 A 
ATOM     54  C   UNL A   1      39.369  33.389  30.889  1.00  0.00     0.049 A 
ATOM     55  C   UNL A   1      44.243  31.183  29.209  1.00  0.00     0.074 A 
ATOM     56  C   UNL A   1      40.093  33.331  32.067  1.00  0.00     0.029 A 
ATOM     57  N   UNL A   1      40.259  33.794  29.897  1.00  0.00    -0.354 N 
ATOM     58  N   UNL A   1      43.270  31.946  29.619  1.00  0.00    -0.248 NA
ATOM     59  C   UNL A   1      45.334  31.944  28.603  1.00  0.00     0.031 C 
ATOM     60  C   UNL A   1      41.449  33.621  31.757  1.00  0.00     0.029 A 
ATOM     61  C   UNL A   1      41.539  33.896  30.403  1.00  0.00     0.049 A 
ATOM     62  H   UNL A   1      40.010  33.983  28.964  1.00  0.00     0.167 HD
ATOM     63  C   UNL A   1      43.550  33.248  29.303  1.00  0.00     0.074 A 
ATOM     64  C   UNL A   1      44.867  33.201  28.697  1.00  0.00     0.031 C 
ATOM     65  C   UNL A   1      42.655  34.252  29.538  1.00  0.00     0.037 A 
BRANCH  52  66
ATOM     66  C   UNL A   1      36.763  33.503  31.145  1.00  0.00     0.064 A 
ATOM     67  C   UNL A   1      36.493  33.248  32.511  1.00  0.00     0.173 A 
ATOM     68  C   UNL A   1      35.715  34.160  30.463  1.00  0.00     0.173 A 
ATOM     69  F   UNL A   1      37.393  32.641  33.297  1.00  0.00    -0.203 F 
ATOM     70  C   UNL A   1      35.275  33.584  33.119  1.00  0.00     0.198 A 
ATOM     71  C   UNL A   1      34.520  34.539  31.084  1.00  0.00     0.198 A 
ATOM     72  F   UNL A   1      35.758  34.416  29.155  1.00  0.00    -0.203 F 
ATOM     73  F   UNL A   1      35.055  33.252  34.398  1.00  0.00    -0.200 F 
ATOM     74  C   UNL A   1      34.292  34.235  32.406  1.00  0.00     0.200 A 
ATOM     75  F   UNL A   1      33.579  35.174  30.371  1.00  0.00    -0.200 F 
ATOM     76  F   UNL A   1      33.124  34.554  32.982  1.00  0.00    -0.200 F 
ENDBRANCH  52  66
BRANCH  53  77
ATOM     77  C   UNL A   1      44.562  28.770  28.160  1.00  0.00     0.064 A 
ATOM     78  C   UNL A   1      45.331  27.622  28.426  1.00  0.00     0.173 A 
ATOM     79  C   UNL A   1      43.876  28.823  26.941  1.00  0.00     0.173 A 
ATOM     80  F   UNL A   1      46.004  27.521  29.584  1.00  0.00    -0.203 F 
ATOM     81  C   UNL A   1      45.328  26.531  27.561  1.00  0.00     0.198 A 
ATOM     82  C   UNL A   1      43.886  27.731  26.071  1.00  0.00     0.198 A 
ATOM     83  F   UNL A   1      43.109  29.879  26.639  1.00  0.00    -0.203 F 
ATOM     84  F   UNL A   1      45.988  25.413  27.893  1.00  0.00    -0.200 F 
ATOM     85  C   UNL A   1      44.585  26.578  26.394  1.00  0.00     0.200 A 
ATOM     86  F   UNL A   1      43.140  27.763  24.957  1.00  0.00    -0.200 F 
ATOM     87  F   UNL A   1      44.508  25.499  25.604  1.00  0.00    -0.200 F 
ENDBRANCH  53  77
BRANCH  65  88
ATOM     88  C   UNL A   1      42.777  35.667  29.032  1.00  0.00     0.064 A 
ATOM     89  C   UNL A   1      42.075  36.166  27.921  1.00  0.00     0.173 A 
ATOM     90  C   UNL A   1      43.524  36.621  29.762  1.00  0.00     0.173 A 
ATOM     91  F   UNL A   1      41.240  35.388  27.219  1.00  0.00    -0.203 F 
ATOM     92  C   UNL A   1      42.166  37.506  27.530  1.00  0.00     0.198 A 
ATOM     93  C   UNL A   1      43.570  37.968  29.400  1.00  0.00     0.198 A 
ATOM     94  F   UNL A   1      44.213  36.275  30.859  1.00  0.00    -0.203 F 
ATOM     95  F   UNL A   1      41.509  37.924  26.439  1.00  0.00    -0.200 F 
ATOM     96  C   UNL A   1      42.903  38.407  28.274  1.00  0.00     0.200 A 
ATOM     97  F   UNL A   1      44.248  38.839  30.160  1.00  0.00    -0.200 F 
ATOM     98  F   UNL A   1      42.954  39.698  27.920  1.00  0.00    -0.200 F 
ENDBRANCH  65  88
ENDBRANCH  39  40
ENDBRANCH  31  34
ENDBRANCH  29  30
ENDBRANCH  28  29
ENDBRANCH  27  28
ENDBRANCH  26  27
ENDBRANCH   1  26
TORSDOF 17
ENDMDL
