MODEL 1
REMARK VINA RESULT:     -13.5      0.000      0.000
REMARK SMILES Cc1cccc(NC(=O)C[C@H]([NH2+]C(C)C)C(=O)NCCCCCCNC(=O)c2ccc(-c3c4nc(c(-c5c(F)c(F)c(F)c(F)c5F)c5ccc([nH]5)c(-c5c(F)c(F)c(F)c(F)c5F)c5nc(c(-c6c(F)c(F)c(F)c(F)c6F)c6ccc3[nH]6)C=C5)C=C4)cc2)c1
REMARK SMILES IDX 21 1 20 2 19 3 18 4 16 5 17 6 11 8 10 9 8 10 7 11 9 13 6 14
REMARK SMILES IDX 1 15 2 16 3 17 91 18 4 19 5 20 12 21 13 24 14 25 15 26 22 27
REMARK SMILES IDX 23 28 24 29 25 30 26 31 27 33 28 34 29 35 90 36 30 37 89 38
REMARK SMILES IDX 31 39 32 40 33 41 83 42 34 43 88 44 82 45 84 46 35 47 87 48
REMARK SMILES IDX 81 49 80 50 36 52 68 53 48 54 67 55 49 56 52 57 66 58 85 59
REMARK SMILES IDX 50 60 51 61 65 63 86 64 53 65 37 66 38 67 46 68 39 69 40 70
REMARK SMILES IDX 44 71 47 72 41 73 42 74 45 75 43 76 69 77 70 78 78 79 71 80
REMARK SMILES IDX 72 81 76 82 79 83 73 84 74 85 77 86 75 87 54 88 55 89 63 90
REMARK SMILES IDX 56 91 57 92 61 93 64 94 58 95 59 96 62 97 60 98
REMARK H PARENT 18 7 7 12 12 22 12 23 25 32 84 51 52 62
REMARK Flexibility Score: inf
ROOT
ATOM      1  C   UNL A   1      33.055  25.725  26.273  1.00  0.00     0.002 C 
ENDROOT
BRANCH   1   2
ATOM      2  C   UNL A   1      32.449  24.358  26.598  1.00  0.00     0.021 C 
BRANCH   2   3
ATOM      3  C   UNL A   1      30.771  24.219  26.195  1.00  0.00     0.116 C 
BRANCH   3   4
ATOM      4  N   UNL A   1      29.509  25.481  25.133  1.00  0.00    -0.351 N 
ATOM      5  C   UNL A   1      29.143  26.324  24.077  1.00  0.00     0.278 C 
ATOM      6  O   UNL A   1      27.905  26.453  23.985  1.00  0.00    -0.268 OA
ATOM      7  H   UNL A   1      28.702  25.493  25.697  1.00  0.00     0.163 HD
BRANCH   5   8
ATOM      8  C   UNL A   1      30.005  27.158  23.106  1.00  0.00     0.282 C 
BRANCH   8   9
ATOM      9  C   UNL A   1      31.464  26.697  22.848  1.00  0.00     0.175 C 
BRANCH   9  10
ATOM     10  C   UNL A   1      31.768  25.862  21.599  1.00  0.00     0.230 C 
ATOM     11  N   UNL A   1      32.485  24.698  21.649  1.00  0.00    -0.326 N 
ATOM     12  H   UNL A   1      32.790  24.313  20.795  1.00  0.00     0.169 HD
ATOM     13  O   UNL A   1      31.377  26.243  20.491  1.00  0.00    -0.274 OA
BRANCH  11  14
ATOM     14  C   UNL A   1      32.818  24.017  22.820  1.00  0.00     0.041 A 
ATOM     15  C   UNL A   1      36.777  23.189  24.808  1.00  0.00     0.044 C 
ATOM     16  C   UNL A   1      35.340  23.037  24.411  1.00  0.00    -0.049 A 
ATOM     17  C   UNL A   1      34.502  21.456  24.723  1.00  0.00     0.003 A 
ATOM     18  C   UNL A   1      34.516  24.298  23.402  1.00  0.00     0.029 A 
ATOM     19  C   UNL A   1      32.778  21.213  24.193  1.00  0.00     0.002 A 
ATOM     20  C   UNL A   1      31.926  22.488  23.244  1.00  0.00     0.026 A 
ENDBRANCH  11  14
ENDBRANCH   9  10
ENDBRANCH   8   9
BRANCH   8  21
ATOM     21  N   UNL A   1      29.834  28.646  23.318  1.00  0.00    -0.334 N 
ATOM     22  H   UNL A   1      30.755  29.079  23.253  1.00  0.00     0.347 HD
ATOM     23  H   UNL A   1      29.392  28.745  24.232  1.00  0.00     0.347 HD
BRANCH  21  24
ATOM     24  C   UNL A   1      28.937  29.336  22.361  1.00  0.00     0.176 C 
ATOM     25  C   UNL A   1      27.668  29.806  23.086  1.00  0.00     0.075 C 
ATOM     26  C   UNL A   1      29.534  30.457  21.521  1.00  0.00     0.075 C 
ENDBRANCH  21  24
ENDBRANCH   8  21
ENDBRANCH   5   8
ENDBRANCH   3   4
ENDBRANCH   2   3
ENDBRANCH   1   2
BRANCH   1  27
ATOM     27  C   UNL A   1      32.151  26.914  26.609  1.00  0.00     0.002 C 
BRANCH  27  28
ATOM     28  C   UNL A   1      32.868  28.163  27.156  1.00  0.00     0.021 C 
BRANCH  28  29
ATOM     29  C   UNL A   1      34.040  28.669  26.323  1.00  0.00     0.116 C 
BRANCH  29  30
ATOM     30  N   UNL A   1      34.190  30.116  26.427  1.00  0.00    -0.352 N 
ATOM     31  C   UNL A   1      34.202  30.825  27.606  1.00  0.00     0.251 C 
ATOM     32  H   UNL A   1      34.290  30.624  25.590  1.00  0.00     0.163 HD
ATOM     33  O   UNL A   1      33.291  31.564  27.949  1.00  0.00    -0.269 OA
BRANCH  31  34
ATOM     34  C   UNL A   1      35.526  30.874  28.271  1.00  0.00     0.039 A 
ATOM     35  C   UNL A   1      36.295  32.043  28.290  1.00  0.00     0.014 A 
ATOM     36  C   UNL A   1      36.049  29.692  28.782  1.00  0.00     0.014 A 
ATOM     37  C   UNL A   1      37.624  31.976  28.704  1.00  0.00     0.010 A 
ATOM     38  C   UNL A   1      37.349  29.596  29.134  1.00  0.00     0.010 A 
ATOM     39  C   UNL A   1      38.137  30.729  29.047  1.00  0.00    -0.014 A 
BRANCH  39  40
ATOM     40  C   UNL A   1      39.469  30.430  29.497  1.00  0.00     0.031 A 
ATOM     41  C   UNL A   1      40.086  29.273  28.845  1.00  0.00     0.074 A 
ATOM     42  C   UNL A   1      40.062  31.421  30.196  1.00  0.00     0.049 A 
ATOM     43  N   UNL A   1      40.862  28.434  29.419  1.00  0.00    -0.248 NA
ATOM     44  C   UNL A   1      39.774  28.900  27.458  1.00  0.00     0.031 C 
ATOM     45  C   UNL A   1      41.454  31.667  30.526  1.00  0.00     0.029 A 
ATOM     46  N   UNL A   1      39.379  32.448  30.877  1.00  0.00    -0.354 N 
ATOM     47  C   UNL A   1      41.489  27.755  28.395  1.00  0.00     0.074 A 
ATOM     48  C   UNL A   1      40.608  27.875  27.264  1.00  0.00     0.031 C 
ATOM     49  C   UNL A   1      41.497  32.472  31.609  1.00  0.00     0.029 A 
ATOM     50  C   UNL A   1      40.125  32.698  32.044  1.00  0.00     0.049 A 
ATOM     51  H   UNL A   1      38.550  32.898  30.595  1.00  0.00     0.167 HD
ATOM     52  C   UNL A   1      42.810  27.450  28.547  1.00  0.00     0.037 A 
ATOM     53  C   UNL A   1      39.584  32.306  33.239  1.00  0.00     0.037 A 
ATOM     54  C   UNL A   1      43.276  28.026  29.814  1.00  0.00     0.049 A 
ATOM     55  C   UNL A   1      40.320  31.108  33.783  1.00  0.00     0.074 A 
ATOM     56  C   UNL A   1      43.972  29.192  30.097  1.00  0.00     0.029 A 
ATOM     57  N   UNL A   1      42.680  27.627  31.004  1.00  0.00    -0.354 N 
ATOM     58  N   UNL A   1      40.938  30.232  33.037  1.00  0.00    -0.248 NA
ATOM     59  C   UNL A   1      40.482  30.856  35.209  1.00  0.00     0.031 C 
ATOM     60  C   UNL A   1      43.748  29.510  31.463  1.00  0.00     0.029 A 
ATOM     61  C   UNL A   1      42.911  28.549  32.005  1.00  0.00     0.049 A 
ATOM     62  H   UNL A   1      42.163  26.797  31.118  1.00  0.00     0.167 HD
ATOM     63  C   UNL A   1      41.601  29.343  33.841  1.00  0.00     0.074 A 
ATOM     64  C   UNL A   1      41.280  29.775  35.189  1.00  0.00     0.031 C 
ATOM     65  C   UNL A   1      42.378  28.334  33.343  1.00  0.00     0.037 A 
BRANCH  52  66
ATOM     66  C   UNL A   1      43.766  26.962  27.479  1.00  0.00     0.064 A 
ATOM     67  C   UNL A   1      44.204  25.616  27.492  1.00  0.00     0.173 A 
ATOM     68  C   UNL A   1      44.276  27.726  26.411  1.00  0.00     0.173 A 
ATOM     69  F   UNL A   1      43.750  24.740  28.399  1.00  0.00    -0.203 F 
ATOM     70  C   UNL A   1      45.113  25.103  26.565  1.00  0.00     0.198 A 
ATOM     71  C   UNL A   1      45.204  27.218  25.492  1.00  0.00     0.198 A 
ATOM     72  F   UNL A   1      43.864  28.973  26.171  1.00  0.00    -0.203 F 
ATOM     73  F   UNL A   1      45.484  23.818  26.642  1.00  0.00    -0.200 F 
ATOM     74  C   UNL A   1      45.623  25.907  25.570  1.00  0.00     0.200 A 
ATOM     75  F   UNL A   1      45.675  28.011  24.519  1.00  0.00    -0.200 F 
ATOM     76  F   UNL A   1      46.493  25.415  24.677  1.00  0.00    -0.200 F 
ENDBRANCH  52  66
BRANCH  53  77
ATOM     77  C   UNL A   1      38.097  32.523  33.251  1.00  0.00     0.064 A 
ATOM     78  C   UNL A   1      37.663  33.864  33.352  1.00  0.00     0.173 A 
ATOM     79  C   UNL A   1      37.209  31.606  32.671  1.00  0.00     0.173 A 
ATOM     80  F   UNL A   1      38.457  34.780  33.931  1.00  0.00    -0.203 F 
ATOM     81  C   UNL A   1      36.512  34.304  32.701  1.00  0.00     0.198 A 
ATOM     82  C   UNL A   1      36.027  32.048  32.065  1.00  0.00     0.198 A 
ATOM     83  F   UNL A   1      37.540  30.312  32.566  1.00  0.00    -0.203 F 
ATOM     84  F   UNL A   1      36.237  35.616  32.644  1.00  0.00    -0.200 F 
ATOM     85  C   UNL A   1      35.719  33.400  32.018  1.00  0.00     0.200 A 
ATOM     86  F   UNL A   1      35.228  31.170  31.439  1.00  0.00    -0.200 F 
ATOM     87  F   UNL A   1      34.693  33.842  31.276  1.00  0.00    -0.200 F 
ENDBRANCH  53  77
BRANCH  65  88
ATOM     88  C   UNL A   1      42.802  27.097  34.102  1.00  0.00     0.064 A 
ATOM     89  C   UNL A   1      44.131  26.814  34.452  1.00  0.00     0.173 A 
ATOM     90  C   UNL A   1      41.838  26.205  34.643  1.00  0.00     0.173 A 
ATOM     91  F   UNL A   1      45.130  27.657  34.165  1.00  0.00    -0.203 F 
ATOM     92  C   UNL A   1      44.480  25.671  35.174  1.00  0.00     0.198 A 
ATOM     93  C   UNL A   1      42.183  25.123  35.446  1.00  0.00     0.198 A 
ATOM     94  F   UNL A   1      40.522  26.364  34.441  1.00  0.00    -0.203 F 
ATOM     95  F   UNL A   1      45.773  25.405  35.399  1.00  0.00    -0.200 F 
ATOM     96  C   UNL A   1      43.507  24.832  35.680  1.00  0.00     0.200 A 
ATOM     97  F   UNL A   1      41.218  24.375  36.002  1.00  0.00    -0.200 F 
ATOM     98  F   UNL A   1      43.845  23.762  36.408  1.00  0.00    -0.200 F 
ENDBRANCH  65  88
ENDBRANCH  39  40
ENDBRANCH  31  34
ENDBRANCH  29  30
ENDBRANCH  28  29
ENDBRANCH  27  28
ENDBRANCH   1  27
TORSDOF 18
ENDMDL
MODEL 2
REMARK VINA RESULT:     -13.3      2.195      3.511
REMARK SMILES Cc1cccc(NC(=O)C[C@H]([NH2+]C(C)C)C(=O)NCCCCCCNC(=O)c2ccc(-c3c4nc(c(-c5c(F)c(F)c(F)c(F)c5F)c5ccc([nH]5)c(-c5c(F)c(F)c(F)c(F)c5F)c5nc(c(-c6c(F)c(F)c(F)c(F)c6F)c6ccc3[nH]6)C=C5)C=C4)cc2)c1
REMARK SMILES IDX 21 1 20 2 19 3 18 4 16 5 17 6 11 8 10 9 8 10 7 11 9 13 6 14
REMARK SMILES IDX 1 15 2 16 3 17 91 18 4 19 5 20 12 21 13 24 14 25 15 26 22 27
REMARK SMILES IDX 23 28 24 29 25 30 26 31 27 33 28 34 29 35 90 36 30 37 89 38
REMARK SMILES IDX 31 39 32 40 33 41 83 42 34 43 88 44 82 45 84 46 35 47 87 48
REMARK SMILES IDX 81 49 80 50 36 52 68 53 48 54 67 55 49 56 52 57 66 58 85 59
REMARK SMILES IDX 50 60 51 61 65 63 86 64 53 65 37 66 38 67 46 68 39 69 40 70
REMARK SMILES IDX 44 71 47 72 41 73 42 74 45 75 43 76 69 77 70 78 78 79 71 80
REMARK SMILES IDX 72 81 76 82 79 83 73 84 74 85 77 86 75 87 54 88 55 89 63 90
REMARK SMILES IDX 56 91 57 92 61 93 64 94 58 95 59 96 62 97 60 98
REMARK H PARENT 18 7 7 12 12 22 12 23 25 32 84 51 52 62
REMARK Flexibility Score: inf
ROOT
ATOM      1  C   UNL A   1      33.994  27.486  23.712  1.00  0.00     0.002 C 
ENDROOT
BRANCH   1   2
ATOM      2  C   UNL A   1      33.753  27.659  22.211  1.00  0.00     0.021 C 
BRANCH   2   3
ATOM      3  C   UNL A   1      33.045  26.276  21.448  1.00  0.00     0.116 C 
BRANCH   3   4
ATOM      4  N   UNL A   1      32.431  24.450  22.222  1.00  0.00    -0.351 N 
ATOM      5  C   UNL A   1      31.703  23.604  23.067  1.00  0.00     0.278 C 
ATOM      6  O   UNL A   1      31.633  22.440  22.621  1.00  0.00    -0.268 OA
ATOM      7  H   UNL A   1      32.951  23.809  21.684  1.00  0.00     0.163 HD
BRANCH   5   8
ATOM      8  C   UNL A   1      31.077  23.857  24.454  1.00  0.00     0.282 C 
BRANCH   8   9
ATOM      9  C   UNL A   1      30.936  22.650  25.420  1.00  0.00     0.175 C 
BRANCH   9  10
ATOM     10  C   UNL A   1      31.557  22.743  26.818  1.00  0.00     0.230 C 
ATOM     11  N   UNL A   1      32.899  22.588  27.038  1.00  0.00    -0.326 N 
ATOM     12  H   UNL A   1      33.199  22.485  27.970  1.00  0.00     0.169 HD
ATOM     13  O   UNL A   1      30.838  22.945  27.801  1.00  0.00    -0.274 OA
BRANCH  11  14
ATOM     14  C   UNL A   1      33.872  22.565  26.039  1.00  0.00     0.041 A 
ATOM     15  C   UNL A   1      36.916  19.456  24.862  1.00  0.00     0.044 C 
ATOM     16  C   UNL A   1      36.259  20.793  25.032  1.00  0.00    -0.049 A 
ATOM     17  C   UNL A   1      37.250  22.298  24.800  1.00  0.00     0.003 A 
ATOM     18  C   UNL A   1      34.585  20.925  25.714  1.00  0.00     0.029 A 
ATOM     19  C   UNL A   1      36.503  23.936  25.064  1.00  0.00     0.002 A 
ATOM     20  C   UNL A   1      34.815  24.081  25.681  1.00  0.00     0.026 A 
ENDBRANCH  11  14
ENDBRANCH   9  10
ENDBRANCH   8   9
BRANCH   8  21
ATOM     21  N   UNL A   1      29.868  24.763  24.383  1.00  0.00    -0.334 N 
ATOM     22  H   UNL A   1      29.135  24.351  24.961  1.00  0.00     0.347 HD
ATOM     23  H   UNL A   1      29.629  24.828  23.394  1.00  0.00     0.347 HD
BRANCH  21  24
ATOM     24  C   UNL A   1      30.078  26.158  24.839  1.00  0.00     0.176 C 
ATOM     25  C   UNL A   1      31.231  26.205  25.851  1.00  0.00     0.075 C 
ATOM     26  C   UNL A   1      30.243  27.230  23.770  1.00  0.00     0.075 C 
ENDBRANCH  21  24
ENDBRANCH   8  21
ENDBRANCH   5   8
ENDBRANCH   3   4
ENDBRANCH   2   3
ENDBRANCH   1   2
BRANCH   1  27
ATOM     27  C   UNL A   1      33.696  28.733  24.548  1.00  0.00     0.002 C 
BRANCH  27  28
ATOM     28  C   UNL A   1      34.045  28.631  26.045  1.00  0.00     0.021 C 
BRANCH  28  29
ATOM     29  C   UNL A   1      33.445  29.711  26.937  1.00  0.00     0.116 C 
BRANCH  29  30
ATOM     30  N   UNL A   1      34.387  30.798  27.176  1.00  0.00    -0.352 N 
ATOM     31  C   UNL A   1      34.997  31.062  28.381  1.00  0.00     0.251 C 
ATOM     32  H   UNL A   1      34.602  31.389  26.419  1.00  0.00     0.163 HD
ATOM     33  O   UNL A   1      34.726  32.037  29.067  1.00  0.00    -0.269 OA
BRANCH  31  34
ATOM     34  C   UNL A   1      36.219  30.261  28.630  1.00  0.00     0.039 A 
ATOM     35  C   UNL A   1      36.435  29.609  29.849  1.00  0.00     0.014 A 
ATOM     36  C   UNL A   1      37.215  30.263  27.660  1.00  0.00     0.014 A 
ATOM     37  C   UNL A   1      37.694  29.081  30.125  1.00  0.00     0.010 A 
ATOM     38  C   UNL A   1      38.457  29.806  27.932  1.00  0.00     0.010 A 
ATOM     39  C   UNL A   1      38.697  29.262  29.179  1.00  0.00    -0.014 A 
BRANCH  39  40
ATOM     40  C   UNL A   1      40.058  28.804  29.256  1.00  0.00     0.031 A 
ATOM     41  C   UNL A   1      40.251  27.404  28.873  1.00  0.00     0.074 A 
ATOM     42  C   UNL A   1      40.977  29.789  29.351  1.00  0.00     0.049 A 
ATOM     43  N   UNL A   1      41.084  26.602  29.419  1.00  0.00    -0.248 NA
ATOM     44  C   UNL A   1      39.404  26.744  27.870  1.00  0.00     0.031 C 
ATOM     45  C   UNL A   1      42.410  29.793  29.118  1.00  0.00     0.029 A 
ATOM     46  N   UNL A   1      40.719  31.090  29.824  1.00  0.00    -0.354 N 
ATOM     47  C   UNL A   1      41.202  25.544  28.543  1.00  0.00     0.074 A 
ATOM     48  C   UNL A   1      39.983  25.544  27.781  1.00  0.00     0.031 C 
ATOM     49  C   UNL A   1      42.946  30.834  29.791  1.00  0.00     0.029 A 
ATOM     50  C   UNL A   1      41.870  31.476  30.536  1.00  0.00     0.049 A 
ATOM     51  H   UNL A   1      39.902  31.620  29.685  1.00  0.00     0.167 HD
ATOM     52  C   UNL A   1      42.441  25.001  28.361  1.00  0.00     0.037 A 
ATOM     53  C   UNL A   1      41.775  31.562  31.898  1.00  0.00     0.037 A 
ATOM     54  C   UNL A   1      43.409  25.782  29.141  1.00  0.00     0.049 A 
ATOM     55  C   UNL A   1      42.519  30.426  32.552  1.00  0.00     0.074 A 
ATOM     56  C   UNL A   1      44.287  26.791  28.775  1.00  0.00     0.029 A 
ATOM     57  N   UNL A   1      43.259  25.873  30.519  1.00  0.00    -0.354 N 
ATOM     58  N   UNL A   1      42.710  29.261  31.991  1.00  0.00    -0.248 NA
ATOM     59  C   UNL A   1      43.172  30.547  33.849  1.00  0.00     0.031 C 
ATOM     60  C   UNL A   1      44.628  27.517  29.949  1.00  0.00     0.029 A 
ATOM     61  C   UNL A   1      43.950  26.958  31.020  1.00  0.00     0.049 A 
ATOM     62  H   UNL A   1      42.732  25.246  31.065  1.00  0.00     0.167 HD
ATOM     63  C   UNL A   1      43.520  28.502  32.793  1.00  0.00     0.074 A 
ATOM     64  C   UNL A   1      43.777  29.350  33.944  1.00  0.00     0.031 C 
ATOM     65  C   UNL A   1      43.935  27.246  32.447  1.00  0.00     0.037 A 
BRANCH  52  66
ATOM     66  C   UNL A   1      42.867  24.034  27.277  1.00  0.00     0.064 A 
ATOM     67  C   UNL A   1      42.588  22.654  27.419  1.00  0.00     0.173 A 
ATOM     68  C   UNL A   1      43.522  24.371  26.076  1.00  0.00     0.173 A 
ATOM     69  F   UNL A   1      41.903  22.182  28.470  1.00  0.00    -0.203 F 
ATOM     70  C   UNL A   1      42.982  21.698  26.481  1.00  0.00     0.198 A 
ATOM     71  C   UNL A   1      43.936  23.410  25.144  1.00  0.00     0.198 A 
ATOM     72  F   UNL A   1      43.742  25.639  25.720  1.00  0.00    -0.203 F 
ATOM     73  F   UNL A   1      42.684  20.407  26.686  1.00  0.00    -0.200 F 
ATOM     74  C   UNL A   1      43.668  22.074  25.348  1.00  0.00     0.200 A 
ATOM     75  F   UNL A   1      44.585  23.797  24.037  1.00  0.00    -0.200 F 
ATOM     76  F   UNL A   1      44.043  21.158  24.445  1.00  0.00    -0.200 F 
ENDBRANCH  52  66
BRANCH  53  77
ATOM     77  C   UNL A   1      40.434  32.105  32.308  1.00  0.00     0.064 A 
ATOM     78  C   UNL A   1      39.545  31.183  32.906  1.00  0.00     0.173 A 
ATOM     79  C   UNL A   1      40.242  33.461  32.603  1.00  0.00     0.173 A 
ATOM     80  F   UNL A   1      39.659  29.873  32.632  1.00  0.00    -0.203 F 
ATOM     81  C   UNL A   1      38.670  31.573  33.918  1.00  0.00     0.198 A 
ATOM     82  C   UNL A   1      39.322  33.852  33.584  1.00  0.00     0.198 A 
ATOM     83  F   UNL A   1      41.029  34.396  32.052  1.00  0.00    -0.203 F 
ATOM     84  F   UNL A   1      37.988  30.645  34.606  1.00  0.00    -0.200 F 
ATOM     85  C   UNL A   1      38.595  32.903  34.288  1.00  0.00     0.200 A 
ATOM     86  F   UNL A   1      39.210  35.147  33.918  1.00  0.00    -0.200 F 
ATOM     87  F   UNL A   1      37.860  33.258  35.354  1.00  0.00    -0.200 F 
ENDBRANCH  53  77
BRANCH  65  88
ATOM     88  C   UNL A   1      44.469  26.204  33.404  1.00  0.00     0.064 A 
ATOM     89  C   UNL A   1      45.811  25.795  33.442  1.00  0.00     0.173 A 
ATOM     90  C   UNL A   1      43.653  25.675  34.439  1.00  0.00     0.173 A 
ATOM     91  F   UNL A   1      46.737  26.340  32.644  1.00  0.00    -0.203 F 
ATOM     92  C   UNL A   1      46.271  24.845  34.356  1.00  0.00     0.198 A 
ATOM     93  C   UNL A   1      44.139  24.805  35.409  1.00  0.00     0.198 A 
ATOM     94  F   UNL A   1      42.360  26.004  34.569  1.00  0.00    -0.203 F 
ATOM     95  F   UNL A   1      47.540  24.425  34.286  1.00  0.00    -0.200 F 
ATOM     96  C   UNL A   1      45.439  24.359  35.345  1.00  0.00     0.200 A 
ATOM     97  F   UNL A   1      43.339  24.416  36.412  1.00  0.00    -0.200 F 
ATOM     98  F   UNL A   1      45.895  23.481  36.246  1.00  0.00    -0.200 F 
ENDBRANCH  65  88
ENDBRANCH  39  40
ENDBRANCH  31  34
ENDBRANCH  29  30
ENDBRANCH  28  29
ENDBRANCH  27  28
ENDBRANCH   1  27
TORSDOF 18
ENDMDL
MODEL 3
REMARK VINA RESULT:     -13.3      2.183      3.593
REMARK SMILES Cc1cccc(NC(=O)C[C@H]([NH2+]C(C)C)C(=O)NCCCCCCNC(=O)c2ccc(-c3c4nc(c(-c5c(F)c(F)c(F)c(F)c5F)c5ccc([nH]5)c(-c5c(F)c(F)c(F)c(F)c5F)c5nc(c(-c6c(F)c(F)c(F)c(F)c6F)c6ccc3[nH]6)C=C5)C=C4)cc2)c1
REMARK SMILES IDX 21 1 20 2 19 3 18 4 16 5 17 6 11 8 10 9 8 10 7 11 9 13 6 14
REMARK SMILES IDX 1 15 2 16 3 17 91 18 4 19 5 20 12 21 13 24 14 25 15 26 22 27
REMARK SMILES IDX 23 28 24 29 25 30 26 31 27 33 28 34 29 35 90 36 30 37 89 38
REMARK SMILES IDX 31 39 32 40 33 41 83 42 34 43 88 44 82 45 84 46 35 47 87 48
REMARK SMILES IDX 81 49 80 50 36 52 68 53 48 54 67 55 49 56 52 57 66 58 85 59
REMARK SMILES IDX 50 60 51 61 65 63 86 64 53 65 37 66 38 67 46 68 39 69 40 70
REMARK SMILES IDX 44 71 47 72 41 73 42 74 45 75 43 76 69 77 70 78 78 79 71 80
REMARK SMILES IDX 72 81 76 82 79 83 73 84 74 85 77 86 75 87 54 88 55 89 63 90
REMARK SMILES IDX 56 91 57 92 61 93 64 94 58 95 59 96 62 97 60 98
REMARK H PARENT 18 7 7 12 12 22 12 23 25 32 84 51 52 62
REMARK Flexibility Score: inf
ROOT
ATOM      1  C   UNL A   1      35.096  28.886  27.129  1.00  0.00     0.002 C 
ENDROOT
BRANCH   1   2
ATOM      2  C   UNL A   1      33.598  28.574  27.123  1.00  0.00     0.021 C 
BRANCH   2   3
ATOM      3  C   UNL A   1      33.179  27.152  26.230  1.00  0.00     0.116 C 
BRANCH   3   4
ATOM      4  N   UNL A   1      31.393  26.565  25.348  1.00  0.00    -0.351 N 
ATOM      5  C   UNL A   1      30.476  25.653  24.812  1.00  0.00     0.278 C 
ATOM      6  O   UNL A   1      29.316  26.113  24.788  1.00  0.00    -0.268 OA
ATOM      7  H   UNL A   1      30.917  27.421  25.250  1.00  0.00     0.163 HD
BRANCH   5   8
ATOM      8  C   UNL A   1      30.686  24.258  24.186  1.00  0.00     0.282 C 
BRANCH   8   9
ATOM      9  C   UNL A   1      31.242  23.129  25.094  1.00  0.00     0.175 C 
BRANCH   9  10
ATOM     10  C   UNL A   1      31.847  23.501  26.452  1.00  0.00     0.230 C 
ATOM     11  N   UNL A   1      33.174  23.329  26.738  1.00  0.00    -0.326 N 
ATOM     12  H   UNL A   1      33.454  23.422  27.678  1.00  0.00     0.169 HD
ATOM     13  O   UNL A   1      31.126  23.956  27.346  1.00  0.00    -0.274 OA
BRANCH  11  14
ATOM     14  C   UNL A   1      34.159  23.031  25.796  1.00  0.00     0.041 A 
ATOM     15  C   UNL A   1      36.389  19.227  24.863  1.00  0.00     0.044 C 
ATOM     16  C   UNL A   1      36.078  20.689  24.966  1.00  0.00    -0.049 A 
ATOM     17  C   UNL A   1      37.421  21.894  24.756  1.00  0.00     0.003 A 
ATOM     18  C   UNL A   1      34.457  21.255  25.549  1.00  0.00     0.029 A 
ATOM     19  C   UNL A   1      37.093  23.674  24.942  1.00  0.00     0.002 A 
ATOM     20  C   UNL A   1      35.466  24.253  25.458  1.00  0.00     0.026 A 
ENDBRANCH  11  14
ENDBRANCH   9  10
ENDBRANCH   8   9
BRANCH   8  21
ATOM     21  N   UNL A   1      31.307  24.334  22.809  1.00  0.00    -0.334 N 
ATOM     22  H   UNL A   1      30.921  25.152  22.336  1.00  0.00     0.347 HD
ATOM     23  H   UNL A   1      31.083  23.448  22.356  1.00  0.00     0.347 HD
BRANCH  21  24
ATOM     24  C   UNL A   1      32.785  24.442  22.771  1.00  0.00     0.176 C 
ATOM     25  C   UNL A   1      33.377  23.222  22.052  1.00  0.00     0.075 C 
ATOM     26  C   UNL A   1      33.382  25.736  22.235  1.00  0.00     0.075 C 
ENDBRANCH  21  24
ENDBRANCH   8  21
ENDBRANCH   5   8
ENDBRANCH   3   4
ENDBRANCH   2   3
ENDBRANCH   1   2
BRANCH   1  27
ATOM     27  C   UNL A   1      35.496  30.048  28.041  1.00  0.00     0.002 C 
BRANCH  27  28
ATOM     28  C   UNL A   1      35.090  31.451  27.551  1.00  0.00     0.021 C 
BRANCH  28  29
ATOM     29  C   UNL A   1      33.903  32.082  28.268  1.00  0.00     0.116 C 
BRANCH  29  30
ATOM     30  N   UNL A   1      34.324  33.142  29.178  1.00  0.00    -0.352 N 
ATOM     31  C   UNL A   1      34.775  32.945  30.463  1.00  0.00     0.251 C 
ATOM     32  H   UNL A   1      34.281  34.068  28.849  1.00  0.00     0.163 HD
ATOM     33  O   UNL A   1      34.132  33.265  31.452  1.00  0.00    -0.269 OA
BRANCH  31  34
ATOM     34  C   UNL A   1      36.216  32.613  30.556  1.00  0.00     0.039 A 
ATOM     35  C   UNL A   1      37.170  33.252  29.756  1.00  0.00     0.014 A 
ATOM     36  C   UNL A   1      36.597  31.558  31.378  1.00  0.00     0.014 A 
ATOM     37  C   UNL A   1      38.464  32.740  29.699  1.00  0.00     0.010 A 
ATOM     38  C   UNL A   1      37.830  31.015  31.294  1.00  0.00     0.010 A 
ATOM     39  C   UNL A   1      38.738  31.582  30.420  1.00  0.00    -0.014 A 
BRANCH  39  40
ATOM     40  C   UNL A   1      39.993  30.886  30.504  1.00  0.00     0.031 A 
ATOM     41  C   UNL A   1      40.011  29.582  29.839  1.00  0.00     0.074 A 
ATOM     42  C   UNL A   1      41.036  31.652  30.890  1.00  0.00     0.049 A 
ATOM     43  N   UNL A   1      40.640  28.551  30.260  1.00  0.00    -0.248 NA
ATOM     44  C   UNL A   1      39.196  29.301  28.649  1.00  0.00     0.031 C 
ATOM     45  C   UNL A   1      42.470  31.452  30.781  1.00  0.00     0.029 A 
ATOM     46  N   UNL A   1      40.929  32.854  31.616  1.00  0.00    -0.354 N 
ATOM     47  C   UNL A   1      40.695  27.690  29.183  1.00  0.00     0.074 A 
ATOM     48  C   UNL A   1      39.589  28.061  28.343  1.00  0.00     0.031 C 
ATOM     49  C   UNL A   1      43.077  32.221  31.709  1.00  0.00     0.029 A 
ATOM     50  C   UNL A   1      42.034  32.877  32.487  1.00  0.00     0.049 A 
ATOM     51  H   UNL A   1      40.225  33.537  31.532  1.00  0.00     0.167 HD
ATOM     52  C   UNL A   1      41.848  26.987  28.988  1.00  0.00     0.037 A 
ATOM     53  C   UNL A   1      41.793  32.698  33.822  1.00  0.00     0.037 A 
ATOM     54  C   UNL A   1      42.827  27.409  29.997  1.00  0.00     0.049 A 
ATOM     55  C   UNL A   1      42.271  31.339  34.267  1.00  0.00     0.074 A 
ATOM     56  C   UNL A   1      43.887  28.300  29.937  1.00  0.00     0.029 A 
ATOM     57  N   UNL A   1      42.532  27.240  31.344  1.00  0.00    -0.354 N 
ATOM     58  N   UNL A   1      42.344  30.299  33.480  1.00  0.00    -0.248 NA
ATOM     59  C   UNL A   1      42.778  31.075  35.608  1.00  0.00     0.031 C 
ATOM     60  C   UNL A   1      44.195  28.699  31.266  1.00  0.00     0.029 A 
ATOM     61  C   UNL A   1      43.318  28.061  32.127  1.00  0.00     0.049 A 
ATOM     62  H   UNL A   1      41.853  26.618  31.693  1.00  0.00     0.167 HD
ATOM     63  C   UNL A   1      42.927  29.261  34.158  1.00  0.00     0.074 A 
ATOM     64  C   UNL A   1      43.175  29.797  35.484  1.00  0.00     0.031 C 
ATOM     65  C   UNL A   1      43.180  28.049  33.577  1.00  0.00     0.037 A 
BRANCH  52  66
ATOM     66  C   UNL A   1      42.244  26.202  27.755  1.00  0.00     0.064 A 
ATOM     67  C   UNL A   1      41.644  24.945  27.501  1.00  0.00     0.173 A 
ATOM     68  C   UNL A   1      43.170  26.610  26.774  1.00  0.00     0.173 A 
ATOM     69  F   UNL A   1      40.687  24.451  28.298  1.00  0.00    -0.203 F 
ATOM     70  C   UNL A   1      41.984  24.148  26.407  1.00  0.00     0.198 A 
ATOM     71  C   UNL A   1      43.527  25.801  25.687  1.00  0.00     0.198 A 
ATOM     72  F   UNL A   1      43.728  27.823  26.787  1.00  0.00    -0.203 F 
ATOM     73  F   UNL A   1      41.375  22.967  26.233  1.00  0.00    -0.200 F 
ATOM     74  C   UNL A   1      42.936  24.570  25.505  1.00  0.00     0.200 A 
ATOM     75  F   UNL A   1      44.441  26.237  24.809  1.00  0.00    -0.200 F 
ATOM     76  F   UNL A   1      43.261  23.807  24.452  1.00  0.00    -0.200 F 
ENDBRANCH  52  66
BRANCH  53  77
ATOM     77  C   UNL A   1      40.514  33.373  34.232  1.00  0.00     0.064 A 
ATOM     78  C   UNL A   1      39.437  32.520  34.561  1.00  0.00     0.173 A 
ATOM     79  C   UNL A   1      40.498  34.663  34.781  1.00  0.00     0.173 A 
ATOM     80  F   UNL A   1      39.380  31.285  34.036  1.00  0.00    -0.203 F 
ATOM     81  C   UNL A   1      38.527  32.855  35.562  1.00  0.00     0.198 A 
ATOM     82  C   UNL A   1      39.548  35.012  35.748  1.00  0.00     0.198 A 
ATOM     83  F   UNL A   1      41.473  35.537  34.492  1.00  0.00    -0.203 F 
ATOM     84  F   UNL A   1      37.642  31.943  35.994  1.00  0.00    -0.200 F 
ATOM     85  C   UNL A   1      38.614  34.085  36.188  1.00  0.00     0.200 A 
ATOM     86  F   UNL A   1      39.598  36.221  36.328  1.00  0.00    -0.200 F 
ATOM     87  F   UNL A   1      37.832  34.352  37.245  1.00  0.00    -0.200 F 
ENDBRANCH  53  77
BRANCH  65  88
ATOM     88  C   UNL A   1      43.430  26.756  34.320  1.00  0.00     0.064 A 
ATOM     89  C   UNL A   1      42.410  25.958  34.861  1.00  0.00     0.173 A 
ATOM     90  C   UNL A   1      44.731  26.190  34.384  1.00  0.00     0.173 A 
ATOM     91  F   UNL A   1      41.117  26.274  34.720  1.00  0.00    -0.203 F 
ATOM     92  C   UNL A   1      42.679  24.758  35.521  1.00  0.00     0.198 A 
ATOM     93  C   UNL A   1      44.981  24.946  34.955  1.00  0.00     0.198 A 
ATOM     94  F   UNL A   1      45.805  26.805  33.870  1.00  0.00    -0.203 F 
ATOM     95  F   UNL A   1      41.676  24.085  36.098  1.00  0.00    -0.200 F 
ATOM     96  C   UNL A   1      43.962  24.247  35.558  1.00  0.00     0.200 A 
ATOM     97  F   UNL A   1      46.217  24.428  34.900  1.00  0.00    -0.200 F 
ATOM     98  F   UNL A   1      44.208  23.074  36.154  1.00  0.00    -0.200 F 
ENDBRANCH  65  88
ENDBRANCH  39  40
ENDBRANCH  31  34
ENDBRANCH  29  30
ENDBRANCH  28  29
ENDBRANCH  27  28
ENDBRANCH   1  27
TORSDOF 18
ENDMDL
