MODEL 1
REMARK VINA RESULT:     -11.0      0.000      0.000
REMARK SMILES CC(C)(C)[NH2+]CC(=O)N[C@](C)(C(=O)NCCCCCCNC(=O)c1ccc(-c2c3nc(c(-c4c(F)c(F)c(F)c(F)c4F)c4ccc([nH]4)c(-c4c(F)c(F)c(F)c(F)c4F)c4nc(c(-c5c(F)c(F)c(F)c(F)c5F)c5ccc2[nH]5)C=C4)C=C3)cc1)C1CC1
REMARK SMILES IDX 16 1 15 2 14 3 12 4 13 5 10 7 11 8 9 9 7 10 8 11 6 13 5 14
REMARK SMILES IDX 2 17 1 18 3 19 4 20 87 21 88 22 89 23 17 24 18 25 19 26
REMARK SMILES IDX 20 27 21 28 22 29 23 31 24 32 25 33 86 34 26 35 85 36 27 37
REMARK SMILES IDX 28 38 29 39 79 40 30 41 84 42 78 43 80 44 31 45 83 46 77 47
REMARK SMILES IDX 76 48 32 50 64 51 44 52 63 53 45 54 48 55 62 56 81 57 46 58
REMARK SMILES IDX 47 59 61 61 82 62 49 63 33 64 34 65 42 66 35 67 36 68 40 69
REMARK SMILES IDX 43 70 37 71 38 72 41 73 39 74 65 75 66 76 74 77 67 78 68 79
REMARK SMILES IDX 72 80 75 81 69 82 70 83 73 84 71 85 50 86 51 87 59 88 52 89
REMARK SMILES IDX 53 90 57 91 60 92 54 93 55 94 58 95 56 96
REMARK H PARENT 14 6 9 12 5 15 5 16 21 30 80 49 48 60
REMARK Flexibility Score: inf
ROOT
ATOM      1  C   UNL A   1      32.782  28.628  27.194  1.00  0.00     0.021 C 
ENDROOT
BRANCH   1   2
ATOM      2  C   UNL A   1      31.407  28.022  26.885  1.00  0.00     0.116 C 
BRANCH   2   3
ATOM      3  N   UNL A   1      31.422  26.592  27.100  1.00  0.00    -0.354 N 
ATOM      4  C   UNL A   1      30.890  25.775  26.125  1.00  0.00     0.245 C 
ATOM      5  O   UNL A   1      29.755  25.337  26.312  1.00  0.00    -0.272 OA
ATOM      6  H   UNL A   1      31.804  26.210  27.923  1.00  0.00     0.163 HD
BRANCH   4   7
ATOM      7  C   UNL A   1      31.729  25.578  24.816  1.00  0.00     0.119 C 
ATOM      8  C   UNL A   1      30.978  24.704  23.807  1.00  0.00     0.046 C 
BRANCH   7   9
ATOM      9  N   UNL A   1      31.895  26.989  24.276  1.00  0.00    -0.337 N 
ATOM     10  C   UNL A   1      31.271  28.032  23.676  1.00  0.00     0.275 C 
ATOM     11  O   UNL A   1      31.962  29.061  23.593  1.00  0.00    -0.268 OA
ATOM     12  H   UNL A   1      32.833  27.250  24.418  1.00  0.00     0.164 HD
BRANCH  10  13
ATOM     13  C   UNL A   1      29.852  28.066  23.092  1.00  0.00     0.362 C 
BRANCH  13  14
ATOM     14  N   UNL A   1      29.525  29.245  22.216  1.00  0.00    -0.334 N 
ATOM     15  H   UNL A   1      30.373  29.802  22.110  1.00  0.00     0.347 HD
ATOM     16  H   UNL A   1      29.178  28.854  21.340  1.00  0.00     0.347 HD
BRANCH  14  17
ATOM     17  C   UNL A   1      28.458  30.133  22.712  1.00  0.00     0.088 C 
ATOM     18  C   UNL A   1      29.155  31.162  23.639  1.00  0.00     0.078 C 
ATOM     19  C   UNL A   1      27.275  29.219  23.127  1.00  0.00     0.078 C 
ATOM     20  C   UNL A   1      27.797  31.074  21.676  1.00  0.00     0.078 C 
ENDBRANCH  14  17
ENDBRANCH  13  14
ENDBRANCH  10  13
ENDBRANCH   7   9
BRANCH   7  21
ATOM     21  C   UNL A   1      33.034  24.906  25.156  1.00  0.00     0.024 C 
ATOM     22  C   UNL A   1      34.205  24.656  24.215  1.00  0.00     0.007 C 
ATOM     23  C   UNL A   1      34.362  25.595  25.377  1.00  0.00     0.007 C 
ENDBRANCH   7  21
ENDBRANCH   4   7
ENDBRANCH   2   3
ENDBRANCH   1   2
BRANCH   1  24
ATOM     24  C   UNL A   1      32.840  30.161  27.067  1.00  0.00     0.002 C 
BRANCH  24  25
ATOM     25  C   UNL A   1      31.514  30.825  26.695  1.00  0.00     0.002 C 
BRANCH  25  26
ATOM     26  C   UNL A   1      31.611  32.334  26.516  1.00  0.00     0.021 C 
BRANCH  26  27
ATOM     27  C   UNL A   1      32.790  32.950  27.246  1.00  0.00     0.116 C 
BRANCH  27  28
ATOM     28  N   UNL A   1      32.514  34.317  27.645  1.00  0.00    -0.352 N 
ATOM     29  C   UNL A   1      33.008  34.988  28.734  1.00  0.00     0.251 C 
ATOM     30  H   UNL A   1      31.900  34.823  27.064  1.00  0.00     0.163 HD
ATOM     31  O   UNL A   1      32.525  36.047  29.098  1.00  0.00    -0.269 OA
BRANCH  29  32
ATOM     32  C   UNL A   1      34.135  34.381  29.472  1.00  0.00     0.039 A 
ATOM     33  C   UNL A   1      33.865  33.584  30.582  1.00  0.00     0.014 A 
ATOM     34  C   UNL A   1      35.449  34.578  29.035  1.00  0.00     0.014 A 
ATOM     35  C   UNL A   1      34.920  32.958  31.244  1.00  0.00     0.010 A 
ATOM     36  C   UNL A   1      36.486  33.876  29.635  1.00  0.00     0.010 A 
ATOM     37  C   UNL A   1      36.235  33.084  30.764  1.00  0.00    -0.014 A 
BRANCH  37  38
ATOM     38  C   UNL A   1      37.370  32.442  31.467  1.00  0.00     0.031 A 
ATOM     39  C   UNL A   1      38.098  31.299  30.813  1.00  0.00     0.074 A 
ATOM     40  C   UNL A   1      37.719  32.858  32.699  1.00  0.00     0.049 A 
ATOM     41  N   UNL A   1      39.087  30.575  31.274  1.00  0.00    -0.248 NA
ATOM     42  C   UNL A   1      37.633  30.895  29.477  1.00  0.00     0.031 C 
ATOM     43  C   UNL A   1      37.058  33.926  33.451  1.00  0.00     0.029 A 
ATOM     44  N   UNL A   1      38.717  32.428  33.537  1.00  0.00    -0.354 N 
ATOM     45  C   UNL A   1      39.348  29.629  30.290  1.00  0.00     0.074 A 
ATOM     46  C   UNL A   1      38.371  29.823  29.243  1.00  0.00     0.031 C 
ATOM     47  C   UNL A   1      37.688  34.090  34.626  1.00  0.00     0.029 A 
ATOM     48  C   UNL A   1      38.769  33.114  34.726  1.00  0.00     0.049 A 
ATOM     49  H   UNL A   1      39.336  31.699  33.308  1.00  0.00     0.167 HD
ATOM     50  C   UNL A   1      40.335  28.702  30.251  1.00  0.00     0.037 A 
ATOM     51  C   UNL A   1      39.594  32.964  35.779  1.00  0.00     0.037 A 
ATOM     52  C   UNL A   1      41.317  28.532  31.287  1.00  0.00     0.049 A 
ATOM     53  C   UNL A   1      40.675  31.918  35.714  1.00  0.00     0.074 A 
ATOM     54  C   UNL A   1      42.388  27.657  31.324  1.00  0.00     0.029 A 
ATOM     55  N   UNL A   1      41.345  29.251  32.474  1.00  0.00    -0.354 N 
ATOM     56  N   UNL A   1      40.958  31.073  34.752  1.00  0.00    -0.248 NA
ATOM     57  C   UNL A   1      41.561  31.811  36.882  1.00  0.00     0.031 C 
ATOM     58  C   UNL A   1      43.032  27.808  32.558  1.00  0.00     0.029 A 
ATOM     59  C   UNL A   1      42.402  28.824  33.260  1.00  0.00     0.049 A 
ATOM     60  H   UNL A   1      40.708  29.961  32.719  1.00  0.00     0.167 HD
ATOM     61  C   UNL A   1      42.070  30.362  35.179  1.00  0.00     0.074 A 
ATOM     62  C   UNL A   1      42.421  30.887  36.483  1.00  0.00     0.031 C 
ATOM     63  C   UNL A   1      42.742  29.365  34.552  1.00  0.00     0.037 A 
BRANCH  50  64
ATOM     64  C   UNL A   1      40.397  27.805  29.047  1.00  0.00     0.064 A 
ATOM     65  C   UNL A   1      41.186  28.122  27.930  1.00  0.00     0.173 A 
ATOM     66  C   UNL A   1      39.677  26.602  29.019  1.00  0.00     0.173 A 
ATOM     67  F   UNL A   1      41.882  29.267  27.896  1.00  0.00    -0.203 F 
ATOM     68  C   UNL A   1      41.225  27.283  26.818  1.00  0.00     0.198 A 
ATOM     69  C   UNL A   1      39.748  25.748  27.922  1.00  0.00     0.198 A 
ATOM     70  F   UNL A   1      38.909  26.248  30.060  1.00  0.00    -0.203 F 
ATOM     71  F   UNL A   1      41.939  27.636  25.740  1.00  0.00    -0.200 F 
ATOM     72  C   UNL A   1      40.513  26.093  26.818  1.00  0.00     0.200 A 
ATOM     73  F   UNL A   1      39.071  24.591  27.929  1.00  0.00    -0.200 F 
ATOM     74  F   UNL A   1      40.559  25.284  25.751  1.00  0.00    -0.200 F 
ENDBRANCH  50  64
BRANCH  51  75
ATOM     75  C   UNL A   1      39.452  33.842  36.971  1.00  0.00     0.064 A 
ATOM     76  C   UNL A   1      38.731  33.421  38.096  1.00  0.00     0.173 A 
ATOM     77  C   UNL A   1      40.021  35.124  37.004  1.00  0.00     0.173 A 
ATOM     78  F   UNL A   1      38.153  32.210  38.106  1.00  0.00    -0.203 F 
ATOM     79  C   UNL A   1      38.557  34.258  39.197  1.00  0.00     0.198 A 
ATOM     80  C   UNL A   1      39.875  35.948  38.119  1.00  0.00     0.198 A 
ATOM     81  F   UNL A   1      40.728  35.574  35.957  1.00  0.00    -0.203 F 
ATOM     82  F   UNL A   1      37.815  33.850  40.235  1.00  0.00    -0.200 F 
ATOM     83  C   UNL A   1      39.135  35.518  39.209  1.00  0.00     0.200 A 
ATOM     84  F   UNL A   1      40.448  37.159  38.133  1.00  0.00    -0.200 F 
ATOM     85  F   UNL A   1      38.968  36.323  40.268  1.00  0.00    -0.200 F 
ENDBRANCH  51  75
BRANCH  63  86
ATOM     86  C   UNL A   1      43.954  28.810  35.244  1.00  0.00     0.064 A 
ATOM     87  C   UNL A   1      43.873  27.722  36.126  1.00  0.00     0.173 A 
ATOM     88  C   UNL A   1      45.223  29.360  34.996  1.00  0.00     0.173 A 
ATOM     89  F   UNL A   1      42.684  27.168  36.407  1.00  0.00    -0.203 F 
ATOM     90  C   UNL A   1      45.009  27.229  36.762  1.00  0.00     0.198 A 
ATOM     91  C   UNL A   1      46.361  28.840  35.605  1.00  0.00     0.198 A 
ATOM     92  F   UNL A   1      45.360  30.395  34.154  1.00  0.00    -0.203 F 
ATOM     93  F   UNL A   1      44.898  26.229  37.647  1.00  0.00    -0.200 F 
ATOM     94  C   UNL A   1      46.252  27.783  36.495  1.00  0.00     0.200 A 
ATOM     95  F   UNL A   1      47.564  29.364  35.331  1.00  0.00    -0.200 F 
ATOM     96  F   UNL A   1      47.346  27.303  37.104  1.00  0.00    -0.200 F 
ENDBRANCH  63  86
ENDBRANCH  37  38
ENDBRANCH  29  32
ENDBRANCH  27  28
ENDBRANCH  26  27
ENDBRANCH  25  26
ENDBRANCH  24  25
ENDBRANCH   1  24
TORSDOF 18
ENDMDL
MODEL 2
REMARK VINA RESULT:     -11.0      1.548      8.024
REMARK SMILES CC(C)(C)[NH2+]CC(=O)N[C@](C)(C(=O)NCCCCCCNC(=O)c1ccc(-c2c3nc(c(-c4c(F)c(F)c(F)c(F)c4F)c4ccc([nH]4)c(-c4c(F)c(F)c(F)c(F)c4F)c4nc(c(-c5c(F)c(F)c(F)c(F)c5F)c5ccc2[nH]5)C=C4)C=C3)cc1)C1CC1
REMARK SMILES IDX 16 1 15 2 14 3 12 4 13 5 10 7 11 8 9 9 7 10 8 11 6 13 5 14
REMARK SMILES IDX 2 17 1 18 3 19 4 20 87 21 88 22 89 23 17 24 18 25 19 26
REMARK SMILES IDX 20 27 21 28 22 29 23 31 24 32 25 33 86 34 26 35 85 36 27 37
REMARK SMILES IDX 28 38 29 39 79 40 30 41 84 42 78 43 80 44 31 45 83 46 77 47
REMARK SMILES IDX 76 48 32 50 64 51 44 52 63 53 45 54 48 55 62 56 81 57 46 58
REMARK SMILES IDX 47 59 61 61 82 62 49 63 33 64 34 65 42 66 35 67 36 68 40 69
REMARK SMILES IDX 43 70 37 71 38 72 41 73 39 74 65 75 66 76 74 77 67 78 68 79
REMARK SMILES IDX 72 80 75 81 69 82 70 83 73 84 71 85 50 86 51 87 59 88 52 89
REMARK SMILES IDX 53 90 57 91 60 92 54 93 55 94 58 95 56 96
REMARK H PARENT 14 6 9 12 5 15 5 16 21 30 80 49 48 60
REMARK Flexibility Score: inf
ROOT
ATOM      1  C   UNL A   1      31.885  28.644  27.544  1.00  0.00     0.021 C 
ENDROOT
BRANCH   1   2
ATOM      2  C   UNL A   1      32.322  27.224  27.163  1.00  0.00     0.116 C 
BRANCH   2   3
ATOM      3  N   UNL A   1      31.263  26.539  26.454  1.00  0.00    -0.354 N 
ATOM      4  C   UNL A   1      31.459  26.223  25.127  1.00  0.00     0.245 C 
ATOM      5  O   UNL A   1      30.934  26.955  24.288  1.00  0.00    -0.272 OA
ATOM      6  H   UNL A   1      30.423  26.304  26.909  1.00  0.00     0.163 HD
BRANCH   4   7
ATOM      7  C   UNL A   1      32.428  25.035  24.806  1.00  0.00     0.119 C 
ATOM      8  C   UNL A   1      33.865  25.530  24.620  1.00  0.00     0.046 C 
BRANCH   7   9
ATOM      9  N   UNL A   1      32.330  24.145  26.034  1.00  0.00    -0.337 N 
ATOM     10  C   UNL A   1      32.832  23.053  26.661  1.00  0.00     0.275 C 
ATOM     11  O   UNL A   1      32.388  22.873  27.808  1.00  0.00    -0.268 OA
ATOM     12  H   UNL A   1      31.612  24.505  26.603  1.00  0.00     0.164 HD
BRANCH  10  13
ATOM     13  C   UNL A   1      33.846  22.040  26.112  1.00  0.00     0.362 C 
BRANCH  13  14
ATOM     14  N   UNL A   1      35.264  22.196  26.592  1.00  0.00    -0.334 N 
ATOM     15  H   UNL A   1      35.281  22.948  27.280  1.00  0.00     0.347 HD
ATOM     16  H   UNL A   1      35.532  21.287  26.969  1.00  0.00     0.347 HD
BRANCH  14  17
ATOM     17  C   UNL A   1      36.259  22.510  25.551  1.00  0.00     0.088 C 
ATOM     18  C   UNL A   1      36.900  23.861  25.967  1.00  0.00     0.078 C 
ATOM     19  C   UNL A   1      35.579  22.231  24.184  1.00  0.00     0.078 C 
ATOM     20  C   UNL A   1      37.510  21.602  25.485  1.00  0.00     0.078 C 
ENDBRANCH  14  17
ENDBRANCH  13  14
ENDBRANCH  10  13
ENDBRANCH   7   9
BRANCH   7  21
ATOM     21  C   UNL A   1      31.985  24.358  23.535  1.00  0.00     0.024 C 
ATOM     22  C   UNL A   1      31.906  22.859  23.277  1.00  0.00     0.007 C 
ATOM     23  C   UNL A   1      30.651  23.684  23.300  1.00  0.00     0.007 C 
ENDBRANCH   7  21
ENDBRANCH   4   7
ENDBRANCH   2   3
ENDBRANCH   1   2
BRANCH   1  24
ATOM     24  C   UNL A   1      32.445  29.746  26.626  1.00  0.00     0.002 C 
BRANCH  24  25
ATOM     25  C   UNL A   1      31.386  30.559  25.880  1.00  0.00     0.002 C 
BRANCH  25  26
ATOM     26  C   UNL A   1      31.307  32.015  26.320  1.00  0.00     0.021 C 
BRANCH  26  27
ATOM     27  C   UNL A   1      32.546  32.486  27.058  1.00  0.00     0.116 C 
BRANCH  27  28
ATOM     28  N   UNL A   1      32.416  33.864  27.492  1.00  0.00    -0.352 N 
ATOM     29  C   UNL A   1      33.103  34.495  28.497  1.00  0.00     0.251 C 
ATOM     30  H   UNL A   1      31.757  34.411  27.006  1.00  0.00     0.163 HD
ATOM     31  O   UNL A   1      32.744  35.579  28.927  1.00  0.00    -0.269 OA
BRANCH  29  32
ATOM     32  C   UNL A   1      34.286  33.815  29.064  1.00  0.00     0.039 A 
ATOM     33  C   UNL A   1      35.557  34.259  28.707  1.00  0.00     0.014 A 
ATOM     34  C   UNL A   1      34.124  32.765  29.975  1.00  0.00     0.014 A 
ATOM     35  C   UNL A   1      36.676  33.662  29.288  1.00  0.00     0.010 A 
ATOM     36  C   UNL A   1      35.234  32.240  30.624  1.00  0.00     0.010 A 
ATOM     37  C   UNL A   1      36.521  32.662  30.264  1.00  0.00    -0.014 A 
BRANCH  37  38
ATOM     38  C   UNL A   1      37.699  32.003  30.875  1.00  0.00     0.031 A 
ATOM     39  C   UNL A   1      38.147  32.413  32.251  1.00  0.00     0.074 A 
ATOM     40  C   UNL A   1      38.382  31.071  30.184  1.00  0.00     0.049 A 
ATOM     41  N   UNL A   1      39.174  31.994  32.948  1.00  0.00    -0.248 NA
ATOM     42  C   UNL A   1      37.356  33.457  32.923  1.00  0.00     0.031 C 
ATOM     43  C   UNL A   1      38.068  30.626  28.826  1.00  0.00     0.029 A 
ATOM     44  N   UNL A   1      39.485  30.333  30.531  1.00  0.00    -0.354 N 
ATOM     45  C   UNL A   1      39.153  32.729  34.126  1.00  0.00     0.074 A 
ATOM     46  C   UNL A   1      38.061  33.670  34.022  1.00  0.00     0.031 C 
ATOM     47  C   UNL A   1      38.939  29.668  28.466  1.00  0.00     0.029 A 
ATOM     48  C   UNL A   1      39.894  29.462  29.550  1.00  0.00     0.049 A 
ATOM     49  H   UNL A   1      39.940  30.419  31.399  1.00  0.00     0.167 HD
ATOM     50  C   UNL A   1      39.955  32.609  35.210  1.00  0.00     0.037 A 
ATOM     51  C   UNL A   1      40.927  28.600  29.532  1.00  0.00     0.037 A 
ATOM     52  C   UNL A   1      41.025  31.655  35.315  1.00  0.00     0.049 A 
ATOM     53  C   UNL A   1      41.811  28.495  30.746  1.00  0.00     0.074 A 
ATOM     54  C   UNL A   1      41.866  31.416  36.388  1.00  0.00     0.029 A 
ATOM     55  N   UNL A   1      41.404  30.781  34.306  1.00  0.00    -0.354 N 
ATOM     56  N   UNL A   1      41.743  29.147  31.882  1.00  0.00    -0.248 NA
ATOM     57  C   UNL A   1      42.912  27.524  30.679  1.00  0.00     0.031 C 
ATOM     58  C   UNL A   1      42.790  30.436  36.007  1.00  0.00     0.029 A 
ATOM     59  C   UNL A   1      42.482  30.017  34.722  1.00  0.00     0.049 A 
ATOM     60  H   UNL A   1      40.970  30.714  33.425  1.00  0.00     0.167 HD
ATOM     61  C   UNL A   1      42.764  28.642  32.675  1.00  0.00     0.074 A 
ATOM     62  C   UNL A   1      43.427  27.618  31.895  1.00  0.00     0.031 C 
ATOM     63  C   UNL A   1      43.123  28.994  33.935  1.00  0.00     0.037 A 
BRANCH  50  64
ATOM     64  C   UNL A   1      39.701  33.534  36.368  1.00  0.00     0.064 A 
ATOM     65  C   UNL A   1      40.292  34.805  36.442  1.00  0.00     0.173 A 
ATOM     66  C   UNL A   1      38.836  33.154  37.405  1.00  0.00     0.173 A 
ATOM     67  F   UNL A   1      41.140  35.214  35.486  1.00  0.00    -0.203 F 
ATOM     68  C   UNL A   1      40.053  35.646  37.526  1.00  0.00     0.198 A 
ATOM     69  C   UNL A   1      38.570  34.012  38.468  1.00  0.00     0.198 A 
ATOM     70  F   UNL A   1      38.242  31.952  37.384  1.00  0.00    -0.203 F 
ATOM     71  F   UNL A   1      40.675  36.830  37.603  1.00  0.00    -0.200 F 
ATOM     72  C   UNL A   1      39.186  35.252  38.534  1.00  0.00     0.200 A 
ATOM     73  F   UNL A   1      37.720  33.636  39.434  1.00  0.00    -0.200 F 
ATOM     74  F   UNL A   1      38.950  36.066  39.572  1.00  0.00    -0.200 F 
ENDBRANCH  50  64
BRANCH  51  75
ATOM     75  C   UNL A   1      41.168  27.748  28.336  1.00  0.00     0.064 A 
ATOM     76  C   UNL A   1      42.043  28.159  27.321  1.00  0.00     0.173 A 
ATOM     77  C   UNL A   1      40.518  26.515  28.177  1.00  0.00     0.173 A 
ATOM     78  F   UNL A   1      42.675  29.338  27.419  1.00  0.00    -0.203 F 
ATOM     79  C   UNL A   1      42.236  27.385  26.179  1.00  0.00     0.198 A 
ATOM     80  C   UNL A   1      40.738  25.726  27.050  1.00  0.00     0.198 A 
ATOM     81  F   UNL A   1      39.676  26.071  29.122  1.00  0.00    -0.203 F 
ATOM     82  F   UNL A   1      43.035  27.828  25.199  1.00  0.00    -0.200 F 
ATOM     83  C   UNL A   1      41.588  26.166  26.047  1.00  0.00     0.200 A 
ATOM     84  F   UNL A   1      40.121  24.542  26.933  1.00  0.00    -0.200 F 
ATOM     85  F   UNL A   1      41.774  25.421  24.948  1.00  0.00    -0.200 F 
ENDBRANCH  51  75
BRANCH  63  86
ATOM     86  C   UNL A   1      44.252  28.231  34.567  1.00  0.00     0.064 A 
ATOM     87  C   UNL A   1      44.037  27.038  35.274  1.00  0.00     0.173 A 
ATOM     88  C   UNL A   1      45.574  28.686  34.435  1.00  0.00     0.173 A 
ATOM     89  F   UNL A   1      42.793  26.566  35.441  1.00  0.00    -0.203 F 
ATOM     90  C   UNL A   1      45.098  26.351  35.857  1.00  0.00     0.198 A 
ATOM     91  C   UNL A   1      46.635  27.975  34.987  1.00  0.00     0.198 A 
ATOM     92  F   UNL A   1      45.837  29.815  33.760  1.00  0.00    -0.203 F 
ATOM     93  F   UNL A   1      44.862  25.248  36.581  1.00  0.00    -0.200 F 
ATOM     94  C   UNL A   1      46.396  26.815  35.707  1.00  0.00     0.200 A 
ATOM     95  F   UNL A   1      47.891  28.416  34.824  1.00  0.00    -0.200 F 
ATOM     96  F   UNL A   1      47.417  26.149  36.264  1.00  0.00    -0.200 F 
ENDBRANCH  63  86
ENDBRANCH  37  38
ENDBRANCH  29  32
ENDBRANCH  27  28
ENDBRANCH  26  27
ENDBRANCH  25  26
ENDBRANCH  24  25
ENDBRANCH   1  24
TORSDOF 18
ENDMDL
MODEL 3
REMARK VINA RESULT:     -10.9      5.967     10.331
REMARK SMILES CC(C)(C)[NH2+]CC(=O)N[C@](C)(C(=O)NCCCCCCNC(=O)c1ccc(-c2c3nc(c(-c4c(F)c(F)c(F)c(F)c4F)c4ccc([nH]4)c(-c4c(F)c(F)c(F)c(F)c4F)c4nc(c(-c5c(F)c(F)c(F)c(F)c5F)c5ccc2[nH]5)C=C4)C=C3)cc1)C1CC1
REMARK SMILES IDX 16 1 15 2 14 3 12 4 13 5 10 7 11 8 9 9 7 10 8 11 6 13 5 14
REMARK SMILES IDX 2 17 1 18 3 19 4 20 87 21 88 22 89 23 17 24 18 25 19 26
REMARK SMILES IDX 20 27 21 28 22 29 23 31 24 32 25 33 86 34 26 35 85 36 27 37
REMARK SMILES IDX 28 38 29 39 79 40 30 41 84 42 78 43 80 44 31 45 83 46 77 47
REMARK SMILES IDX 76 48 32 50 64 51 44 52 63 53 45 54 48 55 62 56 81 57 46 58
REMARK SMILES IDX 47 59 61 61 82 62 49 63 33 64 34 65 42 66 35 67 36 68 40 69
REMARK SMILES IDX 43 70 37 71 38 72 41 73 39 74 65 75 66 76 74 77 67 78 68 79
REMARK SMILES IDX 72 80 75 81 69 82 70 83 73 84 71 85 50 86 51 87 59 88 52 89
REMARK SMILES IDX 53 90 57 91 60 92 54 93 55 94 58 95 56 96
REMARK H PARENT 14 6 9 12 5 15 5 16 21 30 80 49 48 60
REMARK Flexibility Score: inf
ROOT
ATOM      1  C   UNL A   1      36.892  22.743  24.206  1.00  0.00     0.021 C 
ENDROOT
BRANCH   1   2
ATOM      2  C   UNL A   1      35.468  22.250  23.915  1.00  0.00     0.116 C 
BRANCH   2   3
ATOM      3  N   UNL A   1      34.757  23.206  23.094  1.00  0.00    -0.354 N 
ATOM      4  C   UNL A   1      33.381  23.142  23.053  1.00  0.00     0.245 C 
ATOM      5  O   UNL A   1      32.869  22.599  22.075  1.00  0.00    -0.272 OA
ATOM      6  H   UNL A   1      35.245  23.886  22.576  1.00  0.00     0.163 HD
BRANCH   4   7
ATOM      7  C   UNL A   1      32.600  23.656  24.310  1.00  0.00     0.119 C 
ATOM      8  C   UNL A   1      31.091  23.684  24.050  1.00  0.00     0.046 C 
BRANCH   7   9
ATOM      9  N   UNL A   1      32.933  22.636  25.387  1.00  0.00    -0.337 N 
ATOM     10  C   UNL A   1      33.029  21.316  25.678  1.00  0.00     0.275 C 
ATOM     11  O   UNL A   1      33.519  21.073  26.794  1.00  0.00    -0.268 OA
ATOM     12  H   UNL A   1      33.178  23.134  26.200  1.00  0.00     0.164 HD
BRANCH  10  13
ATOM     13  C   UNL A   1      32.591  20.129  24.808  1.00  0.00     0.362 C 
BRANCH  13  14
ATOM     14  N   UNL A   1      33.627  19.063  24.573  1.00  0.00    -0.334 N 
ATOM     15  H   UNL A   1      34.360  19.463  23.988  1.00  0.00     0.347 HD
ATOM     16  H   UNL A   1      33.948  18.778  25.498  1.00  0.00     0.347 HD
BRANCH  14  17
ATOM     17  C   UNL A   1      33.142  17.835  23.918  1.00  0.00     0.088 C 
ATOM     18  C   UNL A   1      32.288  18.304  22.710  1.00  0.00     0.078 C 
ATOM     19  C   UNL A   1      32.645  16.893  25.046  1.00  0.00     0.078 C 
ATOM     20  C   UNL A   1      34.201  16.961  23.204  1.00  0.00     0.078 C 
ENDBRANCH  14  17
ENDBRANCH  13  14
ENDBRANCH  10  13
ENDBRANCH   7   9
BRANCH   7  21
ATOM     21  C   UNL A   1      33.055  25.053  24.644  1.00  0.00     0.024 C 
ATOM     22  C   UNL A   1      32.628  25.893  25.840  1.00  0.00     0.007 C 
ATOM     23  C   UNL A   1      34.053  25.436  25.715  1.00  0.00     0.007 C 
ENDBRANCH   7  21
ENDBRANCH   4   7
ENDBRANCH   2   3
ENDBRANCH   1   2
BRANCH   1  24
ATOM     24  C   UNL A   1      37.754  21.748  25.004  1.00  0.00     0.002 C 
BRANCH  24  25
ATOM     25  C   UNL A   1      37.309  20.289  24.903  1.00  0.00     0.002 C 
BRANCH  25  26
ATOM     26  C   UNL A   1      38.428  19.287  25.157  1.00  0.00     0.021 C 
BRANCH  26  27
ATOM     27  C   UNL A   1      39.555  19.848  26.004  1.00  0.00     0.116 C 
BRANCH  27  28
ATOM     28  N   UNL A   1      40.663  18.917  26.100  1.00  0.00    -0.352 N 
ATOM     29  C   UNL A   1      41.999  19.210  26.194  1.00  0.00     0.251 C 
ATOM     30  H   UNL A   1      40.427  17.960  26.099  1.00  0.00     0.163 HD
ATOM     31  O   UNL A   1      42.849  18.351  26.031  1.00  0.00    -0.269 OA
BRANCH  29  32
ATOM     32  C   UNL A   1      42.385  20.608  26.480  1.00  0.00     0.039 A 
ATOM     33  C   UNL A   1      42.595  21.482  25.416  1.00  0.00     0.014 A 
ATOM     34  C   UNL A   1      42.500  21.049  27.803  1.00  0.00     0.014 A 
ATOM     35  C   UNL A   1      42.898  22.817  25.681  1.00  0.00     0.010 A 
ATOM     36  C   UNL A   1      42.703  22.398  28.063  1.00  0.00     0.010 A 
ATOM     37  C   UNL A   1      42.935  23.288  27.005  1.00  0.00    -0.014 A 
BRANCH  37  38
ATOM     38  C   UNL A   1      43.275  24.699  27.304  1.00  0.00     0.031 A 
ATOM     39  C   UNL A   1      44.665  25.202  27.028  1.00  0.00     0.074 A 
ATOM     40  C   UNL A   1      42.352  25.510  27.854  1.00  0.00     0.049 A 
ATOM     41  N   UNL A   1      45.179  26.385  27.255  1.00  0.00    -0.248 NA
ATOM     42  C   UNL A   1      45.616  24.239  26.449  1.00  0.00     0.031 C 
ATOM     43  C   UNL A   1      40.986  25.121  28.208  1.00  0.00     0.029 A 
ATOM     44  N   UNL A   1      42.427  26.831  28.215  1.00  0.00    -0.354 N 
ATOM     45  C   UNL A   1      46.507  26.300  26.858  1.00  0.00     0.074 A 
ATOM     46  C   UNL A   1      46.742  24.935  26.445  1.00  0.00     0.031 C 
ATOM     47  C   UNL A   1      40.341  26.189  28.705  1.00  0.00     0.029 A 
ATOM     48  C   UNL A   1      41.258  27.323  28.743  1.00  0.00     0.049 A 
ATOM     49  H   UNL A   1      43.239  27.375  28.106  1.00  0.00     0.167 HD
ATOM     50  C   UNL A   1      47.440  27.280  26.812  1.00  0.00     0.037 A 
ATOM     51  C   UNL A   1      40.966  28.552  29.208  1.00  0.00     0.037 A 
ATOM     52  C   UNL A   1      47.191  28.642  27.203  1.00  0.00     0.049 A 
ATOM     53  C   UNL A   1      42.025  29.622  29.157  1.00  0.00     0.074 A 
ATOM     54  C   UNL A   1      48.051  29.725  27.149  1.00  0.00     0.029 A 
ATOM     55  N   UNL A   1      45.992  29.107  27.723  1.00  0.00    -0.354 N 
ATOM     56  N   UNL A   1      43.258  29.550  28.718  1.00  0.00    -0.248 NA
ATOM     57  C   UNL A   1      41.646  30.950  29.660  1.00  0.00     0.031 C 
ATOM     58  C   UNL A   1      47.390  30.833  27.690  1.00  0.00     0.029 A 
ATOM     59  C   UNL A   1      46.097  30.457  28.017  1.00  0.00     0.049 A 
ATOM     60  H   UNL A   1      45.186  28.559  27.862  1.00  0.00     0.167 HD
ATOM     61  C   UNL A   1      43.789  30.824  28.856  1.00  0.00     0.074 A 
ATOM     62  C   UNL A   1      42.738  31.654  29.406  1.00  0.00     0.031 C 
ATOM     63  C   UNL A   1      45.035  31.270  28.555  1.00  0.00     0.037 A 
BRANCH  50  64
ATOM     64  C   UNL A   1      48.812  26.912  26.322  1.00  0.00     0.064 A 
ATOM     65  C   UNL A   1      49.183  27.071  24.977  1.00  0.00     0.173 A 
ATOM     66  C   UNL A   1      49.776  26.417  27.212  1.00  0.00     0.173 A 
ATOM     67  F   UNL A   1      48.296  27.525  24.080  1.00  0.00    -0.203 F 
ATOM     68  C   UNL A   1      50.456  26.716  24.537  1.00  0.00     0.198 A 
ATOM     69  C   UNL A   1      51.059  26.099  26.776  1.00  0.00     0.198 A 
ATOM     70  F   UNL A   1      49.477  26.248  28.508  1.00  0.00    -0.203 F 
ATOM     71  F   UNL A   1      50.768  26.821  23.238  1.00  0.00    -0.200 F 
ATOM     72  C   UNL A   1      51.396  26.238  25.438  1.00  0.00     0.200 A 
ATOM     73  F   UNL A   1      51.971  25.651  27.651  1.00  0.00    -0.200 F 
ATOM     74  F   UNL A   1      52.623  25.906  25.015  1.00  0.00    -0.200 F 
ENDBRANCH  50  64
BRANCH  51  75
ATOM     75  C   UNL A   1      39.607  28.848  29.737  1.00  0.00     0.064 A 
ATOM     76  C   UNL A   1      38.620  29.410  28.916  1.00  0.00     0.173 A 
ATOM     77  C   UNL A   1      39.272  28.588  31.074  1.00  0.00     0.173 A 
ATOM     78  F   UNL A   1      38.897  29.694  27.634  1.00  0.00    -0.203 F 
ATOM     79  C   UNL A   1      37.361  29.731  29.418  1.00  0.00     0.198 A 
ATOM     80  C   UNL A   1      38.001  28.877  31.567  1.00  0.00     0.198 A 
ATOM     81  F   UNL A   1      40.177  28.043  31.900  1.00  0.00    -0.203 F 
ATOM     82  F   UNL A   1      36.455  30.320  28.625  1.00  0.00    -0.200 F 
ATOM     83  C   UNL A   1      37.051  29.458  30.742  1.00  0.00     0.200 A 
ATOM     84  F   UNL A   1      37.701  28.598  32.842  1.00  0.00    -0.200 F 
ATOM     85  F   UNL A   1      35.839  29.765  31.225  1.00  0.00    -0.200 F 
ENDBRANCH  51  75
BRANCH  63  86
ATOM     86  C   UNL A   1      45.313  32.730  28.768  1.00  0.00     0.064 A 
ATOM     87  C   UNL A   1      45.024  33.691  27.787  1.00  0.00     0.173 A 
ATOM     88  C   UNL A   1      45.849  33.178  29.987  1.00  0.00     0.173 A 
ATOM     89  F   UNL A   1      44.523  33.316  26.601  1.00  0.00    -0.203 F 
ATOM     90  C   UNL A   1      45.296  35.039  28.004  1.00  0.00     0.198 A 
ATOM     91  C   UNL A   1      46.083  34.530  30.213  1.00  0.00     0.198 A 
ATOM     92  F   UNL A   1      46.134  32.303  30.963  1.00  0.00    -0.203 F 
ATOM     93  F   UNL A   1      45.069  35.931  27.029  1.00  0.00    -0.200 F 
ATOM     94  C   UNL A   1      45.818  35.458  29.218  1.00  0.00     0.200 A 
ATOM     95  F   UNL A   1      46.570  34.935  31.395  1.00  0.00    -0.200 F 
ATOM     96  F   UNL A   1      46.074  36.758  29.427  1.00  0.00    -0.200 F 
ENDBRANCH  63  86
ENDBRANCH  37  38
ENDBRANCH  29  32
ENDBRANCH  27  28
ENDBRANCH  26  27
ENDBRANCH  25  26
ENDBRANCH  24  25
ENDBRANCH   1  24
TORSDOF 18
ENDMDL
