MODEL 1
REMARK VINA RESULT:     -12.1      0.000      0.000
REMARK SMILES O=C(NCCCCCCNC(=O)c1ccc(-c2c3nc(c(-c4c(F)c(F)c(F)c(F)c4F)c4ccc([nH]4)c(-c4c(F)c(F)c(F)c(F)c4F)c4nc(c(-c5c(F)c(F)c(F)c(F)c5F)c5ccc2[nH]5)C=C4)C=C3)cc1)C1=Cc2cc(Cl)ccc2O[C@@H]1C(F)(F)F
REMARK SMILES IDX 7 1 6 2 5 3 4 4 3 5 1 6 2 7 76 9 77 10 86 11 78 12 85 13
REMARK SMILES IDX 79 14 84 15 80 16 83 17 81 18 82 19 87 20 88 21 89 22 90 23
REMARK SMILES IDX 8 24 9 25 10 26 11 27 12 29 13 30 14 31 75 32 15 33 74 34
REMARK SMILES IDX 16 35 17 36 18 37 68 38 19 39 73 40 67 41 69 42 20 43 72 44
REMARK SMILES IDX 66 45 65 46 21 48 53 49 33 50 52 51 34 52 37 53 51 54 70 55
REMARK SMILES IDX 35 56 36 57 50 59 71 60 38 61 22 62 23 63 31 64 24 65 25 66
REMARK SMILES IDX 29 67 32 68 26 69 27 70 30 71 28 72 54 73 55 74 63 75 56 76
REMARK SMILES IDX 57 77 61 78 64 79 58 80 59 81 62 82 60 83 39 84 40 85 48 86
REMARK SMILES IDX 41 87 42 88 46 89 49 90 43 91 44 92 47 93 45 94
REMARK H PARENT 3 8 10 28 69 47 37 58
REMARK Flexibility Score: inf
ROOT
ATOM      1  C   UNL A   1      38.079  21.493  24.891  1.00  0.00     0.002 C 
ENDROOT
BRANCH   1   2
ATOM      2  C   UNL A   1      38.372  22.413  26.082  1.00  0.00     0.002 C 
BRANCH   2   3
ATOM      3  C   UNL A   1      37.608  23.734  26.137  1.00  0.00     0.021 C 
BRANCH   3   4
ATOM      4  C   UNL A   1      36.121  23.672  25.815  1.00  0.00     0.116 C 
BRANCH   4   5
ATOM      5  N   UNL A   1      35.300  22.964  26.779  1.00  0.00    -0.352 N 
ATOM      6  O   UNL A   1      33.924  21.375  27.561  1.00  0.00    -0.270 OA
ATOM      7  C   UNL A   1      34.425  21.930  26.584  1.00  0.00     0.251 C 
ATOM      8  H   UNL A   1      35.385  23.272  27.710  1.00  0.00     0.163 HD
BRANCH   7   9
ATOM      9  C   UNL A   1      34.116  21.380  25.229  1.00  0.00     0.067 C 
ATOM     10  C   UNL A   1      34.888  20.457  24.628  1.00  0.00     0.025 C 
ATOM     11  C   UNL A   1      32.633  21.395  24.922  1.00  0.00     0.314 C 
ATOM     12  C   UNL A   1      34.233  19.122  24.656  1.00  0.00     0.019 A 
ATOM     13  O   UNL A   1      32.039  20.085  25.151  1.00  0.00    -0.475 OA
ATOM     14  C   UNL A   1      35.042  17.981  24.595  1.00  0.00     0.032 A 
ATOM     15  C   UNL A   1      32.879  19.007  25.013  1.00  0.00     0.128 A 
ATOM     16  C   UNL A   1      34.518  16.753  24.992  1.00  0.00     0.041 A 
ATOM     17  C   UNL A   1      32.356  17.768  25.374  1.00  0.00     0.048 A 
ATOM     18  Cl  UNL A   1      35.557  15.386  25.109  1.00  0.00    -0.084 Cl
ATOM     19  C   UNL A   1      33.185  16.643  25.389  1.00  0.00     0.024 A 
BRANCH  11  20
ATOM     20  C   UNL A   1      32.321  21.909  23.507  1.00  0.00     0.429 C 
ATOM     21  F   UNL A   1      33.364  22.609  22.997  1.00  0.00    -0.167 F 
ATOM     22  F   UNL A   1      32.071  20.892  22.649  1.00  0.00    -0.167 F 
ATOM     23  F   UNL A   1      31.241  22.725  23.480  1.00  0.00    -0.167 F 
ENDBRANCH  11  20
ENDBRANCH   7   9
ENDBRANCH   4   5
ENDBRANCH   3   4
ENDBRANCH   2   3
ENDBRANCH   1   2
BRANCH   1  24
ATOM     24  C   UNL A   1      38.602  20.055  24.975  1.00  0.00     0.021 C 
BRANCH  24  25
ATOM     25  C   UNL A   1      39.314  19.664  26.266  1.00  0.00     0.116 C 
BRANCH  25  26
ATOM     26  N   UNL A   1      40.511  18.873  26.041  1.00  0.00    -0.352 N 
ATOM     27  C   UNL A   1      41.831  19.249  26.000  1.00  0.00     0.251 C 
ATOM     28  H   UNL A   1      40.351  17.913  25.893  1.00  0.00     0.163 HD
ATOM     29  O   UNL A   1      42.685  18.434  25.666  1.00  0.00    -0.269 OA
BRANCH  27  30
ATOM     30  C   UNL A   1      42.238  20.637  26.327  1.00  0.00     0.039 A 
ATOM     31  C   UNL A   1      42.382  21.553  25.281  1.00  0.00     0.014 A 
ATOM     32  C   UNL A   1      42.516  21.033  27.638  1.00  0.00     0.014 A 
ATOM     33  C   UNL A   1      42.745  22.874  25.553  1.00  0.00     0.010 A 
ATOM     34  C   UNL A   1      42.806  22.368  27.917  1.00  0.00     0.010 A 
ATOM     35  C   UNL A   1      42.929  23.302  26.877  1.00  0.00    -0.014 A 
BRANCH  35  36
ATOM     36  C   UNL A   1      43.256  24.720  27.188  1.00  0.00     0.031 A 
ATOM     37  C   UNL A   1      44.644  25.250  26.949  1.00  0.00     0.074 A 
ATOM     38  C   UNL A   1      42.315  25.516  27.733  1.00  0.00     0.049 A 
ATOM     39  N   UNL A   1      45.133  26.438  27.204  1.00  0.00    -0.248 NA
ATOM     40  C   UNL A   1      45.619  24.313  26.369  1.00  0.00     0.031 C 
ATOM     41  C   UNL A   1      40.944  25.111  28.049  1.00  0.00     0.029 A 
ATOM     42  N   UNL A   1      42.370  26.831  28.126  1.00  0.00    -0.354 N 
ATOM     43  C   UNL A   1      46.470  26.385  26.835  1.00  0.00     0.074 A 
ATOM     44  C   UNL A   1      46.730  25.035  26.382  1.00  0.00     0.031 C 
ATOM     45  C   UNL A   1      40.282  26.162  28.560  1.00  0.00     0.029 A 
ATOM     46  C   UNL A   1      41.189  27.301  28.648  1.00  0.00     0.049 A 
ATOM     47  H   UNL A   1      43.179  27.385  28.042  1.00  0.00     0.167 HD
ATOM     48  C   UNL A   1      47.392  27.377  26.854  1.00  0.00     0.037 A 
ATOM     49  C   UNL A   1      40.877  28.512  29.147  1.00  0.00     0.037 A 
ATOM     50  C   UNL A   1      47.121  28.727  27.274  1.00  0.00     0.049 A 
ATOM     51  C   UNL A   1      41.927  29.591  29.168  1.00  0.00     0.074 A 
ATOM     52  C   UNL A   1      47.967  29.821  27.258  1.00  0.00     0.029 A 
ATOM     53  N   UNL A   1      45.911  29.166  27.793  1.00  0.00    -0.354 N 
ATOM     54  N   UNL A   1      43.166  29.551  28.741  1.00  0.00    -0.248 NA
ATOM     55  C   UNL A   1      41.533  30.888  29.738  1.00  0.00     0.031 C 
ATOM     56  C   UNL A   1      47.290  30.908  27.819  1.00  0.00     0.029 A 
ATOM     57  C   UNL A   1      46.001  30.508  28.129  1.00  0.00     0.049 A 
ATOM     58  H   UNL A   1      45.109  28.607  27.905  1.00  0.00     0.167 HD
ATOM     59  C   UNL A   1      43.685  30.821  28.955  1.00  0.00     0.074 A 
ATOM     60  C   UNL A   1      42.623  31.614  29.538  1.00  0.00     0.031 C 
ATOM     61  C   UNL A   1      44.930  31.288  28.694  1.00  0.00     0.037 A 
BRANCH  48  62
ATOM     62  C   UNL A   1      48.789  27.045  26.411  1.00  0.00     0.064 A 
ATOM     63  C   UNL A   1      49.201  27.208  25.080  1.00  0.00     0.173 A 
ATOM     64  C   UNL A   1      49.744  26.612  27.344  1.00  0.00     0.173 A 
ATOM     65  F   UNL A   1      48.327  27.611  24.146  1.00  0.00    -0.203 F 
ATOM     66  C   UNL A   1      50.509  26.925  24.694  1.00  0.00     0.198 A 
ATOM     67  C   UNL A   1      51.059  26.360  26.961  1.00  0.00     0.198 A 
ATOM     68  F   UNL A   1      49.406  26.446  28.632  1.00  0.00    -0.203 F 
ATOM     69  F   UNL A   1      50.868  27.045  23.409  1.00  0.00    -0.200 F 
ATOM     70  C   UNL A   1      51.439  26.511  25.636  1.00  0.00     0.200 A 
ATOM     71  F   UNL A   1      51.960  25.975  27.876  1.00  0.00    -0.200 F 
ATOM     72  F   UNL A   1      52.700  26.251  25.266  1.00  0.00    -0.200 F 
ENDBRANCH  48  62
BRANCH  49  73
ATOM     73  C   UNL A   1      39.503  28.785  29.650  1.00  0.00     0.064 A 
ATOM     74  C   UNL A   1      38.535  29.365  28.817  1.00  0.00     0.173 A 
ATOM     75  C   UNL A   1      39.137  28.501  30.973  1.00  0.00     0.173 A 
ATOM     76  F   UNL A   1      38.843  29.675  27.549  1.00  0.00    -0.203 F 
ATOM     77  C   UNL A   1      37.264  29.677  29.296  1.00  0.00     0.198 A 
ATOM     78  C   UNL A   1      37.854  28.782  31.442  1.00  0.00     0.198 A 
ATOM     79  F   UNL A   1      40.023  27.943  31.811  1.00  0.00    -0.203 F 
ATOM     80  F   UNL A   1      36.379  30.283  28.493  1.00  0.00    -0.200 F 
ATOM     81  C   UNL A   1      36.924  29.380  30.607  1.00  0.00     0.200 A 
ATOM     82  F   UNL A   1      37.525  28.482  32.705  1.00  0.00    -0.200 F 
ATOM     83  F   UNL A   1      35.702  29.681  31.068  1.00  0.00    -0.200 F 
ENDBRANCH  49  73
BRANCH  61  84
ATOM     84  C   UNL A   1      45.200  32.736  28.989  1.00  0.00     0.064 A 
ATOM     85  C   UNL A   1      44.902  33.748  28.065  1.00  0.00     0.173 A 
ATOM     86  C   UNL A   1      45.730  33.117  30.232  1.00  0.00     0.173 A 
ATOM     87  F   UNL A   1      44.409  33.435  26.857  1.00  0.00    -0.203 F 
ATOM     88  C   UNL A   1      45.151  35.085  28.362  1.00  0.00     0.198 A 
ATOM     89  C   UNL A   1      45.945  34.458  30.539  1.00  0.00     0.198 A 
ATOM     90  F   UNL A   1      46.025  32.190  31.155  1.00  0.00    -0.203 F 
ATOM     91  F   UNL A   1      44.909  36.030  27.444  1.00  0.00    -0.200 F 
ATOM     92  C   UNL A   1      45.664  35.439  29.602  1.00  0.00     0.200 A 
ATOM     93  F   UNL A   1      46.424  34.799  31.743  1.00  0.00    -0.200 F 
ATOM     94  F   UNL A   1      45.895  36.728  29.889  1.00  0.00    -0.200 F 
ENDBRANCH  61  84
ENDBRANCH  35  36
ENDBRANCH  27  30
ENDBRANCH  25  26
ENDBRANCH  24  25
ENDBRANCH   1  24
TORSDOF 14
ENDMDL
MODEL 2
REMARK VINA RESULT:     -12.0      6.507     11.422
REMARK SMILES O=C(NCCCCCCNC(=O)c1ccc(-c2c3nc(c(-c4c(F)c(F)c(F)c(F)c4F)c4ccc([nH]4)c(-c4c(F)c(F)c(F)c(F)c4F)c4nc(c(-c5c(F)c(F)c(F)c(F)c5F)c5ccc2[nH]5)C=C4)C=C3)cc1)C1=Cc2cc(Cl)ccc2O[C@@H]1C(F)(F)F
REMARK SMILES IDX 7 1 6 2 5 3 4 4 3 5 1 6 2 7 76 9 77 10 86 11 78 12 85 13
REMARK SMILES IDX 79 14 84 15 80 16 83 17 81 18 82 19 87 20 88 21 89 22 90 23
REMARK SMILES IDX 8 24 9 25 10 26 11 27 12 29 13 30 14 31 75 32 15 33 74 34
REMARK SMILES IDX 16 35 17 36 18 37 68 38 19 39 73 40 67 41 69 42 20 43 72 44
REMARK SMILES IDX 66 45 65 46 21 48 53 49 33 50 52 51 34 52 37 53 51 54 70 55
REMARK SMILES IDX 35 56 36 57 50 59 71 60 38 61 22 62 23 63 31 64 24 65 25 66
REMARK SMILES IDX 29 67 32 68 26 69 27 70 30 71 28 72 54 73 55 74 63 75 56 76
REMARK SMILES IDX 57 77 61 78 64 79 58 80 59 81 62 82 60 83 39 84 40 85 48 86
REMARK SMILES IDX 41 87 42 88 46 89 49 90 43 91 44 92 47 93 45 94
REMARK H PARENT 3 8 10 28 69 47 37 58
REMARK Flexibility Score: inf
ROOT
ATOM      1  C   UNL A   1      32.455  30.417  27.241  1.00  0.00     0.002 C 
ENDROOT
BRANCH   1   2
ATOM      2  C   UNL A   1      33.984  30.311  27.228  1.00  0.00     0.002 C 
BRANCH   2   3
ATOM      3  C   UNL A   1      34.576  28.929  26.958  1.00  0.00     0.021 C 
BRANCH   3   4
ATOM      4  C   UNL A   1      33.772  28.012  26.046  1.00  0.00     0.116 C 
BRANCH   4   5
ATOM      5  N   UNL A   1      33.873  28.295  24.627  1.00  0.00    -0.352 N 
ATOM      6  O   UNL A   1      33.177  28.847  22.567  1.00  0.00    -0.270 OA
ATOM      7  C   UNL A   1      32.881  28.479  23.703  1.00  0.00     0.251 C 
ATOM      8  H   UNL A   1      34.790  28.366  24.276  1.00  0.00     0.163 HD
BRANCH   7   9
ATOM      9  C   UNL A   1      31.431  28.338  24.040  1.00  0.00     0.067 C 
ATOM     10  C   UNL A   1      30.726  29.319  24.633  1.00  0.00     0.025 C 
ATOM     11  C   UNL A   1      30.708  27.391  23.106  1.00  0.00     0.314 C 
ATOM     12  C   UNL A   1      29.816  29.979  23.658  1.00  0.00     0.019 A 
ATOM     13  O   UNL A   1      29.988  28.123  22.073  1.00  0.00    -0.475 OA
ATOM     14  C   UNL A   1      29.427  31.301  23.899  1.00  0.00     0.032 A 
ATOM     15  C   UNL A   1      29.582  29.393  22.403  1.00  0.00     0.128 A 
ATOM     16  C   UNL A   1      28.905  32.059  22.854  1.00  0.00     0.041 A 
ATOM     17  C   UNL A   1      29.026  30.150  21.374  1.00  0.00     0.048 A 
ATOM     18  Cl  UNL A   1      28.609  33.738  23.088  1.00  0.00    -0.084 Cl
ATOM     19  C   UNL A   1      28.712  31.494  21.593  1.00  0.00     0.024 A 
BRANCH  11  20
ATOM     20  C   UNL A   1      29.781  26.415  23.847  1.00  0.00     0.429 C 
ATOM     21  F   UNL A   1      30.056  26.385  25.173  1.00  0.00    -0.167 F 
ATOM     22  F   UNL A   1      28.479  26.767  23.721  1.00  0.00    -0.167 F 
ATOM     23  F   UNL A   1      29.893  25.145  23.387  1.00  0.00    -0.167 F 
ENDBRANCH  11  20
ENDBRANCH   7   9
ENDBRANCH   4   5
ENDBRANCH   3   4
ENDBRANCH   2   3
ENDBRANCH   1   2
BRANCH   1  24
ATOM     24  C   UNL A   1      31.852  31.819  27.116  1.00  0.00     0.021 C 
BRANCH  24  25
ATOM     25  C   UNL A   1      32.826  32.956  26.819  1.00  0.00     0.116 C 
BRANCH  25  26
ATOM     26  N   UNL A   1      32.529  34.171  27.555  1.00  0.00    -0.352 N 
ATOM     27  C   UNL A   1      33.090  34.678  28.701  1.00  0.00     0.251 C 
ATOM     28  H   UNL A   1      31.807  34.721  27.171  1.00  0.00     0.163 HD
ATOM     29  O   UNL A   1      32.598  35.668  29.232  1.00  0.00    -0.269 OA
BRANCH  27  30
ATOM     30  C   UNL A   1      34.268  34.027  29.323  1.00  0.00     0.039 A 
ATOM     31  C   UNL A   1      34.052  32.999  30.246  1.00  0.00     0.014 A 
ATOM     32  C   UNL A   1      35.572  34.442  29.041  1.00  0.00     0.014 A 
ATOM     33  C   UNL A   1      35.138  32.350  30.837  1.00  0.00     0.010 A 
ATOM     34  C   UNL A   1      36.657  33.745  29.574  1.00  0.00     0.010 A 
ATOM     35  C   UNL A   1      36.451  32.695  30.482  1.00  0.00    -0.014 A 
BRANCH  35  36
ATOM     36  C   UNL A   1      37.618  31.973  31.057  1.00  0.00     0.031 A 
ATOM     37  C   UNL A   1      38.116  32.309  32.437  1.00  0.00     0.074 A 
ATOM     38  C   UNL A   1      38.260  31.050  30.316  1.00  0.00     0.049 A 
ATOM     39  N   UNL A   1      39.145  31.826  33.088  1.00  0.00    -0.248 NA
ATOM     40  C   UNL A   1      37.372  33.342  33.176  1.00  0.00     0.031 C 
ATOM     41  C   UNL A   1      37.901  30.661  28.951  1.00  0.00     0.029 A 
ATOM     42  N   UNL A   1      39.357  30.273  30.602  1.00  0.00    -0.354 N 
ATOM     43  C   UNL A   1      39.183  32.508  34.297  1.00  0.00     0.074 A 
ATOM     44  C   UNL A   1      38.102  33.470  34.274  1.00  0.00     0.031 C 
ATOM     45  C   UNL A   1      38.741  29.702  28.530  1.00  0.00     0.029 A 
ATOM     46  C   UNL A   1      39.725  29.437  29.575  1.00  0.00     0.049 A 
ATOM     47  H   UNL A   1      39.835  30.312  31.462  1.00  0.00     0.167 HD
ATOM     48  C   UNL A   1      40.030  32.333  35.339  1.00  0.00     0.037 A 
ATOM     49  C   UNL A   1      40.744  28.561  29.485  1.00  0.00     0.037 A 
ATOM     50  C   UNL A   1      41.082  31.351  35.371  1.00  0.00     0.049 A 
ATOM     51  C   UNL A   1      41.677  28.399  30.656  1.00  0.00     0.074 A 
ATOM     52  C   UNL A   1      41.944  31.045  36.411  1.00  0.00     0.029 A 
ATOM     53  N   UNL A   1      41.421  30.520  34.314  1.00  0.00    -0.354 N 
ATOM     54  N   UNL A   1      41.653  28.992  31.824  1.00  0.00    -0.248 NA
ATOM     55  C   UNL A   1      42.780  27.440  30.495  1.00  0.00     0.031 C 
ATOM     56  C   UNL A   1      42.841  30.070  35.963  1.00  0.00     0.029 A 
ATOM     57  C   UNL A   1      42.500  29.723  34.666  1.00  0.00     0.049 A 
ATOM     58  H   UNL A   1      40.963  30.499  33.443  1.00  0.00     0.167 HD
ATOM     59  C   UNL A   1      42.709  28.452  32.548  1.00  0.00     0.074 A 
ATOM     60  C   UNL A   1      43.346  27.475  31.692  1.00  0.00     0.031 C 
ATOM     61  C   UNL A   1      43.114  28.742  33.808  1.00  0.00     0.037 A 
BRANCH  48  62
ATOM     62  C   UNL A   1      39.861  33.223  36.538  1.00  0.00     0.064 A 
ATOM     63  C   UNL A   1      40.573  34.424  36.673  1.00  0.00     0.173 A 
ATOM     64  C   UNL A   1      38.932  32.896  37.538  1.00  0.00     0.173 A 
ATOM     65  F   UNL A   1      41.480  34.780  35.751  1.00  0.00    -0.203 F 
ATOM     66  C   UNL A   1      40.380  35.252  37.776  1.00  0.00     0.198 A 
ATOM     67  C   UNL A   1      38.719  33.742  38.624  1.00  0.00     0.198 A 
ATOM     68  F   UNL A   1      38.218  31.763  37.455  1.00  0.00    -0.203 F 
ATOM     69  F   UNL A   1      41.104  36.372  37.906  1.00  0.00    -0.200 F 
ATOM     70  C   UNL A   1      39.447  34.915  38.745  1.00  0.00     0.200 A 
ATOM     71  F   UNL A   1      37.806  33.422  39.551  1.00  0.00    -0.200 F 
ATOM     72  F   UNL A   1      39.254  35.719  39.800  1.00  0.00    -0.200 F 
ENDBRANCH  48  62
BRANCH  49  73
ATOM     73  C   UNL A   1      40.929  27.749  28.252  1.00  0.00     0.064 A 
ATOM     74  C   UNL A   1      40.365  26.470  28.143  1.00  0.00     0.173 A 
ATOM     75  C   UNL A   1      41.692  28.218  27.174  1.00  0.00     0.173 A 
ATOM     76  F   UNL A   1      39.644  25.969  29.157  1.00  0.00    -0.203 F 
ATOM     77  C   UNL A   1      40.581  25.680  27.016  1.00  0.00     0.198 A 
ATOM     78  C   UNL A   1      41.881  27.440  26.032  1.00  0.00     0.198 A 
ATOM     79  F   UNL A   1      42.252  29.436  27.224  1.00  0.00    -0.203 F 
ATOM     80  F   UNL A   1      40.077  24.440  26.964  1.00  0.00    -0.200 F 
ATOM     81  C   UNL A   1      41.334  26.168  25.960  1.00  0.00     0.200 A 
ATOM     82  F   UNL A   1      42.598  27.921  25.008  1.00  0.00    -0.200 F 
ATOM     83  F   UNL A   1      41.544  25.407  24.876  1.00  0.00    -0.200 F 
ENDBRANCH  49  73
BRANCH  61  84
ATOM     84  C   UNL A   1      44.272  27.960  34.358  1.00  0.00     0.064 A 
ATOM     85  C   UNL A   1      45.592  28.422  34.258  1.00  0.00     0.173 A 
ATOM     86  C   UNL A   1      44.050  26.747  35.031  1.00  0.00     0.173 A 
ATOM     87  F   UNL A   1      45.859  29.568  33.612  1.00  0.00    -0.203 F 
ATOM     88  C   UNL A   1      46.651  27.686  34.784  1.00  0.00     0.198 A 
ATOM     89  C   UNL A   1      45.107  26.031  35.586  1.00  0.00     0.198 A 
ATOM     90  F   UNL A   1      42.806  26.263  35.162  1.00  0.00    -0.203 F 
ATOM     91  F   UNL A   1      47.908  28.121  34.629  1.00  0.00    -0.200 F 
ATOM     92  C   UNL A   1      46.406  26.496  35.455  1.00  0.00     0.200 A 
ATOM     93  F   UNL A   1      44.868  24.891  36.248  1.00  0.00    -0.200 F 
ATOM     94  F   UNL A   1      47.426  25.794  35.968  1.00  0.00    -0.200 F 
ENDBRANCH  61  84
ENDBRANCH  35  36
ENDBRANCH  27  30
ENDBRANCH  25  26
ENDBRANCH  24  25
ENDBRANCH   1  24
TORSDOF 14
ENDMDL
MODEL 3
REMARK VINA RESULT:     -12.0      0.540      7.402
REMARK SMILES O=C(NCCCCCCNC(=O)c1ccc(-c2c3nc(c(-c4c(F)c(F)c(F)c(F)c4F)c4ccc([nH]4)c(-c4c(F)c(F)c(F)c(F)c4F)c4nc(c(-c5c(F)c(F)c(F)c(F)c5F)c5ccc2[nH]5)C=C4)C=C3)cc1)C1=Cc2cc(Cl)ccc2O[C@@H]1C(F)(F)F
REMARK SMILES IDX 7 1 6 2 5 3 4 4 3 5 1 6 2 7 76 9 77 10 86 11 78 12 85 13
REMARK SMILES IDX 79 14 84 15 80 16 83 17 81 18 82 19 87 20 88 21 89 22 90 23
REMARK SMILES IDX 8 24 9 25 10 26 11 27 12 29 13 30 14 31 75 32 15 33 74 34
REMARK SMILES IDX 16 35 17 36 18 37 68 38 19 39 73 40 67 41 69 42 20 43 72 44
REMARK SMILES IDX 66 45 65 46 21 48 53 49 33 50 52 51 34 52 37 53 51 54 70 55
REMARK SMILES IDX 35 56 36 57 50 59 71 60 38 61 22 62 23 63 31 64 24 65 25 66
REMARK SMILES IDX 29 67 32 68 26 69 27 70 30 71 28 72 54 73 55 74 63 75 56 76
REMARK SMILES IDX 57 77 61 78 64 79 58 80 59 81 62 82 60 83 39 84 40 85 48 86
REMARK SMILES IDX 41 87 42 88 46 89 49 90 43 91 44 92 47 93 45 94
REMARK H PARENT 3 8 10 28 69 47 37 58
REMARK Flexibility Score: inf
ROOT
ATOM      1  C   UNL A   1      37.935  21.442  25.036  1.00  0.00     0.002 C 
ENDROOT
BRANCH   1   2
ATOM      2  C   UNL A   1      38.545  22.533  25.923  1.00  0.00     0.002 C 
BRANCH   2   3
ATOM      3  C   UNL A   1      37.640  23.706  26.293  1.00  0.00     0.021 C 
BRANCH   3   4
ATOM      4  C   UNL A   1      36.191  23.618  25.832  1.00  0.00     0.116 C 
BRANCH   4   5
ATOM      5  N   UNL A   1      35.277  22.972  26.756  1.00  0.00    -0.352 N 
ATOM      6  O   UNL A   1      33.778  21.470  27.480  1.00  0.00    -0.270 OA
ATOM      7  C   UNL A   1      34.366  21.978  26.526  1.00  0.00     0.251 C 
ATOM      8  H   UNL A   1      35.319  23.297  27.684  1.00  0.00     0.163 HD
BRANCH   7   9
ATOM      9  C   UNL A   1      34.115  21.413  25.165  1.00  0.00     0.067 C 
ATOM     10  C   UNL A   1      34.906  20.476  24.612  1.00  0.00     0.025 C 
ATOM     11  C   UNL A   1      32.649  21.436  24.789  1.00  0.00     0.314 C 
ATOM     12  C   UNL A   1      34.239  19.146  24.626  1.00  0.00     0.019 A 
ATOM     13  O   UNL A   1      32.033  20.134  25.007  1.00  0.00    -0.475 OA
ATOM     14  C   UNL A   1      35.039  17.998  24.618  1.00  0.00     0.032 A 
ATOM     15  C   UNL A   1      32.868  19.048  24.921  1.00  0.00     0.128 A 
ATOM     16  C   UNL A   1      34.487  16.780  25.006  1.00  0.00     0.041 A 
ATOM     17  C   UNL A   1      32.319  17.817  25.273  1.00  0.00     0.048 A 
ATOM     18  Cl  UNL A   1      35.507  15.406  25.188  1.00  0.00    -0.084 Cl
ATOM     19  C   UNL A   1      33.136  16.686  25.342  1.00  0.00     0.024 A 
BRANCH  11  20
ATOM     20  C   UNL A   1      32.408  21.934  23.355  1.00  0.00     0.429 C 
ATOM     21  F   UNL A   1      32.169  20.902  22.509  1.00  0.00    -0.167 F 
ATOM     22  F   UNL A   1      31.336  22.759  23.285  1.00  0.00    -0.167 F 
ATOM     23  F   UNL A   1      33.467  22.619  22.861  1.00  0.00    -0.167 F 
ENDBRANCH  11  20
ENDBRANCH   7   9
ENDBRANCH   4   5
ENDBRANCH   3   4
ENDBRANCH   2   3
ENDBRANCH   1   2
BRANCH   1  24
ATOM     24  C   UNL A   1      38.658  20.092  24.994  1.00  0.00     0.021 C 
BRANCH  24  25
ATOM     25  C   UNL A   1      39.264  19.603  26.306  1.00  0.00     0.116 C 
BRANCH  25  26
ATOM     26  N   UNL A   1      40.478  18.828  26.121  1.00  0.00    -0.352 N 
ATOM     27  C   UNL A   1      41.790  19.228  26.064  1.00  0.00     0.251 C 
ATOM     28  H   UNL A   1      40.337  17.858  26.019  1.00  0.00     0.163 HD
ATOM     29  O   UNL A   1      42.661  18.415  25.771  1.00  0.00    -0.269 OA
BRANCH  27  30
ATOM     30  C   UNL A   1      42.167  20.638  26.325  1.00  0.00     0.039 A 
ATOM     31  C   UNL A   1      42.390  21.033  27.648  1.00  0.00     0.014 A 
ATOM     32  C   UNL A   1      42.265  21.577  25.296  1.00  0.00     0.014 A 
ATOM     33  C   UNL A   1      42.767  22.348  27.931  1.00  0.00     0.010 A 
ATOM     34  C   UNL A   1      42.712  22.869  25.569  1.00  0.00     0.010 A 
ATOM     35  C   UNL A   1      42.963  23.271  26.891  1.00  0.00    -0.014 A 
BRANCH  35  36
ATOM     36  C   UNL A   1      43.422  24.657  27.171  1.00  0.00     0.031 A 
ATOM     37  C   UNL A   1      42.464  25.679  27.723  1.00  0.00     0.074 A 
ATOM     38  C   UNL A   1      44.689  25.011  26.879  1.00  0.00     0.049 A 
ATOM     39  N   UNL A   1      42.664  26.947  27.983  1.00  0.00    -0.248 NA
ATOM     40  C   UNL A   1      41.093  25.221  27.997  1.00  0.00     0.031 C 
ATOM     41  C   UNL A   1      45.703  24.125  26.304  1.00  0.00     0.029 A 
ATOM     42  N   UNL A   1      45.340  26.212  27.019  1.00  0.00    -0.354 N 
ATOM     43  C   UNL A   1      41.445  27.439  28.430  1.00  0.00     0.074 A 
ATOM     44  C   UNL A   1      40.498  26.346  28.363  1.00  0.00     0.031 C 
ATOM     45  C   UNL A   1      46.854  24.803  26.167  1.00  0.00     0.029 A 
ATOM     46  C   UNL A   1      46.650  26.181  26.602  1.00  0.00     0.049 A 
ATOM     47  H   UNL A   1      44.910  27.019  27.382  1.00  0.00     0.167 HD
ATOM     48  C   UNL A   1      41.147  28.683  28.875  1.00  0.00     0.037 A 
ATOM     49  C   UNL A   1      47.578  27.157  26.570  1.00  0.00     0.037 A 
ATOM     50  C   UNL A   1      42.100  29.758  28.971  1.00  0.00     0.049 A 
ATOM     51  C   UNL A   1      47.213  28.534  27.058  1.00  0.00     0.074 A 
ATOM     52  C   UNL A   1      41.914  31.032  29.480  1.00  0.00     0.029 A 
ATOM     53  N   UNL A   1      43.418  29.687  28.544  1.00  0.00    -0.354 N 
ATOM     54  N   UNL A   1      46.080  28.965  27.554  1.00  0.00    -0.248 NA
ATOM     55  C   UNL A   1      48.263  29.561  26.984  1.00  0.00     0.031 C 
ATOM     56  C   UNL A   1      43.102  31.750  29.308  1.00  0.00     0.029 A 
ATOM     57  C   UNL A   1      44.047  30.906  28.749  1.00  0.00     0.049 A 
ATOM     58  H   UNL A   1      43.843  28.890  28.153  1.00  0.00     0.167 HD
ATOM     59  C   UNL A   1      46.289  30.297  27.885  1.00  0.00     0.074 A 
ATOM     60  C   UNL A   1      47.663  30.600  27.546  1.00  0.00     0.031 C 
ATOM     61  C   UNL A   1      45.421  31.188  28.421  1.00  0.00     0.037 A 
BRANCH  48  62
ATOM     62  C   UNL A   1      39.731  28.960  29.291  1.00  0.00     0.064 A 
ATOM     63  C   UNL A   1      39.299  28.779  30.613  1.00  0.00     0.173 A 
ATOM     64  C   UNL A   1      38.806  29.466  28.364  1.00  0.00     0.173 A 
ATOM     65  F   UNL A   1      40.139  28.289  31.537  1.00  0.00    -0.203 F 
ATOM     66  C   UNL A   1      37.990  29.071  30.987  1.00  0.00     0.198 A 
ATOM     67  C   UNL A   1      37.506  29.787  28.748  1.00  0.00     0.198 A 
ATOM     68  F   UNL A   1      39.167  29.666  27.087  1.00  0.00    -0.203 F 
ATOM     69  F   UNL A   1      37.588  28.847  32.246  1.00  0.00    -0.200 F 
ATOM     70  C   UNL A   1      37.097  29.583  30.058  1.00  0.00     0.200 A 
ATOM     71  F   UNL A   1      36.650  30.296  27.852  1.00  0.00    -0.200 F 
ATOM     72  F   UNL A   1      35.842  29.874  30.422  1.00  0.00    -0.200 F 
ENDBRANCH  48  62
BRANCH  49  73
ATOM     73  C   UNL A   1      48.953  26.868  26.079  1.00  0.00     0.064 A 
ATOM     74  C   UNL A   1      49.288  27.057  24.730  1.00  0.00     0.173 A 
ATOM     75  C   UNL A   1      49.948  26.373  26.933  1.00  0.00     0.173 A 
ATOM     76  F   UNL A   1      48.365  27.507  23.868  1.00  0.00    -0.203 F 
ATOM     77  C   UNL A   1      50.555  26.735  24.250  1.00  0.00     0.198 A 
ATOM     78  C   UNL A   1      51.226  26.083  26.458  1.00  0.00     0.198 A 
ATOM     79  F   UNL A   1      49.682  26.177  28.233  1.00  0.00    -0.203 F 
ATOM     80  F   UNL A   1      50.829  26.872  22.945  1.00  0.00    -0.200 F 
ATOM     81  C   UNL A   1      51.525  26.253  25.115  1.00  0.00     0.200 A 
ATOM     82  F   UNL A   1      52.164  25.630  27.301  1.00  0.00    -0.200 F 
ATOM     83  F   UNL A   1      52.744  25.942  24.653  1.00  0.00    -0.200 F 
ENDBRANCH  49  73
BRANCH  61  84
ATOM     84  C   UNL A   1      45.942  32.565  28.721  1.00  0.00     0.064 A 
ATOM     85  C   UNL A   1      46.534  32.880  29.953  1.00  0.00     0.173 A 
ATOM     86  C   UNL A   1      45.882  33.572  27.744  1.00  0.00     0.173 A 
ATOM     87  F   UNL A   1      46.603  31.957  30.924  1.00  0.00    -0.203 F 
ATOM     88  C   UNL A   1      47.021  34.160  30.207  1.00  0.00     0.198 A 
ATOM     89  C   UNL A   1      46.400  34.841  27.990  1.00  0.00     0.198 A 
ATOM     90  F   UNL A   1      45.333  33.322  26.547  1.00  0.00    -0.203 F 
ATOM     91  F   UNL A   1      47.534  34.452  31.409  1.00  0.00    -0.200 F 
ATOM     92  C   UNL A   1      46.961  35.136  29.223  1.00  0.00     0.200 A 
ATOM     93  F   UNL A   1      46.357  35.777  27.032  1.00  0.00    -0.200 F 
ATOM     94  F   UNL A   1      47.438  36.364  29.467  1.00  0.00    -0.200 F 
ENDBRANCH  61  84
ENDBRANCH  35  36
ENDBRANCH  27  30
ENDBRANCH  25  26
ENDBRANCH  24  25
ENDBRANCH   1  24
TORSDOF 14
ENDMDL
