MODEL 1
REMARK VINA RESULT:     -11.9      0.000      0.000
REMARK SMILES O=C(COc1ccccc1/C=C1/SC(=S)N(c2ccc(F)c(Cl)c2)C1=O)NCCCCCCNC(=O)c1ccc(-c2c3nc(c(-c4c(F)c(F)c(F)c(F)c4F)c4ccc([nH]4)c(-c4c(F)c(F)c(F)c(F)c4F)c4nc(c(-c5c(F)c(F)c(F)c(F)c5F)c5ccc2[nH]5)C=C4)C=C3)cc1
REMARK SMILES IDX 29 1 28 2 27 3 1 4 2 5 3 7 4 8 5 9 6 10 10 11 7 12 9 13 8 14
REMARK SMILES IDX 11 15 12 16 13 17 25 18 14 19 16 20 26 21 15 22 17 23 18 24
REMARK SMILES IDX 24 25 19 26 22 27 20 28 23 29 21 30 30 31 31 32 32 33 33 34
REMARK SMILES IDX 34 35 35 36 36 38 37 39 38 40 99 41 39 42 98 43 40 44 41 45
REMARK SMILES IDX 42 46 92 47 43 48 97 49 91 50 93 51 44 52 96 53 90 54 89 55
REMARK SMILES IDX 45 57 77 58 57 59 76 60 58 61 61 62 75 63 94 64 59 65 60 66
REMARK SMILES IDX 74 68 95 69 62 70 46 71 47 72 55 73 48 74 49 75 53 76 56 77
REMARK SMILES IDX 50 78 51 79 54 80 52 81 78 82 79 83 87 84 80 85 81 86 85 87
REMARK SMILES IDX 88 88 82 89 83 90 86 91 84 92 63 93 64 94 72 95 65 96 66 97
REMARK SMILES IDX 70 98 73 99 67 100 68 101 71 102 69 103
REMARK H PARENT 27 6 34 37 93 56 61 67
REMARK Flexibility Score: inf
ROOT
ATOM      1  C   UNL A   1      36.528  31.337  27.865  1.00  0.00     0.021 C 
ENDROOT
BRANCH   1   2
ATOM      2  C   UNL A   1      35.534  30.260  28.350  1.00  0.00     0.116 C 
BRANCH   2   3
ATOM      3  N   UNL A   1      34.726  29.561  27.349  1.00  0.00    -0.353 N 
ATOM      4  O   UNL A   1      32.962  31.019  27.515  1.00  0.00    -0.271 OA
ATOM      5  C   UNL A   1      33.512  30.098  26.911  1.00  0.00     0.257 C 
ATOM      6  H   UNL A   1      35.040  28.704  26.980  1.00  0.00     0.163 HD
BRANCH   5   7
ATOM      7  C   UNL A   1      32.910  29.534  25.578  1.00  0.00     0.329 C 
BRANCH   7   8
ATOM      8  O   UNL A   1      31.599  28.955  25.499  1.00  0.00    -0.483 OA
BRANCH   8   9
ATOM      9  C   UNL A   1      31.401  28.063  24.468  1.00  0.00     0.127 A 
ATOM     10  C   UNL A   1      30.857  28.526  23.273  1.00  0.00     0.047 A 
ATOM     11  C   UNL A   1      31.538  26.673  24.667  1.00  0.00     0.018 A 
ATOM     12  C   UNL A   1      30.611  27.626  22.230  1.00  0.00     0.004 A 
ATOM     13  C   UNL A   1      31.390  25.791  23.597  1.00  0.00     0.012 A 
ATOM     14  C   UNL A   1      30.931  26.273  22.372  1.00  0.00     0.001 A 
BRANCH  11  15
ATOM     15  C   UNL A   1      31.828  26.177  26.019  1.00  0.00     0.033 C 
ATOM     16  C   UNL A   1      32.645  25.116  26.131  1.00  0.00     0.081 C 
ATOM     17  S   UNL A   1      32.060  23.623  26.740  1.00  0.00    -0.054 SA
ATOM     18  C   UNL A   1      33.995  24.891  25.544  1.00  0.00     0.270 C 
ATOM     19  C   UNL A   1      33.579  22.816  26.623  1.00  0.00     0.152 C 
ATOM     20  N   UNL A   1      34.457  23.616  25.904  1.00  0.00    -0.261 N 
ATOM     21  O   UNL A   1      34.608  25.760  24.931  1.00  0.00    -0.268 OA
ATOM     22  S   UNL A   1      33.779  21.373  27.452  1.00  0.00    -0.051 S 
BRANCH  20  23
ATOM     23  C   UNL A   1      35.809  23.228  25.693  1.00  0.00     0.052 A 
ATOM     24  C   UNL A   1      36.855  24.033  26.164  1.00  0.00     0.030 A 
ATOM     25  C   UNL A   1      36.104  21.965  25.162  1.00  0.00     0.050 A 
ATOM     26  C   UNL A   1      38.154  23.524  26.215  1.00  0.00     0.043 A 
ATOM     27  C   UNL A   1      37.392  21.449  25.239  1.00  0.00     0.078 A 
ATOM     28  C   UNL A   1      38.408  22.224  25.782  1.00  0.00     0.141 A 
ATOM     29  Cl  UNL A   1      37.678  19.835  24.719  1.00  0.00    -0.081 Cl
ATOM     30  F   UNL A   1      39.647  21.732  25.910  1.00  0.00    -0.205 F 
ENDBRANCH  20  23
ENDBRANCH  11  15
ENDBRANCH   8   9
ENDBRANCH   7   8
ENDBRANCH   5   7
ENDBRANCH   2   3
ENDBRANCH   1   2
BRANCH   1  31
ATOM     31  C   UNL A   1      36.415  32.792  28.360  1.00  0.00     0.002 C 
BRANCH  31  32
ATOM     32  C   UNL A   1      35.108  33.557  28.078  1.00  0.00     0.002 C 
BRANCH  32  33
ATOM     33  C   UNL A   1      34.141  33.777  29.233  1.00  0.00     0.021 C 
BRANCH  33  34
ATOM     34  C   UNL A   1      33.936  35.222  29.672  1.00  0.00     0.116 C 
BRANCH  34  35
ATOM     35  N   UNL A   1      32.799  35.475  30.550  1.00  0.00    -0.352 N 
ATOM     36  C   UNL A   1      32.740  35.318  31.925  1.00  0.00     0.251 C 
ATOM     37  H   UNL A   1      31.976  35.795  30.115  1.00  0.00     0.163 HD
ATOM     38  O   UNL A   1      31.704  35.538  32.543  1.00  0.00    -0.269 OA
BRANCH  36  39
ATOM     39  C   UNL A   1      33.934  34.808  32.643  1.00  0.00     0.039 A 
ATOM     40  C   UNL A   1      33.881  33.550  33.248  1.00  0.00     0.014 A 
ATOM     41  C   UNL A   1      35.137  35.514  32.608  1.00  0.00     0.014 A 
ATOM     42  C   UNL A   1      35.063  32.950  33.694  1.00  0.00     0.010 A 
ATOM     43  C   UNL A   1      36.323  34.868  32.937  1.00  0.00     0.010 A 
ATOM     44  C   UNL A   1      36.304  33.573  33.473  1.00  0.00    -0.014 A 
BRANCH  44  45
ATOM     45  C   UNL A   1      37.585  32.871  33.760  1.00  0.00     0.031 A 
ATOM     46  C   UNL A   1      38.360  33.175  35.013  1.00  0.00     0.074 A 
ATOM     47  C   UNL A   1      38.091  32.010  32.853  1.00  0.00     0.049 A 
ATOM     48  N   UNL A   1      39.502  32.679  35.423  1.00  0.00    -0.248 NA
ATOM     49  C   UNL A   1      37.801  34.201  35.907  1.00  0.00     0.031 C 
ATOM     50  C   UNL A   1      37.484  31.687  31.560  1.00  0.00     0.029 A 
ATOM     51  N   UNL A   1      39.234  31.247  32.879  1.00  0.00    -0.354 N 
ATOM     52  C   UNL A   1      39.797  33.340  36.608  1.00  0.00     0.074 A 
ATOM     53  C   UNL A   1      38.759  34.325  36.812  1.00  0.00     0.031 C 
ATOM     54  C   UNL A   1      38.227  30.756  30.943  1.00  0.00     0.029 A 
ATOM     55  C   UNL A   1      39.387  30.445  31.773  1.00  0.00     0.049 A 
ATOM     56  H   UNL A   1      39.881  31.271  33.619  1.00  0.00     0.167 HD
ATOM     57  C   UNL A   1      40.823  33.125  37.467  1.00  0.00     0.037 A 
ATOM     58  C   UNL A   1      40.349  29.555  31.464  1.00  0.00     0.037 A 
ATOM     59  C   UNL A   1      41.844  32.131  37.271  1.00  0.00     0.049 A 
ATOM     60  C   UNL A   1      41.479  29.332  32.434  1.00  0.00     0.074 A 
ATOM     61  C   UNL A   1      42.880  31.778  38.117  1.00  0.00     0.029 A 
ATOM     62  N   UNL A   1      41.964  31.334  36.140  1.00  0.00    -0.354 N 
ATOM     63  N   UNL A   1      41.692  29.890  33.601  1.00  0.00    -0.248 NA
ATOM     64  C   UNL A   1      42.498  28.348  32.044  1.00  0.00     0.031 C 
ATOM     65  C   UNL A   1      43.664  30.816  37.472  1.00  0.00     0.029 A 
ATOM     66  C   UNL A   1      43.079  30.519  36.251  1.00  0.00     0.049 A 
ATOM     67  H   UNL A   1      41.348  31.346  35.372  1.00  0.00     0.167 HD
ATOM     68  C   UNL A   1      42.852  29.310  34.096  1.00  0.00     0.074 A 
ATOM     69  C   UNL A   1      43.283  28.338  33.112  1.00  0.00     0.031 C 
ATOM     70  C   UNL A   1      43.503  29.561  35.259  1.00  0.00     0.037 A 
BRANCH  57  71
ATOM     71  C   UNL A   1      40.888  33.990  38.696  1.00  0.00     0.064 A 
ATOM     72  C   UNL A   1      41.631  35.181  38.725  1.00  0.00     0.173 A 
ATOM     73  C   UNL A   1      40.190  33.628  39.858  1.00  0.00     0.173 A 
ATOM     74  F   UNL A   1      42.326  35.572  37.645  1.00  0.00    -0.203 F 
ATOM     75  C   UNL A   1      41.711  35.951  39.883  1.00  0.00     0.198 A 
ATOM     76  C   UNL A   1      40.241  34.421  41.003  1.00  0.00     0.198 A 
ATOM     77  F   UNL A   1      39.458  32.504  39.887  1.00  0.00    -0.203 F 
ATOM     78  F   UNL A   1      42.484  37.046  39.906  1.00  0.00    -0.200 F 
ATOM     79  C   UNL A   1      41.011  35.574  41.019  1.00  0.00     0.200 A 
ATOM     80  F   UNL A   1      39.552  34.063  42.094  1.00  0.00    -0.200 F 
ATOM     81  F   UNL A   1      41.088  36.315  42.132  1.00  0.00    -0.200 F 
ENDBRANCH  57  71
BRANCH  58  82
ATOM     82  C   UNL A   1      40.263  28.773  30.202  1.00  0.00     0.064 A 
ATOM     83  C   UNL A   1      39.583  27.546  30.161  1.00  0.00     0.173 A 
ATOM     84  C   UNL A   1      40.852  29.229  29.013  1.00  0.00     0.173 A 
ATOM     85  F   UNL A   1      39.022  27.055  31.275  1.00  0.00    -0.203 F 
ATOM     86  C   UNL A   1      39.509  26.800  28.986  1.00  0.00     0.198 A 
ATOM     87  C   UNL A   1      40.751  28.497  27.831  1.00  0.00     0.198 A 
ATOM     88  F   UNL A   1      41.511  30.397  28.995  1.00  0.00    -0.203 F 
ATOM     89  F   UNL A   1      38.892  25.611  28.988  1.00  0.00    -0.200 F 
ATOM     90  C   UNL A   1      40.088  27.279  27.821  1.00  0.00     0.200 A 
ATOM     91  F   UNL A   1      41.297  28.971  26.704  1.00  0.00    -0.200 F 
ATOM     92  F   UNL A   1      40.009  26.565  26.690  1.00  0.00    -0.200 F 
ENDBRANCH  58  82
BRANCH  70  93
ATOM     93  C   UNL A   1      44.739  28.753  35.541  1.00  0.00     0.064 A 
ATOM     94  C   UNL A   1      44.674  27.494  36.158  1.00  0.00     0.173 A 
ATOM     95  C   UNL A   1      46.004  29.235  35.169  1.00  0.00     0.173 A 
ATOM     96  F   UNL A   1      43.492  26.993  36.546  1.00  0.00    -0.203 F 
ATOM     97  C   UNL A   1      45.831  26.767  36.426  1.00  0.00     0.198 A 
ATOM     98  C   UNL A   1      47.154  28.488  35.405  1.00  0.00     0.198 A 
ATOM     99  F   UNL A   1      46.124  30.428  34.569  1.00  0.00    -0.203 F 
ATOM    100  F   UNL A   1      45.748  25.596  37.075  1.00  0.00    -0.200 F 
ATOM    101  C   UNL A   1      47.068  27.261  36.044  1.00  0.00     0.200 A 
ATOM    102  F   UNL A   1      48.348  28.959  35.019  1.00  0.00    -0.200 F 
ATOM    103  F   UNL A   1      48.181  26.557  36.300  1.00  0.00    -0.200 F 
ENDBRANCH  70  93
ENDBRANCH  44  45
ENDBRANCH  36  39
ENDBRANCH  34  35
ENDBRANCH  33  34
ENDBRANCH  32  33
ENDBRANCH  31  32
ENDBRANCH   1  31
TORSDOF 17
ENDMDL
MODEL 2
REMARK VINA RESULT:     -11.7      0.458      6.946
REMARK SMILES O=C(COc1ccccc1/C=C1/SC(=S)N(c2ccc(F)c(Cl)c2)C1=O)NCCCCCCNC(=O)c1ccc(-c2c3nc(c(-c4c(F)c(F)c(F)c(F)c4F)c4ccc([nH]4)c(-c4c(F)c(F)c(F)c(F)c4F)c4nc(c(-c5c(F)c(F)c(F)c(F)c5F)c5ccc2[nH]5)C=C4)C=C3)cc1
REMARK SMILES IDX 29 1 28 2 27 3 1 4 2 5 3 7 4 8 5 9 6 10 10 11 7 12 9 13 8 14
REMARK SMILES IDX 11 15 12 16 13 17 25 18 14 19 16 20 26 21 15 22 17 23 18 24
REMARK SMILES IDX 24 25 19 26 22 27 20 28 23 29 21 30 30 31 31 32 32 33 33 34
REMARK SMILES IDX 34 35 35 36 36 38 37 39 38 40 99 41 39 42 98 43 40 44 41 45
REMARK SMILES IDX 42 46 92 47 43 48 97 49 91 50 93 51 44 52 96 53 90 54 89 55
REMARK SMILES IDX 45 57 77 58 57 59 76 60 58 61 61 62 75 63 94 64 59 65 60 66
REMARK SMILES IDX 74 68 95 69 62 70 46 71 47 72 55 73 48 74 49 75 53 76 56 77
REMARK SMILES IDX 50 78 51 79 54 80 52 81 78 82 79 83 87 84 80 85 81 86 85 87
REMARK SMILES IDX 88 88 82 89 83 90 86 91 84 92 63 93 64 94 72 95 65 96 66 97
REMARK SMILES IDX 70 98 73 99 67 100 68 101 71 102 69 103
REMARK H PARENT 27 6 34 37 93 56 61 67
REMARK Flexibility Score: inf
ROOT
ATOM      1  C   UNL A   1      36.643  31.094  27.884  1.00  0.00     0.021 C 
ENDROOT
BRANCH   1   2
ATOM      2  C   UNL A   1      35.626  30.033  28.355  1.00  0.00     0.116 C 
BRANCH   2   3
ATOM      3  N   UNL A   1      34.779  29.390  27.349  1.00  0.00    -0.353 N 
ATOM      4  O   UNL A   1      33.060  30.888  27.600  1.00  0.00    -0.271 OA
ATOM      5  C   UNL A   1      33.572  29.974  26.954  1.00  0.00     0.257 C 
ATOM      6  H   UNL A   1      35.063  28.538  26.946  1.00  0.00     0.163 HD
BRANCH   5   7
ATOM      7  C   UNL A   1      32.928  29.470  25.617  1.00  0.00     0.329 C 
BRANCH   7   8
ATOM      8  O   UNL A   1      31.575  28.999  25.532  1.00  0.00    -0.483 OA
BRANCH   8   9
ATOM      9  C   UNL A   1      31.315  28.108  24.513  1.00  0.00     0.127 A 
ATOM     10  C   UNL A   1      30.757  28.584  23.330  1.00  0.00     0.047 A 
ATOM     11  C   UNL A   1      31.403  26.715  24.720  1.00  0.00     0.018 A 
ATOM     12  C   UNL A   1      30.449  27.687  22.301  1.00  0.00     0.004 A 
ATOM     13  C   UNL A   1      31.193  25.833  23.661  1.00  0.00     0.012 A 
ATOM     14  C   UNL A   1      30.719  26.324  22.445  1.00  0.00     0.001 A 
BRANCH  11  15
ATOM     15  C   UNL A   1      31.711  26.217  26.067  1.00  0.00     0.033 C 
ATOM     16  C   UNL A   1      32.544  25.168  26.168  1.00  0.00     0.081 C 
ATOM     17  S   UNL A   1      31.985  23.663  26.774  1.00  0.00    -0.054 SA
ATOM     18  C   UNL A   1      33.892  24.965  25.569  1.00  0.00     0.270 C 
ATOM     19  C   UNL A   1      33.514  22.879  26.642  1.00  0.00     0.152 C 
ATOM     20  N   UNL A   1      34.375  23.695  25.920  1.00  0.00    -0.261 N 
ATOM     21  O   UNL A   1      34.488  25.846  24.956  1.00  0.00    -0.268 OA
ATOM     22  S   UNL A   1      33.741  21.435  27.463  1.00  0.00    -0.051 S 
BRANCH  20  23
ATOM     23  C   UNL A   1      35.731  23.328  25.697  1.00  0.00     0.052 A 
ATOM     24  C   UNL A   1      36.769  24.142  26.170  1.00  0.00     0.030 A 
ATOM     25  C   UNL A   1      36.040  22.074  25.152  1.00  0.00     0.050 A 
ATOM     26  C   UNL A   1      38.075  23.650  26.208  1.00  0.00     0.043 A 
ATOM     27  C   UNL A   1      37.336  21.575  25.217  1.00  0.00     0.078 A 
ATOM     28  C   UNL A   1      38.344  22.358  25.761  1.00  0.00     0.141 A 
ATOM     29  Cl  UNL A   1      37.640  19.969  24.680  1.00  0.00    -0.081 Cl
ATOM     30  F   UNL A   1      39.591  21.882  25.877  1.00  0.00    -0.205 F 
ENDBRANCH  20  23
ENDBRANCH  11  15
ENDBRANCH   8   9
ENDBRANCH   7   8
ENDBRANCH   5   7
ENDBRANCH   2   3
ENDBRANCH   1   2
BRANCH   1  31
ATOM     31  C   UNL A   1      36.545  32.552  28.375  1.00  0.00     0.002 C 
BRANCH  31  32
ATOM     32  C   UNL A   1      35.263  33.343  28.051  1.00  0.00     0.002 C 
BRANCH  32  33
ATOM     33  C   UNL A   1      34.280  33.612  29.182  1.00  0.00     0.021 C 
BRANCH  33  34
ATOM     34  C   UNL A   1      34.070  35.075  29.555  1.00  0.00     0.116 C 
BRANCH  34  35
ATOM     35  N   UNL A   1      32.894  35.371  30.366  1.00  0.00    -0.352 N 
ATOM     36  C   UNL A   1      32.772  35.285  31.744  1.00  0.00     0.251 C 
ATOM     37  H   UNL A   1      32.092  35.667  29.878  1.00  0.00     0.163 HD
ATOM     38  O   UNL A   1      31.709  35.534  32.301  1.00  0.00    -0.269 OA
BRANCH  36  39
ATOM     39  C   UNL A   1      33.931  34.812  32.540  1.00  0.00     0.039 A 
ATOM     40  C   UNL A   1      33.874  33.559  33.153  1.00  0.00     0.014 A 
ATOM     41  C   UNL A   1      35.116  35.551  32.574  1.00  0.00     0.014 A 
ATOM     42  C   UNL A   1      35.041  32.995  33.679  1.00  0.00     0.010 A 
ATOM     43  C   UNL A   1      36.295  34.939  32.983  1.00  0.00     0.010 A 
ATOM     44  C   UNL A   1      36.276  33.649  33.530  1.00  0.00    -0.014 A 
BRANCH  44  45
ATOM     45  C   UNL A   1      37.554  32.984  33.904  1.00  0.00     0.031 A 
ATOM     46  C   UNL A   1      38.188  31.973  32.988  1.00  0.00     0.074 A 
ATOM     47  C   UNL A   1      38.109  33.236  35.108  1.00  0.00     0.049 A 
ATOM     48  N   UNL A   1      39.288  31.279  33.152  1.00  0.00    -0.248 NA
ATOM     49  C   UNL A   1      37.474  31.671  31.738  1.00  0.00     0.031 C 
ATOM     50  C   UNL A   1      37.555  34.130  36.126  1.00  0.00     0.029 A 
ATOM     51  N   UNL A   1      39.265  32.762  35.681  1.00  0.00    -0.354 N 
ATOM     52  C   UNL A   1      39.385  30.456  32.038  1.00  0.00     0.074 A 
ATOM     53  C   UNL A   1      38.198  30.679  31.244  1.00  0.00     0.031 C 
ATOM     54  C   UNL A   1      38.394  34.184  37.172  1.00  0.00     0.029 A 
ATOM     55  C   UNL A   1      39.525  33.296  36.921  1.00  0.00     0.049 A 
ATOM     56  H   UNL A   1      39.852  32.104  35.245  1.00  0.00     0.167 HD
ATOM     57  C   UNL A   1      40.388  29.614  31.690  1.00  0.00     0.037 A 
ATOM     58  C   UNL A   1      40.560  33.097  37.759  1.00  0.00     0.037 A 
ATOM     59  C   UNL A   1      41.578  29.410  32.472  1.00  0.00     0.049 A 
ATOM     60  C   UNL A   1      41.663  32.158  37.351  1.00  0.00     0.074 A 
ATOM     61  C   UNL A   1      42.689  28.642  32.171  1.00  0.00     0.029 A 
ATOM     62  N   UNL A   1      41.809  29.971  33.721  1.00  0.00    -0.354 N 
ATOM     63  N   UNL A   1      41.794  31.464  36.247  1.00  0.00    -0.248 NA
ATOM     64  C   UNL A   1      42.767  31.983  38.305  1.00  0.00     0.031 C 
ATOM     65  C   UNL A   1      43.560  28.686  33.264  1.00  0.00     0.029 A 
ATOM     66  C   UNL A   1      43.026  29.535  34.220  1.00  0.00     0.049 A 
ATOM     67  H   UNL A   1      41.197  30.588  34.185  1.00  0.00     0.167 HD
ATOM     68  C   UNL A   1      43.002  30.789  36.361  1.00  0.00     0.074 A 
ATOM     69  C   UNL A   1      43.577  31.178  37.632  1.00  0.00     0.031 C 
ATOM     70  C   UNL A   1      43.582  29.924  35.492  1.00  0.00     0.037 A 
BRANCH  57  71
ATOM     71  C   UNL A   1      40.233  28.849  30.403  1.00  0.00     0.064 A 
ATOM     72  C   UNL A   1      39.556  27.620  30.351  1.00  0.00     0.173 A 
ATOM     73  C   UNL A   1      40.760  29.356  29.206  1.00  0.00     0.173 A 
ATOM     74  F   UNL A   1      39.041  27.083  31.467  1.00  0.00    -0.203 F 
ATOM     75  C   UNL A   1      39.454  26.906  29.159  1.00  0.00     0.198 A 
ATOM     76  C   UNL A   1      40.622  28.658  28.008  1.00  0.00     0.198 A 
ATOM     77  F   UNL A   1      41.411  30.529  29.195  1.00  0.00    -0.203 F 
ATOM     78  F   UNL A   1      38.866  25.702  29.149  1.00  0.00    -0.200 F 
ATOM     79  C   UNL A   1      39.981  27.428  27.988  1.00  0.00     0.200 A 
ATOM     80  F   UNL A   1      41.119  29.172  26.875  1.00  0.00    -0.200 F 
ATOM     81  F   UNL A   1      39.883  26.742  26.841  1.00  0.00    -0.200 F 
ENDBRANCH  57  71
BRANCH  58  82
ATOM     82  C   UNL A   1      40.627  33.837  39.048  1.00  0.00     0.064 A 
ATOM     83  C   UNL A   1      39.943  33.371  40.181  1.00  0.00     0.173 A 
ATOM     84  C   UNL A   1      41.373  35.018  39.179  1.00  0.00     0.173 A 
ATOM     85  F   UNL A   1      39.199  32.259  40.102  1.00  0.00    -0.203 F 
ATOM     86  C   UNL A   1      39.990  34.065  41.389  1.00  0.00     0.198 A 
ATOM     87  C   UNL A   1      41.443  35.695  40.396  1.00  0.00     0.198 A 
ATOM     88  F   UNL A   1      42.049  35.506  38.129  1.00  0.00    -0.203 F 
ATOM     89  F   UNL A   1      39.290  33.620  42.442  1.00  0.00    -0.200 F 
ATOM     90  C   UNL A   1      40.745  35.222  41.497  1.00  0.00     0.200 A 
ATOM     91  F   UNL A   1      42.188  36.803  40.502  1.00  0.00    -0.200 F 
ATOM     92  F   UNL A   1      40.795  35.884  42.661  1.00  0.00    -0.200 F 
ENDBRANCH  58  82
BRANCH  70  93
ATOM     93  C   UNL A   1      44.920  29.357  35.880  1.00  0.00     0.064 A 
ATOM     94  C   UNL A   1      45.034  28.150  36.586  1.00  0.00     0.173 A 
ATOM     95  C   UNL A   1      46.104  30.018  35.520  1.00  0.00     0.173 A 
ATOM     96  F   UNL A   1      43.933  27.483  36.967  1.00  0.00    -0.203 F 
ATOM     97  C   UNL A   1      46.280  27.648  36.952  1.00  0.00     0.198 A 
ATOM     98  C   UNL A   1      47.349  29.494  35.853  1.00  0.00     0.198 A 
ATOM     99  F   UNL A   1      46.055  31.171  34.836  1.00  0.00    -0.203 F 
ATOM    100  F   UNL A   1      46.361  26.527  37.682  1.00  0.00    -0.200 F 
ATOM    101  C   UNL A   1      47.437  28.316  36.579  1.00  0.00     0.200 A 
ATOM    102  F   UNL A   1      48.467  30.132  35.477  1.00  0.00    -0.200 F 
ATOM    103  F   UNL A   1      48.636  27.829  36.928  1.00  0.00    -0.200 F 
ENDBRANCH  70  93
ENDBRANCH  44  45
ENDBRANCH  36  39
ENDBRANCH  34  35
ENDBRANCH  33  34
ENDBRANCH  32  33
ENDBRANCH  31  32
ENDBRANCH   1  31
TORSDOF 17
ENDMDL
MODEL 3
REMARK VINA RESULT:     -11.2      1.057      2.279
REMARK SMILES O=C(COc1ccccc1/C=C1/SC(=S)N(c2ccc(F)c(Cl)c2)C1=O)NCCCCCCNC(=O)c1ccc(-c2c3nc(c(-c4c(F)c(F)c(F)c(F)c4F)c4ccc([nH]4)c(-c4c(F)c(F)c(F)c(F)c4F)c4nc(c(-c5c(F)c(F)c(F)c(F)c5F)c5ccc2[nH]5)C=C4)C=C3)cc1
REMARK SMILES IDX 29 1 28 2 27 3 1 4 2 5 3 7 4 8 5 9 6 10 10 11 7 12 9 13 8 14
REMARK SMILES IDX 11 15 12 16 13 17 25 18 14 19 16 20 26 21 15 22 17 23 18 24
REMARK SMILES IDX 24 25 19 26 22 27 20 28 23 29 21 30 30 31 31 32 32 33 33 34
REMARK SMILES IDX 34 35 35 36 36 38 37 39 38 40 99 41 39 42 98 43 40 44 41 45
REMARK SMILES IDX 42 46 92 47 43 48 97 49 91 50 93 51 44 52 96 53 90 54 89 55
REMARK SMILES IDX 45 57 77 58 57 59 76 60 58 61 61 62 75 63 94 64 59 65 60 66
REMARK SMILES IDX 74 68 95 69 62 70 46 71 47 72 55 73 48 74 49 75 53 76 56 77
REMARK SMILES IDX 50 78 51 79 54 80 52 81 78 82 79 83 87 84 80 85 81 86 85 87
REMARK SMILES IDX 88 88 82 89 83 90 86 91 84 92 63 93 64 94 72 95 65 96 66 97
REMARK SMILES IDX 70 98 73 99 67 100 68 101 71 102 69 103
REMARK H PARENT 27 6 34 37 93 56 61 67
REMARK Flexibility Score: inf
ROOT
ATOM      1  C   UNL A   1      36.271  31.145  27.887  1.00  0.00     0.021 C 
ENDROOT
BRANCH   1   2
ATOM      2  C   UNL A   1      35.711  29.754  27.518  1.00  0.00     0.116 C 
BRANCH   2   3
ATOM      3  N   UNL A   1      34.774  29.660  26.395  1.00  0.00    -0.353 N 
ATOM      4  O   UNL A   1      32.910  29.759  27.729  1.00  0.00    -0.271 OA
ATOM      5  C   UNL A   1      33.400  29.804  26.600  1.00  0.00     0.257 C 
ATOM      6  H   UNL A   1      35.117  29.495  25.488  1.00  0.00     0.163 HD
BRANCH   5   7
ATOM      7  C   UNL A   1      32.509  30.098  25.344  1.00  0.00     0.329 C 
BRANCH   7   8
ATOM      8  O   UNL A   1      32.535  29.285  24.162  1.00  0.00    -0.483 OA
BRANCH   8   9
ATOM      9  C   UNL A   1      31.309  29.013  23.596  1.00  0.00     0.127 A 
ATOM     10  C   UNL A   1      30.883  29.778  22.514  1.00  0.00     0.047 A 
ATOM     11  C   UNL A   1      30.399  28.129  24.214  1.00  0.00     0.018 A 
ATOM     12  C   UNL A   1      29.622  29.542  21.954  1.00  0.00     0.004 A 
ATOM     13  C   UNL A   1      29.187  27.822  23.596  1.00  0.00     0.012 A 
ATOM     14  C   UNL A   1      28.802  28.529  22.457  1.00  0.00     0.001 A 
BRANCH  11  15
ATOM     15  C   UNL A   1      30.748  27.550  25.518  1.00  0.00     0.033 C 
ATOM     16  C   UNL A   1      31.289  26.320  25.528  1.00  0.00     0.081 C 
ATOM     17  S   UNL A   1      30.450  25.002  26.237  1.00  0.00    -0.054 SA
ATOM     18  C   UNL A   1      32.446  25.785  24.758  1.00  0.00     0.270 C 
ATOM     19  C   UNL A   1      31.694  23.852  25.917  1.00  0.00     0.152 C 
ATOM     20  N   UNL A   1      32.630  24.429  25.068  1.00  0.00    -0.261 N 
ATOM     21  O   UNL A   1      33.159  26.491  24.052  1.00  0.00    -0.268 OA
ATOM     22  S   UNL A   1      31.652  22.388  26.731  1.00  0.00    -0.051 S 
BRANCH  20  23
ATOM     23  C   UNL A   1      33.802  23.729  24.673  1.00  0.00     0.052 A 
ATOM     24  C   UNL A   1      33.828  23.024  23.462  1.00  0.00     0.030 A 
ATOM     25  C   UNL A   1      34.988  23.872  25.406  1.00  0.00     0.050 A 
ATOM     26  C   UNL A   1      35.047  22.584  22.940  1.00  0.00     0.043 A 
ATOM     27  C   UNL A   1      36.204  23.459  24.872  1.00  0.00     0.078 A 
ATOM     28  C   UNL A   1      36.229  22.833  23.633  1.00  0.00     0.141 A 
ATOM     29  Cl  UNL A   1      37.653  23.798  25.734  1.00  0.00    -0.081 Cl
ATOM     30  F   UNL A   1      37.391  22.469  23.076  1.00  0.00    -0.205 F 
ENDBRANCH  20  23
ENDBRANCH  11  15
ENDBRANCH   8   9
ENDBRANCH   7   8
ENDBRANCH   5   7
ENDBRANCH   2   3
ENDBRANCH   1   2
BRANCH   1  31
ATOM     31  C   UNL A   1      35.384  32.187  28.597  1.00  0.00     0.002 C 
BRANCH  31  32
ATOM     32  C   UNL A   1      35.727  33.678  28.415  1.00  0.00     0.002 C 
BRANCH  32  33
ATOM     33  C   UNL A   1      34.740  34.711  28.939  1.00  0.00     0.021 C 
BRANCH  33  34
ATOM     34  C   UNL A   1      33.497  34.163  29.629  1.00  0.00     0.116 C 
BRANCH  34  35
ATOM     35  N   UNL A   1      32.720  35.117  30.414  1.00  0.00    -0.352 N 
ATOM     36  C   UNL A   1      32.958  35.537  31.712  1.00  0.00     0.251 C 
ATOM     37  H   UNL A   1      31.936  35.509  29.967  1.00  0.00     0.163 HD
ATOM     38  O   UNL A   1      32.203  36.326  32.269  1.00  0.00    -0.269 OA
BRANCH  36  39
ATOM     39  C   UNL A   1      34.104  34.961  32.457  1.00  0.00     0.039 A 
ATOM     40  C   UNL A   1      33.998  33.672  32.985  1.00  0.00     0.014 A 
ATOM     41  C   UNL A   1      35.321  35.642  32.521  1.00  0.00     0.014 A 
ATOM     42  C   UNL A   1      35.145  33.023  33.452  1.00  0.00     0.010 A 
ATOM     43  C   UNL A   1      36.477  34.953  32.869  1.00  0.00     0.010 A 
ATOM     44  C   UNL A   1      36.407  33.630  33.328  1.00  0.00    -0.014 A 
BRANCH  44  45
ATOM     45  C   UNL A   1      37.659  32.886  33.636  1.00  0.00     0.031 A 
ATOM     46  C   UNL A   1      38.420  33.162  34.904  1.00  0.00     0.074 A 
ATOM     47  C   UNL A   1      38.154  32.012  32.736  1.00  0.00     0.049 A 
ATOM     48  N   UNL A   1      39.538  32.627  35.333  1.00  0.00    -0.248 NA
ATOM     49  C   UNL A   1      37.879  34.202  35.791  1.00  0.00     0.031 C 
ATOM     50  C   UNL A   1      37.561  31.712  31.431  1.00  0.00     0.029 A 
ATOM     51  N   UNL A   1      39.270  31.212  32.780  1.00  0.00    -0.354 N 
ATOM     52  C   UNL A   1      39.833  33.275  36.526  1.00  0.00     0.074 A 
ATOM     53  C   UNL A   1      38.823  34.292  36.714  1.00  0.00     0.031 C 
ATOM     54  C   UNL A   1      38.284  30.759  30.824  1.00  0.00     0.029 A 
ATOM     55  C   UNL A   1      39.417  30.409  31.674  1.00  0.00     0.049 A 
ATOM     56  H   UNL A   1      39.904  31.213  33.532  1.00  0.00     0.167 HD
ATOM     57  C   UNL A   1      40.835  33.024  37.403  1.00  0.00     0.037 A 
ATOM     58  C   UNL A   1      40.356  29.488  31.380  1.00  0.00     0.037 A 
ATOM     59  C   UNL A   1      41.826  31.997  37.222  1.00  0.00     0.049 A 
ATOM     60  C   UNL A   1      41.459  29.226  32.369  1.00  0.00     0.074 A 
ATOM     61  C   UNL A   1      42.835  31.608  38.086  1.00  0.00     0.029 A 
ATOM     62  N   UNL A   1      41.941  31.200  36.091  1.00  0.00    -0.354 N 
ATOM     63  N   UNL A   1      41.669  29.773  33.542  1.00  0.00    -0.248 NA
ATOM     64  C   UNL A   1      42.453  28.210  31.995  1.00  0.00     0.031 C 
ATOM     65  C   UNL A   1      43.598  30.623  37.452  1.00  0.00     0.029 A 
ATOM     66  C   UNL A   1      43.027  30.349  36.219  1.00  0.00     0.049 A 
ATOM     67  H   UNL A   1      41.340  31.235  35.312  1.00  0.00     0.167 HD
ATOM     68  C   UNL A   1      42.800  29.155  34.057  1.00  0.00     0.074 A 
ATOM     69  C   UNL A   1      43.218  28.172  33.077  1.00  0.00     0.031 C 
ATOM     70  C   UNL A   1      43.437  29.381  35.232  1.00  0.00     0.037 A 
BRANCH  57  71
ATOM     71  C   UNL A   1      40.905  33.883  38.636  1.00  0.00     0.064 A 
ATOM     72  C   UNL A   1      40.194  33.561  39.803  1.00  0.00     0.173 A 
ATOM     73  C   UNL A   1      41.701  35.038  38.655  1.00  0.00     0.173 A 
ATOM     74  F   UNL A   1      39.409  32.473  39.840  1.00  0.00    -0.203 F 
ATOM     75  C   UNL A   1      40.241  34.386  40.924  1.00  0.00     0.198 A 
ATOM     76  C   UNL A   1      41.776  35.841  39.791  1.00  0.00     0.198 A 
ATOM     77  F   UNL A   1      42.408  35.391  37.571  1.00  0.00    -0.203 F 
ATOM     78  F   UNL A   1      39.497  34.095  42.001  1.00  0.00    -0.200 F 
ATOM     79  C   UNL A   1      41.036  35.522  40.920  1.00  0.00     0.200 A 
ATOM     80  F   UNL A   1      42.557  36.929  39.789  1.00  0.00    -0.200 F 
ATOM     81  F   UNL A   1      41.081  36.316  41.998  1.00  0.00    -0.200 F 
ENDBRANCH  57  71
BRANCH  58  82
ATOM     82  C   UNL A   1      40.268  28.713  30.113  1.00  0.00     0.064 A 
ATOM     83  C   UNL A   1      40.877  29.182  28.939  1.00  0.00     0.173 A 
ATOM     84  C   UNL A   1      39.581  27.492  30.046  1.00  0.00     0.173 A 
ATOM     85  F   UNL A   1      41.528  30.354  28.946  1.00  0.00    -0.203 F 
ATOM     86  C   UNL A   1      40.788  28.469  27.746  1.00  0.00     0.198 A 
ATOM     87  C   UNL A   1      39.518  26.765  28.858  1.00  0.00     0.198 A 
ATOM     88  F   UNL A   1      38.983  26.996  31.140  1.00  0.00    -0.203 F 
ATOM     89  F   UNL A   1      41.341  28.963  26.630  1.00  0.00    -0.200 F 
ATOM     90  C   UNL A   1      40.114  27.258  27.708  1.00  0.00     0.200 A 
ATOM     91  F   UNL A   1      38.881  25.587  28.830  1.00  0.00    -0.200 F 
ATOM     92  F   UNL A   1      40.036  26.569  26.561  1.00  0.00    -0.200 F 
ENDBRANCH  58  82
BRANCH  70  93
ATOM     93  C   UNL A   1      44.642  28.532  35.534  1.00  0.00     0.064 A 
ATOM     94  C   UNL A   1      45.935  28.925  35.156  1.00  0.00     0.173 A 
ATOM     95  C   UNL A   1      44.502  27.321  36.229  1.00  0.00     0.173 A 
ATOM     96  F   UNL A   1      46.123  30.067  34.478  1.00  0.00    -0.203 F 
ATOM     97  C   UNL A   1      47.037  28.119  35.429  1.00  0.00     0.198 A 
ATOM     98  C   UNL A   1      45.610  26.536  36.533  1.00  0.00     0.198 A 
ATOM     99  F   UNL A   1      43.290  26.901  36.622  1.00  0.00    -0.203 F 
ATOM    100  F   UNL A   1      48.254  28.484  35.002  1.00  0.00    -0.200 F 
ATOM    101  C   UNL A   1      46.875  26.929  36.123  1.00  0.00     0.200 A 
ATOM    102  F   UNL A   1      45.454  25.396  37.220  1.00  0.00    -0.200 F 
ATOM    103  F   UNL A   1      47.938  26.156  36.388  1.00  0.00    -0.200 F 
ENDBRANCH  70  93
ENDBRANCH  44  45
ENDBRANCH  36  39
ENDBRANCH  34  35
ENDBRANCH  33  34
ENDBRANCH  32  33
ENDBRANCH  31  32
ENDBRANCH   1  31
TORSDOF 17
ENDMDL
