MODEL 1
REMARK VINA RESULT:     -12.6      0.000      0.000
REMARK SMILES CC[C@@H](C(=O)NCCCCCCNC(=O)c1ccc(-c2c3nc(c(-c4c(F)c(F)c(F)c(F)c4F)c4ccc([nH]4)c(-c4c(F)c(F)c(F)c(F)c4F)c4nc(c(-c5c(F)c(F)c(F)c(F)c5F)c5ccc2[nH]5)C=C4)C=C3)cc1)[N@@H+]1CCc2ccc(N)cc2C1
REMARK SMILES IDX 9 1 8 2 7 3 6 4 4 5 5 6 3 8 2 9 1 10 79 11 80 12 89 13 81 15
REMARK SMILES IDX 88 16 82 17 87 18 83 19 85 20 84 21 86 22 10 25 11 26 12 27
REMARK SMILES IDX 13 28 14 29 15 31 16 32 17 33 78 34 18 35 77 36 19 37 20 38
REMARK SMILES IDX 21 39 71 40 22 41 76 42 70 43 72 44 23 45 75 46 69 47 68 48
REMARK SMILES IDX 24 50 56 51 36 52 55 53 37 54 40 55 54 56 73 57 38 58 39 59
REMARK SMILES IDX 53 61 74 62 41 63 25 64 26 65 34 66 27 67 28 68 32 69 35 70
REMARK SMILES IDX 29 71 30 72 33 73 31 74 57 75 58 76 66 77 59 78 60 79 64 80
REMARK SMILES IDX 67 81 61 82 62 83 65 84 63 85 42 86 43 87 51 88 44 89 45 90
REMARK SMILES IDX 49 91 52 92 46 93 47 94 50 95 48 96
REMARK H PARENT 6 7 79 14 86 23 86 24 13 30 72 49 40 60
REMARK Flexibility Score: inf
ROOT
ATOM      1  C   UNL A   1      31.730  29.766  25.470  1.00  0.00     0.002 C 
ENDROOT
BRANCH   1   2
ATOM      2  C   UNL A   1      31.470  28.254  25.533  1.00  0.00     0.021 C 
BRANCH   2   3
ATOM      3  C   UNL A   1      31.518  27.647  26.942  1.00  0.00     0.116 C 
BRANCH   3   4
ATOM      4  N   UNL A   1      31.350  26.215  26.828  1.00  0.00    -0.351 N 
ATOM      5  C   UNL A   1      32.252  25.337  26.274  1.00  0.00     0.278 C 
ATOM      6  O   UNL A   1      33.432  25.630  26.097  1.00  0.00    -0.268 OA
ATOM      7  H   UNL A   1      30.514  25.833  27.180  1.00  0.00     0.163 HD
BRANCH   5   8
ATOM      8  C   UNL A   1      31.603  24.045  25.677  1.00  0.00     0.274 C 
BRANCH   8   9
ATOM      9  C   UNL A   1      31.240  23.056  26.822  1.00  0.00     0.072 C 
ATOM     10  C   UNL A   1      29.777  22.614  26.895  1.00  0.00     0.011 C 
ENDBRANCH   8   9
BRANCH   8  11
ATOM     11  N   UNL A   1      32.286  23.453  24.481  1.00  0.00    -0.321 N 
ATOM     12  C   UNL A   1      31.407  22.956  23.380  1.00  0.00     0.267 C 
ATOM     13  C   UNL A   1      33.438  22.582  24.666  1.00  0.00     0.300 C 
ATOM     14  H   UNL A   1      32.699  24.334  24.173  1.00  0.00     0.349 HD
ATOM     15  C   UNL A   1      32.033  21.838  22.458  1.00  0.00     0.097 C 
ATOM     16  C   UNL A   1      33.050  21.129  24.574  1.00  0.00     0.012 A 
ATOM     17  C   UNL A   1      32.529  20.719  23.347  1.00  0.00    -0.033 A 
ATOM     18  C   UNL A   1      33.090  20.210  25.615  1.00  0.00     0.035 A 
ATOM     19  C   UNL A   1      32.411  19.358  23.073  1.00  0.00     0.006 A 
ATOM     20  C   UNL A   1      32.748  18.876  25.420  1.00  0.00     0.032 A 
ATOM     21  C   UNL A   1      32.563  18.433  24.114  1.00  0.00     0.026 A 
BRANCH  20  22
ATOM     22  N   UNL A   1      32.724  18.004  26.500  1.00  0.00    -0.399 N 
ATOM     23  H   UNL A   1      31.863  17.691  26.861  1.00  0.00     0.156 HD
ATOM     24  H   UNL A   1      33.568  17.699  26.905  1.00  0.00     0.156 HD
ENDBRANCH  20  22
ENDBRANCH   8  11
ENDBRANCH   5   8
ENDBRANCH   3   4
ENDBRANCH   2   3
ENDBRANCH   1   2
BRANCH   1  25
ATOM     25  C   UNL A   1      32.075  30.457  26.787  1.00  0.00     0.002 C 
BRANCH  25  26
ATOM     26  C   UNL A   1      31.777  31.949  26.829  1.00  0.00     0.021 C 
BRANCH  26  27
ATOM     27  C   UNL A   1      32.894  32.803  27.414  1.00  0.00     0.116 C 
BRANCH  27  28
ATOM     28  N   UNL A   1      32.483  34.174  27.671  1.00  0.00    -0.352 N 
ATOM     29  C   UNL A   1      32.992  35.042  28.606  1.00  0.00     0.251 C 
ATOM     30  H   UNL A   1      31.755  34.520  27.107  1.00  0.00     0.163 HD
ATOM     31  O   UNL A   1      32.481  36.139  28.807  1.00  0.00    -0.269 OA
BRANCH  29  32
ATOM     32  C   UNL A   1      34.159  34.611  29.399  1.00  0.00     0.039 A 
ATOM     33  C   UNL A   1      33.953  34.025  30.649  1.00  0.00     0.014 A 
ATOM     34  C   UNL A   1      35.443  34.703  28.854  1.00  0.00     0.014 A 
ATOM     35  C   UNL A   1      35.035  33.467  31.332  1.00  0.00     0.010 A 
ATOM     36  C   UNL A   1      36.505  34.085  29.502  1.00  0.00     0.010 A 
ATOM     37  C   UNL A   1      36.312  33.463  30.748  1.00  0.00    -0.014 A 
BRANCH  37  38
ATOM     38  C   UNL A   1      37.479  32.846  31.426  1.00  0.00     0.031 A 
ATOM     39  C   UNL A   1      38.181  31.691  30.769  1.00  0.00     0.074 A 
ATOM     40  C   UNL A   1      37.846  33.253  32.656  1.00  0.00     0.049 A 
ATOM     41  N   UNL A   1      39.107  30.901  31.248  1.00  0.00    -0.248 NA
ATOM     42  C   UNL A   1      37.755  31.360  29.400  1.00  0.00     0.031 C 
ATOM     43  C   UNL A   1      37.223  34.339  33.412  1.00  0.00     0.029 A 
ATOM     44  N   UNL A   1      38.823  32.781  33.497  1.00  0.00    -0.354 N 
ATOM     45  C   UNL A   1      39.347  29.961  30.255  1.00  0.00     0.074 A 
ATOM     46  C   UNL A   1      38.444  30.254  29.163  1.00  0.00     0.031 C 
ATOM     47  C   UNL A   1      37.838  34.457  34.601  1.00  0.00     0.029 A 
ATOM     48  C   UNL A   1      38.872  33.432  34.706  1.00  0.00     0.049 A 
ATOM     49  H   UNL A   1      39.432  32.046  33.256  1.00  0.00     0.167 HD
ATOM     50  C   UNL A   1      40.251  28.954  30.249  1.00  0.00     0.037 A 
ATOM     51  C   UNL A   1      39.654  33.213  35.782  1.00  0.00     0.037 A 
ATOM     52  C   UNL A   1      41.181  28.698  31.314  1.00  0.00     0.049 A 
ATOM     53  C   UNL A   1      40.668  32.101  35.740  1.00  0.00     0.074 A 
ATOM     54  C   UNL A   1      42.178  27.741  31.378  1.00  0.00     0.029 A 
ATOM     55  N   UNL A   1      41.233  29.414  32.501  1.00  0.00    -0.354 N 
ATOM     56  N   UNL A   1      40.916  31.245  34.779  1.00  0.00    -0.248 NA
ATOM     57  C   UNL A   1      41.514  31.927  36.931  1.00  0.00     0.031 C 
ATOM     58  C   UNL A   1      42.817  27.860  32.617  1.00  0.00     0.029 A 
ATOM     59  C   UNL A   1      42.242  28.915  33.307  1.00  0.00     0.049 A 
ATOM     60  H   UNL A   1      40.641  30.165  32.735  1.00  0.00     0.167 HD
ATOM     61  C   UNL A   1      41.965  30.456  35.233  1.00  0.00     0.074 A 
ATOM     62  C   UNL A   1      42.309  30.935  36.555  1.00  0.00     0.031 C 
ATOM     63  C   UNL A   1      42.587  29.427  34.608  1.00  0.00     0.037 A 
BRANCH  50  64
ATOM     64  C   UNL A   1      40.278  28.057  29.048  1.00  0.00     0.064 A 
ATOM     65  C   UNL A   1      39.556  26.854  29.012  1.00  0.00     0.173 A 
ATOM     66  C   UNL A   1      41.015  28.415  27.909  1.00  0.00     0.173 A 
ATOM     67  F   UNL A   1      38.848  26.460  30.082  1.00  0.00    -0.203 F 
ATOM     68  C   UNL A   1      39.596  26.029  27.892  1.00  0.00     0.198 A 
ATOM     69  C   UNL A   1      41.029  27.602  26.780  1.00  0.00     0.198 A 
ATOM     70  F   UNL A   1      41.719  29.557  27.892  1.00  0.00    -0.203 F 
ATOM     71  F   UNL A   1      38.939  24.860  27.900  1.00  0.00    -0.200 F 
ATOM     72  C   UNL A   1      40.326  26.406  26.774  1.00  0.00     0.200 A 
ATOM     73  F   UNL A   1      41.726  27.972  25.698  1.00  0.00    -0.200 F 
ATOM     74  F   UNL A   1      40.360  25.613  25.696  1.00  0.00    -0.200 F 
ENDBRANCH  50  64
BRANCH  51  75
ATOM     75  C   UNL A   1      39.525  34.078  36.982  1.00  0.00     0.064 A 
ATOM     76  C   UNL A   1      38.773  33.660  38.089  1.00  0.00     0.173 A 
ATOM     77  C   UNL A   1      40.142  35.335  37.048  1.00  0.00     0.173 A 
ATOM     78  F   UNL A   1      38.145  32.475  38.061  1.00  0.00    -0.203 F 
ATOM     79  C   UNL A   1      38.631  34.473  39.211  1.00  0.00     0.198 A 
ATOM     80  C   UNL A   1      40.019  36.138  38.182  1.00  0.00     0.198 A 
ATOM     81  F   UNL A   1      40.875  35.780  36.018  1.00  0.00    -0.203 F 
ATOM     82  F   UNL A   1      37.874  34.065  40.239  1.00  0.00    -0.200 F 
ATOM     83  C   UNL A   1      39.257  35.709  39.258  1.00  0.00     0.200 A 
ATOM     84  F   UNL A   1      40.634  37.327  38.228  1.00  0.00    -0.200 F 
ATOM     85  F   UNL A   1      39.122  36.490  40.340  1.00  0.00    -0.200 F 
ENDBRANCH  51  75
BRANCH  63  86
ATOM     86  C   UNL A   1      43.741  28.781  35.315  1.00  0.00     0.064 A 
ATOM     87  C   UNL A   1      45.054  29.236  35.145  1.00  0.00     0.173 A 
ATOM     88  C   UNL A   1      43.512  27.746  36.233  1.00  0.00     0.173 A 
ATOM     89  F   UNL A   1      45.321  30.216  34.266  1.00  0.00    -0.203 F 
ATOM     90  C   UNL A   1      46.103  28.672  35.865  1.00  0.00     0.198 A 
ATOM     91  C   UNL A   1      44.560  27.199  36.969  1.00  0.00     0.198 A 
ATOM     92  F   UNL A   1      42.270  27.281  36.435  1.00  0.00    -0.203 F 
ATOM     93  F   UNL A   1      47.356  29.105  35.670  1.00  0.00    -0.200 F 
ATOM     94  C   UNL A   1      45.854  27.661  36.782  1.00  0.00     0.200 A 
ATOM     95  F   UNL A   1      44.316  26.232  37.863  1.00  0.00    -0.200 F 
ATOM     96  F   UNL A   1      46.864  27.130  37.486  1.00  0.00    -0.200 F 
ENDBRANCH  63  86
ENDBRANCH  37  38
ENDBRANCH  29  32
ENDBRANCH  27  28
ENDBRANCH  26  27
ENDBRANCH  25  26
ENDBRANCH   1  25
TORSDOF 16
ENDMDL
MODEL 2
REMARK VINA RESULT:     -12.6      1.978      7.942
REMARK SMILES CC[C@@H](C(=O)NCCCCCCNC(=O)c1ccc(-c2c3nc(c(-c4c(F)c(F)c(F)c(F)c4F)c4ccc([nH]4)c(-c4c(F)c(F)c(F)c(F)c4F)c4nc(c(-c5c(F)c(F)c(F)c(F)c5F)c5ccc2[nH]5)C=C4)C=C3)cc1)[N@@H+]1CCc2ccc(N)cc2C1
REMARK SMILES IDX 9 1 8 2 7 3 6 4 4 5 5 6 3 8 2 9 1 10 79 11 80 12 89 13 81 15
REMARK SMILES IDX 88 16 82 17 87 18 83 19 85 20 84 21 86 22 10 25 11 26 12 27
REMARK SMILES IDX 13 28 14 29 15 31 16 32 17 33 78 34 18 35 77 36 19 37 20 38
REMARK SMILES IDX 21 39 71 40 22 41 76 42 70 43 72 44 23 45 75 46 69 47 68 48
REMARK SMILES IDX 24 50 56 51 36 52 55 53 37 54 40 55 54 56 73 57 38 58 39 59
REMARK SMILES IDX 53 61 74 62 41 63 25 64 26 65 34 66 27 67 28 68 32 69 35 70
REMARK SMILES IDX 29 71 30 72 33 73 31 74 57 75 58 76 66 77 59 78 60 79 64 80
REMARK SMILES IDX 67 81 61 82 62 83 65 84 63 85 42 86 43 87 51 88 44 89 45 90
REMARK SMILES IDX 49 91 52 92 46 93 47 94 50 95 48 96
REMARK H PARENT 6 7 79 14 86 23 86 24 13 30 72 49 40 60
REMARK Flexibility Score: inf
ROOT
ATOM      1  C   UNL A   1      34.414  32.218  28.993  1.00  0.00     0.002 C 
ENDROOT
BRANCH   1   2
ATOM      2  C   UNL A   1      35.316  31.610  27.909  1.00  0.00     0.021 C 
BRANCH   2   3
ATOM      3  C   UNL A   1      35.145  30.100  27.697  1.00  0.00     0.116 C 
BRANCH   3   4
ATOM      4  N   UNL A   1      34.426  29.892  26.459  1.00  0.00    -0.351 N 
ATOM      5  C   UNL A   1      33.100  29.543  26.344  1.00  0.00     0.278 C 
ATOM      6  O   UNL A   1      32.302  29.674  27.269  1.00  0.00    -0.268 OA
ATOM      7  H   UNL A   1      34.930  30.011  25.623  1.00  0.00     0.163 HD
BRANCH   5   8
ATOM      8  C   UNL A   1      32.758  28.754  25.037  1.00  0.00     0.274 C 
BRANCH   8   9
ATOM      9  C   UNL A   1      31.216  28.646  24.871  1.00  0.00     0.072 C 
ATOM     10  C   UNL A   1      30.626  29.270  23.604  1.00  0.00     0.011 C 
ENDBRANCH   8   9
BRANCH   8  11
ATOM     11  N   UNL A   1      33.542  27.499  24.798  1.00  0.00    -0.321 N 
ATOM     12  C   UNL A   1      33.397  26.858  23.457  1.00  0.00     0.267 C 
ATOM     13  C   UNL A   1      33.635  26.496  25.850  1.00  0.00     0.300 C 
ATOM     14  H   UNL A   1      34.452  27.959  24.825  1.00  0.00     0.349 HD
ATOM     15  C   UNL A   1      33.695  25.309  23.403  1.00  0.00     0.097 C 
ATOM     16  C   UNL A   1      32.660  25.369  25.626  1.00  0.00     0.012 A 
ATOM     17  C   UNL A   1      32.850  24.631  24.457  1.00  0.00    -0.033 A 
ATOM     18  C   UNL A   1      31.566  25.071  26.426  1.00  0.00     0.035 A 
ATOM     19  C   UNL A   1      32.192  23.412  24.304  1.00  0.00     0.006 A 
ATOM     20  C   UNL A   1      30.744  23.981  26.157  1.00  0.00     0.032 A 
ATOM     21  C   UNL A   1      31.160  23.073  25.189  1.00  0.00     0.026 A 
BRANCH  20  22
ATOM     22  N   UNL A   1      29.615  23.760  26.933  1.00  0.00    -0.399 N 
ATOM     23  H   UNL A   1      29.613  23.041  27.607  1.00  0.00     0.156 HD
ATOM     24  H   UNL A   1      28.815  24.321  26.810  1.00  0.00     0.156 HD
ENDBRANCH  20  22
ENDBRANCH   8  11
ENDBRANCH   5   8
ENDBRANCH   3   4
ENDBRANCH   2   3
ENDBRANCH   1   2
BRANCH   1  25
ATOM     25  C   UNL A   1      34.646  33.687  29.334  1.00  0.00     0.002 C 
BRANCH  25  26
ATOM     26  C   UNL A   1      33.476  34.613  29.030  1.00  0.00     0.021 C 
BRANCH  26  27
ATOM     27  C   UNL A   1      33.595  36.005  29.635  1.00  0.00     0.116 C 
BRANCH  27  28
ATOM     28  N   UNL A   1      32.543  36.297  30.594  1.00  0.00    -0.352 N 
ATOM     29  C   UNL A   1      32.466  35.894  31.906  1.00  0.00     0.251 C 
ATOM     30  H   UNL A   1      31.798  36.850  30.265  1.00  0.00     0.163 HD
ATOM     31  O   UNL A   1      31.466  36.107  32.584  1.00  0.00    -0.269 OA
BRANCH  29  32
ATOM     32  C   UNL A   1      33.610  35.160  32.480  1.00  0.00     0.039 A 
ATOM     33  C   UNL A   1      33.430  33.840  32.898  1.00  0.00     0.014 A 
ATOM     34  C   UNL A   1      34.874  35.755  32.510  1.00  0.00     0.014 A 
ATOM     35  C   UNL A   1      34.538  33.088  33.288  1.00  0.00     0.010 A 
ATOM     36  C   UNL A   1      35.984  34.983  32.831  1.00  0.00     0.010 A 
ATOM     37  C   UNL A   1      35.827  33.643  33.224  1.00  0.00    -0.014 A 
BRANCH  37  38
ATOM     38  C   UNL A   1      37.033  32.862  33.595  1.00  0.00     0.031 A 
ATOM     39  C   UNL A   1      37.726  33.159  34.895  1.00  0.00     0.074 A 
ATOM     40  C   UNL A   1      37.555  31.965  32.738  1.00  0.00     0.049 A 
ATOM     41  N   UNL A   1      38.875  32.723  35.343  1.00  0.00    -0.248 NA
ATOM     42  C   UNL A   1      37.048  34.104  35.797  1.00  0.00     0.031 C 
ATOM     43  C   UNL A   1      36.995  31.613  31.432  1.00  0.00     0.029 A 
ATOM     44  N   UNL A   1      38.691  31.200  32.828  1.00  0.00    -0.354 N 
ATOM     45  C   UNL A   1      39.073  33.367  36.557  1.00  0.00     0.074 A 
ATOM     46  C   UNL A   1      37.946  34.252  36.758  1.00  0.00     0.031 C 
ATOM     47  C   UNL A   1      37.784  30.695  30.849  1.00  0.00     0.029 A 
ATOM     48  C   UNL A   1      38.924  30.422  31.720  1.00  0.00     0.049 A 
ATOM     49  H   UNL A   1      39.284  31.207  33.614  1.00  0.00     0.167 HD
ATOM     50  C   UNL A   1      40.096  33.220  37.431  1.00  0.00     0.037 A 
ATOM     51  C   UNL A   1      39.949  29.596  31.435  1.00  0.00     0.037 A 
ATOM     52  C   UNL A   1      41.186  32.302  37.251  1.00  0.00     0.049 A 
ATOM     53  C   UNL A   1      41.062  29.432  32.436  1.00  0.00     0.074 A 
ATOM     54  C   UNL A   1      42.239  32.034  38.107  1.00  0.00     0.029 A 
ATOM     55  N   UNL A   1      41.357  31.493  36.137  1.00  0.00    -0.354 N 
ATOM     56  N   UNL A   1      41.218  30.014  33.600  1.00  0.00    -0.248 NA
ATOM     57  C   UNL A   1      42.140  28.495  32.085  1.00  0.00     0.031 C 
ATOM     58  C   UNL A   1      43.064  31.081  37.498  1.00  0.00     0.029 A 
ATOM     59  C   UNL A   1      42.503  30.730  36.281  1.00  0.00     0.049 A 
ATOM     60  H   UNL A   1      40.754  31.467  35.360  1.00  0.00     0.167 HD
ATOM     61  C   UNL A   1      42.388  29.490  34.135  1.00  0.00     0.074 A 
ATOM     62  C   UNL A   1      42.902  28.543  33.169  1.00  0.00     0.031 C 
ATOM     63  C   UNL A   1      42.980  29.770  35.321  1.00  0.00     0.037 A 
BRANCH  50  64
ATOM     64  C   UNL A   1      40.076  34.071  38.665  1.00  0.00     0.064 A 
ATOM     65  C   UNL A   1      40.704  35.325  38.704  1.00  0.00     0.173 A 
ATOM     66  C   UNL A   1      39.401  33.639  39.817  1.00  0.00     0.173 A 
ATOM     67  F   UNL A   1      41.376  35.777  37.633  1.00  0.00    -0.203 F 
ATOM     68  C   UNL A   1      40.682  36.102  39.859  1.00  0.00     0.198 A 
ATOM     69  C   UNL A   1      39.357  34.430  40.961  1.00  0.00     0.198 A 
ATOM     70  F   UNL A   1      38.782  32.448  39.830  1.00  0.00    -0.203 F 
ATOM     71  F   UNL A   1      41.333  37.273  39.888  1.00  0.00    -0.200 F 
ATOM     72  C   UNL A   1      40.004  35.657  40.984  1.00  0.00     0.200 A 
ATOM     73  F   UNL A   1      38.693  34.005  42.043  1.00  0.00    -0.200 F 
ATOM     74  F   UNL A   1      39.981  36.407  42.094  1.00  0.00    -0.200 F 
ENDBRANCH  50  64
BRANCH  51  75
ATOM     75  C   UNL A   1      39.961  28.842  30.156  1.00  0.00     0.064 A 
ATOM     76  C   UNL A   1      40.542  29.393  29.005  1.00  0.00     0.173 A 
ATOM     77  C   UNL A   1      39.395  27.563  30.054  1.00  0.00     0.173 A 
ATOM     78  F   UNL A   1      41.075  30.623  29.049  1.00  0.00    -0.203 F 
ATOM     79  C   UNL A   1      40.541  28.701  27.796  1.00  0.00     0.198 A 
ATOM     80  C   UNL A   1      39.417  26.862  28.849  1.00  0.00     0.198 A 
ATOM     81  F   UNL A   1      38.831  26.990  31.126  1.00  0.00    -0.203 F 
ATOM     82  F   UNL A   1      41.067  29.268  26.702  1.00  0.00    -0.200 F 
ATOM     83  C   UNL A   1      39.982  27.434  27.720  1.00  0.00     0.200 A 
ATOM     84  F   UNL A   1      38.886  25.634  28.782  1.00  0.00    -0.200 F 
ATOM     85  F   UNL A   1      39.985  26.768  26.557  1.00  0.00    -0.200 F 
ENDBRANCH  51  75
BRANCH  63  86
ATOM     86  C   UNL A   1      44.221  29.006  35.673  1.00  0.00     0.064 A 
ATOM     87  C   UNL A   1      45.497  29.491  35.357  1.00  0.00     0.173 A 
ATOM     88  C   UNL A   1      44.129  27.813  36.406  1.00  0.00     0.173 A 
ATOM     89  F   UNL A   1      45.632  30.621  34.646  1.00  0.00    -0.203 F 
ATOM     90  C   UNL A   1      46.640  28.804  35.757  1.00  0.00     0.198 A 
ATOM     91  C   UNL A   1      45.273  27.141  36.823  1.00  0.00     0.198 A 
ATOM     92  F   UNL A   1      42.929  27.314  36.737  1.00  0.00    -0.203 F 
ATOM     93  F   UNL A   1      47.851  29.271  35.423  1.00  0.00    -0.200 F 
ATOM     94  C   UNL A   1      46.527  27.635  36.496  1.00  0.00     0.200 A 
ATOM     95  F   UNL A   1      45.163  26.019  37.548  1.00  0.00    -0.200 F 
ATOM     96  F   UNL A   1      47.629  26.984  36.893  1.00  0.00    -0.200 F 
ENDBRANCH  63  86
ENDBRANCH  37  38
ENDBRANCH  29  32
ENDBRANCH  27  28
ENDBRANCH  26  27
ENDBRANCH  25  26
ENDBRANCH   1  25
TORSDOF 16
ENDMDL
MODEL 3
REMARK VINA RESULT:     -12.4      0.670      1.753
REMARK SMILES CC[C@@H](C(=O)NCCCCCCNC(=O)c1ccc(-c2c3nc(c(-c4c(F)c(F)c(F)c(F)c4F)c4ccc([nH]4)c(-c4c(F)c(F)c(F)c(F)c4F)c4nc(c(-c5c(F)c(F)c(F)c(F)c5F)c5ccc2[nH]5)C=C4)C=C3)cc1)[N@@H+]1CCc2ccc(N)cc2C1
REMARK SMILES IDX 9 1 8 2 7 3 6 4 4 5 5 6 3 8 2 9 1 10 79 11 80 12 89 13 81 15
REMARK SMILES IDX 88 16 82 17 87 18 83 19 85 20 84 21 86 22 10 25 11 26 12 27
REMARK SMILES IDX 13 28 14 29 15 31 16 32 17 33 78 34 18 35 77 36 19 37 20 38
REMARK SMILES IDX 21 39 71 40 22 41 76 42 70 43 72 44 23 45 75 46 69 47 68 48
REMARK SMILES IDX 24 50 56 51 36 52 55 53 37 54 40 55 54 56 73 57 38 58 39 59
REMARK SMILES IDX 53 61 74 62 41 63 25 64 26 65 34 66 27 67 28 68 32 69 35 70
REMARK SMILES IDX 29 71 30 72 33 73 31 74 57 75 58 76 66 77 59 78 60 79 64 80
REMARK SMILES IDX 67 81 61 82 62 83 65 84 63 85 42 86 43 87 51 88 44 89 45 90
REMARK SMILES IDX 49 91 52 92 46 93 47 94 50 95 48 96
REMARK H PARENT 6 7 79 14 86 23 86 24 13 30 72 49 40 60
REMARK Flexibility Score: inf
ROOT
ATOM      1  C   UNL A   1      33.490  29.847  26.730  1.00  0.00     0.002 C 
ENDROOT
BRANCH   1   2
ATOM      2  C   UNL A   1      33.789  28.386  26.361  1.00  0.00     0.021 C 
BRANCH   2   3
ATOM      3  C   UNL A   1      32.701  27.382  26.765  1.00  0.00     0.116 C 
BRANCH   3   4
ATOM      4  N   UNL A   1      33.040  26.092  26.204  1.00  0.00    -0.351 N 
ATOM      5  C   UNL A   1      32.192  25.270  25.499  1.00  0.00     0.278 C 
ATOM      6  O   UNL A   1      31.146  25.677  24.999  1.00  0.00    -0.268 OA
ATOM      7  H   UNL A   1      33.961  25.773  26.339  1.00  0.00     0.163 HD
BRANCH   5   8
ATOM      8  C   UNL A   1      32.549  23.750  25.595  1.00  0.00     0.274 C 
BRANCH   8   9
ATOM      9  C   UNL A   1      33.507  23.504  26.795  1.00  0.00     0.072 C 
ATOM     10  C   UNL A   1      33.039  22.484  27.836  1.00  0.00     0.011 C 
ENDBRANCH   8   9
BRANCH   8  11
ATOM     11  N   UNL A   1      32.912  23.074  24.307  1.00  0.00    -0.321 N 
ATOM     12  C   UNL A   1      31.786  22.721  23.391  1.00  0.00     0.267 C 
ATOM     13  C   UNL A   1      33.938  22.041  24.299  1.00  0.00     0.300 C 
ATOM     14  H   UNL A   1      33.388  23.886  23.914  1.00  0.00     0.349 HD
ATOM     15  C   UNL A   1      32.065  21.530  22.393  1.00  0.00     0.097 C 
ATOM     16  C   UNL A   1      33.331  20.662  24.305  1.00  0.00     0.012 A 
ATOM     17  C   UNL A   1      32.543  20.343  23.199  1.00  0.00    -0.033 A 
ATOM     18  C   UNL A   1      33.423  19.739  25.339  1.00  0.00     0.035 A 
ATOM     19  C   UNL A   1      32.180  19.017  22.977  1.00  0.00     0.006 A 
ATOM     20  C   UNL A   1      32.860  18.471  25.234  1.00  0.00     0.032 A 
ATOM     21  C   UNL A   1      32.380  18.071  23.991  1.00  0.00     0.026 A 
BRANCH  20  22
ATOM     22  N   UNL A   1      32.903  17.604  26.316  1.00  0.00    -0.399 N 
ATOM     23  H   UNL A   1      33.654  17.649  26.954  1.00  0.00     0.156 HD
ATOM     24  H   UNL A   1      32.185  16.944  26.449  1.00  0.00     0.156 HD
ENDBRANCH  20  22
ENDBRANCH   8  11
ENDBRANCH   5   8
ENDBRANCH   3   4
ENDBRANCH   2   3
ENDBRANCH   1   2
BRANCH   1  25
ATOM     25  C   UNL A   1      32.226  30.460  26.134  1.00  0.00     0.002 C 
BRANCH  25  26
ATOM     26  C   UNL A   1      31.748  31.738  26.810  1.00  0.00     0.021 C 
BRANCH  26  27
ATOM     27  C   UNL A   1      32.857  32.589  27.412  1.00  0.00     0.116 C 
BRANCH  27  28
ATOM     28  N   UNL A   1      32.453  33.967  27.638  1.00  0.00    -0.352 N 
ATOM     29  C   UNL A   1      32.973  34.858  28.546  1.00  0.00     0.251 C 
ATOM     30  H   UNL A   1      31.720  34.302  27.072  1.00  0.00     0.163 HD
ATOM     31  O   UNL A   1      32.467  35.962  28.723  1.00  0.00    -0.269 OA
BRANCH  29  32
ATOM     32  C   UNL A   1      34.146  34.444  29.339  1.00  0.00     0.039 A 
ATOM     33  C   UNL A   1      33.948  33.785  30.553  1.00  0.00     0.014 A 
ATOM     34  C   UNL A   1      35.433  34.626  28.824  1.00  0.00     0.014 A 
ATOM     35  C   UNL A   1      35.044  33.246  31.228  1.00  0.00     0.010 A 
ATOM     36  C   UNL A   1      36.514  34.027  29.461  1.00  0.00     0.010 A 
ATOM     37  C   UNL A   1      36.330  33.333  30.669  1.00  0.00    -0.014 A 
BRANCH  37  38
ATOM     38  C   UNL A   1      37.514  32.740  31.338  1.00  0.00     0.031 A 
ATOM     39  C   UNL A   1      38.243  31.609  30.669  1.00  0.00     0.074 A 
ATOM     40  C   UNL A   1      37.875  33.144  32.571  1.00  0.00     0.049 A 
ATOM     41  N   UNL A   1      39.189  30.838  31.137  1.00  0.00    -0.248 NA
ATOM     42  C   UNL A   1      37.820  31.280  29.298  1.00  0.00     0.031 C 
ATOM     43  C   UNL A   1      37.227  34.208  33.339  1.00  0.00     0.029 A 
ATOM     44  N   UNL A   1      38.867  32.690  33.404  1.00  0.00    -0.354 N 
ATOM     45  C   UNL A   1      39.449  29.912  30.135  1.00  0.00     0.074 A 
ATOM     46  C   UNL A   1      38.535  30.193  29.049  1.00  0.00     0.031 C 
ATOM     47  C   UNL A   1      37.844  34.331  34.526  1.00  0.00     0.029 A 
ATOM     48  C   UNL A   1      38.904  33.331  34.619  1.00  0.00     0.049 A 
ATOM     49  H   UNL A   1      39.493  31.973  33.155  1.00  0.00     0.167 HD
ATOM     50  C   UNL A   1      40.378  28.928  30.117  1.00  0.00     0.037 A 
ATOM     51  C   UNL A   1      39.694  33.122  35.690  1.00  0.00     0.037 A 
ATOM     52  C   UNL A   1      41.318  28.686  31.177  1.00  0.00     0.049 A 
ATOM     53  C   UNL A   1      40.736  32.036  35.636  1.00  0.00     0.074 A 
ATOM     54  C   UNL A   1      42.338  27.754  31.229  1.00  0.00     0.029 A 
ATOM     55  N   UNL A   1      41.356  29.393  32.370  1.00  0.00    -0.354 N 
ATOM     56  N   UNL A   1      41.002  31.195  34.666  1.00  0.00    -0.248 NA
ATOM     57  C   UNL A   1      41.589  31.873  36.822  1.00  0.00     0.031 C 
ATOM     58  C   UNL A   1      42.978  27.877  32.467  1.00  0.00     0.029 A 
ATOM     59  C   UNL A   1      42.380  28.912  33.169  1.00  0.00     0.049 A 
ATOM     60  H   UNL A   1      40.747  30.126  32.613  1.00  0.00     0.167 HD
ATOM     61  C   UNL A   1      42.072  30.428  35.109  1.00  0.00     0.074 A 
ATOM     62  C   UNL A   1      42.407  30.904  36.434  1.00  0.00     0.031 C 
ATOM     63  C   UNL A   1      42.716  29.420  34.472  1.00  0.00     0.037 A 
BRANCH  50  64
ATOM     64  C   UNL A   1      40.423  28.043  28.908  1.00  0.00     0.064 A 
ATOM     65  C   UNL A   1      39.703  26.840  28.850  1.00  0.00     0.173 A 
ATOM     66  C   UNL A   1      41.176  28.413  27.783  1.00  0.00     0.173 A 
ATOM     67  F   UNL A   1      38.981  26.435  29.906  1.00  0.00    -0.203 F 
ATOM     68  C   UNL A   1      39.760  26.026  27.723  1.00  0.00     0.198 A 
ATOM     69  C   UNL A   1      41.207  27.611  26.647  1.00  0.00     0.198 A 
ATOM     70  F   UNL A   1      41.879  29.556  27.787  1.00  0.00    -0.203 F 
ATOM     71  F   UNL A   1      39.105  24.857  27.710  1.00  0.00    -0.200 F 
ATOM     72  C   UNL A   1      40.506  26.415  26.620  1.00  0.00     0.200 A 
ATOM     73  F   UNL A   1      41.919  27.992  25.578  1.00  0.00    -0.200 F 
ATOM     74  F   UNL A   1      40.556  25.632  25.534  1.00  0.00    -0.200 F 
ENDBRANCH  50  64
BRANCH  51  75
ATOM     75  C   UNL A   1      39.547  33.973  36.898  1.00  0.00     0.064 A 
ATOM     76  C   UNL A   1      40.198  35.212  36.985  1.00  0.00     0.173 A 
ATOM     77  C   UNL A   1      38.762  33.570  37.988  1.00  0.00     0.173 A 
ATOM     78  F   UNL A   1      40.979  35.628  35.977  1.00  0.00    -0.203 F 
ATOM     79  C   UNL A   1      40.082  36.008  38.122  1.00  0.00     0.198 A 
ATOM     80  C   UNL A   1      38.627  34.378  39.115  1.00  0.00     0.198 A 
ATOM     81  F   UNL A   1      38.116  32.395  37.953  1.00  0.00    -0.203 F 
ATOM     82  F   UNL A   1      40.747  37.169  38.194  1.00  0.00    -0.200 F 
ATOM     83  C   UNL A   1      39.293  35.593  39.184  1.00  0.00     0.200 A 
ATOM     84  F   UNL A   1      37.856  33.979  40.135  1.00  0.00    -0.200 F 
ATOM     85  F   UNL A   1      39.180  36.361  40.277  1.00  0.00    -0.200 F 
ENDBRANCH  51  75
BRANCH  63  86
ATOM     86  C   UNL A   1      43.888  28.797  35.170  1.00  0.00     0.064 A 
ATOM     87  C   UNL A   1      43.739  27.682  36.004  1.00  0.00     0.173 A 
ATOM     88  C   UNL A   1      45.185  29.279  34.934  1.00  0.00     0.173 A 
ATOM     89  F   UNL A   1      42.516  27.196  36.268  1.00  0.00    -0.203 F 
ATOM     90  C   UNL A   1      44.847  27.072  36.585  1.00  0.00     0.198 A 
ATOM     91  C   UNL A   1      46.293  28.654  35.499  1.00  0.00     0.198 A 
ATOM     92  F   UNL A   1      45.378  30.341  34.138  1.00  0.00    -0.203 F 
ATOM     93  F   UNL A   1      44.681  26.021  37.399  1.00  0.00    -0.200 F 
ATOM     94  C   UNL A   1      46.122  27.554  36.325  1.00  0.00     0.200 A 
ATOM     95  F   UNL A   1      47.524  29.111  35.237  1.00  0.00    -0.200 F 
ATOM     96  F   UNL A   1      47.189  26.955  36.873  1.00  0.00    -0.200 F 
ENDBRANCH  63  86
ENDBRANCH  37  38
ENDBRANCH  29  32
ENDBRANCH  27  28
ENDBRANCH  26  27
ENDBRANCH  25  26
ENDBRANCH   1  25
TORSDOF 16
ENDMDL
