MODEL 1
REMARK VINA RESULT:     -12.6      0.000      0.000
REMARK SMILES O=C(COc1ccc(N2C[C@@H](C(=O)NCCCCCCNC(=O)c3ccc(-c4c5nc(c(-c6c(F)c(F)c(F)c(F)c6F)c6ccc([nH]6)c(-c6c(F)c(F)c(F)c(F)c6F)c6nc(c(-c7c(F)c(F)c(F)c(F)c7F)c7ccc4[nH]7)C=C6)C=C5)cc3)CC2=O)cc1)Nc1ccc(Cl)cc1Cl
REMARK SMILES IDX 16 1 15 2 14 3 12 4 13 5 11 7 9 8 10 9 88 10 87 11 89 12
REMARK SMILES IDX 8 13 5 14 6 15 91 16 7 17 90 18 4 19 3 20 2 21 1 22 92 23
REMARK SMILES IDX 93 25 94 26 99 27 95 28 98 29 100 30 96 31 97 32 17 33 18 34
REMARK SMILES IDX 19 35 20 36 21 37 22 38 23 40 24 41 25 42 86 43 26 44 85 45
REMARK SMILES IDX 27 46 28 47 29 48 79 49 30 50 84 51 78 52 80 53 31 54 83 55
REMARK SMILES IDX 77 56 76 57 32 59 64 60 44 61 63 62 45 63 48 64 62 65 81 66
REMARK SMILES IDX 46 67 47 68 61 70 82 71 49 72 33 73 34 74 42 75 35 76 36 77
REMARK SMILES IDX 40 78 43 79 37 80 38 81 41 82 39 83 65 84 66 85 74 86 67 87
REMARK SMILES IDX 68 88 72 89 75 90 69 91 70 92 73 93 71 94 50 95 51 96 59 97
REMARK SMILES IDX 52 98 53 99 57 100 60 101 54 102 55 103 58 104 56 105
REMARK H PARENT 14 6 92 24 21 39 80 58 48 69
REMARK Flexibility Score: inf
ROOT
ATOM      1  C   UNL A   1      33.170  28.611  26.952  1.00  0.00     0.021 C 
ENDROOT
BRANCH   1   2
ATOM      2  C   UNL A   1      32.883  27.388  26.078  1.00  0.00     0.116 C 
BRANCH   2   3
ATOM      3  N   UNL A   1      31.606  26.785  26.418  1.00  0.00    -0.356 N 
ATOM      4  C   UNL A   1      31.015  25.628  26.027  1.00  0.00     0.225 C 
ATOM      5  O   UNL A   1      29.889  25.391  26.474  1.00  0.00    -0.275 OA
ATOM      6  H   UNL A   1      31.071  27.313  27.051  1.00  0.00     0.163 HD
BRANCH   4   7
ATOM      7  C   UNL A   1      31.683  24.627  25.111  1.00  0.00     0.107 C 
ATOM      8  N   UNL A   1      33.920  23.951  24.803  1.00  0.00    -0.312 N 
ATOM      9  C   UNL A   1      32.854  23.921  25.772  1.00  0.00     0.139 C 
ATOM     10  C   UNL A   1      33.602  24.710  23.677  1.00  0.00     0.227 C 
ATOM     11  C   UNL A   1      32.188  25.202  23.798  1.00  0.00     0.116 C 
ATOM     12  O   UNL A   1      34.303  24.950  22.701  1.00  0.00    -0.274 OA
BRANCH   8  13
ATOM     13  C   UNL A   1      35.177  23.345  25.032  1.00  0.00     0.044 A 
ATOM     14  C   UNL A   1      37.745  22.237  25.372  1.00  0.00     0.120 A 
ATOM     15  C   UNL A   1      36.721  21.475  24.813  1.00  0.00     0.048 A 
ATOM     16  C   UNL A   1      37.481  23.544  25.771  1.00  0.00     0.048 A 
ATOM     17  C   UNL A   1      35.432  22.015  24.675  1.00  0.00     0.030 A 
ATOM     18  C   UNL A   1      36.212  24.092  25.596  1.00  0.00     0.030 A 
BRANCH  14  19
ATOM     19  O   UNL A   1      39.018  21.729  25.364  1.00  0.00    -0.484 OA
BRANCH  19  20
ATOM     20  C   UNL A   1      39.611  21.641  26.660  1.00  0.00     0.329 C 
BRANCH  20  21
ATOM     21  C   UNL A   1      41.125  21.868  26.715  1.00  0.00     0.262 C 
ATOM     22  O   UNL A   1      41.735  21.798  27.776  1.00  0.00    -0.271 OA
ATOM     23  N   UNL A   1      41.651  22.259  25.489  1.00  0.00    -0.322 N 
ATOM     24  H   UNL A   1      41.048  22.251  24.710  1.00  0.00     0.170 HD
BRANCH  23  25
ATOM     25  C   UNL A   1      42.989  22.669  25.275  1.00  0.00     0.060 A 
ATOM     26  C   UNL A   1      43.175  24.045  25.061  1.00  0.00     0.029 A 
ATOM     27  C   UNL A   1      44.120  21.831  25.278  1.00  0.00     0.066 A 
ATOM     28  C   UNL A   1      44.459  24.587  24.950  1.00  0.00     0.023 A 
ATOM     29  C   UNL A   1      45.406  22.378  25.174  1.00  0.00     0.043 A 
ATOM     30  Cl  UNL A   1      44.024  20.104  25.201  1.00  0.00    -0.082 Cl
ATOM     31  C   UNL A   1      45.568  23.752  25.026  1.00  0.00     0.042 A 
ATOM     32  Cl  UNL A   1      47.149  24.418  24.902  1.00  0.00    -0.084 Cl
ENDBRANCH  23  25
ENDBRANCH  20  21
ENDBRANCH  19  20
ENDBRANCH  14  19
ENDBRANCH   8  13
ENDBRANCH   4   7
ENDBRANCH   2   3
ENDBRANCH   1   2
BRANCH   1  33
ATOM     33  C   UNL A   1      33.100  29.951  26.210  1.00  0.00     0.002 C 
BRANCH  33  34
ATOM     34  C   UNL A   1      31.692  30.521  26.020  1.00  0.00     0.002 C 
BRANCH  34  35
ATOM     35  C   UNL A   1      31.449  31.881  26.679  1.00  0.00     0.021 C 
BRANCH  35  36
ATOM     36  C   UNL A   1      32.704  32.555  27.222  1.00  0.00     0.116 C 
BRANCH  36  37
ATOM     37  N   UNL A   1      32.480  33.955  27.548  1.00  0.00    -0.352 N 
ATOM     38  C   UNL A   1      33.054  34.721  28.531  1.00  0.00     0.251 C 
ATOM     39  H   UNL A   1      31.822  34.419  26.981  1.00  0.00     0.163 HD
ATOM     40  O   UNL A   1      32.610  35.836  28.786  1.00  0.00    -0.269 OA
BRANCH  38  41
ATOM     41  C   UNL A   1      34.200  34.190  29.300  1.00  0.00     0.039 A 
ATOM     42  C   UNL A   1      33.951  33.452  30.459  1.00  0.00     0.014 A 
ATOM     43  C   UNL A   1      35.513  34.419  28.880  1.00  0.00     0.014 A 
ATOM     44  C   UNL A   1      35.019  32.895  31.165  1.00  0.00     0.010 A 
ATOM     45  C   UNL A   1      36.569  33.794  29.536  1.00  0.00     0.010 A 
ATOM     46  C   UNL A   1      36.334  33.033  30.691  1.00  0.00    -0.014 A 
BRANCH  46  47
ATOM     47  C   UNL A   1      37.473  32.388  31.393  1.00  0.00     0.031 A 
ATOM     48  C   UNL A   1      38.185  31.220  30.772  1.00  0.00     0.074 A 
ATOM     49  C   UNL A   1      37.832  32.824  32.615  1.00  0.00     0.049 A 
ATOM     50  N   UNL A   1      39.182  30.512  31.241  1.00  0.00    -0.248 NA
ATOM     51  C   UNL A   1      37.691  30.765  29.464  1.00  0.00     0.031 C 
ATOM     52  C   UNL A   1      37.186  33.914  33.347  1.00  0.00     0.029 A 
ATOM     53  N   UNL A   1      38.826  32.400  33.461  1.00  0.00    -0.354 N 
ATOM     54  C   UNL A   1      39.426  29.528  30.291  1.00  0.00     0.074 A 
ATOM     55  C   UNL A   1      38.430  29.686  29.255  1.00  0.00     0.031 C 
ATOM     56  C   UNL A   1      37.823  34.099  34.513  1.00  0.00     0.029 A 
ATOM     57  C   UNL A   1      38.895  33.115  34.631  1.00  0.00     0.049 A 
ATOM     58  H   UNL A   1      39.433  31.654  33.249  1.00  0.00     0.167 HD
ATOM     59  C   UNL A   1      40.407  28.594  30.272  1.00  0.00     0.037 A 
ATOM     60  C   UNL A   1      39.728  32.990  35.683  1.00  0.00     0.037 A 
ATOM     61  C   UNL A   1      41.401  28.447  31.304  1.00  0.00     0.049 A 
ATOM     62  C   UNL A   1      40.795  31.931  35.650  1.00  0.00     0.074 A 
ATOM     63  C   UNL A   1      42.475  27.575  31.352  1.00  0.00     0.029 A 
ATOM     64  N   UNL A   1      41.436  29.187  32.478  1.00  0.00    -0.354 N 
ATOM     65  N   UNL A   1      41.071  31.059  34.710  1.00  0.00    -0.248 NA
ATOM     66  C   UNL A   1      41.672  31.842  36.826  1.00  0.00     0.031 C 
ATOM     67  C   UNL A   1      43.119  27.742  32.582  1.00  0.00     0.029 A 
ATOM     68  C   UNL A   1      42.491  28.766  33.274  1.00  0.00     0.049 A 
ATOM     69  H   UNL A   1      40.804  29.905  32.713  1.00  0.00     0.167 HD
ATOM     70  C   UNL A   1      42.168  30.340  35.164  1.00  0.00     0.074 A 
ATOM     71  C   UNL A   1      42.517  30.888  36.459  1.00  0.00     0.031 C 
ATOM     72  C   UNL A   1      42.828  29.320  34.562  1.00  0.00     0.037 A 
BRANCH  59  73
ATOM     73  C   UNL A   1      40.441  27.652  29.100  1.00  0.00     0.064 A 
ATOM     74  C   UNL A   1      41.233  27.907  27.969  1.00  0.00     0.173 A 
ATOM     75  C   UNL A   1      39.675  26.476  29.109  1.00  0.00     0.173 A 
ATOM     76  F   UNL A   1      41.979  29.020  27.902  1.00  0.00    -0.203 F 
ATOM     77  C   UNL A   1      41.219  27.047  26.873  1.00  0.00     0.198 A 
ATOM     78  C   UNL A   1      39.694  25.599  28.027  1.00  0.00     0.198 A 
ATOM     79  F   UNL A   1      38.907  26.176  30.166  1.00  0.00    -0.203 F 
ATOM     80  F   UNL A   1      41.927  27.350  25.776  1.00  0.00    -0.200 F 
ATOM     81  C   UNL A   1      40.454  25.892  26.905  1.00  0.00     0.200 A 
ATOM     82  F   UNL A   1      38.966  24.474  28.066  1.00  0.00    -0.200 F 
ATOM     83  F   UNL A   1      40.440  25.066  25.849  1.00  0.00    -0.200 F 
ENDBRANCH  59  73
BRANCH  60  84
ATOM     84  C   UNL A   1      39.608  33.923  36.832  1.00  0.00     0.064 A 
ATOM     85  C   UNL A   1      40.251  35.170  36.814  1.00  0.00     0.173 A 
ATOM     86  C   UNL A   1      38.840  33.602  37.961  1.00  0.00     0.173 A 
ATOM     87  F   UNL A   1      41.013  35.514  35.766  1.00  0.00    -0.203 F 
ATOM     88  C   UNL A   1      40.142  36.052  37.886  1.00  0.00     0.198 A 
ATOM     89  C   UNL A   1      38.706  34.499  39.019  1.00  0.00     0.198 A 
ATOM     90  F   UNL A   1      38.201  32.425  38.024  1.00  0.00    -0.203 F 
ATOM     91  F   UNL A   1      40.798  37.220  37.860  1.00  0.00    -0.200 F 
ATOM     92  C   UNL A   1      39.363  35.720  38.984  1.00  0.00     0.200 A 
ATOM     93  F   UNL A   1      37.939  34.182  40.072  1.00  0.00    -0.200 F 
ATOM     94  F   UNL A   1      39.248  36.575  40.010  1.00  0.00    -0.200 F 
ENDBRANCH  60  84
BRANCH  72  95
ATOM     95  C   UNL A   1      44.019  28.749  35.279  1.00  0.00     0.064 A 
ATOM     96  C   UNL A   1      45.312  29.259  35.090  1.00  0.00     0.173 A 
ATOM     97  C   UNL A   1      43.857  27.699  36.197  1.00  0.00     0.173 A 
ATOM     98  F   UNL A   1      45.525  30.252  34.213  1.00  0.00    -0.203 F 
ATOM     99  C   UNL A   1      46.401  28.721  35.772  1.00  0.00     0.198 A 
ATOM    100  C   UNL A   1      44.942  27.189  36.904  1.00  0.00     0.198 A 
ATOM    101  F   UNL A   1      42.641  27.179  36.421  1.00  0.00    -0.203 F 
ATOM    102  F   UNL A   1      47.635  29.189  35.535  1.00  0.00    -0.200 F 
ATOM    103  C   UNL A   1      46.214  27.693  36.683  1.00  0.00     0.200 A 
ATOM    104  F   UNL A   1      44.756  26.207  37.796  1.00  0.00    -0.200 F 
ATOM    105  F   UNL A   1      47.262  27.183  37.346  1.00  0.00    -0.200 F 
ENDBRANCH  72  95
ENDBRANCH  46  47
ENDBRANCH  38  41
ENDBRANCH  36  37
ENDBRANCH  35  36
ENDBRANCH  34  35
ENDBRANCH  33  34
ENDBRANCH   1  33
TORSDOF 18
ENDMDL
MODEL 2
REMARK VINA RESULT:     -12.5      4.992     11.760
REMARK SMILES O=C(COc1ccc(N2C[C@@H](C(=O)NCCCCCCNC(=O)c3ccc(-c4c5nc(c(-c6c(F)c(F)c(F)c(F)c6F)c6ccc([nH]6)c(-c6c(F)c(F)c(F)c(F)c6F)c6nc(c(-c7c(F)c(F)c(F)c(F)c7F)c7ccc4[nH]7)C=C6)C=C5)cc3)CC2=O)cc1)Nc1ccc(Cl)cc1Cl
REMARK SMILES IDX 16 1 15 2 14 3 12 4 13 5 11 7 9 8 10 9 88 10 87 11 89 12
REMARK SMILES IDX 8 13 5 14 6 15 91 16 7 17 90 18 4 19 3 20 2 21 1 22 92 23
REMARK SMILES IDX 93 25 94 26 99 27 95 28 98 29 100 30 96 31 97 32 17 33 18 34
REMARK SMILES IDX 19 35 20 36 21 37 22 38 23 40 24 41 25 42 86 43 26 44 85 45
REMARK SMILES IDX 27 46 28 47 29 48 79 49 30 50 84 51 78 52 80 53 31 54 83 55
REMARK SMILES IDX 77 56 76 57 32 59 64 60 44 61 63 62 45 63 48 64 62 65 81 66
REMARK SMILES IDX 46 67 47 68 61 70 82 71 49 72 33 73 34 74 42 75 35 76 36 77
REMARK SMILES IDX 40 78 43 79 37 80 38 81 41 82 39 83 65 84 66 85 74 86 67 87
REMARK SMILES IDX 68 88 72 89 75 90 69 91 70 92 73 93 71 94 50 95 51 96 59 97
REMARK SMILES IDX 52 98 53 99 57 100 60 101 54 102 55 103 58 104 56 105
REMARK H PARENT 14 6 92 24 21 39 80 58 48 69
REMARK Flexibility Score: inf
ROOT
ATOM      1  C   UNL A   1      36.282  22.746  25.892  1.00  0.00     0.021 C 
ENDROOT
BRANCH   1   2
ATOM      2  C   UNL A   1      35.180  23.658  25.349  1.00  0.00     0.116 C 
BRANCH   2   3
ATOM      3  N   UNL A   1      34.933  23.405  23.940  1.00  0.00    -0.356 N 
ATOM      4  C   UNL A   1      33.945  23.811  23.104  1.00  0.00     0.225 C 
ATOM      5  O   UNL A   1      33.988  23.403  21.939  1.00  0.00    -0.275 OA
ATOM      6  H   UNL A   1      35.609  22.834  23.512  1.00  0.00     0.163 HD
BRANCH   4   7
ATOM      7  C   UNL A   1      32.836  24.749  23.528  1.00  0.00     0.107 C 
ATOM      8  N   UNL A   1      32.694  26.472  25.128  1.00  0.00    -0.312 N 
ATOM      9  C   UNL A   1      33.349  26.132  23.891  1.00  0.00     0.139 C 
ATOM     10  C   UNL A   1      31.947  25.417  25.651  1.00  0.00     0.227 C 
ATOM     11  C   UNL A   1      31.999  24.259  24.697  1.00  0.00     0.116 C 
ATOM     12  O   UNL A   1      31.307  25.385  26.695  1.00  0.00    -0.274 OA
BRANCH   8  13
ATOM     13  C   UNL A   1      32.879  27.718  25.771  1.00  0.00     0.044 A 
ATOM     14  C   UNL A   1      33.222  30.124  27.196  1.00  0.00     0.120 A 
ATOM     15  C   UNL A   1      32.101  29.942  26.389  1.00  0.00     0.048 A 
ATOM     16  C   UNL A   1      34.174  29.113  27.280  1.00  0.00     0.048 A 
ATOM     17  C   UNL A   1      31.946  28.757  25.652  1.00  0.00     0.030 A 
ATOM     18  C   UNL A   1      33.999  27.921  26.578  1.00  0.00     0.030 A 
BRANCH  14  19
ATOM     19  O   UNL A   1      33.273  31.229  28.006  1.00  0.00    -0.484 OA
BRANCH  19  20
ATOM     20  C   UNL A   1      34.364  32.105  27.719  1.00  0.00     0.329 C 
BRANCH  20  21
ATOM     21  C   UNL A   1      34.980  32.817  28.928  1.00  0.00     0.262 C 
ATOM     22  O   UNL A   1      35.936  33.573  28.794  1.00  0.00    -0.271 OA
ATOM     23  N   UNL A   1      34.413  32.414  30.131  1.00  0.00    -0.322 N 
ATOM     24  H   UNL A   1      33.632  31.815  30.090  1.00  0.00     0.170 HD
BRANCH  23  25
ATOM     25  C   UNL A   1      34.874  32.799  31.413  1.00  0.00     0.060 A 
ATOM     26  C   UNL A   1      35.633  31.835  32.099  1.00  0.00     0.029 A 
ATOM     27  C   UNL A   1      34.655  34.045  32.030  1.00  0.00     0.066 A 
ATOM     28  C   UNL A   1      36.237  32.136  33.323  1.00  0.00     0.023 A 
ATOM     29  C   UNL A   1      35.268  34.346  33.253  1.00  0.00     0.043 A 
ATOM     30  Cl  UNL A   1      33.488  35.193  31.466  1.00  0.00    -0.082 Cl
ATOM     31  C   UNL A   1      36.067  33.397  33.884  1.00  0.00     0.042 A 
ATOM     32  Cl  UNL A   1      36.821  33.773  35.384  1.00  0.00    -0.084 Cl
ENDBRANCH  23  25
ENDBRANCH  20  21
ENDBRANCH  19  20
ENDBRANCH  14  19
ENDBRANCH   8  13
ENDBRANCH   4   7
ENDBRANCH   2   3
ENDBRANCH   1   2
BRANCH   1  33
ATOM     33  C   UNL A   1      36.979  21.890  24.826  1.00  0.00     0.002 C 
BRANCH  33  34
ATOM     34  C   UNL A   1      36.856  20.376  25.021  1.00  0.00     0.002 C 
BRANCH  34  35
ATOM     35  C   UNL A   1      38.156  19.591  24.838  1.00  0.00     0.021 C 
BRANCH  35  36
ATOM     36  C   UNL A   1      39.306  20.054  25.725  1.00  0.00     0.116 C 
BRANCH  36  37
ATOM     37  N   UNL A   1      40.315  19.021  25.903  1.00  0.00    -0.352 N 
ATOM     38  C   UNL A   1      41.666  19.152  26.105  1.00  0.00     0.251 C 
ATOM     39  H   UNL A   1      39.980  18.096  25.875  1.00  0.00     0.163 HD
ATOM     40  O   UNL A   1      42.399  18.170  26.046  1.00  0.00    -0.269 OA
BRANCH  38  41
ATOM     41  C   UNL A   1      42.242  20.487  26.375  1.00  0.00     0.039 A 
ATOM     42  C   UNL A   1      42.723  21.243  25.304  1.00  0.00     0.014 A 
ATOM     43  C   UNL A   1      42.308  20.991  27.676  1.00  0.00     0.014 A 
ATOM     44  C   UNL A   1      43.217  22.528  25.533  1.00  0.00     0.010 A 
ATOM     45  C   UNL A   1      42.721  22.301  27.892  1.00  0.00     0.010 A 
ATOM     46  C   UNL A   1      43.190  23.082  26.824  1.00  0.00    -0.014 A 
BRANCH  46  47
ATOM     47  C   UNL A   1      43.648  24.472  27.072  1.00  0.00     0.031 A 
ATOM     48  C   UNL A   1      42.684  25.512  27.570  1.00  0.00     0.074 A 
ATOM     49  C   UNL A   1      44.922  24.810  26.798  1.00  0.00     0.049 A 
ATOM     50  N   UNL A   1      42.890  26.780  27.822  1.00  0.00    -0.248 NA
ATOM     51  C   UNL A   1      41.296  25.077  27.784  1.00  0.00     0.031 C 
ATOM     52  C   UNL A   1      45.939  23.905  26.261  1.00  0.00     0.029 A 
ATOM     53  N   UNL A   1      45.579  26.008  26.929  1.00  0.00    -0.354 N 
ATOM     54  C   UNL A   1      41.660  27.293  28.214  1.00  0.00     0.074 A 
ATOM     55  C   UNL A   1      40.700  26.216  28.099  1.00  0.00     0.031 C 
ATOM     56  C   UNL A   1      47.100  24.569  26.145  1.00  0.00     0.029 A 
ATOM     57  C   UNL A   1      46.900  25.954  26.559  1.00  0.00     0.049 A 
ATOM     58  H   UNL A   1      45.144  26.828  27.259  1.00  0.00     0.167 HD
ATOM     59  C   UNL A   1      41.362  28.539  28.653  1.00  0.00     0.037 A 
ATOM     60  C   UNL A   1      47.844  26.915  26.552  1.00  0.00     0.037 A 
ATOM     61  C   UNL A   1      42.325  29.603  28.772  1.00  0.00     0.049 A 
ATOM     62  C   UNL A   1      47.486  28.298  27.023  1.00  0.00     0.074 A 
ATOM     63  C   UNL A   1      42.141  30.884  29.264  1.00  0.00     0.029 A 
ATOM     64  N   UNL A   1      43.654  29.514  28.382  1.00  0.00    -0.354 N 
ATOM     65  N   UNL A   1      46.340  28.751  27.471  1.00  0.00    -0.248 NA
ATOM     66  C   UNL A   1      48.556  29.303  26.991  1.00  0.00     0.031 C 
ATOM     67  C   UNL A   1      43.340  31.587  29.111  1.00  0.00     0.029 A 
ATOM     68  C   UNL A   1      44.293  30.727  28.589  1.00  0.00     0.049 A 
ATOM     69  H   UNL A   1      44.082  28.707  28.011  1.00  0.00     0.167 HD
ATOM     70  C   UNL A   1      46.557  30.082  27.803  1.00  0.00     0.074 A 
ATOM     71  C   UNL A   1      47.950  30.358  27.517  1.00  0.00     0.031 C 
ATOM     72  C   UNL A   1      45.682  30.990  28.300  1.00  0.00     0.037 A 
BRANCH  59  73
ATOM     73  C   UNL A   1      39.932  28.817  29.026  1.00  0.00     0.064 A 
ATOM     74  C   UNL A   1      39.448  28.584  30.323  1.00  0.00     0.173 A 
ATOM     75  C   UNL A   1      39.034  29.326  28.075  1.00  0.00     0.173 A 
ATOM     76  F   UNL A   1      40.259  28.091  31.270  1.00  0.00    -0.203 F 
ATOM     77  C   UNL A   1      38.109  28.805  30.640  1.00  0.00     0.198 A 
ATOM     78  C   UNL A   1      37.705  29.581  28.407  1.00  0.00     0.198 A 
ATOM     79  F   UNL A   1      39.442  29.575  26.823  1.00  0.00    -0.203 F 
ATOM     80  F   UNL A   1      37.655  28.506  31.866  1.00  0.00    -0.200 F 
ATOM     81  C   UNL A   1      37.240  29.307  29.685  1.00  0.00     0.200 A 
ATOM     82  F   UNL A   1      36.871  30.083  27.486  1.00  0.00    -0.200 F 
ATOM     83  F   UNL A   1      35.953  29.517  29.991  1.00  0.00    -0.200 F 
ENDBRANCH  59  73
BRANCH  60  84
ATOM     84  C   UNL A   1      49.228  26.585  26.125  1.00  0.00     0.064 A 
ATOM     85  C   UNL A   1      49.658  26.856  24.818  1.00  0.00     0.173 A 
ATOM     86  C   UNL A   1      50.152  26.010  27.009  1.00  0.00     0.173 A 
ATOM     87  F   UNL A   1      48.806  27.387  23.930  1.00  0.00    -0.203 F 
ATOM     88  C   UNL A   1      50.955  26.553  24.409  1.00  0.00     0.198 A 
ATOM     89  C   UNL A   1      51.458  25.736  26.608  1.00  0.00     0.198 A 
ATOM     90  F   UNL A   1      49.791  25.737  28.271  1.00  0.00    -0.203 F 
ATOM     91  F   UNL A   1      51.328  26.788  23.143  1.00  0.00    -0.200 F 
ATOM     92  C   UNL A   1      51.856  26.002  25.306  1.00  0.00     0.200 A 
ATOM     93  F   UNL A   1      52.332  25.218  27.482  1.00  0.00    -0.200 F 
ATOM     94  F   UNL A   1      53.107  25.721  24.915  1.00  0.00    -0.200 F 
ENDBRANCH  60  84
BRANCH  72  95
ATOM     95  C   UNL A   1      46.211  32.364  28.603  1.00  0.00     0.064 A 
ATOM     96  C   UNL A   1      46.158  33.402  27.661  1.00  0.00     0.173 A 
ATOM     97  C   UNL A   1      46.744  32.655  29.869  1.00  0.00     0.173 A 
ATOM     98  F   UNL A   1      45.672  33.175  26.432  1.00  0.00    -0.203 F 
ATOM     99  C   UNL A   1      46.645  34.671  27.965  1.00  0.00     0.198 A 
ATOM    100  C   UNL A   1      47.196  33.934  30.181  1.00  0.00     0.198 A 
ATOM    101  F   UNL A   1      46.812  31.701  30.810  1.00  0.00    -0.203 F 
ATOM    102  F   UNL A   1      46.634  35.632  27.031  1.00  0.00    -0.200 F 
ATOM    103  C   UNL A   1      47.156  34.938  29.227  1.00  0.00     0.200 A 
ATOM    104  F   UNL A   1      47.674  34.193  31.406  1.00  0.00    -0.200 F 
ATOM    105  F   UNL A   1      47.615  36.162  29.521  1.00  0.00    -0.200 F 
ENDBRANCH  72  95
ENDBRANCH  46  47
ENDBRANCH  38  41
ENDBRANCH  36  37
ENDBRANCH  35  36
ENDBRANCH  34  35
ENDBRANCH  33  34
ENDBRANCH   1  33
TORSDOF 18
ENDMDL
MODEL 3
REMARK VINA RESULT:     -12.4      0.944      6.994
REMARK SMILES O=C(COc1ccc(N2C[C@@H](C(=O)NCCCCCCNC(=O)c3ccc(-c4c5nc(c(-c6c(F)c(F)c(F)c(F)c6F)c6ccc([nH]6)c(-c6c(F)c(F)c(F)c(F)c6F)c6nc(c(-c7c(F)c(F)c(F)c(F)c7F)c7ccc4[nH]7)C=C6)C=C5)cc3)CC2=O)cc1)Nc1ccc(Cl)cc1Cl
REMARK SMILES IDX 16 1 15 2 14 3 12 4 13 5 11 7 9 8 10 9 88 10 87 11 89 12
REMARK SMILES IDX 8 13 5 14 6 15 91 16 7 17 90 18 4 19 3 20 2 21 1 22 92 23
REMARK SMILES IDX 93 25 94 26 99 27 95 28 98 29 100 30 96 31 97 32 17 33 18 34
REMARK SMILES IDX 19 35 20 36 21 37 22 38 23 40 24 41 25 42 86 43 26 44 85 45
REMARK SMILES IDX 27 46 28 47 29 48 79 49 30 50 84 51 78 52 80 53 31 54 83 55
REMARK SMILES IDX 77 56 76 57 32 59 64 60 44 61 63 62 45 63 48 64 62 65 81 66
REMARK SMILES IDX 46 67 47 68 61 70 82 71 49 72 33 73 34 74 42 75 35 76 36 77
REMARK SMILES IDX 40 78 43 79 37 80 38 81 41 82 39 83 65 84 66 85 74 86 67 87
REMARK SMILES IDX 68 88 72 89 75 90 69 91 70 92 73 93 71 94 50 95 51 96 59 97
REMARK SMILES IDX 52 98 53 99 57 100 60 101 54 102 55 103 58 104 56 105
REMARK H PARENT 14 6 92 24 21 39 80 58 48 69
REMARK Flexibility Score: inf
ROOT
ATOM      1  C   UNL A   1      32.439  28.615  27.245  1.00  0.00     0.021 C 
ENDROOT
BRANCH   1   2
ATOM      2  C   UNL A   1      32.299  27.362  26.379  1.00  0.00     0.116 C 
BRANCH   2   3
ATOM      3  N   UNL A   1      31.035  26.689  26.627  1.00  0.00    -0.356 N 
ATOM      4  C   UNL A   1      30.487  25.564  26.104  1.00  0.00     0.225 C 
ATOM      5  O   UNL A   1      29.361  25.248  26.500  1.00  0.00    -0.275 OA
ATOM      6  H   UNL A   1      30.473  27.131  27.302  1.00  0.00     0.163 HD
BRANCH   4   7
ATOM      7  C   UNL A   1      31.202  24.686  25.100  1.00  0.00     0.107 C 
ATOM      8  N   UNL A   1      33.446  24.019  24.837  1.00  0.00    -0.312 N 
ATOM      9  C   UNL A   1      32.322  23.875  25.727  1.00  0.00     0.139 C 
ATOM     10  C   UNL A   1      33.207  24.930  23.810  1.00  0.00     0.227 C 
ATOM     11  C   UNL A   1      31.793  25.426  23.912  1.00  0.00     0.116 C 
ATOM     12  O   UNL A   1      33.969  25.289  22.921  1.00  0.00    -0.274 OA
BRANCH   8  13
ATOM     13  C   UNL A   1      34.681  23.365  25.056  1.00  0.00     0.044 A 
ATOM     14  C   UNL A   1      37.211  22.173  25.392  1.00  0.00     0.120 A 
ATOM     15  C   UNL A   1      36.211  21.507  24.687  1.00  0.00     0.048 A 
ATOM     16  C   UNL A   1      36.942  23.424  25.939  1.00  0.00     0.048 A 
ATOM     17  C   UNL A   1      34.939  22.085  24.548  1.00  0.00     0.030 A 
ATOM     18  C   UNL A   1      35.691  24.014  25.766  1.00  0.00     0.030 A 
BRANCH  14  19
ATOM     19  O   UNL A   1      38.476  21.645  25.390  1.00  0.00    -0.484 OA
BRANCH  19  20
ATOM     20  C   UNL A   1      39.275  22.056  26.500  1.00  0.00     0.329 C 
BRANCH  20  21
ATOM     21  C   UNL A   1      40.594  21.299  26.687  1.00  0.00     0.262 C 
ATOM     22  O   UNL A   1      40.828  20.688  27.724  1.00  0.00    -0.271 OA
ATOM     23  N   UNL A   1      41.476  21.493  25.630  1.00  0.00    -0.322 N 
ATOM     24  H   UNL A   1      41.146  21.990  24.846  1.00  0.00     0.170 HD
BRANCH  23  25
ATOM     25  C   UNL A   1      42.813  21.031  25.595  1.00  0.00     0.060 A 
ATOM     26  C   UNL A   1      42.970  19.642  25.451  1.00  0.00     0.029 A 
ATOM     27  C   UNL A   1      43.967  21.833  25.673  1.00  0.00     0.066 A 
ATOM     28  C   UNL A   1      44.240  19.077  25.292  1.00  0.00     0.023 A 
ATOM     29  C   UNL A   1      45.237  21.265  25.505  1.00  0.00     0.043 A 
ATOM     30  Cl  UNL A   1      43.940  23.491  26.172  1.00  0.00    -0.082 Cl
ATOM     31  C   UNL A   1      45.364  19.894  25.301  1.00  0.00     0.042 A 
ATOM     32  Cl  UNL A   1      46.925  19.202  25.092  1.00  0.00    -0.084 Cl
ENDBRANCH  23  25
ENDBRANCH  20  21
ENDBRANCH  19  20
ENDBRANCH  14  19
ENDBRANCH   8  13
ENDBRANCH   4   7
ENDBRANCH   2   3
ENDBRANCH   1   2
BRANCH   1  33
ATOM     33  C   UNL A   1      32.719  29.902  26.457  1.00  0.00     0.002 C 
BRANCH  33  34
ATOM     34  C   UNL A   1      31.476  30.648  25.963  1.00  0.00     0.002 C 
BRANCH  34  35
ATOM     35  C   UNL A   1      31.320  32.072  26.499  1.00  0.00     0.021 C 
BRANCH  35  36
ATOM     36  C   UNL A   1      32.527  32.596  27.269  1.00  0.00     0.116 C 
BRANCH  36  37
ATOM     37  N   UNL A   1      32.407  34.011  27.586  1.00  0.00    -0.352 N 
ATOM     38  C   UNL A   1      33.089  34.753  28.517  1.00  0.00     0.251 C 
ATOM     39  H   UNL A   1      31.740  34.506  27.057  1.00  0.00     0.163 HD
ATOM     40  O   UNL A   1      32.728  35.895  28.784  1.00  0.00    -0.269 OA
BRANCH  38  41
ATOM     41  C   UNL A   1      34.251  34.165  29.216  1.00  0.00     0.039 A 
ATOM     42  C   UNL A   1      34.026  33.305  30.293  1.00  0.00     0.014 A 
ATOM     43  C   UNL A   1      35.556  34.460  28.813  1.00  0.00     0.014 A 
ATOM     44  C   UNL A   1      35.111  32.696  30.928  1.00  0.00     0.010 A 
ATOM     45  C   UNL A   1      36.629  33.788  29.390  1.00  0.00     0.010 A 
ATOM     46  C   UNL A   1      36.419  32.906  30.461  1.00  0.00    -0.014 A 
BRANCH  46  47
ATOM     47  C   UNL A   1      37.575  32.211  31.081  1.00  0.00     0.031 A 
ATOM     48  C   UNL A   1      38.026  32.577  32.467  1.00  0.00     0.074 A 
ATOM     49  C   UNL A   1      38.251  31.285  30.375  1.00  0.00     0.049 A 
ATOM     50  N   UNL A   1      39.026  32.100  33.166  1.00  0.00    -0.248 NA
ATOM     51  C   UNL A   1      37.274  33.641  33.148  1.00  0.00     0.031 C 
ATOM     52  C   UNL A   1      37.944  30.881  29.002  1.00  0.00     0.029 A 
ATOM     53  N   UNL A   1      39.339  30.520  30.711  1.00  0.00    -0.354 N 
ATOM     54  C   UNL A   1      39.026  32.812  34.359  1.00  0.00     0.074 A 
ATOM     55  C   UNL A   1      37.972  33.798  34.261  1.00  0.00     0.031 C 
ATOM     56  C   UNL A   1      38.798  29.916  28.628  1.00  0.00     0.029 A 
ATOM     57  C   UNL A   1      39.737  29.663  29.716  1.00  0.00     0.049 A 
ATOM     58  H   UNL A   1      39.791  30.580  31.584  1.00  0.00     0.167 HD
ATOM     59  C   UNL A   1      39.815  32.642  35.447  1.00  0.00     0.037 A 
ATOM     60  C   UNL A   1      40.748  28.773  29.683  1.00  0.00     0.037 A 
ATOM     61  C   UNL A   1      40.857  31.652  35.541  1.00  0.00     0.049 A 
ATOM     62  C   UNL A   1      41.627  28.617  30.894  1.00  0.00     0.074 A 
ATOM     63  C   UNL A   1      41.673  31.355  36.618  1.00  0.00     0.029 A 
ATOM     64  N   UNL A   1      41.236  30.804  34.509  1.00  0.00    -0.354 N 
ATOM     65  N   UNL A   1      41.566  29.236  32.049  1.00  0.00    -0.248 NA
ATOM     66  C   UNL A   1      42.713  27.633  30.798  1.00  0.00     0.031 C 
ATOM     67  C   UNL A   1      42.586  30.375  36.219  1.00  0.00     0.029 A 
ATOM     68  C   UNL A   1      42.298  30.008  34.914  1.00  0.00     0.049 A 
ATOM     69  H   UNL A   1      40.814  30.772  33.620  1.00  0.00     0.167 HD
ATOM     70  C   UNL A   1      42.582  28.697  32.826  1.00  0.00     0.074 A 
ATOM     71  C   UNL A   1      43.235  27.690  32.016  1.00  0.00     0.031 C 
ATOM     72  C   UNL A   1      42.939  29.008  34.097  1.00  0.00     0.037 A 
BRANCH  59  73
ATOM     73  C   UNL A   1      39.584  33.557  36.617  1.00  0.00     0.064 A 
ATOM     74  C   UNL A   1      40.181  34.826  36.693  1.00  0.00     0.173 A 
ATOM     75  C   UNL A   1      38.752  33.164  37.677  1.00  0.00     0.173 A 
ATOM     76  F   UNL A   1      40.993  35.251  35.713  1.00  0.00    -0.203 F 
ATOM     77  C   UNL A   1      39.993  35.644  37.805  1.00  0.00     0.198 A 
ATOM     78  C   UNL A   1      38.536  34.001  38.769  1.00  0.00     0.198 A 
ATOM     79  F   UNL A   1      38.148  31.967  37.656  1.00  0.00    -0.203 F 
ATOM     80  F   UNL A   1      40.632  36.820  37.886  1.00  0.00    -0.200 F 
ATOM     81  C   UNL A   1      39.167  35.233  38.840  1.00  0.00     0.200 A 
ATOM     82  F   UNL A   1      37.723  33.609  39.761  1.00  0.00    -0.200 F 
ATOM     83  F   UNL A   1      38.989  36.020  39.909  1.00  0.00    -0.200 F 
ENDBRANCH  59  73
BRANCH  60  84
ATOM     84  C   UNL A   1      40.952  27.933  28.475  1.00  0.00     0.064 A 
ATOM     85  C   UNL A   1      40.243  26.735  28.306  1.00  0.00     0.173 A 
ATOM     86  C   UNL A   1      41.841  28.313  27.459  1.00  0.00     0.173 A 
ATOM     87  F   UNL A   1      39.396  26.319  29.259  1.00  0.00    -0.203 F 
ATOM     88  C   UNL A   1      40.425  25.943  27.175  1.00  0.00     0.198 A 
ATOM     89  C   UNL A   1      41.999  27.536  26.313  1.00  0.00     0.198 A 
ATOM     90  F   UNL A   1      42.538  29.453  27.570  1.00  0.00    -0.203 F 
ATOM     91  F   UNL A   1      39.764  24.784  27.058  1.00  0.00    -0.200 F 
ATOM     92  C   UNL A   1      41.297  26.348  26.175  1.00  0.00     0.200 A 
ATOM     93  F   UNL A   1      42.830  27.938  25.341  1.00  0.00    -0.200 F 
ATOM     94  F   UNL A   1      41.462  25.591  25.082  1.00  0.00    -0.200 F 
ENDBRANCH  60  84
BRANCH  72  95
ATOM     95  C   UNL A   1      44.069  28.227  34.707  1.00  0.00     0.064 A 
ATOM     96  C   UNL A   1      45.399  28.666  34.632  1.00  0.00     0.173 A 
ATOM     97  C   UNL A   1      43.811  27.039  35.410  1.00  0.00     0.173 A 
ATOM     98  F   UNL A   1      45.704  29.786  33.959  1.00  0.00    -0.203 F 
ATOM     99  C   UNL A   1      46.430  27.932  35.212  1.00  0.00     0.198 A 
ATOM    100  C   UNL A   1      44.839  26.327  36.020  1.00  0.00     0.198 A 
ATOM    101  F   UNL A   1      42.556  26.577  35.519  1.00  0.00    -0.203 F 
ATOM    102  F   UNL A   1      47.699  28.343  35.081  1.00  0.00    -0.200 F 
ATOM    103  C   UNL A   1      46.149  26.768  35.912  1.00  0.00     0.200 A 
ATOM    104  F   UNL A   1      44.562  25.212  36.710  1.00  0.00    -0.200 F 
ATOM    105  F   UNL A   1      47.142  26.068  36.479  1.00  0.00    -0.200 F 
ENDBRANCH  72  95
ENDBRANCH  46  47
ENDBRANCH  38  41
ENDBRANCH  36  37
ENDBRANCH  35  36
ENDBRANCH  34  35
ENDBRANCH  33  34
ENDBRANCH   1  33
TORSDOF 18
ENDMDL
