MODEL 1
REMARK VINA RESULT:     -11.9      0.000      0.000
REMARK SMILES C[C@@H]1CCC[C@H]1NC(=O)c1csc(/C=C/C(=O)NCCCCCCNC(=O)c2ccc(-c3c4nc(c(-c5c(F)c(F)c(F)c(F)c5F)c5ccc([nH]5)c(-c5c(F)c(F)c(F)c(F)c5F)c5nc(c(-c6c(F)c(F)c(F)c(F)c6F)c6ccc3[nH]6)C=C5)C=C4)cc2)c1
REMARK SMILES IDX 21 1 20 2 19 3 18 4 16 5 17 6 15 8 14 9 13 10 10 11 11 12
REMARK SMILES IDX 91 13 12 14 8 15 7 16 9 18 6 19 1 20 2 21 3 22 4 23 5 24
REMARK SMILES IDX 22 25 23 26 24 27 25 28 26 29 27 31 28 32 29 33 90 34 30 35
REMARK SMILES IDX 89 36 31 37 32 38 33 39 83 40 34 41 88 42 82 43 84 44 35 45
REMARK SMILES IDX 87 46 81 47 80 48 36 50 68 51 48 52 67 53 49 54 52 55 66 56
REMARK SMILES IDX 85 57 50 58 51 59 65 61 86 62 53 63 37 64 38 65 46 66 39 67
REMARK SMILES IDX 40 68 44 69 47 70 41 71 42 72 45 73 43 74 69 75 70 76 78 77
REMARK SMILES IDX 71 78 72 79 76 80 79 81 73 82 74 83 77 84 75 85 54 86 55 87
REMARK SMILES IDX 63 88 56 89 57 90 61 91 64 92 58 93 59 94 62 95 60 96
REMARK H PARENT 18 7 7 17 25 30 84 49 52 60
REMARK Flexibility Score: inf
ROOT
ATOM      1  C   UNL A   1      30.976  26.329  25.701  1.00  0.00     0.002 C 
ENDROOT
BRANCH   1   2
ATOM      2  C   UNL A   1      30.238  26.604  24.383  1.00  0.00     0.021 C 
BRANCH   2   3
ATOM      3  C   UNL A   1      30.449  25.511  23.336  1.00  0.00     0.116 C 
BRANCH   3   4
ATOM      4  N   UNL A   1      31.480  25.914  22.396  1.00  0.00    -0.353 N 
ATOM      5  C   UNL A   1      32.738  25.447  22.183  1.00  0.00     0.244 C 
ATOM      6  O   UNL A   1      33.421  25.933  21.287  1.00  0.00    -0.270 OA
ATOM      7  H   UNL A   1      31.220  26.660  21.807  1.00  0.00     0.163 HD
BRANCH   5   8
ATOM      8  C   UNL A   1      33.253  24.288  22.941  1.00  0.00     0.072 C 
ATOM      9  C   UNL A   1      34.118  24.380  23.960  1.00  0.00     0.024 C 
BRANCH   9  10
ATOM     10  C   UNL A   1      34.519  23.257  24.741  1.00  0.00     0.028 A 
ATOM     11  C   UNL A   1      35.401  21.136  25.284  1.00  0.00     0.051 A 
ATOM     12  C   UNL A   1      34.933  21.572  26.507  1.00  0.00     0.079 A 
ATOM     13  C   UNL A   1      35.210  22.148  24.289  1.00  0.00     0.033 A 
ATOM     14  S   UNL A   1      34.169  23.096  26.415  1.00  0.00    -0.144 S 
BRANCH  11  15
ATOM     15  C   UNL A   1      36.054  19.860  25.033  1.00  0.00     0.252 C 
ATOM     16  N   UNL A   1      35.289  18.779  24.680  1.00  0.00    -0.349 N 
ATOM     17  H   UNL A   1      35.777  17.926  24.602  1.00  0.00     0.164 HD
ATOM     18  O   UNL A   1      37.276  19.744  25.071  1.00  0.00    -0.269 OA
BRANCH  16  19
ATOM     19  C   UNL A   1      33.857  18.702  24.401  1.00  0.00     0.085 C 
ATOM     20  C   UNL A   1      32.231  18.076  22.561  1.00  0.00     0.010 C 
ATOM     21  C   UNL A   1      33.567  17.747  23.233  1.00  0.00     0.008 C 
ATOM     22  C   UNL A   1      33.542  16.374  23.902  1.00  0.00     0.005 C 
ATOM     23  C   UNL A   1      32.947  16.607  25.288  1.00  0.00     0.002 C 
ATOM     24  C   UNL A   1      33.121  18.095  25.596  1.00  0.00     0.025 C 
ENDBRANCH  16  19
ENDBRANCH  11  15
ENDBRANCH   9  10
ENDBRANCH   5   8
ENDBRANCH   3   4
ENDBRANCH   2   3
ENDBRANCH   1   2
BRANCH   1  25
ATOM     25  C   UNL A   1      32.355  26.991  25.812  1.00  0.00     0.002 C 
BRANCH  25  26
ATOM     26  C   UNL A   1      32.527  28.263  24.977  1.00  0.00     0.021 C 
BRANCH  26  27
ATOM     27  C   UNL A   1      33.649  29.174  25.457  1.00  0.00     0.116 C 
BRANCH  27  28
ATOM     28  N   UNL A   1      33.141  30.463  25.895  1.00  0.00    -0.352 N 
ATOM     29  C   UNL A   1      33.482  31.202  26.998  1.00  0.00     0.251 C 
ATOM     30  H   UNL A   1      32.451  30.863  25.317  1.00  0.00     0.163 HD
ATOM     31  O   UNL A   1      32.786  32.153  27.341  1.00  0.00    -0.269 OA
BRANCH  29  32
ATOM     32  C   UNL A   1      34.691  30.857  27.774  1.00  0.00     0.039 A 
ATOM     33  C   UNL A   1      35.740  31.779  27.830  1.00  0.00     0.014 A 
ATOM     34  C   UNL A   1      34.815  29.613  28.400  1.00  0.00     0.014 A 
ATOM     35  C   UNL A   1      36.904  31.458  28.529  1.00  0.00     0.010 A 
ATOM     36  C   UNL A   1      35.940  29.330  29.167  1.00  0.00     0.010 A 
ATOM     37  C   UNL A   1      37.010  30.234  29.212  1.00  0.00    -0.014 A 
BRANCH  37  38
ATOM     38  C   UNL A   1      38.260  29.862  29.918  1.00  0.00     0.031 A 
ATOM     39  C   UNL A   1      38.536  30.411  31.293  1.00  0.00     0.074 A 
ATOM     40  C   UNL A   1      39.157  29.059  29.315  1.00  0.00     0.049 A 
ATOM     41  N   UNL A   1      39.576  30.228  32.066  1.00  0.00    -0.248 NA
ATOM     42  C   UNL A   1      37.518  31.308  31.863  1.00  0.00     0.031 C 
ATOM     43  C   UNL A   1      39.024  28.502  27.968  1.00  0.00     0.029 A 
ATOM     44  N   UNL A   1      40.360  28.572  29.761  1.00  0.00    -0.354 N 
ATOM     45  C   UNL A   1      39.343  30.996  33.200  1.00  0.00     0.074 A 
ATOM     46  C   UNL A   1      38.097  31.699  32.987  1.00  0.00     0.031 C 
ATOM     47  C   UNL A   1      40.087  27.725  27.708  1.00  0.00     0.029 A 
ATOM     48  C   UNL A   1      40.991  27.755  28.854  1.00  0.00     0.049 A 
ATOM     49  H   UNL A   1      40.735  28.787  30.645  1.00  0.00     0.167 HD
ATOM     50  C   UNL A   1      40.082  31.081  34.333  1.00  0.00     0.037 A 
ATOM     51  C   UNL A   1      42.166  27.104  28.943  1.00  0.00     0.037 A 
ATOM     52  C   UNL A   1      41.309  30.361  34.548  1.00  0.00     0.049 A 
ATOM     53  C   UNL A   1      42.968  27.217  30.212  1.00  0.00     0.074 A 
ATOM     54  C   UNL A   1      42.114  30.342  35.674  1.00  0.00     0.029 A 
ATOM     55  N   UNL A   1      41.909  29.528  33.615  1.00  0.00    -0.354 N 
ATOM     56  N   UNL A   1      42.705  27.893  31.305  1.00  0.00    -0.248 NA
ATOM     57  C   UNL A   1      44.225  26.458  30.264  1.00  0.00     0.031 C 
ATOM     58  C   UNL A   1      43.226  29.536  35.404  1.00  0.00     0.029 A 
ATOM     59  C   UNL A   1      43.082  29.003  34.133  1.00  0.00     0.049 A 
ATOM     60  H   UNL A   1      41.553  29.338  32.716  1.00  0.00     0.167 HD
ATOM     61  C   UNL A   1      43.743  27.613  32.186  1.00  0.00     0.074 A 
ATOM     62  C   UNL A   1      44.628  26.691  31.506  1.00  0.00     0.031 C 
ATOM     63  C   UNL A   1      43.946  28.079  33.444  1.00  0.00     0.037 A 
BRANCH  50  64
ATOM     64  C   UNL A   1      39.579  31.986  35.422  1.00  0.00     0.064 A 
ATOM     65  C   UNL A   1      39.971  33.332  35.502  1.00  0.00     0.173 A 
ATOM     66  C   UNL A   1      38.679  31.511  36.387  1.00  0.00     0.173 A 
ATOM     67  F   UNL A   1      40.841  33.836  34.614  1.00  0.00    -0.203 F 
ATOM     68  C   UNL A   1      39.508  34.155  36.526  1.00  0.00     0.198 A 
ATOM     69  C   UNL A   1      38.190  32.347  37.388  1.00  0.00     0.198 A 
ATOM     70  F   UNL A   1      38.266  30.234  36.357  1.00  0.00    -0.203 F 
ATOM     71  F   UNL A   1      39.944  35.420  36.614  1.00  0.00    -0.200 F 
ATOM     72  C   UNL A   1      38.613  33.664  37.462  1.00  0.00     0.200 A 
ATOM     73  F   UNL A   1      37.314  31.874  38.285  1.00  0.00    -0.200 F 
ATOM     74  F   UNL A   1      38.163  34.460  38.443  1.00  0.00    -0.200 F 
ENDBRANCH  50  64
BRANCH  51  75
ATOM     75  C   UNL A   1      42.639  26.259  27.815  1.00  0.00     0.064 A 
ATOM     76  C   UNL A   1      43.541  26.762  26.867  1.00  0.00     0.173 A 
ATOM     77  C   UNL A   1      42.189  24.942  27.650  1.00  0.00     0.173 A 
ATOM     78  F   UNL A   1      43.987  28.023  26.971  1.00  0.00    -0.203 F 
ATOM     79  C   UNL A   1      43.949  25.992  25.780  1.00  0.00     0.198 A 
ATOM     80  C   UNL A   1      42.622  24.161  26.581  1.00  0.00     0.198 A 
ATOM     81  F   UNL A   1      41.332  24.409  28.534  1.00  0.00    -0.203 F 
ATOM     82  F   UNL A   1      44.765  26.519  24.857  1.00  0.00    -0.200 F 
ATOM     83  C   UNL A   1      43.492  24.691  25.640  1.00  0.00     0.200 A 
ATOM     84  F   UNL A   1      42.191  22.899  26.457  1.00  0.00    -0.200 F 
ATOM     85  F   UNL A   1      43.883  23.951  24.594  1.00  0.00    -0.200 F 
ENDBRANCH  51  75
BRANCH  63  86
ATOM     86  C   UNL A   1      45.146  27.553  34.181  1.00  0.00     0.064 A 
ATOM     87  C   UNL A   1      46.388  28.203  34.134  1.00  0.00     0.173 A 
ATOM     88  C   UNL A   1      45.046  26.385  34.952  1.00  0.00     0.173 A 
ATOM     89  F   UNL A   1      46.542  29.317  33.403  1.00  0.00    -0.203 F 
ATOM     90  C   UNL A   1      47.497  27.677  34.794  1.00  0.00     0.198 A 
ATOM     91  C   UNL A   1      46.147  25.883  35.641  1.00  0.00     0.198 A 
ATOM     92  F   UNL A   1      43.879  25.730  35.041  1.00  0.00    -0.203 F 
ATOM     93  F   UNL A   1      48.690  28.275  34.677  1.00  0.00    -0.200 F 
ATOM     94  C   UNL A   1      47.374  26.521  35.551  1.00  0.00     0.200 A 
ATOM     95  F   UNL A   1      46.021  24.776  36.386  1.00  0.00    -0.200 F 
ATOM     96  F   UNL A   1      48.441  26.015  36.183  1.00  0.00    -0.200 F 
ENDBRANCH  63  86
ENDBRANCH  37  38
ENDBRANCH  29  32
ENDBRANCH  27  28
ENDBRANCH  26  27
ENDBRANCH  25  26
ENDBRANCH   1  25
TORSDOF 16
ENDMDL
MODEL 2
REMARK VINA RESULT:     -11.9      2.700      3.951
REMARK SMILES C[C@@H]1CCC[C@H]1NC(=O)c1csc(/C=C/C(=O)NCCCCCCNC(=O)c2ccc(-c3c4nc(c(-c5c(F)c(F)c(F)c(F)c5F)c5ccc([nH]5)c(-c5c(F)c(F)c(F)c(F)c5F)c5nc(c(-c6c(F)c(F)c(F)c(F)c6F)c6ccc3[nH]6)C=C5)C=C4)cc2)c1
REMARK SMILES IDX 21 1 20 2 19 3 18 4 16 5 17 6 15 8 14 9 13 10 10 11 11 12
REMARK SMILES IDX 91 13 12 14 8 15 7 16 9 18 6 19 1 20 2 21 3 22 4 23 5 24
REMARK SMILES IDX 22 25 23 26 24 27 25 28 26 29 27 31 28 32 29 33 90 34 30 35
REMARK SMILES IDX 89 36 31 37 32 38 33 39 83 40 34 41 88 42 82 43 84 44 35 45
REMARK SMILES IDX 87 46 81 47 80 48 36 50 68 51 48 52 67 53 49 54 52 55 66 56
REMARK SMILES IDX 85 57 50 58 51 59 65 61 86 62 53 63 37 64 38 65 46 66 39 67
REMARK SMILES IDX 40 68 44 69 47 70 41 71 42 72 45 73 43 74 69 75 70 76 78 77
REMARK SMILES IDX 71 78 72 79 76 80 79 81 73 82 74 83 77 84 75 85 54 86 55 87
REMARK SMILES IDX 63 88 56 89 57 90 61 91 64 92 58 93 59 94 62 95 60 96
REMARK H PARENT 18 7 7 17 25 30 84 49 52 60
REMARK Flexibility Score: inf
ROOT
ATOM      1  C   UNL A   1      30.758  26.867  25.491  1.00  0.00     0.002 C 
ENDROOT
BRANCH   1   2
ATOM      2  C   UNL A   1      30.626  27.701  24.209  1.00  0.00     0.021 C 
BRANCH   2   3
ATOM      3  C   UNL A   1      30.643  26.854  22.936  1.00  0.00     0.116 C 
BRANCH   3   4
ATOM      4  N   UNL A   1      31.823  27.163  22.147  1.00  0.00    -0.353 N 
ATOM      5  C   UNL A   1      33.114  26.755  22.261  1.00  0.00     0.244 C 
ATOM      6  O   UNL A   1      33.942  27.129  21.435  1.00  0.00    -0.270 OA
ATOM      7  H   UNL A   1      31.657  27.778  21.396  1.00  0.00     0.163 HD
BRANCH   5   8
ATOM      8  C   UNL A   1      33.512  25.781  23.298  1.00  0.00     0.072 C 
ATOM      9  C   UNL A   1      33.266  24.466  23.230  1.00  0.00     0.024 C 
BRANCH   9  10
ATOM     10  C   UNL A   1      33.751  23.535  24.193  1.00  0.00     0.028 A 
ATOM     11  C   UNL A   1      34.829  21.639  25.097  1.00  0.00     0.051 A 
ATOM     12  C   UNL A   1      34.271  22.213  26.222  1.00  0.00     0.079 A 
ATOM     13  C   UNL A   1      34.571  22.449  23.945  1.00  0.00     0.033 A 
ATOM     14  S   UNL A   1      33.356  23.610  25.864  1.00  0.00    -0.144 S 
BRANCH  11  15
ATOM     15  C   UNL A   1      35.620  20.418  25.073  1.00  0.00     0.252 C 
ATOM     16  N   UNL A   1      34.996  19.225  24.811  1.00  0.00    -0.349 N 
ATOM     17  H   UNL A   1      35.569  18.427  24.889  1.00  0.00     0.164 HD
ATOM     18  O   UNL A   1      36.839  20.438  25.222  1.00  0.00    -0.269 OA
BRANCH  16  19
ATOM     19  C   UNL A   1      33.610  18.962  24.435  1.00  0.00     0.085 C 
ATOM     20  C   UNL A   1      32.221  18.015  22.539  1.00  0.00     0.010 C 
ATOM     21  C   UNL A   1      33.524  17.895  23.333  1.00  0.00     0.008 C 
ATOM     22  C   UNL A   1      33.595  16.582  24.112  1.00  0.00     0.005 C 
ATOM     23  C   UNL A   1      32.865  16.848  25.425  1.00  0.00     0.002 C 
ATOM     24  C   UNL A   1      32.849  18.366  25.619  1.00  0.00     0.025 C 
ENDBRANCH  16  19
ENDBRANCH  11  15
ENDBRANCH   9  10
ENDBRANCH   5   8
ENDBRANCH   3   4
ENDBRANCH   2   3
ENDBRANCH   1   2
BRANCH   1  25
ATOM     25  C   UNL A   1      31.638  27.498  26.577  1.00  0.00     0.002 C 
BRANCH  25  26
ATOM     26  C   UNL A   1      32.933  28.135  26.064  1.00  0.00     0.021 C 
BRANCH  26  27
ATOM     27  C   UNL A   1      33.932  28.481  27.162  1.00  0.00     0.116 C 
BRANCH  27  28
ATOM     28  N   UNL A   1      33.800  29.864  27.588  1.00  0.00    -0.352 N 
ATOM     29  C   UNL A   1      34.666  30.635  28.317  1.00  0.00     0.251 C 
ATOM     30  H   UNL A   1      32.967  30.312  27.313  1.00  0.00     0.163 HD
ATOM     31  O   UNL A   1      34.292  31.706  28.787  1.00  0.00    -0.269 OA
BRANCH  29  32
ATOM     32  C   UNL A   1      36.055  30.180  28.537  1.00  0.00     0.039 A 
ATOM     33  C   UNL A   1      36.389  29.605  29.766  1.00  0.00     0.014 A 
ATOM     34  C   UNL A   1      37.036  30.364  27.558  1.00  0.00     0.014 A 
ATOM     35  C   UNL A   1      37.702  29.200  30.005  1.00  0.00     0.010 A 
ATOM     36  C   UNL A   1      38.324  29.882  27.766  1.00  0.00     0.010 A 
ATOM     37  C   UNL A   1      38.679  29.327  29.003  1.00  0.00    -0.014 A 
BRANCH  37  38
ATOM     38  C   UNL A   1      40.089  28.944  29.261  1.00  0.00     0.031 A 
ATOM     39  C   UNL A   1      40.981  29.862  30.054  1.00  0.00     0.074 A 
ATOM     40  C   UNL A   1      40.574  27.792  28.760  1.00  0.00     0.049 A 
ATOM     41  N   UNL A   1      42.245  29.725  30.368  1.00  0.00    -0.248 NA
ATOM     42  C   UNL A   1      40.379  31.117  30.535  1.00  0.00     0.031 C 
ATOM     43  C   UNL A   1      39.821  26.844  27.939  1.00  0.00     0.029 A 
ATOM     44  N   UNL A   1      41.818  27.225  28.871  1.00  0.00    -0.354 N 
ATOM     45  C   UNL A   1      42.587  30.876  31.066  1.00  0.00     0.074 A 
ATOM     46  C   UNL A   1      41.421  31.731  31.072  1.00  0.00     0.031 C 
ATOM     47  C   UNL A   1      40.609  25.797  27.645  1.00  0.00     0.029 A 
ATOM     48  C   UNL A   1      41.929  26.017  28.228  1.00  0.00     0.049 A 
ATOM     49  H   UNL A   1      42.561  27.644  29.363  1.00  0.00     0.167 HD
ATOM     50  C   UNL A   1      43.758  31.180  31.677  1.00  0.00     0.037 A 
ATOM     51  C   UNL A   1      42.981  25.182  28.125  1.00  0.00     0.037 A 
ATOM     52  C   UNL A   1      44.908  30.314  31.688  1.00  0.00     0.049 A 
ATOM     53  C   UNL A   1      44.270  25.543  28.813  1.00  0.00     0.074 A 
ATOM     54  C   UNL A   1      46.128  30.505  32.313  1.00  0.00     0.029 A 
ATOM     55  N   UNL A   1      44.978  29.088  31.041  1.00  0.00    -0.354 N 
ATOM     56  N   UNL A   1      44.563  26.603  29.527  1.00  0.00    -0.248 NA
ATOM     57  C   UNL A   1      45.371  24.578  28.693  1.00  0.00     0.031 C 
ATOM     58  C   UNL A   1      46.953  29.418  32.003  1.00  0.00     0.029 A 
ATOM     59  C   UNL A   1      46.226  28.520  31.239  1.00  0.00     0.049 A 
ATOM     60  H   UNL A   1      44.248  28.683  30.519  1.00  0.00     0.167 HD
ATOM     61  C   UNL A   1      45.866  26.417  29.970  1.00  0.00     0.074 A 
ATOM     62  C   UNL A   1      46.298  25.133  29.461  1.00  0.00     0.031 C 
ATOM     63  C   UNL A   1      46.636  27.236  30.731  1.00  0.00     0.037 A 
BRANCH  50  64
ATOM     64  C   UNL A   1      43.848  32.503  32.385  1.00  0.00     0.064 A 
ATOM     65  C   UNL A   1      43.495  32.641  33.737  1.00  0.00     0.173 A 
ATOM     66  C   UNL A   1      44.313  33.642  31.712  1.00  0.00     0.173 A 
ATOM     67  F   UNL A   1      43.030  31.588  34.425  1.00  0.00    -0.203 F 
ATOM     68  C   UNL A   1      43.570  33.877  34.376  1.00  0.00     0.198 A 
ATOM     69  C   UNL A   1      44.421  34.868  32.364  1.00  0.00     0.198 A 
ATOM     70  F   UNL A   1      44.670  33.568  30.420  1.00  0.00    -0.203 F 
ATOM     71  F   UNL A   1      43.169  33.995  35.649  1.00  0.00    -0.200 F 
ATOM     72  C   UNL A   1      44.040  34.986  33.692  1.00  0.00     0.200 A 
ATOM     73  F   UNL A   1      44.889  35.937  31.705  1.00  0.00    -0.200 F 
ATOM     74  F   UNL A   1      44.117  36.173  34.310  1.00  0.00    -0.200 F 
ENDBRANCH  50  64
BRANCH  51  75
ATOM     75  C   UNL A   1      42.850  23.906  27.372  1.00  0.00     0.064 A 
ATOM     76  C   UNL A   1      42.416  22.735  28.010  1.00  0.00     0.173 A 
ATOM     77  C   UNL A   1      43.172  23.824  26.011  1.00  0.00     0.173 A 
ATOM     78  F   UNL A   1      42.112  22.757  29.317  1.00  0.00    -0.203 F 
ATOM     79  C   UNL A   1      42.340  21.525  27.323  1.00  0.00     0.198 A 
ATOM     80  C   UNL A   1      43.065  22.621  25.316  1.00  0.00     0.198 A 
ATOM     81  F   UNL A   1      43.586  24.916  25.351  1.00  0.00    -0.203 F 
ATOM     82  F   UNL A   1      41.978  20.410  27.973  1.00  0.00    -0.200 F 
ATOM     83  C   UNL A   1      42.661  21.470  25.976  1.00  0.00     0.200 A 
ATOM     84  F   UNL A   1      43.361  22.574  24.010  1.00  0.00    -0.200 F 
ATOM     85  F   UNL A   1      42.589  20.306  25.315  1.00  0.00    -0.200 F 
ENDBRANCH  51  75
BRANCH  63  86
ATOM     86  C   UNL A   1      48.006  26.738  31.098  1.00  0.00     0.064 A 
ATOM     87  C   UNL A   1      48.225  25.935  32.227  1.00  0.00     0.173 A 
ATOM     88  C   UNL A   1      49.114  27.065  30.301  1.00  0.00     0.173 A 
ATOM     89  F   UNL A   1      47.203  25.602  33.029  1.00  0.00    -0.203 F 
ATOM     90  C   UNL A   1      49.509  25.517  32.570  1.00  0.00     0.198 A 
ATOM     91  C   UNL A   1      50.390  26.613  30.626  1.00  0.00     0.198 A 
ATOM     92  F   UNL A   1      48.960  27.821  29.204  1.00  0.00    -0.203 F 
ATOM     93  F   UNL A   1      49.705  24.810  33.692  1.00  0.00    -0.200 F 
ATOM     94  C   UNL A   1      50.590  25.852  31.767  1.00  0.00     0.200 A 
ATOM     95  F   UNL A   1      51.430  26.924  29.838  1.00  0.00    -0.200 F 
ATOM     96  F   UNL A   1      51.824  25.450  32.099  1.00  0.00    -0.200 F 
ENDBRANCH  63  86
ENDBRANCH  37  38
ENDBRANCH  29  32
ENDBRANCH  27  28
ENDBRANCH  26  27
ENDBRANCH  25  26
ENDBRANCH   1  25
TORSDOF 16
ENDMDL
MODEL 3
REMARK VINA RESULT:     -11.8      4.588      8.890
REMARK SMILES C[C@@H]1CCC[C@H]1NC(=O)c1csc(/C=C/C(=O)NCCCCCCNC(=O)c2ccc(-c3c4nc(c(-c5c(F)c(F)c(F)c(F)c5F)c5ccc([nH]5)c(-c5c(F)c(F)c(F)c(F)c5F)c5nc(c(-c6c(F)c(F)c(F)c(F)c6F)c6ccc3[nH]6)C=C5)C=C4)cc2)c1
REMARK SMILES IDX 21 1 20 2 19 3 18 4 16 5 17 6 15 8 14 9 13 10 10 11 11 12
REMARK SMILES IDX 91 13 12 14 8 15 7 16 9 18 6 19 1 20 2 21 3 22 4 23 5 24
REMARK SMILES IDX 22 25 23 26 24 27 25 28 26 29 27 31 28 32 29 33 90 34 30 35
REMARK SMILES IDX 89 36 31 37 32 38 33 39 83 40 34 41 88 42 82 43 84 44 35 45
REMARK SMILES IDX 87 46 81 47 80 48 36 50 68 51 48 52 67 53 49 54 52 55 66 56
REMARK SMILES IDX 85 57 50 58 51 59 65 61 86 62 53 63 37 64 38 65 46 66 39 67
REMARK SMILES IDX 40 68 44 69 47 70 41 71 42 72 45 73 43 74 69 75 70 76 78 77
REMARK SMILES IDX 71 78 72 79 76 80 79 81 73 82 74 83 77 84 75 85 54 86 55 87
REMARK SMILES IDX 63 88 56 89 57 90 61 91 64 92 58 93 59 94 62 95 60 96
REMARK H PARENT 18 7 7 17 25 30 84 49 52 60
REMARK Flexibility Score: inf
ROOT
ATOM      1  C   UNL A   1      35.544  20.282  25.006  1.00  0.00     0.002 C 
ENDROOT
BRANCH   1   2
ATOM      2  C   UNL A   1      34.692  21.423  25.580  1.00  0.00     0.021 C 
BRANCH   2   3
ATOM      3  C   UNL A   1      33.246  21.402  25.084  1.00  0.00     0.116 C 
BRANCH   3   4
ATOM      4  N   UNL A   1      32.339  21.685  26.183  1.00  0.00    -0.353 N 
ATOM      5  C   UNL A   1      31.887  22.857  26.699  1.00  0.00     0.244 C 
ATOM      6  O   UNL A   1      31.079  22.841  27.623  1.00  0.00    -0.270 OA
ATOM      7  H   UNL A   1      31.988  20.882  26.634  1.00  0.00     0.163 HD
BRANCH   5   8
ATOM      8  C   UNL A   1      32.269  24.149  26.092  1.00  0.00     0.072 C 
ATOM      9  C   UNL A   1      31.394  25.059  25.646  1.00  0.00     0.024 C 
BRANCH   9  10
ATOM     10  C   UNL A   1      31.787  26.340  25.160  1.00  0.00     0.028 A 
ATOM     11  C   UNL A   1      31.780  28.674  24.805  1.00  0.00     0.051 A 
ATOM     12  C   UNL A   1      32.816  28.264  23.989  1.00  0.00     0.079 A 
ATOM     13  C   UNL A   1      31.239  27.558  25.521  1.00  0.00     0.033 A 
ATOM     14  S   UNL A   1      33.028  26.570  23.995  1.00  0.00    -0.144 S 
BRANCH  11  15
ATOM     15  C   UNL A   1      31.327  30.047  24.974  1.00  0.00     0.252 C 
ATOM     16  N   UNL A   1      30.304  30.512  24.188  1.00  0.00    -0.349 N 
ATOM     17  H   UNL A   1      30.097  31.469  24.292  1.00  0.00     0.164 HD
ATOM     18  O   UNL A   1      31.797  30.777  25.841  1.00  0.00    -0.269 OA
BRANCH  16  19
ATOM     19  C   UNL A   1      29.475  29.799  23.219  1.00  0.00     0.085 C 
ATOM     20  C   UNL A   1      27.140  28.862  22.925  1.00  0.00     0.010 C 
ATOM     21  C   UNL A   1      27.980  30.000  23.509  1.00  0.00     0.008 C 
ATOM     22  C   UNL A   1      27.671  31.337  22.837  1.00  0.00     0.005 C 
ATOM     23  C   UNL A   1      28.551  31.379  21.591  1.00  0.00     0.002 C 
ATOM     24  C   UNL A   1      29.686  30.379  21.820  1.00  0.00     0.025 C 
ENDBRANCH  16  19
ENDBRANCH  11  15
ENDBRANCH   9  10
ENDBRANCH   5   8
ENDBRANCH   3   4
ENDBRANCH   2   3
ENDBRANCH   1   2
BRANCH   1  25
ATOM     25  C   UNL A   1      36.991  20.667  24.675  1.00  0.00     0.002 C 
BRANCH  25  26
ATOM     26  C   UNL A   1      38.034  19.598  25.012  1.00  0.00     0.021 C 
BRANCH  26  27
ATOM     27  C   UNL A   1      39.139  20.080  25.945  1.00  0.00     0.116 C 
BRANCH  27  28
ATOM     28  N   UNL A   1      40.213  19.106  26.048  1.00  0.00    -0.352 N 
ATOM     29  C   UNL A   1      41.567  19.310  26.104  1.00  0.00     0.251 C 
ATOM     30  H   UNL A   1      39.927  18.165  26.081  1.00  0.00     0.163 HD
ATOM     31  O   UNL A   1      42.338  18.367  25.951  1.00  0.00    -0.269 OA
BRANCH  29  32
ATOM     32  C   UNL A   1      42.101  20.665  26.353  1.00  0.00     0.039 A 
ATOM     33  C   UNL A   1      42.279  21.087  27.673  1.00  0.00     0.014 A 
ATOM     34  C   UNL A   1      42.378  21.535  25.294  1.00  0.00     0.014 A 
ATOM     35  C   UNL A   1      42.750  22.375  27.929  1.00  0.00     0.010 A 
ATOM     36  C   UNL A   1      42.928  22.787  25.549  1.00  0.00     0.010 A 
ATOM     37  C   UNL A   1      43.088  23.232  26.868  1.00  0.00    -0.014 A 
BRANCH  37  38
ATOM     38  C   UNL A   1      43.544  24.620  27.127  1.00  0.00     0.031 A 
ATOM     39  C   UNL A   1      42.576  25.639  27.666  1.00  0.00     0.074 A 
ATOM     40  C   UNL A   1      44.815  24.971  26.851  1.00  0.00     0.049 A 
ATOM     41  N   UNL A   1      42.768  26.906  27.935  1.00  0.00    -0.248 NA
ATOM     42  C   UNL A   1      41.198  25.179  27.907  1.00  0.00     0.031 C 
ATOM     43  C   UNL A   1      45.832  24.085  26.283  1.00  0.00     0.029 A 
ATOM     44  N   UNL A   1      45.465  26.168  27.012  1.00  0.00    -0.354 N 
ATOM     45  C   UNL A   1      41.538  27.391  28.362  1.00  0.00     0.074 A 
ATOM     46  C   UNL A   1      40.591  26.304  28.252  1.00  0.00     0.031 C 
ATOM     47  C   UNL A   1      46.988  24.761  26.172  1.00  0.00     0.029 A 
ATOM     48  C   UNL A   1      46.783  26.132  26.628  1.00  0.00     0.049 A 
ATOM     49  H   UNL A   1      45.029  26.975  27.368  1.00  0.00     0.167 HD
ATOM     50  C   UNL A   1      41.232  28.624  28.836  1.00  0.00     0.037 A 
ATOM     51  C   UNL A   1      47.719  27.100  26.645  1.00  0.00     0.037 A 
ATOM     52  C   UNL A   1      42.184  29.695  28.966  1.00  0.00     0.049 A 
ATOM     53  C   UNL A   1      47.352  28.460  27.176  1.00  0.00     0.074 A 
ATOM     54  C   UNL A   1      41.989  30.968  29.474  1.00  0.00     0.029 A 
ATOM     55  N   UNL A   1      43.516  29.617  28.584  1.00  0.00    -0.354 N 
ATOM     56  N   UNL A   1      46.203  28.890  27.640  1.00  0.00    -0.248 NA
ATOM     57  C   UNL A   1      48.423  29.466  27.202  1.00  0.00     0.031 C 
ATOM     58  C   UNL A   1      43.191  31.675  29.354  1.00  0.00     0.029 A 
ATOM     59  C   UNL A   1      44.150  30.824  28.830  1.00  0.00     0.049 A 
ATOM     60  H   UNL A   1      43.946  28.821  28.196  1.00  0.00     0.167 HD
ATOM     61  C   UNL A   1      46.420  30.201  28.044  1.00  0.00     0.074 A 
ATOM     62  C   UNL A   1      47.817  30.488  27.790  1.00  0.00     0.031 C 
ATOM     63  C   UNL A   1      45.544  31.089  28.578  1.00  0.00     0.037 A 
BRANCH  50  64
ATOM     64  C   UNL A   1      39.809  28.873  29.249  1.00  0.00     0.064 A 
ATOM     65  C   UNL A   1      38.845  29.331  28.335  1.00  0.00     0.173 A 
ATOM     66  C   UNL A   1      39.394  28.633  30.567  1.00  0.00     0.173 A 
ATOM     67  F   UNL A   1      39.189  29.590  27.064  1.00  0.00    -0.203 F 
ATOM     68  C   UNL A   1      37.533  29.572  28.735  1.00  0.00     0.198 A 
ATOM     69  C   UNL A   1      38.072  28.841  30.955  1.00  0.00     0.198 A 
ATOM     70  F   UNL A   1      40.270  28.192  31.483  1.00  0.00    -0.203 F 
ATOM     71  F   UNL A   1      36.648  30.065  27.858  1.00  0.00    -0.200 F 
ATOM     72  C   UNL A   1      37.146  29.320  30.041  1.00  0.00     0.200 A 
ATOM     73  F   UNL A   1      37.697  28.584  32.215  1.00  0.00    -0.200 F 
ATOM     74  F   UNL A   1      35.882  29.546  30.423  1.00  0.00    -0.200 F 
ENDBRANCH  50  64
BRANCH  51  75
ATOM     75  C   UNL A   1      49.102  26.811  26.181  1.00  0.00     0.064 A 
ATOM     76  C   UNL A   1      49.466  27.001  24.840  1.00  0.00     0.173 A 
ATOM     77  C   UNL A   1      50.080  26.323  27.058  1.00  0.00     0.173 A 
ATOM     78  F   UNL A   1      48.560  27.450  23.958  1.00  0.00    -0.203 F 
ATOM     79  C   UNL A   1      50.745  26.685  24.388  1.00  0.00     0.198 A 
ATOM     80  C   UNL A   1      51.369  26.036  26.612  1.00  0.00     0.198 A 
ATOM     81  F   UNL A   1      49.786  26.130  28.352  1.00  0.00    -0.203 F 
ATOM     82  F   UNL A   1      51.047  26.821  23.090  1.00  0.00    -0.200 F 
ATOM     83  C   UNL A   1      51.697  26.206  25.276  1.00  0.00     0.200 A 
ATOM     84  F   UNL A   1      52.290  25.589  27.475  1.00  0.00    -0.200 F 
ATOM     85  F   UNL A   1      52.926  25.900  24.841  1.00  0.00    -0.200 F 
ENDBRANCH  51  75
BRANCH  63  86
ATOM     86  C   UNL A   1      46.087  32.435  28.969  1.00  0.00     0.064 A 
ATOM     87  C   UNL A   1      46.079  33.523  28.085  1.00  0.00     0.173 A 
ATOM     88  C   UNL A   1      46.616  32.637  30.253  1.00  0.00     0.173 A 
ATOM     89  F   UNL A   1      45.596  33.381  26.841  1.00  0.00    -0.203 F 
ATOM     90  C   UNL A   1      46.623  34.750  28.455  1.00  0.00     0.198 A 
ATOM     91  C   UNL A   1      47.124  33.876  30.633  1.00  0.00     0.198 A 
ATOM     92  F   UNL A   1      46.638  31.633  31.143  1.00  0.00    -0.203 F 
ATOM     93  F   UNL A   1      46.670  35.756  27.570  1.00  0.00    -0.200 F 
ATOM     94  C   UNL A   1      47.141  34.928  29.730  1.00  0.00     0.200 A 
ATOM     95  F   UNL A   1      47.607  34.049  31.872  1.00  0.00    -0.200 F 
ATOM     96  F   UNL A   1      47.665  36.108  30.085  1.00  0.00    -0.200 F 
ENDBRANCH  63  86
ENDBRANCH  37  38
ENDBRANCH  29  32
ENDBRANCH  27  28
ENDBRANCH  26  27
ENDBRANCH  25  26
ENDBRANCH   1  25
TORSDOF 16
ENDMDL
