MODEL 1
REMARK VINA RESULT:     -12.4      0.000      0.000
REMARK SMILES Cc1cscc1-c1nc(C)c(C(=O)NCCCCCCNC(=O)c2ccc(-c3c4nc(c(-c5c(F)c(F)c(F)c(F)c5F)c5ccc([nH]5)c(-c5c(F)c(F)c(F)c(F)c5F)c5nc(c(-c6c(F)c(F)c(F)c(F)c6F)c6ccc3[nH]6)C=C5)C=C4)cc2)c(C)n1
REMARK SMILES IDX 18 1 17 2 16 3 15 4 14 5 12 6 13 7 11 9 7 10 8 11 89 12 9 13
REMARK SMILES IDX 87 14 10 15 88 16 6 17 1 18 2 19 3 20 4 21 5 22 19 23 20 24
REMARK SMILES IDX 21 25 22 26 23 28 24 29 25 30 86 31 26 32 85 33 27 34 28 35
REMARK SMILES IDX 29 36 79 37 30 38 84 39 78 40 80 41 31 42 83 43 77 44 76 45
REMARK SMILES IDX 32 47 64 48 44 49 63 50 45 51 48 52 62 53 81 54 46 55 47 56
REMARK SMILES IDX 61 58 82 59 49 60 33 61 34 62 42 63 35 64 36 65 40 66 43 67
REMARK SMILES IDX 37 68 38 69 41 70 39 71 65 72 66 73 74 74 67 75 68 76 72 77
REMARK SMILES IDX 75 78 69 79 70 80 73 81 71 82 50 83 51 84 59 85 52 86 53 87
REMARK SMILES IDX 57 88 60 89 54 90 55 91 58 92 56 93
REMARK H PARENT 14 8 21 27 80 46 48 57
REMARK Flexibility Score: inf
ROOT
ATOM      1  C   UNL A   1      31.532  30.873  25.971  1.00  0.00     0.002 C 
ENDROOT
BRANCH   1   2
ATOM      2  C   UNL A   1      30.691  30.634  24.710  1.00  0.00     0.002 C 
BRANCH   2   3
ATOM      3  C   UNL A   1      30.730  29.195  24.182  1.00  0.00     0.021 C 
BRANCH   3   4
ATOM      4  C   UNL A   1      30.921  29.120  22.663  1.00  0.00     0.116 C 
BRANCH   4   5
ATOM      5  N   UNL A   1      32.314  28.949  22.332  1.00  0.00    -0.352 N 
ATOM      6  C   UNL A   1      33.298  28.009  22.347  1.00  0.00     0.254 C 
ATOM      7  O   UNL A   1      34.356  28.500  21.934  1.00  0.00    -0.269 OA
ATOM      8  H   UNL A   1      32.672  29.793  21.977  1.00  0.00     0.163 HD
BRANCH   6   9
ATOM      9  C   UNL A   1      33.278  26.558  22.753  1.00  0.00     0.082 A 
ATOM     10  C   UNL A   1      33.289  23.998  23.791  1.00  0.00     0.160 A 
ATOM     11  N   UNL A   1      33.064  24.161  22.491  1.00  0.00    -0.232 NA
ATOM     12  N   UNL A   1      33.496  24.994  24.643  1.00  0.00    -0.232 NA
ATOM     13  C   UNL A   1      33.023  25.422  21.983  1.00  0.00     0.054 A 
ATOM     14  C   UNL A   1      33.507  26.255  24.122  1.00  0.00     0.054 A 
ATOM     15  C   UNL A   1      32.682  25.337  20.540  1.00  0.00     0.068 C 
ATOM     16  C   UNL A   1      33.803  27.281  25.187  1.00  0.00     0.068 C 
BRANCH  10  17
ATOM     17  C   UNL A   1      33.347  22.628  24.259  1.00  0.00     0.033 A 
ATOM     18  C   UNL A   1      35.923  22.305  24.142  1.00  0.00     0.046 C 
ATOM     19  C   UNL A   1      34.532  21.813  24.385  1.00  0.00    -0.029 A 
ATOM     20  C   UNL A   1      34.209  20.522  24.759  1.00  0.00     0.069 A 
ATOM     21  S   UNL A   1      32.530  20.298  24.980  1.00  0.00    -0.151 S 
ATOM     22  C   UNL A   1      32.201  21.925  24.573  1.00  0.00     0.077 A 
ENDBRANCH  10  17
ENDBRANCH   6   9
ENDBRANCH   4   5
ENDBRANCH   3   4
ENDBRANCH   2   3
ENDBRANCH   1   2
BRANCH   1  23
ATOM     23  C   UNL A   1      31.338  32.244  26.622  1.00  0.00     0.021 C 
BRANCH  23  24
ATOM     24  C   UNL A   1      32.599  32.812  27.265  1.00  0.00     0.116 C 
BRANCH  24  25
ATOM     25  N   UNL A   1      32.426  34.208  27.637  1.00  0.00    -0.352 N 
ATOM     26  C   UNL A   1      33.011  34.914  28.652  1.00  0.00     0.251 C 
ATOM     27  H   UNL A   1      31.796  34.718  27.077  1.00  0.00     0.163 HD
ATOM     28  O   UNL A   1      32.564  36.012  28.983  1.00  0.00    -0.269 OA
BRANCH  26  29
ATOM     29  C   UNL A   1      34.183  34.356  29.350  1.00  0.00     0.039 A 
ATOM     30  C   UNL A   1      34.007  33.732  30.587  1.00  0.00     0.014 A 
ATOM     31  C   UNL A   1      35.460  34.477  28.793  1.00  0.00     0.014 A 
ATOM     32  C   UNL A   1      35.108  33.183  31.246  1.00  0.00     0.010 A 
ATOM     33  C   UNL A   1      36.545  33.872  29.417  1.00  0.00     0.010 A 
ATOM     34  C   UNL A   1      36.380  33.228  30.653  1.00  0.00    -0.014 A 
BRANCH  34  35
ATOM     35  C   UNL A   1      37.565  32.631  31.314  1.00  0.00     0.031 A 
ATOM     36  C   UNL A   1      38.302  31.506  30.643  1.00  0.00     0.074 A 
ATOM     37  C   UNL A   1      37.929  33.052  32.540  1.00  0.00     0.049 A 
ATOM     38  N   UNL A   1      39.277  30.763  31.103  1.00  0.00    -0.248 NA
ATOM     39  C   UNL A   1      37.869  31.154  29.281  1.00  0.00     0.031 C 
ATOM     40  C   UNL A   1      37.275  34.120  33.297  1.00  0.00     0.029 A 
ATOM     41  N   UNL A   1      38.931  32.619  33.372  1.00  0.00    -0.354 N 
ATOM     42  C   UNL A   1      39.563  29.853  30.094  1.00  0.00     0.074 A 
ATOM     43  C   UNL A   1      38.628  30.099  29.019  1.00  0.00     0.031 C 
ATOM     44  C   UNL A   1      37.901  34.269  34.477  1.00  0.00     0.029 A 
ATOM     45  C   UNL A   1      38.969  33.280  34.576  1.00  0.00     0.049 A 
ATOM     46  H   UNL A   1      39.561  31.904  33.129  1.00  0.00     0.167 HD
ATOM     47  C   UNL A   1      40.535  28.911  30.062  1.00  0.00     0.037 A 
ATOM     48  C   UNL A   1      39.768  33.093  35.644  1.00  0.00     0.037 A 
ATOM     49  C   UNL A   1      41.476  28.685  31.126  1.00  0.00     0.049 A 
ATOM     50  C   UNL A   1      40.821  32.017  35.590  1.00  0.00     0.074 A 
ATOM     51  C   UNL A   1      42.511  27.768  31.184  1.00  0.00     0.029 A 
ATOM     52  N   UNL A   1      41.499  29.392  32.319  1.00  0.00    -0.354 N 
ATOM     53  N   UNL A   1      41.106  31.186  34.618  1.00  0.00    -0.248 NA
ATOM     54  C   UNL A   1      41.667  31.859  36.781  1.00  0.00     0.031 C 
ATOM     55  C   UNL A   1      43.140  27.898  32.426  1.00  0.00     0.029 A 
ATOM     56  C   UNL A   1      42.527  28.927  33.122  1.00  0.00     0.049 A 
ATOM     57  H   UNL A   1      40.876  30.116  32.560  1.00  0.00     0.167 HD
ATOM     58  C   UNL A   1      42.187  30.438  35.061  1.00  0.00     0.074 A 
ATOM     59  C   UNL A   1      42.511  30.914  36.388  1.00  0.00     0.031 C 
ATOM     60  C   UNL A   1      42.855  29.445  34.425  1.00  0.00     0.037 A 
BRANCH  47  61
ATOM     61  C   UNL A   1      40.644  28.064  28.828  1.00  0.00     0.064 A 
ATOM     62  C   UNL A   1      39.935  26.860  28.704  1.00  0.00     0.173 A 
ATOM     63  C   UNL A   1      41.420  28.484  27.738  1.00  0.00     0.173 A 
ATOM     64  F   UNL A   1      39.191  26.407  29.725  1.00  0.00    -0.203 F 
ATOM     65  C   UNL A   1      40.014  26.097  27.543  1.00  0.00     0.198 A 
ATOM     66  C   UNL A   1      41.473  27.733  26.566  1.00  0.00     0.198 A 
ATOM     67  F   UNL A   1      42.113  29.631  27.802  1.00  0.00    -0.203 F 
ATOM     68  F   UNL A   1      39.359  24.931  27.463  1.00  0.00    -0.200 F 
ATOM     69  C   UNL A   1      40.775  26.540  26.471  1.00  0.00     0.200 A 
ATOM     70  F   UNL A   1      42.198  28.169  25.526  1.00  0.00    -0.200 F 
ATOM     71  F   UNL A   1      40.838  25.811  25.348  1.00  0.00    -0.200 F 
ENDBRANCH  47  61
BRANCH  48  72
ATOM     72  C   UNL A   1      39.621  33.949  36.851  1.00  0.00     0.064 A 
ATOM     73  C   UNL A   1      38.848  33.523  37.940  1.00  0.00     0.173 A 
ATOM     74  C   UNL A   1      40.220  35.214  36.930  1.00  0.00     0.173 A 
ATOM     75  F   UNL A   1      38.238  32.329  37.904  1.00  0.00    -0.203 F 
ATOM     76  C   UNL A   1      38.655  34.344  39.050  1.00  0.00     0.198 A 
ATOM     77  C   UNL A   1      40.051  36.021  38.053  1.00  0.00     0.198 A 
ATOM     78  F   UNL A   1      40.975  35.664  35.918  1.00  0.00    -0.203 F 
ATOM     79  F   UNL A   1      37.864  33.935  40.053  1.00  0.00    -0.200 F 
ATOM     80  C   UNL A   1      39.259  35.590  39.107  1.00  0.00     0.200 A 
ATOM     81  F   UNL A   1      40.648  37.218  38.111  1.00  0.00    -0.200 F 
ATOM     82  F   UNL A   1      39.069  36.381  40.172  1.00  0.00    -0.200 F 
ENDBRANCH  48  72
BRANCH  60  83
ATOM     83  C   UNL A   1      44.045  28.854  35.121  1.00  0.00     0.064 A 
ATOM     84  C   UNL A   1      45.330  29.392  34.971  1.00  0.00     0.173 A 
ATOM     85  C   UNL A   1      43.881  27.768  35.994  1.00  0.00     0.173 A 
ATOM     86  F   UNL A   1      45.538  30.421  34.136  1.00  0.00    -0.203 F 
ATOM     87  C   UNL A   1      46.413  28.853  35.659  1.00  0.00     0.198 A 
ATOM     88  C   UNL A   1      44.962  27.249  36.701  1.00  0.00     0.198 A 
ATOM     89  F   UNL A   1      42.670  27.222  36.175  1.00  0.00    -0.203 F 
ATOM     90  F   UNL A   1      47.641  29.358  35.473  1.00  0.00    -0.200 F 
ATOM     91  C   UNL A   1      46.227  27.788  36.529  1.00  0.00     0.200 A 
ATOM     92  F   UNL A   1      44.777  26.230  37.551  1.00  0.00    -0.200 F 
ATOM     93  F   UNL A   1      47.270  27.280  37.199  1.00  0.00    -0.200 F 
ENDBRANCH  60  83
ENDBRANCH  34  35
ENDBRANCH  26  29
ENDBRANCH  24  25
ENDBRANCH  23  24
ENDBRANCH   1  23
TORSDOF 14
ENDMDL
MODEL 2
REMARK VINA RESULT:     -12.3      4.302      7.770
REMARK SMILES Cc1cscc1-c1nc(C)c(C(=O)NCCCCCCNC(=O)c2ccc(-c3c4nc(c(-c5c(F)c(F)c(F)c(F)c5F)c5ccc([nH]5)c(-c5c(F)c(F)c(F)c(F)c5F)c5nc(c(-c6c(F)c(F)c(F)c(F)c6F)c6ccc3[nH]6)C=C5)C=C4)cc2)c(C)n1
REMARK SMILES IDX 18 1 17 2 16 3 15 4 14 5 12 6 13 7 11 9 7 10 8 11 89 12 9 13
REMARK SMILES IDX 87 14 10 15 88 16 6 17 1 18 2 19 3 20 4 21 5 22 19 23 20 24
REMARK SMILES IDX 21 25 22 26 23 28 24 29 25 30 86 31 26 32 85 33 27 34 28 35
REMARK SMILES IDX 29 36 79 37 30 38 84 39 78 40 80 41 31 42 83 43 77 44 76 45
REMARK SMILES IDX 32 47 64 48 44 49 63 50 45 51 48 52 62 53 81 54 46 55 47 56
REMARK SMILES IDX 61 58 82 59 49 60 33 61 34 62 42 63 35 64 36 65 40 66 43 67
REMARK SMILES IDX 37 68 38 69 41 70 39 71 65 72 66 73 74 74 67 75 68 76 72 77
REMARK SMILES IDX 75 78 69 79 70 80 73 81 71 82 50 83 51 84 59 85 52 86 53 87
REMARK SMILES IDX 57 88 60 89 54 90 55 91 58 92 56 93
REMARK H PARENT 14 8 21 27 80 46 48 57
REMARK Flexibility Score: inf
ROOT
ATOM      1  C   UNL A   1      34.307  24.079  26.268  1.00  0.00     0.002 C 
ENDROOT
BRANCH   1   2
ATOM      2  C   UNL A   1      34.567  25.189  25.241  1.00  0.00     0.002 C 
BRANCH   2   3
ATOM      3  C   UNL A   1      33.670  26.423  25.395  1.00  0.00     0.021 C 
BRANCH   3   4
ATOM      4  C   UNL A   1      32.331  26.109  26.071  1.00  0.00     0.116 C 
BRANCH   4   5
ATOM      5  N   UNL A   1      31.353  25.690  25.097  1.00  0.00    -0.352 N 
ATOM      6  C   UNL A   1      31.016  24.619  24.328  1.00  0.00     0.254 C 
ATOM      7  O   UNL A   1      30.029  24.892  23.634  1.00  0.00    -0.269 OA
ATOM      8  H   UNL A   1      30.719  26.424  24.933  1.00  0.00     0.163 HD
BRANCH   6   9
ATOM      9  C   UNL A   1      31.623  23.245  24.221  1.00  0.00     0.082 A 
ATOM     10  C   UNL A   1      32.566  20.648  24.277  1.00  0.00     0.160 A 
ATOM     11  N   UNL A   1      32.974  21.457  23.304  1.00  0.00    -0.232 NA
ATOM     12  N   UNL A   1      31.713  20.999  25.231  1.00  0.00    -0.232 NA
ATOM     13  C   UNL A   1      32.485  22.724  23.253  1.00  0.00     0.054 A 
ATOM     14  C   UNL A   1      31.264  22.287  25.208  1.00  0.00     0.054 A 
ATOM     15  C   UNL A   1      33.027  23.390  22.041  1.00  0.00     0.068 C 
ATOM     16  C   UNL A   1      30.345  22.564  26.372  1.00  0.00     0.068 C 
BRANCH  10  17
ATOM     17  C   UNL A   1      33.149  19.321  24.287  1.00  0.00     0.033 A 
ATOM     18  C   UNL A   1      35.564  19.983  24.981  1.00  0.00     0.046 C 
ATOM     19  C   UNL A   1      34.528  18.991  24.560  1.00  0.00    -0.029 A 
ATOM     20  C   UNL A   1      34.759  17.641  24.378  1.00  0.00     0.069 A 
ATOM     21  S   UNL A   1      33.354  16.784  23.919  1.00  0.00    -0.151 S 
ATOM     22  C   UNL A   1      32.407  18.207  23.948  1.00  0.00     0.077 A 
ENDBRANCH  10  17
ENDBRANCH   6   9
ENDBRANCH   4   5
ENDBRANCH   3   4
ENDBRANCH   2   3
ENDBRANCH   1   2
BRANCH   1  23
ATOM     23  C   UNL A   1      35.476  23.117  26.486  1.00  0.00     0.021 C 
BRANCH  23  24
ATOM     24  C   UNL A   1      36.763  23.531  25.781  1.00  0.00     0.116 C 
BRANCH  24  25
ATOM     25  N   UNL A   1      37.839  22.585  26.037  1.00  0.00    -0.352 N 
ATOM     26  C   UNL A   1      39.124  22.823  26.442  1.00  0.00     0.251 C 
ATOM     27  H   UNL A   1      37.608  21.638  25.899  1.00  0.00     0.163 HD
ATOM     28  O   UNL A   1      39.973  21.935  26.365  1.00  0.00    -0.269 OA
BRANCH  26  29
ATOM     29  C   UNL A   1      39.491  24.148  26.972  1.00  0.00     0.039 A 
ATOM     30  C   UNL A   1      39.237  24.439  28.314  1.00  0.00     0.014 A 
ATOM     31  C   UNL A   1      40.062  25.111  26.134  1.00  0.00     0.014 A 
ATOM     32  C   UNL A   1      39.600  25.684  28.831  1.00  0.00     0.010 A 
ATOM     33  C   UNL A   1      40.483  26.325  26.664  1.00  0.00     0.010 A 
ATOM     34  C   UNL A   1      40.248  26.625  28.015  1.00  0.00    -0.014 A 
BRANCH  34  35
ATOM     35  C   UNL A   1      40.671  27.945  28.540  1.00  0.00     0.031 A 
ATOM     36  C   UNL A   1      42.112  28.175  28.899  1.00  0.00     0.074 A 
ATOM     37  C   UNL A   1      39.750  28.904  28.757  1.00  0.00     0.049 A 
ATOM     38  N   UNL A   1      42.665  29.205  29.489  1.00  0.00    -0.248 NA
ATOM     39  C   UNL A   1      43.054  27.092  28.572  1.00  0.00     0.031 C 
ATOM     40  C   UNL A   1      38.321  28.786  28.467  1.00  0.00     0.029 A 
ATOM     41  N   UNL A   1      39.880  30.163  29.287  1.00  0.00    -0.354 N 
ATOM     42  C   UNL A   1      44.011  28.888  29.613  1.00  0.00     0.074 A 
ATOM     43  C   UNL A   1      44.186  27.552  29.086  1.00  0.00     0.031 C 
ATOM     44  C   UNL A   1      37.707  29.931  28.810  1.00  0.00     0.029 A 
ATOM     45  C   UNL A   1      38.691  30.843  29.384  1.00  0.00     0.049 A 
ATOM     46  H   UNL A   1      40.743  30.541  29.571  1.00  0.00     0.167 HD
ATOM     47  C   UNL A   1      45.014  29.654  30.103  1.00  0.00     0.037 A 
ATOM     48  C   UNL A   1      38.427  32.061  29.894  1.00  0.00     0.037 A 
ATOM     49  C   UNL A   1      44.838  30.990  30.606  1.00  0.00     0.049 A 
ATOM     50  C   UNL A   1      39.559  32.878  30.459  1.00  0.00     0.074 A 
ATOM     51  C   UNL A   1      45.793  31.857  31.108  1.00  0.00     0.029 A 
ATOM     52  N   UNL A   1      43.622  31.655  30.664  1.00  0.00    -0.354 N 
ATOM     53  N   UNL A   1      40.833  32.584  30.539  1.00  0.00    -0.248 NA
ATOM     54  C   UNL A   1      39.215  34.201  31.000  1.00  0.00     0.031 C 
ATOM     55  C   UNL A   1      45.149  33.035  31.499  1.00  0.00     0.029 A 
ATOM     56  C   UNL A   1      43.802  32.919  31.198  1.00  0.00     0.049 A 
ATOM     57  H   UNL A   1      42.759  31.283  30.369  1.00  0.00     0.167 HD
ATOM     58  C   UNL A   1      41.448  33.696  31.097  1.00  0.00     0.074 A 
ATOM     59  C   UNL A   1      40.408  34.675  31.333  1.00  0.00     0.031 C 
ATOM     60  C   UNL A   1      42.756  33.892  31.387  1.00  0.00     0.037 A 
BRANCH  47  61
ATOM     61  C   UNL A   1      46.398  29.074  30.103  1.00  0.00     0.064 A 
ATOM     62  C   UNL A   1      46.886  28.349  31.200  1.00  0.00     0.173 A 
ATOM     63  C   UNL A   1      47.225  29.197  28.977  1.00  0.00     0.173 A 
ATOM     64  F   UNL A   1      46.139  28.215  32.307  1.00  0.00    -0.203 F 
ATOM     65  C   UNL A   1      48.157  27.784  31.178  1.00  0.00     0.198 A 
ATOM     66  C   UNL A   1      48.486  28.605  28.947  1.00  0.00     0.198 A 
ATOM     67  F   UNL A   1      46.805  29.876  27.899  1.00  0.00    -0.203 F 
ATOM     68  F   UNL A   1      48.617  27.129  32.253  1.00  0.00    -0.200 F 
ATOM     69  C   UNL A   1      48.953  27.904  30.048  1.00  0.00     0.200 A 
ATOM     70  F   UNL A   1      49.248  28.711  27.850  1.00  0.00    -0.200 F 
ATOM     71  F   UNL A   1      50.171  27.348  30.023  1.00  0.00    -0.200 F 
ENDBRANCH  47  61
BRANCH  48  72
ATOM     72  C   UNL A   1      37.039  32.595  29.883  1.00  0.00     0.064 A 
ATOM     73  C   UNL A   1      36.560  33.320  28.783  1.00  0.00     0.173 A 
ATOM     74  C   UNL A   1      36.177  32.420  30.975  1.00  0.00     0.173 A 
ATOM     75  F   UNL A   1      37.353  33.531  27.722  1.00  0.00    -0.203 F 
ATOM     76  C   UNL A   1      35.282  33.877  28.789  1.00  0.00     0.198 A 
ATOM     77  C   UNL A   1      34.889  32.951  30.967  1.00  0.00     0.198 A 
ATOM     78  F   UNL A   1      36.586  31.729  32.049  1.00  0.00    -0.203 F 
ATOM     79  F   UNL A   1      34.870  34.615  27.748  1.00  0.00    -0.200 F 
ATOM     80  C   UNL A   1      34.447  33.689  29.879  1.00  0.00     0.200 A 
ATOM     81  F   UNL A   1      34.080  32.756  32.017  1.00  0.00    -0.200 F 
ATOM     82  F   UNL A   1      33.220  34.228  29.888  1.00  0.00    -0.200 F 
ENDBRANCH  48  72
BRANCH  60  83
ATOM     83  C   UNL A   1      43.154  35.235  31.923  1.00  0.00     0.064 A 
ATOM     84  C   UNL A   1      43.627  36.254  31.086  1.00  0.00     0.173 A 
ATOM     85  C   UNL A   1      43.003  35.519  33.290  1.00  0.00     0.173 A 
ATOM     86  F   UNL A   1      43.802  36.024  29.776  1.00  0.00    -0.203 F 
ATOM     87  C   UNL A   1      43.952  37.506  31.601  1.00  0.00     0.198 A 
ATOM     88  C   UNL A   1      43.302  36.780  33.795  1.00  0.00     0.198 A 
ATOM     89  F   UNL A   1      42.548  34.577  34.130  1.00  0.00    -0.203 F 
ATOM     90  F   UNL A   1      44.439  38.455  30.789  1.00  0.00    -0.200 F 
ATOM     91  C   UNL A   1      43.780  37.770  32.952  1.00  0.00     0.200 A 
ATOM     92  F   UNL A   1      43.123  37.037  35.098  1.00  0.00    -0.200 F 
ATOM     93  F   UNL A   1      44.082  38.981  33.441  1.00  0.00    -0.200 F 
ENDBRANCH  60  83
ENDBRANCH  34  35
ENDBRANCH  26  29
ENDBRANCH  24  25
ENDBRANCH  23  24
ENDBRANCH   1  23
TORSDOF 14
ENDMDL
MODEL 3
REMARK VINA RESULT:     -12.3      2.476      4.318
REMARK SMILES Cc1cscc1-c1nc(C)c(C(=O)NCCCCCCNC(=O)c2ccc(-c3c4nc(c(-c5c(F)c(F)c(F)c(F)c5F)c5ccc([nH]5)c(-c5c(F)c(F)c(F)c(F)c5F)c5nc(c(-c6c(F)c(F)c(F)c(F)c6F)c6ccc3[nH]6)C=C5)C=C4)cc2)c(C)n1
REMARK SMILES IDX 18 1 17 2 16 3 15 4 14 5 12 6 13 7 11 9 7 10 8 11 89 12 9 13
REMARK SMILES IDX 87 14 10 15 88 16 6 17 1 18 2 19 3 20 4 21 5 22 19 23 20 24
REMARK SMILES IDX 21 25 22 26 23 28 24 29 25 30 86 31 26 32 85 33 27 34 28 35
REMARK SMILES IDX 29 36 79 37 30 38 84 39 78 40 80 41 31 42 83 43 77 44 76 45
REMARK SMILES IDX 32 47 64 48 44 49 63 50 45 51 48 52 62 53 81 54 46 55 47 56
REMARK SMILES IDX 61 58 82 59 49 60 33 61 34 62 42 63 35 64 36 65 40 66 43 67
REMARK SMILES IDX 37 68 38 69 41 70 39 71 65 72 66 73 74 74 67 75 68 76 72 77
REMARK SMILES IDX 75 78 69 79 70 80 73 81 71 82 50 83 51 84 59 85 52 86 53 87
REMARK SMILES IDX 57 88 60 89 54 90 55 91 58 92 56 93
REMARK H PARENT 14 8 21 27 80 46 48 57
REMARK Flexibility Score: inf
ROOT
ATOM      1  C   UNL A   1      33.169  26.664  26.125  1.00  0.00     0.002 C 
ENDROOT
BRANCH   1   2
ATOM      2  C   UNL A   1      34.087  26.357  24.934  1.00  0.00     0.002 C 
BRANCH   2   3
ATOM      3  C   UNL A   1      34.585  24.909  24.871  1.00  0.00     0.021 C 
BRANCH   3   4
ATOM      4  C   UNL A   1      33.625  23.916  25.536  1.00  0.00     0.116 C 
BRANCH   4   5
ATOM      5  N   UNL A   1      32.719  23.353  24.565  1.00  0.00    -0.352 N 
ATOM      6  C   UNL A   1      31.737  23.719  23.696  1.00  0.00     0.254 C 
ATOM      7  O   UNL A   1      31.292  22.720  23.119  1.00  0.00    -0.269 OA
ATOM      8  H   UNL A   1      32.856  22.381  24.514  1.00  0.00     0.163 HD
BRANCH   6   9
ATOM      9  C   UNL A   1      31.169  25.072  23.355  1.00  0.00     0.082 A 
ATOM     10  C   UNL A   1      29.983  27.543  23.008  1.00  0.00     0.160 A 
ATOM     11  N   UNL A   1      30.800  27.086  22.064  1.00  0.00    -0.232 NA
ATOM     12  N   UNL A   1      29.704  26.894  24.131  1.00  0.00    -0.232 NA
ATOM     13  C   UNL A   1      31.413  25.887  22.248  1.00  0.00     0.054 A 
ATOM     14  C   UNL A   1      30.278  25.667  24.289  1.00  0.00     0.054 A 
ATOM     15  C   UNL A   1      32.324  25.643  21.100  1.00  0.00     0.068 C 
ATOM     16  C   UNL A   1      29.838  25.021  25.579  1.00  0.00     0.068 C 
BRANCH  10  17
ATOM     17  C   UNL A   1      29.343  28.814  22.734  1.00  0.00     0.033 A 
ATOM     18  C   UNL A   1      26.929  28.176  23.457  1.00  0.00     0.046 C 
ATOM     19  C   UNL A   1      27.939  29.119  22.886  1.00  0.00    -0.029 A 
ATOM     20  C   UNL A   1      27.658  30.393  22.432  1.00  0.00     0.069 A 
ATOM     21  S   UNL A   1      29.043  31.216  21.864  1.00  0.00    -0.151 S 
ATOM     22  C   UNL A   1      30.049  29.878  22.209  1.00  0.00     0.077 A 
ENDBRANCH  10  17
ENDBRANCH   6   9
ENDBRANCH   4   5
ENDBRANCH   3   4
ENDBRANCH   2   3
ENDBRANCH   1   2
BRANCH   1  23
ATOM     23  C   UNL A   1      32.548  28.063  26.114  1.00  0.00     0.021 C 
BRANCH  23  24
ATOM     24  C   UNL A   1      33.465  29.147  25.560  1.00  0.00     0.116 C 
BRANCH  24  25
ATOM     25  N   UNL A   1      32.986  30.478  25.904  1.00  0.00    -0.352 N 
ATOM     26  C   UNL A   1      33.372  31.300  26.927  1.00  0.00     0.251 C 
ATOM     27  H   UNL A   1      32.284  30.837  25.315  1.00  0.00     0.163 HD
ATOM     28  O   UNL A   1      32.691  32.280  27.226  1.00  0.00    -0.269 OA
BRANCH  26  29
ATOM     29  C   UNL A   1      34.610  31.009  27.672  1.00  0.00     0.039 A 
ATOM     30  C   UNL A   1      35.551  32.025  27.853  1.00  0.00     0.014 A 
ATOM     31  C   UNL A   1      34.850  29.724  28.168  1.00  0.00     0.014 A 
ATOM     32  C   UNL A   1      36.717  31.765  28.575  1.00  0.00     0.010 A 
ATOM     33  C   UNL A   1      35.979  29.483  28.943  1.00  0.00     0.010 A 
ATOM     34  C   UNL A   1      36.926  30.499  29.146  1.00  0.00    -0.014 A 
BRANCH  34  35
ATOM     35  C   UNL A   1      38.140  30.198  29.942  1.00  0.00     0.031 A 
ATOM     36  C   UNL A   1      39.179  29.263  29.388  1.00  0.00     0.074 A 
ATOM     37  C   UNL A   1      38.270  30.709  31.181  1.00  0.00     0.049 A 
ATOM     38  N   UNL A   1      40.243  28.770  29.968  1.00  0.00    -0.248 NA
ATOM     39  C   UNL A   1      38.980  28.802  28.004  1.00  0.00     0.031 C 
ATOM     40  C   UNL A   1      37.317  31.609  31.830  1.00  0.00     0.029 A 
ATOM     41  N   UNL A   1      39.253  30.529  32.123  1.00  0.00    -0.354 N 
ATOM     42  C   UNL A   1      40.831  27.936  29.027  1.00  0.00     0.074 A 
ATOM     43  C   UNL A   1      39.981  27.946  27.857  1.00  0.00     0.031 C 
ATOM     44  C   UNL A   1      37.767  31.914  33.059  1.00  0.00     0.029 A 
ATOM     45  C   UNL A   1      39.015  31.197  33.299  1.00  0.00     0.049 A 
ATOM     46  H   UNL A   1      40.050  29.974  31.969  1.00  0.00     0.167 HD
ATOM     47  C   UNL A   1      41.990  27.242  29.124  1.00  0.00     0.037 A 
ATOM     48  C   UNL A   1      39.720  31.213  34.446  1.00  0.00     0.037 A 
ATOM     49  C   UNL A   1      42.842  27.252  30.283  1.00  0.00     0.049 A 
ATOM     50  C   UNL A   1      40.990  30.407  34.535  1.00  0.00     0.074 A 
ATOM     51  C   UNL A   1      44.046  26.598  30.476  1.00  0.00     0.029 A 
ATOM     52  N   UNL A   1      42.580  27.962  31.446  1.00  0.00    -0.354 N 
ATOM     53  N   UNL A   1      41.555  29.650  33.627  1.00  0.00    -0.248 NA
ATOM     54  C   UNL A   1      41.722  30.463  35.808  1.00  0.00     0.031 C 
ATOM     55  C   UNL A   1      44.497  26.885  31.767  1.00  0.00     0.029 A 
ATOM     56  C   UNL A   1      43.598  27.756  32.361  1.00  0.00     0.049 A 
ATOM     57  H   UNL A   1      41.788  28.527  31.598  1.00  0.00     0.167 HD
ATOM     58  C   UNL A   1      42.726  29.175  34.201  1.00  0.00     0.074 A 
ATOM     59  C   UNL A   1      42.794  29.732  35.535  1.00  0.00     0.031 C 
ATOM     60  C   UNL A   1      43.664  28.353  33.671  1.00  0.00     0.037 A 
BRANCH  47  61
ATOM     61  C   UNL A   1      42.415  26.425  27.940  1.00  0.00     0.064 A 
ATOM     62  C   UNL A   1      41.928  25.125  27.736  1.00  0.00     0.173 A 
ATOM     63  C   UNL A   1      43.273  26.964  26.970  1.00  0.00     0.173 A 
ATOM     64  F   UNL A   1      41.115  24.559  28.642  1.00  0.00    -0.203 F 
ATOM     65  C   UNL A   1      42.299  24.387  26.616  1.00  0.00     0.198 A 
ATOM     66  C   UNL A   1      43.619  26.234  25.836  1.00  0.00     0.198 A 
ATOM     67  F   UNL A   1      43.763  28.204  27.114  1.00  0.00    -0.203 F 
ATOM     68  F   UNL A   1      41.852  23.133  26.463  1.00  0.00    -0.200 F 
ATOM     69  C   UNL A   1      43.137  24.946  25.662  1.00  0.00     0.200 A 
ATOM     70  F   UNL A   1      44.418  26.779  24.908  1.00  0.00    -0.200 F 
ATOM     71  F   UNL A   1      43.483  24.239  24.577  1.00  0.00    -0.200 F 
ENDBRANCH  47  61
BRANCH  48  72
ATOM     72  C   UNL A   1      39.259  32.029  35.600  1.00  0.00     0.064 A 
ATOM     73  C   UNL A   1      39.696  33.351  35.763  1.00  0.00     0.173 A 
ATOM     74  C   UNL A   1      38.402  31.500  36.575  1.00  0.00     0.173 A 
ATOM     75  F   UNL A   1      40.533  33.895  34.867  1.00  0.00    -0.203 F 
ATOM     76  C   UNL A   1      39.318  34.103  36.873  1.00  0.00     0.198 A 
ATOM     77  C   UNL A   1      38.000  32.263  37.670  1.00  0.00     0.198 A 
ATOM     78  F   UNL A   1      37.950  30.243  36.463  1.00  0.00    -0.203 F 
ATOM     79  F   UNL A   1      39.797  35.345  37.033  1.00  0.00    -0.200 F 
ATOM     80  C   UNL A   1      38.468  33.560  37.824  1.00  0.00     0.200 A 
ATOM     81  F   UNL A   1      37.167  31.740  38.579  1.00  0.00    -0.200 F 
ATOM     82  F   UNL A   1      38.108  34.281  38.895  1.00  0.00    -0.200 F 
ENDBRANCH  48  72
BRANCH  60  83
ATOM     83  C   UNL A   1      44.878  28.061  34.500  1.00  0.00     0.064 A 
ATOM     84  C   UNL A   1      44.951  26.936  35.332  1.00  0.00     0.173 A 
ATOM     85  C   UNL A   1      46.005  28.893  34.415  1.00  0.00     0.173 A 
ATOM     86  F   UNL A   1      43.894  26.119  35.457  1.00  0.00    -0.203 F 
ATOM     87  C   UNL A   1      46.105  26.662  36.062  1.00  0.00     0.198 A 
ATOM     88  C   UNL A   1      47.165  28.601  35.124  1.00  0.00     0.198 A 
ATOM     89  F   UNL A   1      45.985  29.980  33.628  1.00  0.00    -0.203 F 
ATOM     90  F   UNL A   1      46.141  25.601  36.880  1.00  0.00    -0.200 F 
ATOM     91  C   UNL A   1      47.213  27.490  35.950  1.00  0.00     0.200 A 
ATOM     92  F   UNL A   1      48.239  29.394  35.005  1.00  0.00    -0.200 F 
ATOM     93  F   UNL A   1      48.326  27.216  36.645  1.00  0.00    -0.200 F 
ENDBRANCH  60  83
ENDBRANCH  34  35
ENDBRANCH  26  29
ENDBRANCH  24  25
ENDBRANCH  23  24
ENDBRANCH   1  23
TORSDOF 14
ENDMDL
