MODEL 1
REMARK VINA RESULT:     -12.4      0.000      0.000
REMARK SMILES Cc1cccc([C@H]([NH3+])[C@H](O)C(=O)NCCCCCCNC(=O)c2ccc(-c3c4nc(c(-c5c(F)c(F)c(F)c(F)c5F)c5ccc([nH]5)c(-c5c(F)c(F)c(F)c(F)c5F)c5nc(c(-c6c(F)c(F)c(F)c(F)c6F)c6ccc3[nH]6)C=C5)C=C4)cc2)c1
REMARK SMILES IDX 16 1 15 2 14 3 13 4 11 5 12 6 9 8 7 9 6 10 1 11 2 12 3 13
REMARK SMILES IDX 86 14 4 15 5 16 8 17 10 21 17 23 18 24 19 25 20 26 21 27
REMARK SMILES IDX 22 29 23 30 24 31 85 32 25 33 84 34 26 35 27 36 28 37 78 38
REMARK SMILES IDX 29 39 83 40 77 41 79 42 30 43 82 44 76 45 75 46 31 48 63 49
REMARK SMILES IDX 43 50 62 51 44 52 47 53 61 54 80 55 45 56 46 57 60 59 81 60
REMARK SMILES IDX 48 61 32 62 33 63 41 64 34 65 35 66 39 67 42 68 36 69 37 70
REMARK SMILES IDX 40 71 38 72 64 73 65 74 73 75 66 76 67 77 71 78 74 79 68 80
REMARK SMILES IDX 69 81 72 82 70 83 49 84 50 85 58 86 51 87 52 88 56 89 59 90
REMARK SMILES IDX 53 91 54 92 57 93 55 94
REMARK H PARENT 13 7 8 18 8 19 8 20 10 22 20 28 79 47 47 58
REMARK Flexibility Score: inf
ROOT
ATOM      1  C   UNL A   1      37.026  22.358  24.008  1.00  0.00     0.002 C 
ENDROOT
BRANCH   1   2
ATOM      2  C   UNL A   1      35.589  22.894  24.042  1.00  0.00     0.021 C 
BRANCH   2   3
ATOM      3  C   UNL A   1      35.329  24.027  25.030  1.00  0.00     0.116 C 
BRANCH   3   4
ATOM      4  N   UNL A   1      34.013  24.002  25.615  1.00  0.00    -0.354 N 
ATOM      5  C   UNL A   1      33.379  23.018  26.301  1.00  0.00     0.255 C 
ATOM      6  O   UNL A   1      32.287  23.316  26.806  1.00  0.00    -0.272 OA
ATOM      7  H   UNL A   1      33.491  24.830  25.497  1.00  0.00     0.163 HD
BRANCH   5   8
ATOM      8  C   UNL A   1      33.874  21.551  26.391  1.00  0.00     0.266 C 
BRANCH   8   9
ATOM      9  C   UNL A   1      32.879  20.429  25.903  1.00  0.00     0.250 C 
BRANCH   9  10
ATOM     10  C   UNL A   1      33.378  19.078  25.360  1.00  0.00     0.013 A 
ATOM     11  C   UNL A   1      32.304  15.407  25.712  1.00  0.00     0.044 C 
ATOM     12  C   UNL A   1      33.080  16.629  25.320  1.00  0.00    -0.051 A 
ATOM     13  C   UNL A   1      34.223  16.501  24.529  1.00  0.00     0.003 A 
ATOM     14  C   UNL A   1      32.680  17.909  25.739  1.00  0.00     0.013 A 
ATOM     15  C   UNL A   1      34.927  17.635  24.136  1.00  0.00     0.001 A 
ATOM     16  C   UNL A   1      34.499  18.906  24.534  1.00  0.00     0.010 A 
ENDBRANCH   9  10
BRANCH   9  17
ATOM     17  N   UNL A   1      31.943  20.987  24.891  1.00  0.00    -0.349 N 
ATOM     18  H   UNL A   1      32.454  21.601  24.257  1.00  0.00     0.345 HD
ATOM     19  H   UNL A   1      31.210  21.519  25.362  1.00  0.00     0.345 HD
ATOM     20  H   UNL A   1      31.521  20.225  24.360  1.00  0.00     0.345 HD
ENDBRANCH   9  17
ENDBRANCH   8   9
BRANCH   8  21
ATOM     21  O   UNL A   1      34.543  21.295  27.620  1.00  0.00    -0.378 OA
ATOM     22  H   UNL A   1      35.211  20.603  27.488  1.00  0.00     0.211 HD
ENDBRANCH   8  21
ENDBRANCH   5   8
ENDBRANCH   3   4
ENDBRANCH   2   3
ENDBRANCH   1   2
BRANCH   1  23
ATOM     23  C   UNL A   1      37.361  21.206  24.970  1.00  0.00     0.002 C 
BRANCH  23  24
ATOM     24  C   UNL A   1      38.697  21.299  25.715  1.00  0.00     0.021 C 
BRANCH  24  25
ATOM     25  C   UNL A   1      39.076  22.705  26.157  1.00  0.00     0.116 C 
BRANCH  25  26
ATOM     26  N   UNL A   1      40.513  22.910  26.309  1.00  0.00    -0.352 N 
ATOM     27  C   UNL A   1      41.195  24.078  26.603  1.00  0.00     0.251 C 
ATOM     28  H   UNL A   1      41.072  22.108  26.185  1.00  0.00     0.163 HD
ATOM     29  O   UNL A   1      42.411  24.094  26.684  1.00  0.00    -0.269 OA
BRANCH  27  30
ATOM     30  C   UNL A   1      40.405  25.285  26.941  1.00  0.00     0.039 A 
ATOM     31  C   UNL A   1      40.765  26.490  26.332  1.00  0.00     0.014 A 
ATOM     32  C   UNL A   1      39.504  25.265  28.003  1.00  0.00     0.014 A 
ATOM     33  C   UNL A   1      40.422  27.690  26.952  1.00  0.00     0.010 A 
ATOM     34  C   UNL A   1      39.234  26.448  28.666  1.00  0.00     0.010 A 
ATOM     35  C   UNL A   1      39.760  27.651  28.182  1.00  0.00    -0.014 A 
BRANCH  35  36
ATOM     36  C   UNL A   1      39.735  28.789  29.095  1.00  0.00     0.031 A 
ATOM     37  C   UNL A   1      38.704  29.840  28.997  1.00  0.00     0.074 A 
ATOM     38  C   UNL A   1      40.655  28.869  30.084  1.00  0.00     0.049 A 
ATOM     39  N   UNL A   1      38.892  31.056  29.393  1.00  0.00    -0.248 NA
ATOM     40  C   UNL A   1      37.382  29.613  28.427  1.00  0.00     0.031 C 
ATOM     41  C   UNL A   1      40.665  29.802  31.210  1.00  0.00     0.029 A 
ATOM     42  N   UNL A   1      41.910  28.237  30.147  1.00  0.00    -0.354 N 
ATOM     43  C   UNL A   1      37.678  31.692  29.372  1.00  0.00     0.074 A 
ATOM     44  C   UNL A   1      36.777  30.773  28.712  1.00  0.00     0.031 C 
ATOM     45  C   UNL A   1      41.926  29.932  31.648  1.00  0.00     0.029 A 
ATOM     46  C   UNL A   1      42.779  29.179  30.747  1.00  0.00     0.049 A 
ATOM     47  H   UNL A   1      42.136  27.330  29.837  1.00  0.00     0.167 HD
ATOM     48  C   UNL A   1      37.523  32.883  30.014  1.00  0.00     0.037 A 
ATOM     49  C   UNL A   1      43.854  29.676  30.071  1.00  0.00     0.037 A 
ATOM     50  C   UNL A   1      38.752  33.351  30.643  1.00  0.00     0.049 A 
ATOM     51  C   UNL A   1      43.836  31.175  29.854  1.00  0.00     0.074 A 
ATOM     52  C   UNL A   1      39.248  33.337  31.936  1.00  0.00     0.029 A 
ATOM     53  N   UNL A   1      39.821  33.685  29.833  1.00  0.00    -0.354 N 
ATOM     54  N   UNL A   1      42.871  31.965  30.233  1.00  0.00    -0.248 NA
ATOM     55  C   UNL A   1      44.864  31.883  29.089  1.00  0.00     0.031 C 
ATOM     56  C   UNL A   1      40.626  33.692  31.892  1.00  0.00     0.029 A 
ATOM     57  C   UNL A   1      40.965  33.915  30.572  1.00  0.00     0.049 A 
ATOM     58  H   UNL A   1      39.773  33.751  28.852  1.00  0.00     0.167 HD
ATOM     59  C   UNL A   1      43.089  33.219  29.726  1.00  0.00     0.074 A 
ATOM     60  C   UNL A   1      44.352  33.122  29.022  1.00  0.00     0.031 C 
ATOM     61  C   UNL A   1      42.194  34.238  29.873  1.00  0.00     0.037 A 
BRANCH  48  62
ATOM     62  C   UNL A   1      36.173  33.506  30.228  1.00  0.00     0.064 A 
ATOM     63  C   UNL A   1      35.437  34.043  29.154  1.00  0.00     0.173 A 
ATOM     64  C   UNL A   1      35.574  33.624  31.495  1.00  0.00     0.173 A 
ATOM     65  F   UNL A   1      35.865  33.937  27.890  1.00  0.00    -0.203 F 
ATOM     66  C   UNL A   1      34.241  34.736  29.347  1.00  0.00     0.198 A 
ATOM     67  C   UNL A   1      34.407  34.365  31.695  1.00  0.00     0.198 A 
ATOM     68  F   UNL A   1      36.105  33.016  32.566  1.00  0.00    -0.203 F 
ATOM     69  F   UNL A   1      33.584  35.237  28.292  1.00  0.00    -0.200 F 
ATOM     70  C   UNL A   1      33.745  34.929  30.622  1.00  0.00     0.200 A 
ATOM     71  F   UNL A   1      33.934  34.540  32.938  1.00  0.00    -0.200 F 
ATOM     72  F   UNL A   1      32.630  35.647  30.812  1.00  0.00    -0.200 F 
ENDBRANCH  48  62
BRANCH  49  73
ATOM     73  C   UNL A   1      44.455  28.686  29.141  1.00  0.00     0.064 A 
ATOM     74  C   UNL A   1      45.250  27.655  29.680  1.00  0.00     0.173 A 
ATOM     75  C   UNL A   1      43.988  28.526  27.832  1.00  0.00     0.173 A 
ATOM     76  F   UNL A   1      45.720  27.757  30.934  1.00  0.00    -0.203 F 
ATOM     77  C   UNL A   1      45.471  26.471  28.983  1.00  0.00     0.198 A 
ATOM     78  C   UNL A   1      44.227  27.345  27.130  1.00  0.00     0.198 A 
ATOM     79  F   UNL A   1      43.207  29.460  27.271  1.00  0.00    -0.203 F 
ATOM     80  F   UNL A   1      46.134  25.464  29.569  1.00  0.00    -0.200 F 
ATOM     81  C   UNL A   1      44.937  26.307  27.717  1.00  0.00     0.200 A 
ATOM     82  F   UNL A   1      43.691  27.178  25.912  1.00  0.00    -0.200 F 
ATOM     83  F   UNL A   1      45.072  25.137  27.077  1.00  0.00    -0.200 F 
ENDBRANCH  49  73
BRANCH  61  84
ATOM     84  C   UNL A   1      42.409  35.630  29.351  1.00  0.00     0.064 A 
ATOM     85  C   UNL A   1      41.864  36.069  28.135  1.00  0.00     0.173 A 
ATOM     86  C   UNL A   1      43.281  36.529  30.001  1.00  0.00     0.173 A 
ATOM     87  F   UNL A   1      41.078  35.264  27.405  1.00  0.00    -0.203 F 
ATOM     88  C   UNL A   1      42.135  37.342  27.628  1.00  0.00     0.198 A 
ATOM     89  C   UNL A   1      43.590  37.779  29.468  1.00  0.00     0.198 A 
ATOM     90  F   UNL A   1      43.840  36.232  31.184  1.00  0.00    -0.203 F 
ATOM     91  F   UNL A   1      41.552  37.742  26.489  1.00  0.00    -0.200 F 
ATOM     92  C   UNL A   1      43.007  38.191  28.288  1.00  0.00     0.200 A 
ATOM     93  F   UNL A   1      44.455  38.579  30.109  1.00  0.00    -0.200 F 
ATOM     94  F   UNL A   1      43.282  39.403  27.789  1.00  0.00    -0.200 F 
ENDBRANCH  61  84
ENDBRANCH  35  36
ENDBRANCH  27  30
ENDBRANCH  25  26
ENDBRANCH  24  25
ENDBRANCH  23  24
ENDBRANCH   1  23
TORSDOF 17
ENDMDL
MODEL 2
REMARK VINA RESULT:     -12.2      3.561      9.990
REMARK SMILES Cc1cccc([C@H]([NH3+])[C@H](O)C(=O)NCCCCCCNC(=O)c2ccc(-c3c4nc(c(-c5c(F)c(F)c(F)c(F)c5F)c5ccc([nH]5)c(-c5c(F)c(F)c(F)c(F)c5F)c5nc(c(-c6c(F)c(F)c(F)c(F)c6F)c6ccc3[nH]6)C=C5)C=C4)cc2)c1
REMARK SMILES IDX 16 1 15 2 14 3 13 4 11 5 12 6 9 8 7 9 6 10 1 11 2 12 3 13
REMARK SMILES IDX 86 14 4 15 5 16 8 17 10 21 17 23 18 24 19 25 20 26 21 27
REMARK SMILES IDX 22 29 23 30 24 31 85 32 25 33 84 34 26 35 27 36 28 37 78 38
REMARK SMILES IDX 29 39 83 40 77 41 79 42 30 43 82 44 76 45 75 46 31 48 63 49
REMARK SMILES IDX 43 50 62 51 44 52 47 53 61 54 80 55 45 56 46 57 60 59 81 60
REMARK SMILES IDX 48 61 32 62 33 63 41 64 34 65 35 66 39 67 42 68 36 69 37 70
REMARK SMILES IDX 40 71 38 72 64 73 65 74 73 75 66 76 67 77 71 78 74 79 68 80
REMARK SMILES IDX 69 81 72 82 70 83 49 84 50 85 58 86 51 87 52 88 56 89 59 90
REMARK SMILES IDX 53 91 54 92 57 93 55 94
REMARK H PARENT 13 7 8 18 8 19 8 20 10 22 20 28 79 47 47 58
REMARK Flexibility Score: inf
ROOT
ATOM      1  C   UNL A   1      34.133  28.638  26.044  1.00  0.00     0.002 C 
ENDROOT
BRANCH   1   2
ATOM      2  C   UNL A   1      33.547  27.346  25.461  1.00  0.00     0.021 C 
BRANCH   2   3
ATOM      3  C   UNL A   1      32.036  27.340  25.252  1.00  0.00     0.116 C 
BRANCH   3   4
ATOM      4  N   UNL A   1      31.562  26.249  24.440  1.00  0.00    -0.354 N 
ATOM      5  C   UNL A   1      30.812  25.170  24.778  1.00  0.00     0.255 C 
ATOM      6  O   UNL A   1      30.438  24.447  23.844  1.00  0.00    -0.272 OA
ATOM      7  H   UNL A   1      31.824  26.293  23.491  1.00  0.00     0.163 HD
BRANCH   5   8
ATOM      8  C   UNL A   1      30.499  24.739  26.235  1.00  0.00     0.266 C 
BRANCH   8   9
ATOM      9  C   UNL A   1      31.071  23.347  26.706  1.00  0.00     0.250 C 
BRANCH   9  10
ATOM     10  C   UNL A   1      32.498  22.890  26.350  1.00  0.00     0.013 A 
ATOM     11  C   UNL A   1      34.070  19.744  24.808  1.00  0.00     0.044 C 
ATOM     12  C   UNL A   1      33.926  21.094  25.445  1.00  0.00    -0.051 A 
ATOM     13  C   UNL A   1      35.063  21.854  25.725  1.00  0.00     0.003 A 
ATOM     14  C   UNL A   1      32.662  21.609  25.774  1.00  0.00     0.013 A 
ATOM     15  C   UNL A   1      34.931  23.119  26.286  1.00  0.00     0.001 A 
ATOM     16  C   UNL A   1      33.663  23.635  26.579  1.00  0.00     0.010 A 
ENDBRANCH   9  10
BRANCH   9  17
ATOM     17  N   UNL A   1      30.148  22.254  26.296  1.00  0.00    -0.349 N 
ATOM     18  H   UNL A   1      29.696  22.503  25.416  1.00  0.00     0.345 HD
ATOM     19  H   UNL A   1      29.438  22.120  27.017  1.00  0.00     0.345 HD
ATOM     20  H   UNL A   1      30.676  21.390  26.174  1.00  0.00     0.345 HD
ENDBRANCH   9  17
ENDBRANCH   8   9
BRANCH   8  21
ATOM     21  O   UNL A   1      29.145  25.004  26.584  1.00  0.00    -0.378 OA
ATOM     22  H   UNL A   1      28.658  25.291  25.795  1.00  0.00     0.211 HD
ENDBRANCH   8  21
ENDBRANCH   5   8
ENDBRANCH   3   4
ENDBRANCH   2   3
ENDBRANCH   1   2
BRANCH   1  23
ATOM     23  C   UNL A   1      33.541  29.132  27.375  1.00  0.00     0.002 C 
BRANCH  23  24
ATOM     24  C   UNL A   1      33.383  30.648  27.536  1.00  0.00     0.021 C 
BRANCH  24  25
ATOM     25  C   UNL A   1      34.693  31.423  27.525  1.00  0.00     0.116 C 
BRANCH  25  26
ATOM     26  N   UNL A   1      35.097  31.919  28.837  1.00  0.00    -0.352 N 
ATOM     27  C   UNL A   1      35.965  31.345  29.749  1.00  0.00     0.251 C 
ATOM     28  H   UNL A   1      34.698  32.777  29.109  1.00  0.00     0.163 HD
ATOM     29  O   UNL A   1      36.195  31.878  30.822  1.00  0.00    -0.269 OA
BRANCH  27  30
ATOM     30  C   UNL A   1      36.707  30.129  29.342  1.00  0.00     0.039 A 
ATOM     31  C   UNL A   1      37.051  29.212  30.340  1.00  0.00     0.014 A 
ATOM     32  C   UNL A   1      37.250  30.028  28.064  1.00  0.00     0.014 A 
ATOM     33  C   UNL A   1      38.128  28.355  30.127  1.00  0.00     0.010 A 
ATOM     34  C   UNL A   1      38.370  29.239  27.880  1.00  0.00     0.010 A 
ATOM     35  C   UNL A   1      38.855  28.462  28.939  1.00  0.00    -0.014 A 
BRANCH  35  36
ATOM     36  C   UNL A   1      40.209  27.937  28.797  1.00  0.00     0.031 A 
ATOM     37  C   UNL A   1      40.460  26.520  28.470  1.00  0.00     0.074 A 
ATOM     38  C   UNL A   1      41.265  28.772  28.929  1.00  0.00     0.049 A 
ATOM     39  N   UNL A   1      41.539  25.895  28.811  1.00  0.00    -0.248 NA
ATOM     40  C   UNL A   1      39.509  25.685  27.747  1.00  0.00     0.031 C 
ATOM     41  C   UNL A   1      42.664  28.486  28.618  1.00  0.00     0.029 A 
ATOM     42  N   UNL A   1      41.304  30.013  29.591  1.00  0.00    -0.354 N 
ATOM     43  C   UNL A   1      41.545  24.690  28.157  1.00  0.00     0.074 A 
ATOM     44  C   UNL A   1      40.237  24.578  27.550  1.00  0.00     0.031 C 
ATOM     45  C   UNL A   1      43.441  29.309  29.337  1.00  0.00     0.029 A 
ATOM     46  C   UNL A   1      42.572  30.069  30.216  1.00  0.00     0.049 A 
ATOM     47  H   UNL A   1      40.597  30.698  29.613  1.00  0.00     0.167 HD
ATOM     48  C   UNL A   1      42.690  23.955  28.096  1.00  0.00     0.037 A 
ATOM     49  C   UNL A   1      42.685  30.142  31.573  1.00  0.00     0.037 A 
ATOM     50  C   UNL A   1      43.802  24.581  28.801  1.00  0.00     0.049 A 
ATOM     51  C   UNL A   1      43.416  28.983  32.218  1.00  0.00     0.074 A 
ATOM     52  C   UNL A   1      44.903  25.326  28.413  1.00  0.00     0.029 A 
ATOM     53  N   UNL A   1      43.716  24.723  30.173  1.00  0.00    -0.354 N 
ATOM     54  N   UNL A   1      43.885  27.953  31.571  1.00  0.00    -0.248 NA
ATOM     55  C   UNL A   1      43.574  28.847  33.668  1.00  0.00     0.031 C 
ATOM     56  C   UNL A   1      45.490  25.899  29.577  1.00  0.00     0.029 A 
ATOM     57  C   UNL A   1      44.741  25.504  30.668  1.00  0.00     0.049 A 
ATOM     58  H   UNL A   1      43.012  24.317  30.729  1.00  0.00     0.167 HD
ATOM     59  C   UNL A   1      44.324  27.017  32.470  1.00  0.00     0.074 A 
ATOM     60  C   UNL A   1      44.116  27.622  33.770  1.00  0.00     0.031 C 
ATOM     61  C   UNL A   1      44.779  25.788  32.089  1.00  0.00     0.037 A 
BRANCH  48  62
ATOM     62  C   UNL A   1      42.824  22.756  27.202  1.00  0.00     0.064 A 
ATOM     63  C   UNL A   1      42.106  21.570  27.456  1.00  0.00     0.173 A 
ATOM     64  C   UNL A   1      43.681  22.720  26.088  1.00  0.00     0.173 A 
ATOM     65  F   UNL A   1      41.208  21.495  28.446  1.00  0.00    -0.203 F 
ATOM     66  C   UNL A   1      42.309  20.406  26.714  1.00  0.00     0.198 A 
ATOM     67  C   UNL A   1      43.925  21.540  25.379  1.00  0.00     0.198 A 
ATOM     68  F   UNL A   1      44.295  23.831  25.656  1.00  0.00    -0.203 F 
ATOM     69  F   UNL A   1      41.608  19.302  27.004  1.00  0.00    -0.200 F 
ATOM     70  C   UNL A   1      43.246  20.381  25.700  1.00  0.00     0.200 A 
ATOM     71  F   UNL A   1      44.834  21.531  24.394  1.00  0.00    -0.200 F 
ATOM     72  F   UNL A   1      43.484  19.246  25.028  1.00  0.00    -0.200 F 
ENDBRANCH  48  62
BRANCH  49  73
ATOM     73  C   UNL A   1      41.577  30.908  32.201  1.00  0.00     0.064 A 
ATOM     74  C   UNL A   1      41.608  32.315  32.127  1.00  0.00     0.173 A 
ATOM     75  C   UNL A   1      40.362  30.304  32.537  1.00  0.00     0.173 A 
ATOM     76  F   UNL A   1      42.749  32.944  31.803  1.00  0.00    -0.203 F 
ATOM     77  C   UNL A   1      40.450  33.073  32.270  1.00  0.00     0.198 A 
ATOM     78  C   UNL A   1      39.206  31.069  32.699  1.00  0.00     0.198 A 
ATOM     79  F   UNL A   1      40.261  28.969  32.601  1.00  0.00    -0.203 F 
ATOM     80  F   UNL A   1      40.491  34.399  32.079  1.00  0.00    -0.200 F 
ATOM     81  C   UNL A   1      39.244  32.446  32.532  1.00  0.00     0.200 A 
ATOM     82  F   UNL A   1      38.035  30.459  32.931  1.00  0.00    -0.200 F 
ATOM     83  F   UNL A   1      38.112  33.162  32.584  1.00  0.00    -0.200 F 
ENDBRANCH  49  73
BRANCH  61  84
ATOM     84  C   UNL A   1      45.288  24.746  33.044  1.00  0.00     0.064 A 
ATOM     85  C   UNL A   1      46.604  24.750  33.530  1.00  0.00     0.173 A 
ATOM     86  C   UNL A   1      44.497  23.632  33.401  1.00  0.00     0.173 A 
ATOM     87  F   UNL A   1      47.458  25.728  33.191  1.00  0.00    -0.203 F 
ATOM     88  C   UNL A   1      47.082  23.731  34.357  1.00  0.00     0.198 A 
ATOM     89  C   UNL A   1      44.993  22.592  34.185  1.00  0.00     0.198 A 
ATOM     90  F   UNL A   1      43.216  23.532  33.020  1.00  0.00    -0.203 F 
ATOM     91  F   UNL A   1      48.330  23.800  34.842  1.00  0.00    -0.200 F 
ATOM     92  C   UNL A   1      46.281  22.648  34.675  1.00  0.00     0.200 A 
ATOM     93  F   UNL A   1      44.210  21.539  34.463  1.00  0.00    -0.200 F 
ATOM     94  F   UNL A   1      46.749  21.662  35.451  1.00  0.00    -0.200 F 
ENDBRANCH  61  84
ENDBRANCH  35  36
ENDBRANCH  27  30
ENDBRANCH  25  26
ENDBRANCH  24  25
ENDBRANCH  23  24
ENDBRANCH   1  23
TORSDOF 17
ENDMDL
MODEL 3
REMARK VINA RESULT:     -12.2      1.448      2.988
REMARK SMILES Cc1cccc([C@H]([NH3+])[C@H](O)C(=O)NCCCCCCNC(=O)c2ccc(-c3c4nc(c(-c5c(F)c(F)c(F)c(F)c5F)c5ccc([nH]5)c(-c5c(F)c(F)c(F)c(F)c5F)c5nc(c(-c6c(F)c(F)c(F)c(F)c6F)c6ccc3[nH]6)C=C5)C=C4)cc2)c1
REMARK SMILES IDX 16 1 15 2 14 3 13 4 11 5 12 6 9 8 7 9 6 10 1 11 2 12 3 13
REMARK SMILES IDX 86 14 4 15 5 16 8 17 10 21 17 23 18 24 19 25 20 26 21 27
REMARK SMILES IDX 22 29 23 30 24 31 85 32 25 33 84 34 26 35 27 36 28 37 78 38
REMARK SMILES IDX 29 39 83 40 77 41 79 42 30 43 82 44 76 45 75 46 31 48 63 49
REMARK SMILES IDX 43 50 62 51 44 52 47 53 61 54 80 55 45 56 46 57 60 59 81 60
REMARK SMILES IDX 48 61 32 62 33 63 41 64 34 65 35 66 39 67 42 68 36 69 37 70
REMARK SMILES IDX 40 71 38 72 64 73 65 74 73 75 66 76 67 77 71 78 74 79 68 80
REMARK SMILES IDX 69 81 72 82 70 83 49 84 50 85 58 86 51 87 52 88 56 89 59 90
REMARK SMILES IDX 53 91 54 92 57 93 55 94
REMARK H PARENT 13 7 8 18 8 19 8 20 10 22 20 28 79 47 47 58
REMARK Flexibility Score: inf
ROOT
ATOM      1  C   UNL A   1      36.147  21.464  25.735  1.00  0.00     0.002 C 
ENDROOT
BRANCH   1   2
ATOM      2  C   UNL A   1      35.065  21.224  24.675  1.00  0.00     0.021 C 
BRANCH   2   3
ATOM      3  C   UNL A   1      33.805  22.075  24.811  1.00  0.00     0.116 C 
BRANCH   3   4
ATOM      4  N   UNL A   1      33.456  22.389  26.172  1.00  0.00    -0.354 N 
ATOM      5  C   UNL A   1      32.244  22.640  26.729  1.00  0.00     0.255 C 
ATOM      6  O   UNL A   1      32.220  22.757  27.962  1.00  0.00    -0.272 OA
ATOM      7  H   UNL A   1      34.217  22.430  26.798  1.00  0.00     0.163 HD
BRANCH   5   8
ATOM      8  C   UNL A   1      30.943  22.893  25.923  1.00  0.00     0.266 C 
BRANCH   8   9
ATOM      9  C   UNL A   1      30.623  24.387  25.533  1.00  0.00     0.250 C 
BRANCH   9  10
ATOM     10  C   UNL A   1      31.731  25.448  25.397  1.00  0.00     0.013 A 
ATOM     11  C   UNL A   1      32.873  28.502  27.426  1.00  0.00     0.044 C 
ATOM     12  C   UNL A   1      32.778  27.473  26.339  1.00  0.00    -0.051 A 
ATOM     13  C   UNL A   1      33.647  27.533  25.249  1.00  0.00     0.003 A 
ATOM     14  C   UNL A   1      31.822  26.446  26.395  1.00  0.00     0.013 A 
ATOM     15  C   UNL A   1      33.584  26.562  24.256  1.00  0.00     0.001 A 
ATOM     16  C   UNL A   1      32.647  25.525  24.339  1.00  0.00     0.010 A 
ENDBRANCH   9  10
BRANCH   9  17
ATOM     17  N   UNL A   1      29.598  24.943  26.457  1.00  0.00    -0.349 N 
ATOM     18  H   UNL A   1      30.012  25.690  27.014  1.00  0.00     0.345 HD
ATOM     19  H   UNL A   1      29.262  24.204  27.076  1.00  0.00     0.345 HD
ATOM     20  H   UNL A   1      28.817  25.314  25.916  1.00  0.00     0.345 HD
ENDBRANCH   9  17
ENDBRANCH   8   9
BRANCH   8  21
ATOM     21  O   UNL A   1      29.851  22.137  26.433  1.00  0.00    -0.378 OA
ATOM     22  H   UNL A   1      29.546  21.512  25.758  1.00  0.00     0.211 HD
ENDBRANCH   8  21
ENDBRANCH   5   8
ENDBRANCH   3   4
ENDBRANCH   2   3
ENDBRANCH   1   2
BRANCH   1  23
ATOM     23  C   UNL A   1      37.600  21.554  25.239  1.00  0.00     0.002 C 
BRANCH  23  24
ATOM     24  C   UNL A   1      38.379  22.818  25.616  1.00  0.00     0.021 C 
BRANCH  24  25
ATOM     25  C   UNL A   1      39.348  22.637  26.777  1.00  0.00     0.116 C 
BRANCH  25  26
ATOM     26  N   UNL A   1      40.727  22.990  26.454  1.00  0.00    -0.352 N 
ATOM     27  C   UNL A   1      41.304  24.245  26.374  1.00  0.00     0.251 C 
ATOM     28  H   UNL A   1      41.328  22.232  26.268  1.00  0.00     0.163 HD
ATOM     29  O   UNL A   1      42.478  24.382  26.077  1.00  0.00    -0.269 OA
BRANCH  27  30
ATOM     30  C   UNL A   1      40.492  25.417  26.781  1.00  0.00     0.039 A 
ATOM     31  C   UNL A   1      40.773  26.645  26.175  1.00  0.00     0.014 A 
ATOM     32  C   UNL A   1      39.658  25.346  27.894  1.00  0.00     0.014 A 
ATOM     33  C   UNL A   1      40.425  27.820  26.837  1.00  0.00     0.010 A 
ATOM     34  C   UNL A   1      39.386  26.507  28.594  1.00  0.00     0.010 A 
ATOM     35  C   UNL A   1      39.839  27.737  28.102  1.00  0.00    -0.014 A 
BRANCH  35  36
ATOM     36  C   UNL A   1      39.828  28.857  29.037  1.00  0.00     0.031 A 
ATOM     37  C   UNL A   1      38.785  29.900  28.986  1.00  0.00     0.074 A 
ATOM     38  C   UNL A   1      40.773  28.928  30.003  1.00  0.00     0.049 A 
ATOM     39  N   UNL A   1      38.972  31.110  29.399  1.00  0.00    -0.248 NA
ATOM     40  C   UNL A   1      37.451  29.671  28.447  1.00  0.00     0.031 C 
ATOM     41  C   UNL A   1      40.804  29.840  31.145  1.00  0.00     0.029 A 
ATOM     42  N   UNL A   1      42.035  28.307  30.021  1.00  0.00    -0.354 N 
ATOM     43  C   UNL A   1      37.753  31.735  29.422  1.00  0.00     0.074 A 
ATOM     44  C   UNL A   1      36.843  30.819  28.768  1.00  0.00     0.031 C 
ATOM     45  C   UNL A   1      42.075  29.974  31.552  1.00  0.00     0.029 A 
ATOM     46  C   UNL A   1      42.911  29.246  30.616  1.00  0.00     0.049 A 
ATOM     47  H   UNL A   1      42.260  27.408  29.689  1.00  0.00     0.167 HD
ATOM     48  C   UNL A   1      37.605  32.913  30.089  1.00  0.00     0.037 A 
ATOM     49  C   UNL A   1      43.963  29.765  29.921  1.00  0.00     0.037 A 
ATOM     50  C   UNL A   1      38.845  33.381  30.694  1.00  0.00     0.049 A 
ATOM     51  C   UNL A   1      43.926  31.268  29.733  1.00  0.00     0.074 A 
ATOM     52  C   UNL A   1      39.375  33.348  31.974  1.00  0.00     0.029 A 
ATOM     53  N   UNL A   1      39.889  33.739  29.863  1.00  0.00    -0.354 N 
ATOM     54  N   UNL A   1      42.964  32.042  30.151  1.00  0.00    -0.248 NA
ATOM     55  C   UNL A   1      44.927  31.999  28.953  1.00  0.00     0.031 C 
ATOM     56  C   UNL A   1      40.748  33.716  31.900  1.00  0.00     0.029 A 
ATOM     57  C   UNL A   1      41.050  33.967  30.576  1.00  0.00     0.049 A 
ATOM     58  H   UNL A   1      39.815  33.824  28.885  1.00  0.00     0.167 HD
ATOM     59  C   UNL A   1      43.157  33.307  29.661  1.00  0.00     0.074 A 
ATOM     60  C   UNL A   1      44.402  33.235  28.923  1.00  0.00     0.031 C 
ATOM     61  C   UNL A   1      42.257  34.314  29.852  1.00  0.00     0.037 A 
BRANCH  48  62
ATOM     62  C   UNL A   1      36.255  33.519  30.350  1.00  0.00     0.064 A 
ATOM     63  C   UNL A   1      35.486  34.070  29.306  1.00  0.00     0.173 A 
ATOM     64  C   UNL A   1      35.688  33.607  31.634  1.00  0.00     0.173 A 
ATOM     65  F   UNL A   1      35.882  33.991  28.030  1.00  0.00    -0.203 F 
ATOM     66  C   UNL A   1      34.290  34.748  29.544  1.00  0.00     0.198 A 
ATOM     67  C   UNL A   1      34.519  34.333  31.879  1.00  0.00     0.198 A 
ATOM     68  F   UNL A   1      36.252  32.984  32.679  1.00  0.00    -0.203 F 
ATOM     69  F   UNL A   1      33.601  35.263  28.516  1.00  0.00    -0.200 F 
ATOM     70  C   UNL A   1      33.826  34.912  30.834  1.00  0.00     0.200 A 
ATOM     71  F   UNL A   1      34.078  34.480  33.137  1.00  0.00    -0.200 F 
ATOM     72  F   UNL A   1      32.709  35.615  31.067  1.00  0.00    -0.200 F 
ENDBRANCH  48  62
BRANCH  49  73
ATOM     73  C   UNL A   1      44.548  28.798  28.957  1.00  0.00     0.064 A 
ATOM     74  C   UNL A   1      45.374  27.771  29.455  1.00  0.00     0.173 A 
ATOM     75  C   UNL A   1      44.042  28.652  27.662  1.00  0.00     0.173 A 
ATOM     76  F   UNL A   1      45.882  27.861  30.695  1.00  0.00    -0.203 F 
ATOM     77  C   UNL A   1      45.589  26.601  28.733  1.00  0.00     0.198 A 
ATOM     78  C   UNL A   1      44.275  27.485  26.933  1.00  0.00     0.198 A 
ATOM     79  F   UNL A   1      43.231  29.582  27.140  1.00  0.00    -0.203 F 
ATOM     80  F   UNL A   1      46.285  25.595  29.282  1.00  0.00    -0.200 F 
ATOM     81  C   UNL A   1      45.018  26.448  27.482  1.00  0.00     0.200 A 
ATOM     82  F   UNL A   1      43.704  27.329  25.731  1.00  0.00    -0.200 F 
ATOM     83  F   UNL A   1      45.149  25.290  26.820  1.00  0.00    -0.200 F 
ENDBRANCH  49  73
BRANCH  61  84
ATOM     84  C   UNL A   1      42.446  35.717  29.350  1.00  0.00     0.064 A 
ATOM     85  C   UNL A   1      41.881  36.168  28.147  1.00  0.00     0.173 A 
ATOM     86  C   UNL A   1      43.312  36.619  30.005  1.00  0.00     0.173 A 
ATOM     87  F   UNL A   1      41.099  35.363  27.412  1.00  0.00    -0.203 F 
ATOM     88  C   UNL A   1      42.128  37.453  27.658  1.00  0.00     0.198 A 
ATOM     89  C   UNL A   1      43.596  37.882  29.489  1.00  0.00     0.198 A 
ATOM     90  F   UNL A   1      43.887  36.311  31.176  1.00  0.00    -0.203 F 
ATOM     91  F   UNL A   1      41.527  37.862  26.532  1.00  0.00    -0.200 F 
ATOM     92  C   UNL A   1      42.994  38.304  28.322  1.00  0.00     0.200 A 
ATOM     93  F   UNL A   1      44.456  38.684  30.133  1.00  0.00    -0.200 F 
ATOM     94  F   UNL A   1      43.245  39.528  27.840  1.00  0.00    -0.200 F 
ENDBRANCH  61  84
ENDBRANCH  35  36
ENDBRANCH  27  30
ENDBRANCH  25  26
ENDBRANCH  24  25
ENDBRANCH  23  24
ENDBRANCH   1  23
TORSDOF 17
ENDMDL
