MODEL 1
REMARK VINA RESULT:     -12.6      0.000      0.000
REMARK SMILES CC[C@](C)(NC(=O)[C@H]1C[NH2+]Cc2ccccc21)C(=O)NCCCCCCNC(=O)c1ccc(-c2c3nc(c(-c4c(F)c(F)c(F)c(F)c4F)c4ccc([nH]4)c(-c4c(F)c(F)c(F)c(F)c4F)c4nc(c(-c5c(F)c(F)c(F)c(F)c5F)c5ccc2[nH]5)C=C4)C=C3)cc1
REMARK SMILES IDX 23 1 22 2 21 3 20 4 18 5 19 6 3 8 4 9 2 10 1 11 5 12 6 13
REMARK SMILES IDX 7 15 8 16 9 17 17 18 10 19 12 20 16 21 11 22 13 25 15 26
REMARK SMILES IDX 14 27 24 28 25 29 26 30 27 31 28 32 29 34 30 35 31 36 92 37
REMARK SMILES IDX 32 38 91 39 33 40 34 41 35 42 85 43 36 44 90 45 84 46 86 47
REMARK SMILES IDX 37 48 89 49 83 50 82 51 38 53 70 54 50 55 69 56 51 57 54 58
REMARK SMILES IDX 68 59 87 60 52 61 53 62 67 64 88 65 55 66 39 67 40 68 48 69
REMARK SMILES IDX 41 70 42 71 46 72 49 73 43 74 44 75 47 76 45 77 71 78 72 79
REMARK SMILES IDX 80 80 73 81 74 82 78 83 81 84 75 85 76 86 79 87 77 88 56 89
REMARK SMILES IDX 57 90 65 91 58 92 59 93 63 94 66 95 60 96 61 97 64 98 62 99
REMARK H PARENT 20 7 5 14 10 23 10 24 27 33 86 52 54 63
REMARK Flexibility Score: inf
ROOT
ATOM      1  C   UNL A   1      32.854  27.869  26.861  1.00  0.00     0.002 C 
ENDROOT
BRANCH   1   2
ATOM      2  C   UNL A   1      33.711  27.018  25.930  1.00  0.00     0.021 C 
BRANCH   2   3
ATOM      3  C   UNL A   1      33.199  25.628  25.548  1.00  0.00     0.116 C 
BRANCH   3   4
ATOM      4  N   UNL A   1      34.072  24.729  24.806  1.00  0.00    -0.354 N 
ATOM      5  C   UNL A   1      33.919  24.115  23.587  1.00  0.00     0.245 C 
ATOM      6  O   UNL A   1      34.922  24.011  22.873  1.00  0.00    -0.272 OA
ATOM      7  H   UNL A   1      34.923  24.524  25.259  1.00  0.00     0.163 HD
BRANCH   5   8
ATOM      8  C   UNL A   1      32.520  23.721  23.058  1.00  0.00     0.116 C 
ATOM      9  C   UNL A   1      31.359  23.846  24.058  1.00  0.00     0.045 C 
BRANCH   8  10
ATOM     10  C   UNL A   1      32.573  22.196  22.691  1.00  0.00     0.035 C 
ATOM     11  C   UNL A   1      32.823  21.290  23.908  1.00  0.00     0.007 C 
ENDBRANCH   8  10
BRANCH   8  12
ATOM     12  N   UNL A   1      32.240  24.588  21.892  1.00  0.00    -0.341 N 
ATOM     13  C   UNL A   1      31.757  25.855  21.733  1.00  0.00     0.234 C 
ATOM     14  H   UNL A   1      32.452  24.151  21.036  1.00  0.00     0.164 HD
ATOM     15  O   UNL A   1      31.563  26.139  20.535  1.00  0.00    -0.274 OA
BRANCH  13  16
ATOM     16  C   UNL A   1      31.379  26.942  22.782  1.00  0.00     0.164 C 
ATOM     17  C   UNL A   1      32.285  28.182  22.776  1.00  0.00     0.279 C 
ATOM     18  C   UNL A   1      29.944  27.337  23.053  1.00  0.00    -0.021 A 
ATOM     19  N   UNL A   1      31.817  29.363  22.056  1.00  0.00    -0.342 N 
ATOM     20  C   UNL A   1      29.474  28.597  22.669  1.00  0.00     0.010 A 
ATOM     21  C   UNL A   1      29.092  26.542  23.834  1.00  0.00     0.005 A 
ATOM     22  C   UNL A   1      30.402  29.691  22.208  1.00  0.00     0.297 C 
ATOM     23  H   UNL A   1      31.998  29.216  21.064  1.00  0.00     0.346 HD
ATOM     24  H   UNL A   1      32.324  30.149  22.463  1.00  0.00     0.346 HD
ATOM     25  C   UNL A   1      28.109  28.912  22.827  1.00  0.00     0.010 A 
ATOM     26  C   UNL A   1      27.749  26.874  24.027  1.00  0.00     0.000 A 
ATOM     27  C   UNL A   1      27.239  28.034  23.468  1.00  0.00     0.001 A 
ENDBRANCH  13  16
ENDBRANCH   8  12
ENDBRANCH   5   8
ENDBRANCH   3   4
ENDBRANCH   2   3
ENDBRANCH   1   2
BRANCH   1  28
ATOM     28  C   UNL A   1      31.576  28.461  26.268  1.00  0.00     0.002 C 
BRANCH  28  29
ATOM     29  C   UNL A   1      31.590  29.976  26.123  1.00  0.00     0.021 C 
BRANCH  29  30
ATOM     30  C   UNL A   1      32.897  30.613  26.555  1.00  0.00     0.116 C 
BRANCH  30  31
ATOM     31  N   UNL A   1      32.769  32.023  26.903  1.00  0.00    -0.352 N 
ATOM     32  C   UNL A   1      33.679  32.779  27.605  1.00  0.00     0.251 C 
ATOM     33  H   UNL A   1      31.949  32.479  26.604  1.00  0.00     0.163 HD
ATOM     34  O   UNL A   1      33.455  33.940  27.924  1.00  0.00    -0.269 OA
BRANCH  32  35
ATOM     35  C   UNL A   1      34.929  32.111  28.006  1.00  0.00     0.039 A 
ATOM     36  C   UNL A   1      36.069  32.884  28.230  1.00  0.00     0.014 A 
ATOM     37  C   UNL A   1      34.891  30.757  28.346  1.00  0.00     0.014 A 
ATOM     38  C   UNL A   1      37.163  32.306  28.875  1.00  0.00     0.010 A 
ATOM     39  C   UNL A   1      35.944  30.213  29.065  1.00  0.00     0.010 A 
ATOM     40  C   UNL A   1      37.090  30.981  29.337  1.00  0.00    -0.014 A 
BRANCH  40  41
ATOM     41  C   UNL A   1      38.205  30.351  30.084  1.00  0.00     0.031 A 
ATOM     42  C   UNL A   1      38.417  30.726  31.524  1.00  0.00     0.074 A 
ATOM     43  C   UNL A   1      39.074  29.535  29.455  1.00  0.00     0.049 A 
ATOM     44  N   UNL A   1      39.413  30.434  32.320  1.00  0.00    -0.248 NA
ATOM     45  C   UNL A   1      37.393  31.590  32.138  1.00  0.00     0.031 C 
ATOM     46  C   UNL A   1      39.006  29.142  28.046  1.00  0.00     0.029 A 
ATOM     47  N   UNL A   1      40.200  28.904  29.920  1.00  0.00    -0.354 N 
ATOM     48  C   UNL A   1      39.159  31.116  33.502  1.00  0.00     0.074 A 
ATOM     49  C   UNL A   1      37.942  31.870  33.309  1.00  0.00     0.031 C 
ATOM     50  C   UNL A   1      40.033  28.321  27.767  1.00  0.00     0.029 A 
ATOM     51  C   UNL A   1      40.852  28.159  28.965  1.00  0.00     0.049 A 
ATOM     52  H   UNL A   1      40.514  28.976  30.851  1.00  0.00     0.167 HD
ATOM     53  C   UNL A   1      39.868  31.095  34.654  1.00  0.00     0.037 A 
ATOM     54  C   UNL A   1      41.985  27.437  29.052  1.00  0.00     0.037 A 
ATOM     55  C   UNL A   1      41.029  30.276  34.866  1.00  0.00     0.049 A 
ATOM     56  C   UNL A   1      42.717  27.381  30.368  1.00  0.00     0.074 A 
ATOM     57  C   UNL A   1      41.761  30.103  36.028  1.00  0.00     0.029 A 
ATOM     58  N   UNL A   1      41.616  29.478  33.896  1.00  0.00    -0.354 N 
ATOM     59  N   UNL A   1      42.429  27.974  31.501  1.00  0.00    -0.248 NA
ATOM     60  C   UNL A   1      43.931  26.552  30.420  1.00  0.00     0.031 C 
ATOM     61  C   UNL A   1      42.808  29.219  35.753  1.00  0.00     0.029 A 
ATOM     62  C   UNL A   1      42.706  28.815  34.431  1.00  0.00     0.049 A 
ATOM     63  H   UNL A   1      41.303  29.396  32.966  1.00  0.00     0.167 HD
ATOM     64  C   UNL A   1      43.397  27.560  32.406  1.00  0.00     0.074 A 
ATOM     65  C   UNL A   1      44.280  26.661  31.693  1.00  0.00     0.031 C 
ATOM     66  C   UNL A   1      43.544  27.895  33.710  1.00  0.00     0.037 A 
BRANCH  53  67
ATOM     67  C   UNL A   1      39.398  31.964  35.780  1.00  0.00     0.064 A 
ATOM     68  C   UNL A   1      38.455  31.514  36.714  1.00  0.00     0.173 A 
ATOM     69  C   UNL A   1      39.934  33.249  35.953  1.00  0.00     0.173 A 
ATOM     70  F   UNL A   1      37.902  30.299  36.582  1.00  0.00    -0.203 F 
ATOM     71  C   UNL A   1      38.047  32.326  37.768  1.00  0.00     0.198 A 
ATOM     72  C   UNL A   1      39.545  34.048  37.025  1.00  0.00     0.198 A 
ATOM     73  F   UNL A   1      40.842  33.726  35.088  1.00  0.00    -0.203 F 
ATOM     74  F   UNL A   1      37.113  31.890  38.625  1.00  0.00    -0.200 F 
ATOM     75  C   UNL A   1      38.599  33.588  37.929  1.00  0.00     0.200 A 
ATOM     76  F   UNL A   1      40.089  35.263  37.185  1.00  0.00    -0.200 F 
ATOM     77  F   UNL A   1      38.216  34.364  38.952  1.00  0.00    -0.200 F 
ENDBRANCH  53  67
BRANCH  54  78
ATOM     78  C   UNL A   1      42.493  26.682  27.876  1.00  0.00     0.064 A 
ATOM     79  C   UNL A   1      43.366  27.287  26.959  1.00  0.00     0.173 A 
ATOM     80  C   UNL A   1      42.090  25.365  27.618  1.00  0.00     0.173 A 
ATOM     81  F   UNL A   1      43.762  28.554  27.152  1.00  0.00    -0.203 F 
ATOM     82  C   UNL A   1      43.790  26.616  25.814  1.00  0.00     0.198 A 
ATOM     83  C   UNL A   1      42.537  24.684  26.486  1.00  0.00     0.198 A 
ATOM     84  F   UNL A   1      41.262  24.737  28.465  1.00  0.00    -0.203 F 
ATOM     85  F   UNL A   1      44.577  27.241  24.928  1.00  0.00    -0.200 F 
ATOM     86  C   UNL A   1      43.377  25.314  25.580  1.00  0.00     0.200 A 
ATOM     87  F   UNL A   1      42.144  23.421  26.268  1.00  0.00    -0.200 F 
ATOM     88  F   UNL A   1      43.777  24.671  24.474  1.00  0.00    -0.200 F 
ENDBRANCH  54  78
BRANCH  66  89
ATOM     89  C   UNL A   1      44.661  27.245  34.469  1.00  0.00     0.064 A 
ATOM     90  C   UNL A   1      44.494  26.008  35.106  1.00  0.00     0.173 A 
ATOM     91  C   UNL A   1      45.933  27.838  34.496  1.00  0.00     0.173 A 
ATOM     92  F   UNL A   1      43.293  25.411  35.117  1.00  0.00    -0.203 F 
ATOM     93  C   UNL A   1      45.559  25.393  35.758  1.00  0.00     0.198 A 
ATOM     94  C   UNL A   1      47.001  27.208  35.128  1.00  0.00     0.198 A 
ATOM     95  F   UNL A   1      46.142  29.017  33.893  1.00  0.00    -0.203 F 
ATOM     96  F   UNL A   1      45.371  24.227  36.390  1.00  0.00    -0.200 F 
ATOM     97  C   UNL A   1      46.812  25.988  35.761  1.00  0.00     0.200 A 
ATOM     98  F   UNL A   1      48.214  27.777  35.117  1.00  0.00    -0.200 F 
ATOM     99  F   UNL A   1      47.839  25.387  36.377  1.00  0.00    -0.200 F 
ENDBRANCH  66  89
ENDBRANCH  40  41
ENDBRANCH  32  35
ENDBRANCH  30  31
ENDBRANCH  29  30
ENDBRANCH  28  29
ENDBRANCH   1  28
TORSDOF 16
ENDMDL
MODEL 2
REMARK VINA RESULT:     -12.3      4.767      8.316
REMARK SMILES CC[C@](C)(NC(=O)[C@H]1C[NH2+]Cc2ccccc21)C(=O)NCCCCCCNC(=O)c1ccc(-c2c3nc(c(-c4c(F)c(F)c(F)c(F)c4F)c4ccc([nH]4)c(-c4c(F)c(F)c(F)c(F)c4F)c4nc(c(-c5c(F)c(F)c(F)c(F)c5F)c5ccc2[nH]5)C=C4)C=C3)cc1
REMARK SMILES IDX 23 1 22 2 21 3 20 4 18 5 19 6 3 8 4 9 2 10 1 11 5 12 6 13
REMARK SMILES IDX 7 15 8 16 9 17 17 18 10 19 12 20 16 21 11 22 13 25 15 26
REMARK SMILES IDX 14 27 24 28 25 29 26 30 27 31 28 32 29 34 30 35 31 36 92 37
REMARK SMILES IDX 32 38 91 39 33 40 34 41 35 42 85 43 36 44 90 45 84 46 86 47
REMARK SMILES IDX 37 48 89 49 83 50 82 51 38 53 70 54 50 55 69 56 51 57 54 58
REMARK SMILES IDX 68 59 87 60 52 61 53 62 67 64 88 65 55 66 39 67 40 68 48 69
REMARK SMILES IDX 41 70 42 71 46 72 49 73 43 74 44 75 47 76 45 77 71 78 72 79
REMARK SMILES IDX 80 80 73 81 74 82 78 83 81 84 75 85 76 86 79 87 77 88 56 89
REMARK SMILES IDX 57 90 65 91 58 92 59 93 63 94 66 95 60 96 61 97 64 98 62 99
REMARK H PARENT 20 7 5 14 10 23 10 24 27 33 86 52 54 63
REMARK Flexibility Score: inf
ROOT
ATOM      1  C   UNL A   1      35.685  21.566  24.675  1.00  0.00     0.002 C 
ENDROOT
BRANCH   1   2
ATOM      2  C   UNL A   1      34.718  20.437  25.016  1.00  0.00     0.021 C 
BRANCH   2   3
ATOM      3  C   UNL A   1      33.258  20.583  24.585  1.00  0.00     0.116 C 
BRANCH   3   4
ATOM      4  N   UNL A   1      32.253  20.924  25.583  1.00  0.00    -0.354 N 
ATOM      5  C   UNL A   1      31.436  22.021  25.712  1.00  0.00     0.245 C 
ATOM      6  O   UNL A   1      30.288  21.828  26.124  1.00  0.00    -0.272 OA
ATOM      7  H   UNL A   1      32.141  20.250  26.292  1.00  0.00     0.163 HD
BRANCH   5   8
ATOM      8  C   UNL A   1      31.878  23.414  25.206  1.00  0.00     0.116 C 
ATOM      9  C   UNL A   1      32.441  23.467  23.777  1.00  0.00     0.045 C 
BRANCH   8  10
ATOM     10  C   UNL A   1      33.060  23.889  26.123  1.00  0.00     0.035 C 
ATOM     11  C   UNL A   1      34.210  24.540  25.337  1.00  0.00     0.007 C 
ENDBRANCH   8  10
BRANCH   8  12
ATOM     12  N   UNL A   1      30.693  24.296  25.285  1.00  0.00    -0.341 N 
ATOM     13  C   UNL A   1      30.466  25.622  25.047  1.00  0.00     0.234 C 
ATOM     14  H   UNL A   1      29.883  23.818  25.575  1.00  0.00     0.164 HD
ATOM     15  O   UNL A   1      29.315  25.969  25.374  1.00  0.00    -0.274 OA
BRANCH  13  16
ATOM     16  C   UNL A   1      31.405  26.734  24.495  1.00  0.00     0.164 C 
ATOM     17  C   UNL A   1      31.054  27.230  23.085  1.00  0.00     0.279 C 
ATOM     18  C   UNL A   1      31.887  27.883  25.355  1.00  0.00    -0.021 A 
ATOM     19  N   UNL A   1      30.278  28.463  22.971  1.00  0.00    -0.342 N 
ATOM     20  C   UNL A   1      31.427  29.182  25.119  1.00  0.00     0.010 A 
ATOM     21  C   UNL A   1      32.919  27.724  26.290  1.00  0.00     0.005 A 
ATOM     22  C   UNL A   1      30.649  29.543  23.880  1.00  0.00     0.297 C 
ATOM     23  H   UNL A   1      29.300  28.233  23.143  1.00  0.00     0.346 HD
ATOM     24  H   UNL A   1      30.467  28.818  22.034  1.00  0.00     0.346 HD
ATOM     25  C   UNL A   1      31.797  30.223  25.994  1.00  0.00     0.010 A 
ATOM     26  C   UNL A   1      33.317  28.767  27.131  1.00  0.00     0.000 A 
ATOM     27  C   UNL A   1      32.708  30.007  27.024  1.00  0.00     0.001 A 
ENDBRANCH  13  16
ENDBRANCH   8  12
ENDBRANCH   5   8
ENDBRANCH   3   4
ENDBRANCH   2   3
ENDBRANCH   1   2
BRANCH   1  28
ATOM     28  C   UNL A   1      36.911  21.714  25.574  1.00  0.00     0.002 C 
BRANCH  28  29
ATOM     29  C   UNL A   1      38.175  21.062  25.032  1.00  0.00     0.021 C 
BRANCH  29  30
ATOM     30  C   UNL A   1      39.285  20.947  26.058  1.00  0.00     0.116 C 
BRANCH  30  31
ATOM     31  N   UNL A   1      39.991  19.673  26.010  1.00  0.00    -0.352 N 
ATOM     32  C   UNL A   1      41.349  19.484  26.123  1.00  0.00     0.251 C 
ATOM     33  H   UNL A   1      39.440  18.866  25.886  1.00  0.00     0.163 HD
ATOM     34  O   UNL A   1      41.868  18.383  25.991  1.00  0.00    -0.269 OA
BRANCH  32  35
ATOM     35  C   UNL A   1      42.169  20.684  26.363  1.00  0.00     0.039 A 
ATOM     36  C   UNL A   1      42.506  21.502  25.285  1.00  0.00     0.014 A 
ATOM     37  C   UNL A   1      42.416  21.079  27.680  1.00  0.00     0.014 A 
ATOM     38  C   UNL A   1      43.032  22.771  25.535  1.00  0.00     0.010 A 
ATOM     39  C   UNL A   1      42.853  22.372  27.924  1.00  0.00     0.010 A 
ATOM     40  C   UNL A   1      43.166  23.230  26.855  1.00  0.00    -0.014 A 
BRANCH  40  41
ATOM     41  C   UNL A   1      43.657  24.595  27.163  1.00  0.00     0.031 A 
ATOM     42  C   UNL A   1      42.687  25.614  27.692  1.00  0.00     0.074 A 
ATOM     43  C   UNL A   1      44.927  24.944  26.875  1.00  0.00     0.049 A 
ATOM     44  N   UNL A   1      42.850  26.899  27.872  1.00  0.00    -0.248 NA
ATOM     45  C   UNL A   1      41.334  25.130  28.014  1.00  0.00     0.031 C 
ATOM     46  C   UNL A   1      45.946  24.060  26.306  1.00  0.00     0.029 A 
ATOM     47  N   UNL A   1      45.572  26.149  27.007  1.00  0.00    -0.354 N 
ATOM     48  C   UNL A   1      41.612  27.379  28.278  1.00  0.00     0.074 A 
ATOM     49  C   UNL A   1      40.697  26.260  28.278  1.00  0.00     0.031 C 
ATOM     50  C   UNL A   1      47.092  24.746  26.157  1.00  0.00     0.029 A 
ATOM     51  C   UNL A   1      46.880  26.126  26.584  1.00  0.00     0.049 A 
ATOM     52  H   UNL A   1      45.139  26.955  27.370  1.00  0.00     0.167 HD
ATOM     53  C   UNL A   1      41.276  28.638  28.642  1.00  0.00     0.037 A 
ATOM     54  C   UNL A   1      47.796  27.112  26.541  1.00  0.00     0.037 A 
ATOM     55  C   UNL A   1      42.211  29.725  28.722  1.00  0.00     0.049 A 
ATOM     56  C   UNL A   1      47.408  28.490  27.015  1.00  0.00     0.074 A 
ATOM     57  C   UNL A   1      41.995  31.015  29.177  1.00  0.00     0.029 A 
ATOM     58  N   UNL A   1      43.545  29.644  28.356  1.00  0.00    -0.354 N 
ATOM     59  N   UNL A   1      46.253  28.916  27.465  1.00  0.00    -0.248 NA
ATOM     60  C   UNL A   1      48.454  29.523  26.979  1.00  0.00     0.031 C 
ATOM     61  C   UNL A   1      43.195  31.722  29.060  1.00  0.00     0.029 A 
ATOM     62  C   UNL A   1      44.164  30.862  28.567  1.00  0.00     0.049 A 
ATOM     63  H   UNL A   1      43.985  28.839  27.998  1.00  0.00     0.167 HD
ATOM     64  C   UNL A   1      46.443  30.249  27.802  1.00  0.00     0.074 A 
ATOM     65  C   UNL A   1      47.826  30.563  27.509  1.00  0.00     0.031 C 
ATOM     66  C   UNL A   1      45.552  31.137  28.305  1.00  0.00     0.037 A 
BRANCH  53  67
ATOM     67  C   UNL A   1      39.846  28.903  29.001  1.00  0.00     0.064 A 
ATOM     68  C   UNL A   1      38.907  29.304  28.040  1.00  0.00     0.173 A 
ATOM     69  C   UNL A   1      39.398  28.709  30.316  1.00  0.00     0.173 A 
ATOM     70  F   UNL A   1      39.289  29.518  26.772  1.00  0.00    -0.203 F 
ATOM     71  C   UNL A   1      37.577  29.524  28.386  1.00  0.00     0.198 A 
ATOM     72  C   UNL A   1      38.062  28.901  30.653  1.00  0.00     0.198 A 
ATOM     73  F   UNL A   1      40.257  28.322  31.273  1.00  0.00    -0.203 F 
ATOM     74  F   UNL A   1      36.707  29.947  27.460  1.00  0.00    -0.200 F 
ATOM     75  C   UNL A   1      37.153  29.312  29.690  1.00  0.00     0.200 A 
ATOM     76  F   UNL A   1      37.652  28.685  31.911  1.00  0.00    -0.200 F 
ATOM     77  F   UNL A   1      35.870  29.511  30.019  1.00  0.00    -0.200 F 
ENDBRANCH  53  67
BRANCH  54  78
ATOM     78  C   UNL A   1      49.177  26.842  26.061  1.00  0.00     0.064 A 
ATOM     79  C   UNL A   1      49.513  27.022  24.711  1.00  0.00     0.173 A 
ATOM     80  C   UNL A   1      50.173  26.363  26.921  1.00  0.00     0.173 A 
ATOM     81  F   UNL A   1      48.586  27.458  23.844  1.00  0.00    -0.203 F 
ATOM     82  C   UNL A   1      50.782  26.701  24.234  1.00  0.00     0.198 A 
ATOM     83  C   UNL A   1      51.452  26.068  26.449  1.00  0.00     0.198 A 
ATOM     84  F   UNL A   1      49.907  26.179  28.222  1.00  0.00    -0.203 F 
ATOM     85  F   UNL A   1      51.056  26.829  22.929  1.00  0.00    -0.200 F 
ATOM     86  C   UNL A   1      51.752  26.227  25.104  1.00  0.00     0.200 A 
ATOM     87  F   UNL A   1      52.390  25.620  27.294  1.00  0.00    -0.200 F 
ATOM     88  F   UNL A   1      52.970  25.910  24.643  1.00  0.00    -0.200 F 
ENDBRANCH  54  78
BRANCH  66  89
ATOM     89  C   UNL A   1      46.054  32.510  28.631  1.00  0.00     0.064 A 
ATOM     90  C   UNL A   1      46.609  32.813  29.881  1.00  0.00     0.173 A 
ATOM     91  C   UNL A   1      46.041  33.516  27.651  1.00  0.00     0.173 A 
ATOM     92  F   UNL A   1      46.630  31.887  30.852  1.00  0.00    -0.203 F 
ATOM     93  C   UNL A   1      47.122  34.080  30.146  1.00  0.00     0.198 A 
ATOM     94  C   UNL A   1      46.577  34.773  27.911  1.00  0.00     0.198 A 
ATOM     95  F   UNL A   1      45.527  33.270  26.437  1.00  0.00    -0.203 F 
ATOM     96  F   UNL A   1      47.617  34.359  31.359  1.00  0.00    -0.200 F 
ATOM     97  C   UNL A   1      47.113  35.055  29.159  1.00  0.00     0.200 A 
ATOM     98  F   UNL A   1      46.581  35.710  26.952  1.00  0.00    -0.200 F 
ATOM     99  F   UNL A   1      47.620  36.270  29.412  1.00  0.00    -0.200 F 
ENDBRANCH  66  89
ENDBRANCH  40  41
ENDBRANCH  32  35
ENDBRANCH  30  31
ENDBRANCH  29  30
ENDBRANCH  28  29
ENDBRANCH   1  28
TORSDOF 16
ENDMDL
MODEL 3
REMARK VINA RESULT:     -12.3      4.501      7.989
REMARK SMILES CC[C@](C)(NC(=O)[C@H]1C[NH2+]Cc2ccccc21)C(=O)NCCCCCCNC(=O)c1ccc(-c2c3nc(c(-c4c(F)c(F)c(F)c(F)c4F)c4ccc([nH]4)c(-c4c(F)c(F)c(F)c(F)c4F)c4nc(c(-c5c(F)c(F)c(F)c(F)c5F)c5ccc2[nH]5)C=C4)C=C3)cc1
REMARK SMILES IDX 23 1 22 2 21 3 20 4 18 5 19 6 3 8 4 9 2 10 1 11 5 12 6 13
REMARK SMILES IDX 7 15 8 16 9 17 17 18 10 19 12 20 16 21 11 22 13 25 15 26
REMARK SMILES IDX 14 27 24 28 25 29 26 30 27 31 28 32 29 34 30 35 31 36 92 37
REMARK SMILES IDX 32 38 91 39 33 40 34 41 35 42 85 43 36 44 90 45 84 46 86 47
REMARK SMILES IDX 37 48 89 49 83 50 82 51 38 53 70 54 50 55 69 56 51 57 54 58
REMARK SMILES IDX 68 59 87 60 52 61 53 62 67 64 88 65 55 66 39 67 40 68 48 69
REMARK SMILES IDX 41 70 42 71 46 72 49 73 43 74 44 75 47 76 45 77 71 78 72 79
REMARK SMILES IDX 80 80 73 81 74 82 78 83 81 84 75 85 76 86 79 87 77 88 56 89
REMARK SMILES IDX 57 90 65 91 58 92 59 93 63 94 66 95 60 96 61 97 64 98 62 99
REMARK H PARENT 20 7 5 14 10 23 10 24 27 33 86 52 54 63
REMARK Flexibility Score: inf
ROOT
ATOM      1  C   UNL A   1      35.372  20.752  25.086  1.00  0.00     0.002 C 
ENDROOT
BRANCH   1   2
ATOM      2  C   UNL A   1      34.297  19.777  24.622  1.00  0.00     0.021 C 
BRANCH   2   3
ATOM      3  C   UNL A   1      32.903  20.331  24.320  1.00  0.00     0.116 C 
BRANCH   3   4
ATOM      4  N   UNL A   1      32.076  20.811  25.419  1.00  0.00    -0.354 N 
ATOM      5  C   UNL A   1      31.302  21.938  25.549  1.00  0.00     0.245 C 
ATOM      6  O   UNL A   1      30.233  21.826  26.157  1.00  0.00    -0.272 OA
ATOM      7  H   UNL A   1      32.072  20.223  26.210  1.00  0.00     0.163 HD
BRANCH   5   8
ATOM      8  C   UNL A   1      31.672  23.252  24.822  1.00  0.00     0.116 C 
ATOM      9  C   UNL A   1      31.907  23.144  23.307  1.00  0.00     0.045 C 
BRANCH   8  10
ATOM     10  C   UNL A   1      33.043  23.740  25.409  1.00  0.00     0.035 C 
ATOM     11  C   UNL A   1      34.061  24.128  24.324  1.00  0.00     0.007 C 
ENDBRANCH   8  10
BRANCH   8  12
ATOM     12  N   UNL A   1      30.566  24.205  25.066  1.00  0.00    -0.341 N 
ATOM     13  C   UNL A   1      30.407  25.552  24.906  1.00  0.00     0.234 C 
ATOM     14  H   UNL A   1      29.761  23.767  25.426  1.00  0.00     0.164 HD
ATOM     15  O   UNL A   1      29.325  25.957  25.372  1.00  0.00    -0.274 OA
BRANCH  13  16
ATOM     16  C   UNL A   1      31.355  26.626  24.297  1.00  0.00     0.164 C 
ATOM     17  C   UNL A   1      30.890  27.204  22.953  1.00  0.00     0.279 C 
ATOM     18  C   UNL A   1      32.002  27.702  25.141  1.00  0.00    -0.021 A 
ATOM     19  N   UNL A   1      30.192  28.487  22.969  1.00  0.00    -0.342 N 
ATOM     20  C   UNL A   1      31.609  29.037  25.004  1.00  0.00     0.010 A 
ATOM     21  C   UNL A   1      33.115  27.438  25.952  1.00  0.00     0.005 A 
ATOM     22  C   UNL A   1      30.730  29.501  23.872  1.00  0.00     0.297 C 
ATOM     23  H   UNL A   1      29.224  28.313  23.238  1.00  0.00     0.346 HD
ATOM     24  H   UNL A   1      30.304  28.870  22.030  1.00  0.00     0.346 HD
ATOM     25  C   UNL A   1      32.140  30.014  25.871  1.00  0.00     0.010 A 
ATOM     26  C   UNL A   1      33.670  28.415  26.781  1.00  0.00     0.000 A 
ATOM     27  C   UNL A   1      33.138  29.695  26.787  1.00  0.00     0.001 A 
ENDBRANCH  13  16
ENDBRANCH   8  12
ENDBRANCH   5   8
ENDBRANCH   3   4
ENDBRANCH   2   3
ENDBRANCH   1   2
BRANCH   1  28
ATOM     28  C   UNL A   1      36.818  20.262  25.020  1.00  0.00     0.002 C 
BRANCH  28  29
ATOM     29  C   UNL A   1      37.861  21.371  24.983  1.00  0.00     0.021 C 
BRANCH  29  30
ATOM     30  C   UNL A   1      38.987  21.175  25.979  1.00  0.00     0.116 C 
BRANCH  30  31
ATOM     31  N   UNL A   1      39.696  19.913  25.814  1.00  0.00    -0.352 N 
ATOM     32  C   UNL A   1      41.044  19.702  25.989  1.00  0.00     0.251 C 
ATOM     33  H   UNL A   1      39.156  19.133  25.551  1.00  0.00     0.163 HD
ATOM     34  O   UNL A   1      41.573  18.623  25.750  1.00  0.00    -0.269 OA
BRANCH  32  35
ATOM     35  C   UNL A   1      41.846  20.856  26.433  1.00  0.00     0.039 A 
ATOM     36  C   UNL A   1      42.275  21.788  25.488  1.00  0.00     0.014 A 
ATOM     37  C   UNL A   1      41.981  21.094  27.803  1.00  0.00     0.014 A 
ATOM     38  C   UNL A   1      42.782  23.012  25.926  1.00  0.00     0.010 A 
ATOM     39  C   UNL A   1      42.401  22.344  28.230  1.00  0.00     0.010 A 
ATOM     40  C   UNL A   1      42.805  23.315  27.297  1.00  0.00    -0.014 A 
BRANCH  40  41
ATOM     41  C   UNL A   1      43.274  24.630  27.799  1.00  0.00     0.031 A 
ATOM     42  C   UNL A   1      42.255  25.665  28.184  1.00  0.00     0.074 A 
ATOM     43  C   UNL A   1      44.588  24.926  27.813  1.00  0.00     0.049 A 
ATOM     44  N   UNL A   1      42.426  26.926  28.488  1.00  0.00    -0.248 NA
ATOM     45  C   UNL A   1      40.845  25.237  28.177  1.00  0.00     0.031 C 
ATOM     46  C   UNL A   1      45.670  24.025  27.409  1.00  0.00     0.029 A 
ATOM     47  N   UNL A   1      45.238  26.083  28.165  1.00  0.00    -0.354 N 
ATOM     48  C   UNL A   1      41.150  27.446  28.656  1.00  0.00     0.074 A 
ATOM     49  C   UNL A   1      40.213  26.381  28.381  1.00  0.00     0.031 C 
ATOM     50  C   UNL A   1      46.848  24.655  27.556  1.00  0.00     0.029 A 
ATOM     51  C   UNL A   1      46.604  26.015  28.027  1.00  0.00     0.049 A 
ATOM     52  H   UNL A   1      44.770  26.887  28.486  1.00  0.00     0.167 HD
ATOM     53  C   UNL A   1      40.795  28.696  29.032  1.00  0.00     0.037 A 
ATOM     54  C   UNL A   1      47.547  26.951  28.251  1.00  0.00     0.037 A 
ATOM     55  C   UNL A   1      41.733  29.724  29.386  1.00  0.00     0.049 A 
ATOM     56  C   UNL A   1      47.122  28.315  28.731  1.00  0.00     0.074 A 
ATOM     57  C   UNL A   1      41.477  30.992  29.878  1.00  0.00     0.029 A 
ATOM     58  N   UNL A   1      43.111  29.593  29.305  1.00  0.00    -0.354 N 
ATOM     59  N   UNL A   1      45.916  28.775  28.956  1.00  0.00    -0.248 NA
ATOM     60  C   UNL A   1      48.192  29.290  28.992  1.00  0.00     0.031 C 
ATOM     61  C   UNL A   1      42.701  31.639  30.069  1.00  0.00     0.029 A 
ATOM     62  C   UNL A   1      43.719  30.760  29.731  1.00  0.00     0.049 A 
ATOM     63  H   UNL A   1      43.585  28.789  28.991  1.00  0.00     0.167 HD
ATOM     64  C   UNL A   1      46.082  30.072  29.422  1.00  0.00     0.074 A 
ATOM     65  C   UNL A   1      47.507  30.327  29.452  1.00  0.00     0.031 C 
ATOM     66  C   UNL A   1      45.140  30.974  29.788  1.00  0.00     0.037 A 
BRANCH  53  67
ATOM     67  C   UNL A   1      39.333  29.016  29.099  1.00  0.00     0.064 A 
ATOM     68  C   UNL A   1      38.635  29.023  30.315  1.00  0.00     0.173 A 
ATOM     69  C   UNL A   1      38.631  29.367  27.936  1.00  0.00     0.173 A 
ATOM     70  F   UNL A   1      39.258  28.680  31.452  1.00  0.00    -0.203 F 
ATOM     71  C   UNL A   1      37.282  29.347  30.362  1.00  0.00     0.198 A 
ATOM     72  C   UNL A   1      37.285  29.719  27.991  1.00  0.00     0.198 A 
ATOM     73  F   UNL A   1      39.253  29.379  26.747  1.00  0.00    -0.203 F 
ATOM     74  F   UNL A   1      36.626  29.305  31.530  1.00  0.00    -0.200 F 
ATOM     75  C   UNL A   1      36.610  29.703  29.203  1.00  0.00     0.200 A 
ATOM     76  F   UNL A   1      36.641  30.074  26.871  1.00  0.00    -0.200 F 
ATOM     77  F   UNL A   1      35.311  30.027  29.251  1.00  0.00    -0.200 F 
ENDBRANCH  53  67
BRANCH  54  78
ATOM     78  C   UNL A   1      48.987  26.636  28.055  1.00  0.00     0.064 A 
ATOM     79  C   UNL A   1      49.796  26.278  29.144  1.00  0.00     0.173 A 
ATOM     80  C   UNL A   1      49.593  26.725  26.795  1.00  0.00     0.173 A 
ATOM     81  F   UNL A   1      49.265  26.201  30.374  1.00  0.00    -0.203 F 
ATOM     82  C   UNL A   1      51.162  26.054  28.986  1.00  0.00     0.198 A 
ATOM     83  C   UNL A   1      50.955  26.473  26.633  1.00  0.00     0.198 A 
ATOM     84  F   UNL A   1      48.865  27.058  25.720  1.00  0.00    -0.203 F 
ATOM     85  F   UNL A   1      51.920  25.770  30.054  1.00  0.00    -0.200 F 
ATOM     86  C   UNL A   1      51.740  26.149  27.730  1.00  0.00     0.200 A 
ATOM     87  F   UNL A   1      51.509  26.556  25.416  1.00  0.00    -0.200 F 
ATOM     88  F   UNL A   1      53.056  25.942  27.579  1.00  0.00    -0.200 F 
ENDBRANCH  54  78
BRANCH  66  89
ATOM     89  C   UNL A   1      45.615  32.295  30.311  1.00  0.00     0.064 A 
ATOM     90  C   UNL A   1      45.796  33.398  29.466  1.00  0.00     0.173 A 
ATOM     91  C   UNL A   1      45.823  32.475  31.688  1.00  0.00     0.173 A 
ATOM     92  F   UNL A   1      45.622  33.269  28.142  1.00  0.00    -0.203 F 
ATOM     93  C   UNL A   1      46.183  34.633  29.979  1.00  0.00     0.198 A 
ATOM     94  C   UNL A   1      46.186  33.717  32.199  1.00  0.00     0.198 A 
ATOM     95  F   UNL A   1      45.654  31.450  32.536  1.00  0.00    -0.203 F 
ATOM     96  F   UNL A   1      46.383  35.666  29.150  1.00  0.00    -0.200 F 
ATOM     97  C   UNL A   1      46.369  34.794  31.344  1.00  0.00     0.200 A 
ATOM     98  F   UNL A   1      46.351  33.874  33.520  1.00  0.00    -0.200 F 
ATOM     99  F   UNL A   1      46.728  35.987  31.837  1.00  0.00    -0.200 F 
ENDBRANCH  66  89
ENDBRANCH  40  41
ENDBRANCH  32  35
ENDBRANCH  30  31
ENDBRANCH  29  30
ENDBRANCH  28  29
ENDBRANCH   1  28
TORSDOF 16
ENDMDL
