MODEL 1
REMARK VINA RESULT:     -12.1      0.000      0.000
REMARK SMILES C[C@@H](C(=O)NCCCCCCNC(=O)c1ccc(-c2c3nc(c(-c4c(F)c(F)c(F)c(F)c4F)c4ccc([nH]4)c(-c4c(F)c(F)c(F)c(F)c4F)c4nc(c(-c5c(F)c(F)c(F)c(F)c5F)c5ccc2[nH]5)C=C4)C=C3)cc1)[C@H](C)[S@@](=O)c1ccc(F)c(F)c1
REMARK SMILES IDX 8 1 7 2 6 3 5 4 3 5 4 6 2 8 1 9 78 10 79 11 80 12 81 13
REMARK SMILES IDX 82 14 83 15 89 16 84 17 87 18 85 19 88 20 86 21 9 22 10 23
REMARK SMILES IDX 11 24 12 25 13 26 14 28 15 29 16 30 77 31 17 32 76 33 18 34
REMARK SMILES IDX 19 35 20 36 70 37 21 38 75 39 69 40 71 41 22 42 74 43 68 44
REMARK SMILES IDX 67 45 23 47 55 48 35 49 54 50 36 51 39 52 53 53 72 54 37 55
REMARK SMILES IDX 38 56 52 58 73 59 40 60 24 61 25 62 33 63 26 64 27 65 31 66
REMARK SMILES IDX 34 67 28 68 29 69 32 70 30 71 56 72 57 73 65 74 58 75 59 76
REMARK SMILES IDX 63 77 66 78 60 79 61 80 64 81 62 82 41 83 42 84 50 85 43 86
REMARK SMILES IDX 44 87 48 88 51 89 45 90 46 91 49 92 47 93
REMARK H PARENT 5 7 12 27 71 46 39 57
REMARK Flexibility Score: inf
ROOT
ATOM      1  C   UNL A   1      32.430  29.659  27.252  1.00  0.00     0.002 C 
ENDROOT
BRANCH   1   2
ATOM      2  C   UNL A   1      33.888  29.293  26.960  1.00  0.00     0.021 C 
BRANCH   2   3
ATOM      3  C   UNL A   1      34.071  28.216  25.887  1.00  0.00     0.116 C 
BRANCH   3   4
ATOM      4  N   UNL A   1      34.097  28.787  24.553  1.00  0.00    -0.356 N 
ATOM      5  C   UNL A   1      33.408  28.438  23.426  1.00  0.00     0.224 C 
ATOM      6  O   UNL A   1      33.624  29.103  22.413  1.00  0.00    -0.275 OA
ATOM      7  H   UNL A   1      34.710  29.549  24.443  1.00  0.00     0.163 HD
BRANCH   5   8
ATOM      8  C   UNL A   1      32.397  27.279  23.471  1.00  0.00     0.091 C 
ATOM      9  C   UNL A   1      32.433  26.539  22.132  1.00  0.00     0.019 C 
BRANCH   8  10
ATOM     10  C   UNL A   1      31.007  27.765  23.992  1.00  0.00     0.093 C 
ATOM     11  C   UNL A   1      30.588  27.115  25.323  1.00  0.00     0.023 C 
BRANCH  10  12
ATOM     12  S   UNL A   1      29.582  27.844  22.850  1.00  0.00     0.057 S 
ATOM     13  O   UNL A   1      28.412  27.171  23.503  1.00  0.00    -0.254 OA
BRANCH  12  14
ATOM     14  C   UNL A   1      29.134  29.587  22.723  1.00  0.00     0.042 A 
ATOM     15  C   UNL A   1      29.417  30.417  23.824  1.00  0.00     0.021 A 
ATOM     16  C   UNL A   1      28.536  30.150  21.594  1.00  0.00     0.060 A 
ATOM     17  C   UNL A   1      29.165  31.791  23.777  1.00  0.00     0.043 A 
ATOM     18  C   UNL A   1      28.317  31.526  21.541  1.00  0.00     0.160 A 
ATOM     19  C   UNL A   1      28.631  32.341  22.620  1.00  0.00     0.158 A 
ATOM     20  F   UNL A   1      27.828  32.061  20.414  1.00  0.00    -0.204 F 
ATOM     21  F   UNL A   1      28.432  33.663  22.551  1.00  0.00    -0.204 F 
ENDBRANCH  12  14
ENDBRANCH  10  12
ENDBRANCH   8  10
ENDBRANCH   5   8
ENDBRANCH   3   4
ENDBRANCH   2   3
ENDBRANCH   1   2
BRANCH   1  22
ATOM     22  C   UNL A   1      31.813  30.664  26.279  1.00  0.00     0.002 C 
BRANCH  22  23
ATOM     23  C   UNL A   1      31.528  32.043  26.876  1.00  0.00     0.021 C 
BRANCH  23  24
ATOM     24  C   UNL A   1      32.770  32.793  27.344  1.00  0.00     0.116 C 
BRANCH  24  25
ATOM     25  N   UNL A   1      32.482  34.186  27.648  1.00  0.00    -0.352 N 
ATOM     26  C   UNL A   1      33.010  34.983  28.634  1.00  0.00     0.251 C 
ATOM     27  H   UNL A   1      31.815  34.617  27.065  1.00  0.00     0.163 HD
ATOM     28  O   UNL A   1      32.509  36.067  28.900  1.00  0.00    -0.269 OA
BRANCH  26  29
ATOM     29  C   UNL A   1      34.188  34.506  29.386  1.00  0.00     0.039 A 
ATOM     30  C   UNL A   1      34.004  33.916  30.638  1.00  0.00     0.014 A 
ATOM     31  C   UNL A   1      35.469  34.630  28.839  1.00  0.00     0.014 A 
ATOM     32  C   UNL A   1      35.104  33.388  31.317  1.00  0.00     0.010 A 
ATOM     33  C   UNL A   1      36.548  34.034  29.480  1.00  0.00     0.010 A 
ATOM     34  C   UNL A   1      36.378  33.412  30.727  1.00  0.00    -0.014 A 
BRANCH  34  35
ATOM     35  C   UNL A   1      37.554  32.798  31.390  1.00  0.00     0.031 A 
ATOM     36  C   UNL A   1      38.241  31.624  30.752  1.00  0.00     0.074 A 
ATOM     37  C   UNL A   1      37.939  33.227  32.607  1.00  0.00     0.049 A 
ATOM     38  N   UNL A   1      39.195  30.863  31.225  1.00  0.00    -0.248 NA
ATOM     39  C   UNL A   1      37.765  31.232  29.417  1.00  0.00     0.031 C 
ATOM     40  C   UNL A   1      37.318  34.326  33.347  1.00  0.00     0.029 A 
ATOM     41  N   UNL A   1      38.924  32.772  33.446  1.00  0.00    -0.354 N 
ATOM     42  C   UNL A   1      39.415  29.892  30.258  1.00  0.00     0.074 A 
ATOM     43  C   UNL A   1      38.457  30.125  29.198  1.00  0.00     0.031 C 
ATOM     44  C   UNL A   1      37.938  34.461  34.530  1.00  0.00     0.029 A 
ATOM     45  C   UNL A   1      38.966  33.431  34.651  1.00  0.00     0.049 A 
ATOM     46  H   UNL A   1      39.542  32.043  33.208  1.00  0.00     0.167 HD
ATOM     47  C   UNL A   1      40.343  28.906  30.246  1.00  0.00     0.037 A 
ATOM     48  C   UNL A   1      39.728  33.212  35.740  1.00  0.00     0.037 A 
ATOM     49  C   UNL A   1      41.302  28.693  31.298  1.00  0.00     0.049 A 
ATOM     50  C   UNL A   1      40.749  32.107  35.713  1.00  0.00     0.074 A 
ATOM     51  C   UNL A   1      42.333  27.773  31.353  1.00  0.00     0.029 A 
ATOM     52  N   UNL A   1      41.337  29.405  32.490  1.00  0.00    -0.354 N 
ATOM     53  N   UNL A   1      41.004  31.242  34.761  1.00  0.00    -0.248 NA
ATOM     54  C   UNL A   1      41.591  31.950  36.906  1.00  0.00     0.031 C 
ATOM     55  C   UNL A   1      42.949  27.881  32.603  1.00  0.00     0.029 A 
ATOM     56  C   UNL A   1      42.350  28.918  33.302  1.00  0.00     0.049 A 
ATOM     57  H   UNL A   1      40.732  30.146  32.724  1.00  0.00     0.167 HD
ATOM     58  C   UNL A   1      42.051  30.458  35.226  1.00  0.00     0.074 A 
ATOM     59  C   UNL A   1      42.387  30.953  36.545  1.00  0.00     0.031 C 
ATOM     60  C   UNL A   1      42.678  29.425  34.612  1.00  0.00     0.037 A 
BRANCH  47  61
ATOM     61  C   UNL A   1      40.348  27.973  29.068  1.00  0.00     0.064 A 
ATOM     62  C   UNL A   1      41.092  28.246  27.909  1.00  0.00     0.173 A 
ATOM     63  C   UNL A   1      39.597  26.788  29.098  1.00  0.00     0.173 A 
ATOM     64  F   UNL A   1      41.822  29.368  27.822  1.00  0.00    -0.203 F 
ATOM     65  C   UNL A   1      41.042  27.395  26.807  1.00  0.00     0.198 A 
ATOM     66  C   UNL A   1      39.582  25.920  28.009  1.00  0.00     0.198 A 
ATOM     67  F   UNL A   1      38.875  26.471  30.182  1.00  0.00    -0.203 F 
ATOM     68  F   UNL A   1      41.702  27.715  25.685  1.00  0.00    -0.200 F 
ATOM     69  C   UNL A   1      40.292  26.231  26.860  1.00  0.00     0.200 A 
ATOM     70  F   UNL A   1      38.869  24.786  28.070  1.00  0.00    -0.200 F 
ATOM     71  F   UNL A   1      40.243  25.413  25.798  1.00  0.00    -0.200 F 
ENDBRANCH  47  61
BRANCH  48  72
ATOM     72  C   UNL A   1      39.547  34.069  36.940  1.00  0.00     0.064 A 
ATOM     73  C   UNL A   1      38.777  33.638  38.028  1.00  0.00     0.173 A 
ATOM     74  C   UNL A   1      40.173  35.320  37.040  1.00  0.00     0.173 A 
ATOM     75  F   UNL A   1      38.144  32.456  37.974  1.00  0.00    -0.203 F 
ATOM     76  C   UNL A   1      38.632  34.429  39.166  1.00  0.00     0.198 A 
ATOM     77  C   UNL A   1      40.053  36.098  38.190  1.00  0.00     0.198 A 
ATOM     78  F   UNL A   1      40.930  35.776  36.030  1.00  0.00    -0.203 F 
ATOM     79  F   UNL A   1      37.865  34.007  40.180  1.00  0.00    -0.200 F 
ATOM     80  C   UNL A   1      39.278  35.654  39.251  1.00  0.00     0.200 A 
ATOM     81  F   UNL A   1      40.695  37.271  38.274  1.00  0.00    -0.200 F 
ATOM     82  F   UNL A   1      39.154  36.406  40.352  1.00  0.00    -0.200 F 
ENDBRANCH  48  72
BRANCH  60  83
ATOM     83  C   UNL A   1      43.822  28.774  35.335  1.00  0.00     0.064 A 
ATOM     84  C   UNL A   1      43.628  27.696  36.208  1.00  0.00     0.173 A 
ATOM     85  C   UNL A   1      45.140  29.187  35.083  1.00  0.00     0.173 A 
ATOM     86  F   UNL A   1      42.387  27.273  36.494  1.00  0.00    -0.203 F 
ATOM     87  C   UNL A   1      44.711  27.060  36.812  1.00  0.00     0.198 A 
ATOM     88  C   UNL A   1      46.221  28.530  35.662  1.00  0.00     0.198 A 
ATOM     89  F   UNL A   1      45.381  30.211  34.249  1.00  0.00    -0.203 F 
ATOM     90  F   UNL A   1      44.501  26.052  37.670  1.00  0.00    -0.200 F 
ATOM     91  C   UNL A   1      46.006  27.469  36.529  1.00  0.00     0.200 A 
ATOM     92  F   UNL A   1      47.472  28.916  35.374  1.00  0.00    -0.200 F 
ATOM     93  F   UNL A   1      47.047  26.843  37.094  1.00  0.00    -0.200 F 
ENDBRANCH  60  83
ENDBRANCH  34  35
ENDBRANCH  26  29
ENDBRANCH  24  25
ENDBRANCH  23  24
ENDBRANCH  22  23
ENDBRANCH   1  22
TORSDOF 16
ENDMDL
MODEL 2
REMARK VINA RESULT:     -11.8      2.592      3.736
REMARK SMILES C[C@@H](C(=O)NCCCCCCNC(=O)c1ccc(-c2c3nc(c(-c4c(F)c(F)c(F)c(F)c4F)c4ccc([nH]4)c(-c4c(F)c(F)c(F)c(F)c4F)c4nc(c(-c5c(F)c(F)c(F)c(F)c5F)c5ccc2[nH]5)C=C4)C=C3)cc1)[C@H](C)[S@@](=O)c1ccc(F)c(F)c1
REMARK SMILES IDX 8 1 7 2 6 3 5 4 3 5 4 6 2 8 1 9 78 10 79 11 80 12 81 13
REMARK SMILES IDX 82 14 83 15 89 16 84 17 87 18 85 19 88 20 86 21 9 22 10 23
REMARK SMILES IDX 11 24 12 25 13 26 14 28 15 29 16 30 77 31 17 32 76 33 18 34
REMARK SMILES IDX 19 35 20 36 70 37 21 38 75 39 69 40 71 41 22 42 74 43 68 44
REMARK SMILES IDX 67 45 23 47 55 48 35 49 54 50 36 51 39 52 53 53 72 54 37 55
REMARK SMILES IDX 38 56 52 58 73 59 40 60 24 61 25 62 33 63 26 64 27 65 31 66
REMARK SMILES IDX 34 67 28 68 29 69 32 70 30 71 56 72 57 73 65 74 58 75 59 76
REMARK SMILES IDX 63 77 66 78 60 79 61 80 64 81 62 82 41 83 42 84 50 85 43 86
REMARK SMILES IDX 44 87 48 88 51 89 45 90 46 91 49 92 47 93
REMARK H PARENT 5 7 12 27 71 46 39 57
REMARK Flexibility Score: inf
ROOT
ATOM      1  C   UNL A   1      33.126  30.043  27.023  1.00  0.00     0.002 C 
ENDROOT
BRANCH   1   2
ATOM      2  C   UNL A   1      33.145  28.565  27.421  1.00  0.00     0.021 C 
BRANCH   2   3
ATOM      3  C   UNL A   1      32.750  27.599  26.300  1.00  0.00     0.116 C 
BRANCH   3   4
ATOM      4  N   UNL A   1      31.636  26.754  26.689  1.00  0.00    -0.356 N 
ATOM      5  C   UNL A   1      30.610  26.243  25.946  1.00  0.00     0.224 C 
ATOM      6  O   UNL A   1      29.787  25.544  26.537  1.00  0.00    -0.275 OA
ATOM      7  H   UNL A   1      31.618  26.509  27.642  1.00  0.00     0.163 HD
BRANCH   5   8
ATOM      8  C   UNL A   1      30.537  26.530  24.435  1.00  0.00     0.091 C 
ATOM      9  C   UNL A   1      29.087  26.379  23.972  1.00  0.00     0.019 C 
BRANCH   8  10
ATOM     10  C   UNL A   1      31.632  25.731  23.658  1.00  0.00     0.093 C 
ATOM     11  C   UNL A   1      31.531  25.877  22.129  1.00  0.00     0.023 C 
BRANCH  10  12
ATOM     12  S   UNL A   1      31.983  23.994  24.107  1.00  0.00     0.057 S 
ATOM     13  O   UNL A   1      31.636  23.121  22.937  1.00  0.00    -0.254 OA
BRANCH  12  14
ATOM     14  C   UNL A   1      33.773  23.873  24.292  1.00  0.00     0.042 A 
ATOM     15  C   UNL A   1      34.340  24.339  25.493  1.00  0.00     0.021 A 
ATOM     16  C   UNL A   1      34.616  23.334  23.316  1.00  0.00     0.060 A 
ATOM     17  C   UNL A   1      35.710  24.215  25.741  1.00  0.00     0.043 A 
ATOM     18  C   UNL A   1      35.976  23.185  23.583  1.00  0.00     0.160 A 
ATOM     19  C   UNL A   1      36.519  23.617  24.786  1.00  0.00     0.158 A 
ATOM     20  F   UNL A   1      36.752  22.581  22.673  1.00  0.00    -0.204 F 
ATOM     21  F   UNL A   1      37.824  23.452  25.037  1.00  0.00    -0.204 F 
ENDBRANCH  12  14
ENDBRANCH  10  12
ENDBRANCH   8  10
ENDBRANCH   5   8
ENDBRANCH   3   4
ENDBRANCH   2   3
ENDBRANCH   1   2
BRANCH   1  22
ATOM     22  C   UNL A   1      31.765  30.568  26.563  1.00  0.00     0.002 C 
BRANCH  22  23
ATOM     23  C   UNL A   1      31.551  32.068  26.775  1.00  0.00     0.021 C 
BRANCH  23  24
ATOM     24  C   UNL A   1      32.779  32.811  27.286  1.00  0.00     0.116 C 
BRANCH  24  25
ATOM     25  N   UNL A   1      32.481  34.198  27.608  1.00  0.00    -0.352 N 
ATOM     26  C   UNL A   1      32.998  34.983  28.610  1.00  0.00     0.251 C 
ATOM     27  H   UNL A   1      31.815  34.633  27.028  1.00  0.00     0.163 HD
ATOM     28  O   UNL A   1      32.488  36.059  28.889  1.00  0.00    -0.269 OA
BRANCH  26  29
ATOM     29  C   UNL A   1      34.174  34.502  29.362  1.00  0.00     0.039 A 
ATOM     30  C   UNL A   1      33.988  33.913  30.615  1.00  0.00     0.014 A 
ATOM     31  C   UNL A   1      35.455  34.621  28.816  1.00  0.00     0.014 A 
ATOM     32  C   UNL A   1      35.086  33.382  31.294  1.00  0.00     0.010 A 
ATOM     33  C   UNL A   1      36.533  34.021  29.456  1.00  0.00     0.010 A 
ATOM     34  C   UNL A   1      36.360  33.400  30.703  1.00  0.00    -0.014 A 
BRANCH  34  35
ATOM     35  C   UNL A   1      37.534  32.782  31.367  1.00  0.00     0.031 A 
ATOM     36  C   UNL A   1      38.217  31.606  30.729  1.00  0.00     0.074 A 
ATOM     37  C   UNL A   1      37.919  33.210  32.584  1.00  0.00     0.049 A 
ATOM     38  N   UNL A   1      39.169  30.842  31.202  1.00  0.00    -0.248 NA
ATOM     39  C   UNL A   1      37.740  31.217  29.393  1.00  0.00     0.031 C 
ATOM     40  C   UNL A   1      37.302  34.310  33.325  1.00  0.00     0.029 A 
ATOM     41  N   UNL A   1      38.902  32.751  33.424  1.00  0.00    -0.354 N 
ATOM     42  C   UNL A   1      39.385  29.870  30.235  1.00  0.00     0.074 A 
ATOM     43  C   UNL A   1      38.429  30.108  29.175  1.00  0.00     0.031 C 
ATOM     44  C   UNL A   1      37.921  34.443  34.508  1.00  0.00     0.029 A 
ATOM     45  C   UNL A   1      38.946  33.409  34.629  1.00  0.00     0.049 A 
ATOM     46  H   UNL A   1      39.518  32.020  33.186  1.00  0.00     0.167 HD
ATOM     47  C   UNL A   1      40.311  28.882  30.223  1.00  0.00     0.037 A 
ATOM     48  C   UNL A   1      39.707  33.188  35.718  1.00  0.00     0.037 A 
ATOM     49  C   UNL A   1      41.269  28.666  31.276  1.00  0.00     0.049 A 
ATOM     50  C   UNL A   1      40.724  32.079  35.691  1.00  0.00     0.074 A 
ATOM     51  C   UNL A   1      42.297  27.742  31.330  1.00  0.00     0.029 A 
ATOM     52  N   UNL A   1      41.305  29.376  32.467  1.00  0.00    -0.354 N 
ATOM     53  N   UNL A   1      40.977  31.214  34.739  1.00  0.00    -0.248 NA
ATOM     54  C   UNL A   1      41.565  31.919  36.885  1.00  0.00     0.031 C 
ATOM     55  C   UNL A   1      42.912  27.847  32.581  1.00  0.00     0.029 A 
ATOM     56  C   UNL A   1      42.316  28.886  33.279  1.00  0.00     0.049 A 
ATOM     57  H   UNL A   1      40.702  30.119  32.701  1.00  0.00     0.167 HD
ATOM     58  C   UNL A   1      42.021  30.426  35.204  1.00  0.00     0.074 A 
ATOM     59  C   UNL A   1      42.359  30.919  36.523  1.00  0.00     0.031 C 
ATOM     60  C   UNL A   1      42.645  29.391  34.590  1.00  0.00     0.037 A 
BRANCH  47  61
ATOM     61  C   UNL A   1      40.313  27.949  29.044  1.00  0.00     0.064 A 
ATOM     62  C   UNL A   1      41.056  28.222  27.884  1.00  0.00     0.173 A 
ATOM     63  C   UNL A   1      39.561  26.765  29.075  1.00  0.00     0.173 A 
ATOM     64  F   UNL A   1      41.786  29.344  27.797  1.00  0.00    -0.203 F 
ATOM     65  C   UNL A   1      41.004  27.371  26.782  1.00  0.00     0.198 A 
ATOM     66  C   UNL A   1      39.544  25.897  27.986  1.00  0.00     0.198 A 
ATOM     67  F   UNL A   1      38.840  26.448  30.160  1.00  0.00    -0.203 F 
ATOM     68  F   UNL A   1      41.663  27.692  25.659  1.00  0.00    -0.200 F 
ATOM     69  C   UNL A   1      40.252  26.208  26.836  1.00  0.00     0.200 A 
ATOM     70  F   UNL A   1      38.830  24.764  28.047  1.00  0.00    -0.200 F 
ATOM     71  F   UNL A   1      40.202  25.391  25.774  1.00  0.00    -0.200 F 
ENDBRANCH  47  61
BRANCH  48  72
ATOM     72  C   UNL A   1      39.528  34.045  36.918  1.00  0.00     0.064 A 
ATOM     73  C   UNL A   1      38.746  33.620  38.001  1.00  0.00     0.173 A 
ATOM     74  C   UNL A   1      40.168  35.289  37.024  1.00  0.00     0.173 A 
ATOM     75  F   UNL A   1      38.101  32.446  37.941  1.00  0.00    -0.203 F 
ATOM     76  C   UNL A   1      38.603  34.411  39.140  1.00  0.00     0.198 A 
ATOM     77  C   UNL A   1      40.049  36.066  38.175  1.00  0.00     0.198 A 
ATOM     78  F   UNL A   1      40.936  35.738  36.020  1.00  0.00    -0.203 F 
ATOM     79  F   UNL A   1      37.825  33.996  40.148  1.00  0.00    -0.200 F 
ATOM     80  C   UNL A   1      39.263  35.629  39.230  1.00  0.00     0.200 A 
ATOM     81  F   UNL A   1      40.703  37.231  38.264  1.00  0.00    -0.200 F 
ATOM     82  F   UNL A   1      39.140  36.380  40.332  1.00  0.00    -0.200 F 
ENDBRANCH  48  72
BRANCH  60  83
ATOM     83  C   UNL A   1      43.787  28.737  35.313  1.00  0.00     0.064 A 
ATOM     84  C   UNL A   1      45.112  29.159  35.141  1.00  0.00     0.173 A 
ATOM     85  C   UNL A   1      43.537  27.726  36.254  1.00  0.00     0.173 A 
ATOM     86  F   UNL A   1      45.405  30.111  34.242  1.00  0.00    -0.203 F 
ATOM     87  C   UNL A   1      46.147  28.586  35.876  1.00  0.00     0.198 A 
ATOM     88  C   UNL A   1      44.568  27.178  37.011  1.00  0.00     0.198 A 
ATOM     89  F   UNL A   1      42.285  27.289  36.462  1.00  0.00    -0.203 F 
ATOM     90  F   UNL A   1      47.411  28.982  35.672  1.00  0.00    -0.200 F 
ATOM     91  C   UNL A   1      45.873  27.606  36.819  1.00  0.00     0.200 A 
ATOM     92  F   UNL A   1      44.299  26.243  37.933  1.00  0.00    -0.200 F 
ATOM     93  F   UNL A   1      46.868  27.071  37.540  1.00  0.00    -0.200 F 
ENDBRANCH  60  83
ENDBRANCH  34  35
ENDBRANCH  26  29
ENDBRANCH  24  25
ENDBRANCH  23  24
ENDBRANCH  22  23
ENDBRANCH   1  22
TORSDOF 16
ENDMDL
MODEL 3
REMARK VINA RESULT:     -11.8      0.881      7.462
REMARK SMILES C[C@@H](C(=O)NCCCCCCNC(=O)c1ccc(-c2c3nc(c(-c4c(F)c(F)c(F)c(F)c4F)c4ccc([nH]4)c(-c4c(F)c(F)c(F)c(F)c4F)c4nc(c(-c5c(F)c(F)c(F)c(F)c5F)c5ccc2[nH]5)C=C4)C=C3)cc1)[C@H](C)[S@@](=O)c1ccc(F)c(F)c1
REMARK SMILES IDX 8 1 7 2 6 3 5 4 3 5 4 6 2 8 1 9 78 10 79 11 80 12 81 13
REMARK SMILES IDX 82 14 83 15 89 16 84 17 87 18 85 19 88 20 86 21 9 22 10 23
REMARK SMILES IDX 11 24 12 25 13 26 14 28 15 29 16 30 77 31 17 32 76 33 18 34
REMARK SMILES IDX 19 35 20 36 70 37 21 38 75 39 69 40 71 41 22 42 74 43 68 44
REMARK SMILES IDX 67 45 23 47 55 48 35 49 54 50 36 51 39 52 53 53 72 54 37 55
REMARK SMILES IDX 38 56 52 58 73 59 40 60 24 61 25 62 33 63 26 64 27 65 31 66
REMARK SMILES IDX 34 67 28 68 29 69 32 70 30 71 56 72 57 73 65 74 58 75 59 76
REMARK SMILES IDX 63 77 66 78 60 79 61 80 64 81 62 82 41 83 42 84 50 85 43 86
REMARK SMILES IDX 44 87 48 88 51 89 45 90 46 91 49 92 47 93
REMARK H PARENT 5 7 12 27 71 46 39 57
REMARK Flexibility Score: inf
ROOT
ATOM      1  C   UNL A   1      33.193  30.395  27.050  1.00  0.00     0.002 C 
ENDROOT
BRANCH   1   2
ATOM      2  C   UNL A   1      33.359  28.886  27.252  1.00  0.00     0.021 C 
BRANCH   2   3
ATOM      3  C   UNL A   1      34.407  28.234  26.345  1.00  0.00     0.116 C 
BRANCH   3   4
ATOM      4  N   UNL A   1      34.369  28.782  25.002  1.00  0.00    -0.356 N 
ATOM      5  C   UNL A   1      33.836  28.272  23.851  1.00  0.00     0.224 C 
ATOM      6  O   UNL A   1      33.944  28.957  22.835  1.00  0.00    -0.275 OA
ATOM      7  H   UNL A   1      34.796  29.663  24.904  1.00  0.00     0.163 HD
BRANCH   5   8
ATOM      8  C   UNL A   1      33.117  26.912  23.875  1.00  0.00     0.091 C 
ATOM      9  C   UNL A   1      33.367  26.197  22.546  1.00  0.00     0.019 C 
BRANCH   8  10
ATOM     10  C   UNL A   1      31.635  27.067  24.346  1.00  0.00     0.093 C 
ATOM     11  C   UNL A   1      31.301  26.250  25.606  1.00  0.00     0.023 C 
BRANCH  10  12
ATOM     12  S   UNL A   1      30.275  26.942  23.131  1.00  0.00     0.057 S 
ATOM     13  O   UNL A   1      29.298  25.912  23.615  1.00  0.00    -0.254 OA
BRANCH  12  14
ATOM     14  C   UNL A   1      29.396  28.516  23.193  1.00  0.00     0.042 A 
ATOM     15  C   UNL A   1      28.049  28.529  22.785  1.00  0.00     0.021 A 
ATOM     16  C   UNL A   1      29.976  29.708  23.633  1.00  0.00     0.060 A 
ATOM     17  C   UNL A   1      27.279  29.692  22.871  1.00  0.00     0.043 A 
ATOM     18  C   UNL A   1      29.194  30.857  23.746  1.00  0.00     0.160 A 
ATOM     19  C   UNL A   1      27.857  30.850  23.372  1.00  0.00     0.158 A 
ATOM     20  F   UNL A   1      29.744  31.967  24.256  1.00  0.00    -0.204 F 
ATOM     21  F   UNL A   1      27.113  31.955  23.501  1.00  0.00    -0.204 F 
ENDBRANCH  12  14
ENDBRANCH  10  12
ENDBRANCH   8  10
ENDBRANCH   5   8
ENDBRANCH   3   4
ENDBRANCH   2   3
ENDBRANCH   1   2
BRANCH   1  22
ATOM     22  C   UNL A   1      31.762  30.852  26.767  1.00  0.00     0.002 C 
BRANCH  22  23
ATOM     23  C   UNL A   1      31.538  32.362  26.877  1.00  0.00     0.021 C 
BRANCH  23  24
ATOM     24  C   UNL A   1      32.813  33.173  27.071  1.00  0.00     0.116 C 
BRANCH  24  25
ATOM     25  N   UNL A   1      32.541  34.489  27.627  1.00  0.00    -0.352 N 
ATOM     26  C   UNL A   1      33.017  35.054  28.785  1.00  0.00     0.251 C 
ATOM     27  H   UNL A   1      31.930  35.053  27.099  1.00  0.00     0.163 HD
ATOM     28  O   UNL A   1      32.526  36.083  29.228  1.00  0.00    -0.269 OA
BRANCH  26  29
ATOM     29  C   UNL A   1      34.124  34.391  29.503  1.00  0.00     0.039 A 
ATOM     30  C   UNL A   1      33.836  33.586  30.607  1.00  0.00     0.014 A 
ATOM     31  C   UNL A   1      35.442  34.555  29.067  1.00  0.00     0.014 A 
ATOM     32  C   UNL A   1      34.868  32.891  31.238  1.00  0.00     0.010 A 
ATOM     33  C   UNL A   1      36.455  33.801  29.647  1.00  0.00     0.010 A 
ATOM     34  C   UNL A   1      36.179  32.965  30.741  1.00  0.00    -0.014 A 
BRANCH  34  35
ATOM     35  C   UNL A   1      37.287  32.184  31.346  1.00  0.00     0.031 A 
ATOM     36  C   UNL A   1      37.803  32.554  32.706  1.00  0.00     0.074 A 
ATOM     37  C   UNL A   1      37.891  31.214  30.633  1.00  0.00     0.049 A 
ATOM     38  N   UNL A   1      38.842  32.091  33.354  1.00  0.00    -0.248 NA
ATOM     39  C   UNL A   1      37.074  33.615  33.418  1.00  0.00     0.031 C 
ATOM     40  C   UNL A   1      37.509  30.798  29.284  1.00  0.00     0.029 A 
ATOM     41  N   UNL A   1      38.971  30.424  30.934  1.00  0.00    -0.354 N 
ATOM     42  C   UNL A   1      38.903  32.819  34.535  1.00  0.00     0.074 A 
ATOM     43  C   UNL A   1      37.833  33.792  34.488  1.00  0.00     0.031 C 
ATOM     44  C   UNL A   1      38.341  29.828  28.873  1.00  0.00     0.029 A 
ATOM     45  C   UNL A   1      39.342  29.587  29.910  1.00  0.00     0.049 A 
ATOM     46  H   UNL A   1      39.436  30.453  31.802  1.00  0.00     0.167 HD
ATOM     47  C   UNL A   1      39.763  32.676  35.571  1.00  0.00     0.037 A 
ATOM     48  C   UNL A   1      40.385  28.741  29.807  1.00  0.00     0.037 A 
ATOM     49  C   UNL A   1      40.814  31.693  35.614  1.00  0.00     0.049 A 
ATOM     50  C   UNL A   1      41.335  28.602  30.964  1.00  0.00     0.074 A 
ATOM     51  C   UNL A   1      41.692  31.414  36.645  1.00  0.00     0.029 A 
ATOM     52  N   UNL A   1      41.137  30.838  34.570  1.00  0.00    -0.354 N 
ATOM     53  N   UNL A   1      41.339  29.238  32.111  1.00  0.00    -0.248 NA
ATOM     54  C   UNL A   1      42.422  27.624  30.819  1.00  0.00     0.031 C 
ATOM     55  C   UNL A   1      42.588  30.437  36.202  1.00  0.00     0.029 A 
ATOM     56  C   UNL A   1      42.225  30.054  34.920  1.00  0.00     0.049 A 
ATOM     57  H   UNL A   1      40.663  30.794  33.708  1.00  0.00     0.167 HD
ATOM     58  C   UNL A   1      42.406  28.721  32.833  1.00  0.00     0.074 A 
ATOM     59  C   UNL A   1      43.025  27.714  31.997  1.00  0.00     0.031 C 
ATOM     60  C   UNL A   1      42.829  29.050  34.079  1.00  0.00     0.037 A 
BRANCH  47  61
ATOM     61  C   UNL A   1      39.612  33.620  36.731  1.00  0.00     0.064 A 
ATOM     62  C   UNL A   1      40.290  34.849  36.781  1.00  0.00     0.173 A 
ATOM     63  C   UNL A   1      38.776  33.292  37.809  1.00  0.00     0.173 A 
ATOM     64  F   UNL A   1      41.109  35.210  35.781  1.00  0.00    -0.203 F 
ATOM     65  C   UNL A   1      40.178  35.686  37.889  1.00  0.00     0.198 A 
ATOM     66  C   UNL A   1      38.636  34.150  38.897  1.00  0.00     0.198 A 
ATOM     67  F   UNL A   1      38.096  32.136  37.812  1.00  0.00    -0.203 F 
ATOM     68  F   UNL A   1      40.894  36.818  37.945  1.00  0.00    -0.200 F 
ATOM     69  C   UNL A   1      39.347  35.339  38.942  1.00  0.00     0.200 A 
ATOM     70  F   UNL A   1      37.818  33.820  39.906  1.00  0.00    -0.200 F 
ATOM     71  F   UNL A   1      39.241  36.145  40.009  1.00  0.00    -0.200 F 
ENDBRANCH  47  61
BRANCH  48  72
ATOM     72  C   UNL A   1      40.571  27.964  28.554  1.00  0.00     0.064 A 
ATOM     73  C   UNL A   1      41.331  28.471  27.492  1.00  0.00     0.173 A 
ATOM     74  C   UNL A   1      40.026  26.679  28.410  1.00  0.00     0.173 A 
ATOM     75  F   UNL A   1      41.859  29.701  27.576  1.00  0.00    -0.203 F 
ATOM     76  C   UNL A   1      41.531  27.728  26.330  1.00  0.00     0.198 A 
ATOM     77  C   UNL A   1      40.250  25.925  27.260  1.00  0.00     0.198 A 
ATOM     78  F   UNL A   1      39.297  26.142  29.401  1.00  0.00    -0.203 F 
ATOM     79  F   UNL A   1      42.236  28.249  25.317  1.00  0.00    -0.200 F 
ATOM     80  C   UNL A   1      40.999  26.452  26.219  1.00  0.00     0.200 A 
ATOM     81  F   UNL A   1      39.751  24.685  27.166  1.00  0.00    -0.200 F 
ATOM     82  F   UNL A   1      41.206  25.731  25.109  1.00  0.00    -0.200 F 
ENDBRANCH  48  72
BRANCH  60  83
ATOM     83  C   UNL A   1      43.997  28.292  34.641  1.00  0.00     0.064 A 
ATOM     84  C   UNL A   1      45.309  28.772  34.538  1.00  0.00     0.173 A 
ATOM     85  C   UNL A   1      43.785  27.109  35.366  1.00  0.00     0.173 A 
ATOM     86  F   UNL A   1      45.567  29.890  33.842  1.00  0.00    -0.203 F 
ATOM     87  C   UNL A   1      46.369  28.089  35.130  1.00  0.00     0.198 A 
ATOM     88  C   UNL A   1      44.841  26.446  35.983  1.00  0.00     0.198 A 
ATOM     89  F   UNL A   1      42.546  26.610  35.500  1.00  0.00    -0.203 F 
ATOM     90  F   UNL A   1      47.621  28.548  34.991  1.00  0.00    -0.200 F 
ATOM     91  C   UNL A   1      46.133  26.935  35.863  1.00  0.00     0.200 A 
ATOM     92  F   UNL A   1      44.608  25.341  36.705  1.00  0.00    -0.200 F 
ATOM     93  F   UNL A   1      47.152  26.292  36.449  1.00  0.00    -0.200 F 
ENDBRANCH  60  83
ENDBRANCH  34  35
ENDBRANCH  26  29
ENDBRANCH  24  25
ENDBRANCH  23  24
ENDBRANCH  22  23
ENDBRANCH   1  22
TORSDOF 16
ENDMDL
