MODEL 1
REMARK VINA RESULT:     -10.5      0.000      0.000
REMARK SMILES C[C@H]([NH2+]CCc1ccco1)[C@@H](C)C(=O)NCCCCCCNC(=O)c1ccc(-c2c3nc(c(-c4c(F)c(F)c(F)c(F)c4F)c4ccc([nH]4)c(-c4c(F)c(F)c(F)c(F)c4F)c4nc(c(-c5c(F)c(F)c(F)c(F)c5F)c5ccc2[nH]5)C=C4)C=C3)cc1
REMARK SMILES IDX 17 1 16 2 15 3 13 4 14 5 11 7 12 8 2 9 1 10 3 11 4 14 5 15
REMARK SMILES IDX 6 16 7 17 10 18 8 19 9 20 18 21 19 22 20 23 21 24 22 25
REMARK SMILES IDX 23 26 24 28 25 29 26 30 87 31 27 32 86 33 28 34 29 35 30 36
REMARK SMILES IDX 80 37 31 38 85 39 79 40 81 41 32 42 84 43 78 44 77 45 33 47
REMARK SMILES IDX 65 48 45 49 64 50 46 51 49 52 63 53 82 54 47 55 48 56 62 58
REMARK SMILES IDX 83 59 50 60 34 61 35 62 43 63 36 64 37 65 41 66 44 67 38 68
REMARK SMILES IDX 39 69 42 70 40 71 66 72 67 73 75 74 68 75 69 76 73 77 76 78
REMARK SMILES IDX 70 79 71 80 74 81 72 82 51 83 52 84 60 85 53 86 54 87 58 88
REMARK SMILES IDX 61 89 55 90 56 91 59 92 57 93
REMARK H PARENT 15 6 3 12 3 13 22 27 81 46 49 57
REMARK Flexibility Score: inf
ROOT
ATOM      1  C   UNL A   1      34.908  31.660  28.433  1.00  0.00     0.021 C 
ENDROOT
BRANCH   1   2
ATOM      2  C   UNL A   1      33.693  31.191  27.636  1.00  0.00     0.116 C 
BRANCH   2   3
ATOM      3  N   UNL A   1      33.607  29.743  27.611  1.00  0.00    -0.356 N 
ATOM      4  C   UNL A   1      33.222  28.879  26.634  1.00  0.00     0.228 C 
ATOM      5  O   UNL A   1      33.189  27.678  26.916  1.00  0.00    -0.275 OA
ATOM      6  H   UNL A   1      33.874  29.308  28.453  1.00  0.00     0.163 HD
BRANCH   4   7
ATOM      7  C   UNL A   1      32.865  29.352  25.226  1.00  0.00     0.133 C 
ATOM      8  C   UNL A   1      31.458  29.965  25.252  1.00  0.00     0.024 C 
BRANCH   7   9
ATOM      9  C   UNL A   1      33.127  28.253  24.166  1.00  0.00     0.191 C 
ATOM     10  C   UNL A   1      33.387  28.843  22.772  1.00  0.00     0.076 C 
BRANCH   9  11
ATOM     11  N   UNL A   1      32.134  27.174  24.085  1.00  0.00    -0.343 N 
ATOM     12  H   UNL A   1      31.531  27.245  24.905  1.00  0.00     0.346 HD
ATOM     13  H   UNL A   1      32.677  26.312  24.032  1.00  0.00     0.346 HD
BRANCH  11  14
ATOM     14  C   UNL A   1      31.271  27.162  22.896  1.00  0.00     0.268 C 
BRANCH  14  15
ATOM     15  C   UNL A   1      29.787  27.292  23.282  1.00  0.00     0.136 C 
BRANCH  15  16
ATOM     16  C   UNL A   1      29.147  28.523  22.736  1.00  0.00     0.109 A 
ATOM     17  C   UNL A   1      27.885  29.064  22.871  1.00  0.00     0.046 A 
ATOM     18  O   UNL A   1      29.915  29.321  21.943  1.00  0.00    -0.469 OA
ATOM     19  C   UNL A   1      27.885  30.269  22.130  1.00  0.00     0.042 A 
ATOM     20  C   UNL A   1      29.139  30.373  21.574  1.00  0.00     0.195 A 
ENDBRANCH  15  16
ENDBRANCH  14  15
ENDBRANCH  11  14
ENDBRANCH   9  11
ENDBRANCH   7   9
ENDBRANCH   4   7
ENDBRANCH   2   3
ENDBRANCH   1   2
BRANCH   1  21
ATOM     21  C   UNL A   1      34.634  32.878  29.323  1.00  0.00     0.002 C 
BRANCH  21  22
ATOM     22  C   UNL A   1      34.551  34.213  28.578  1.00  0.00     0.002 C 
BRANCH  22  23
ATOM     23  C   UNL A   1      33.283  35.025  28.851  1.00  0.00     0.021 C 
BRANCH  23  24
ATOM     24  C   UNL A   1      33.518  36.293  29.661  1.00  0.00     0.116 C 
BRANCH  24  25
ATOM     25  N   UNL A   1      32.529  36.458  30.714  1.00  0.00    -0.352 N 
ATOM     26  C   UNL A   1      32.489  35.876  31.955  1.00  0.00     0.251 C 
ATOM     27  H   UNL A   1      31.787  37.071  30.508  1.00  0.00     0.163 HD
ATOM     28  O   UNL A   1      31.483  35.957  32.654  1.00  0.00    -0.269 OA
BRANCH  26  29
ATOM     29  C   UNL A   1      33.668  35.131  32.440  1.00  0.00     0.039 A 
ATOM     30  C   UNL A   1      33.506  33.824  32.903  1.00  0.00     0.014 A 
ATOM     31  C   UNL A   1      34.932  35.724  32.418  1.00  0.00     0.014 A 
ATOM     32  C   UNL A   1      34.627  33.088  33.292  1.00  0.00     0.010 A 
ATOM     33  C   UNL A   1      36.054  34.965  32.727  1.00  0.00     0.010 A 
ATOM     34  C   UNL A   1      35.913  33.643  33.177  1.00  0.00    -0.014 A 
BRANCH  34  35
ATOM     35  C   UNL A   1      37.128  32.876  33.546  1.00  0.00     0.031 A 
ATOM     36  C   UNL A   1      37.836  33.183  34.838  1.00  0.00     0.074 A 
ATOM     37  C   UNL A   1      37.639  31.969  32.692  1.00  0.00     0.049 A 
ATOM     38  N   UNL A   1      38.976  32.724  35.289  1.00  0.00    -0.248 NA
ATOM     39  C   UNL A   1      37.189  34.163  35.725  1.00  0.00     0.031 C 
ATOM     40  C   UNL A   1      37.062  31.607  31.397  1.00  0.00     0.029 A 
ATOM     41  N   UNL A   1      38.771  31.197  32.778  1.00  0.00    -0.354 N 
ATOM     42  C   UNL A   1      39.190  33.374  36.498  1.00  0.00     0.074 A 
ATOM     43  C   UNL A   1      38.095  34.300  36.682  1.00  0.00     0.031 C 
ATOM     44  C   UNL A   1      37.835  30.673  30.818  1.00  0.00     0.029 A 
ATOM     45  C   UNL A   1      38.985  30.406  31.677  1.00  0.00     0.049 A 
ATOM     46  H   UNL A   1      39.375  31.211  33.557  1.00  0.00     0.167 HD
ATOM     47  C   UNL A   1      40.197  33.195  37.384  1.00  0.00     0.037 A 
ATOM     48  C   UNL A   1      40.002  29.572  31.386  1.00  0.00     0.037 A 
ATOM     49  C   UNL A   1      41.272  32.254  37.206  1.00  0.00     0.049 A 
ATOM     50  C   UNL A   1      41.124  29.410  32.379  1.00  0.00     0.074 A 
ATOM     51  C   UNL A   1      42.313  31.961  38.068  1.00  0.00     0.029 A 
ATOM     52  N   UNL A   1      41.441  31.456  36.084  1.00  0.00    -0.354 N 
ATOM     53  N   UNL A   1      41.287  29.987  33.545  1.00  0.00    -0.248 NA
ATOM     54  C   UNL A   1      42.198  28.475  32.017  1.00  0.00     0.031 C 
ATOM     55  C   UNL A   1      43.145  31.027  37.444  1.00  0.00     0.029 A 
ATOM     56  C   UNL A   1      42.586  30.686  36.223  1.00  0.00     0.049 A 
ATOM     57  H   UNL A   1      40.839  31.438  35.306  1.00  0.00     0.167 HD
ATOM     58  C   UNL A   1      42.458  29.456  34.072  1.00  0.00     0.074 A 
ATOM     59  C   UNL A   1      42.961  28.507  33.102  1.00  0.00     0.031 C 
ATOM     60  C   UNL A   1      43.060  29.729  35.256  1.00  0.00     0.037 A 
BRANCH  47  61
ATOM     61  C   UNL A   1      40.186  34.040  38.628  1.00  0.00     0.064 A 
ATOM     62  C   UNL A   1      40.844  35.278  38.685  1.00  0.00     0.173 A 
ATOM     63  C   UNL A   1      39.483  33.619  39.766  1.00  0.00     0.173 A 
ATOM     64  F   UNL A   1      41.539  35.723  37.627  1.00  0.00    -0.203 F 
ATOM     65  C   UNL A   1      40.827  36.047  39.846  1.00  0.00     0.198 A 
ATOM     66  C   UNL A   1      39.438  34.408  40.914  1.00  0.00     0.198 A 
ATOM     67  F   UNL A   1      38.832  32.446  39.767  1.00  0.00    -0.203 F 
ATOM     68  F   UNL A   1      41.510  37.199  39.894  1.00  0.00    -0.200 F 
ATOM     69  C   UNL A   1      40.117  35.616  40.956  1.00  0.00     0.200 A 
ATOM     70  F   UNL A   1      38.739  33.996  41.980  1.00  0.00    -0.200 F 
ATOM     71  F   UNL A   1      40.095  36.360  42.069  1.00  0.00    -0.200 F 
ENDBRANCH  47  61
BRANCH  48  72
ATOM     72  C   UNL A   1      40.002  28.813  30.108  1.00  0.00     0.064 A 
ATOM     73  C   UNL A   1      39.425  27.537  30.028  1.00  0.00     0.173 A 
ATOM     74  C   UNL A   1      40.589  29.334  28.946  1.00  0.00     0.173 A 
ATOM     75  F   UNL A   1      38.868  26.986  31.116  1.00  0.00    -0.203 F 
ATOM     76  C   UNL A   1      39.458  26.803  28.844  1.00  0.00     0.198 A 
ATOM     77  C   UNL A   1      40.594  28.613  27.753  1.00  0.00     0.198 A 
ATOM     78  F   UNL A   1      41.151  30.552  28.965  1.00  0.00    -0.203 F 
ATOM     79  F   UNL A   1      38.946  25.565  28.812  1.00  0.00    -0.200 F 
ATOM     80  C   UNL A   1      40.037  27.344  27.706  1.00  0.00     0.200 A 
ATOM     81  F   UNL A   1      41.140  29.145  26.653  1.00  0.00    -0.200 F 
ATOM     82  F   UNL A   1      40.068  26.638  26.567  1.00  0.00    -0.200 F 
ENDBRANCH  48  72
BRANCH  60  83
ATOM     83  C   UNL A   1      44.297  28.950  35.602  1.00  0.00     0.064 A 
ATOM     84  C   UNL A   1      44.240  27.737  36.302  1.00  0.00     0.173 A 
ATOM     85  C   UNL A   1      45.555  29.401  35.171  1.00  0.00     0.173 A 
ATOM     86  F   UNL A   1      43.065  27.268  36.747  1.00  0.00    -0.203 F 
ATOM     87  C   UNL A   1      45.399  27.016  36.578  1.00  0.00     0.198 A 
ATOM     88  C   UNL A   1      46.707  28.662  35.420  1.00  0.00     0.198 A 
ATOM     89  F   UNL A   1      45.665  30.553  34.491  1.00  0.00    -0.203 F 
ATOM     90  F   UNL A   1      45.326  25.882  37.289  1.00  0.00    -0.200 F 
ATOM     91  C   UNL A   1      46.630  27.473  36.129  1.00  0.00     0.200 A 
ATOM     92  F   UNL A   1      47.892  29.096  34.969  1.00  0.00    -0.200 F 
ATOM     93  F   UNL A   1      47.741  26.770  36.384  1.00  0.00    -0.200 F 
ENDBRANCH  60  83
ENDBRANCH  34  35
ENDBRANCH  26  29
ENDBRANCH  24  25
ENDBRANCH  23  24
ENDBRANCH  22  23
ENDBRANCH  21  22
ENDBRANCH   1  21
TORSDOF 18
ENDMDL
MODEL 2
REMARK VINA RESULT:     -10.2      2.170      8.038
REMARK SMILES C[C@H]([NH2+]CCc1ccco1)[C@@H](C)C(=O)NCCCCCCNC(=O)c1ccc(-c2c3nc(c(-c4c(F)c(F)c(F)c(F)c4F)c4ccc([nH]4)c(-c4c(F)c(F)c(F)c(F)c4F)c4nc(c(-c5c(F)c(F)c(F)c(F)c5F)c5ccc2[nH]5)C=C4)C=C3)cc1
REMARK SMILES IDX 17 1 16 2 15 3 13 4 14 5 11 7 12 8 2 9 1 10 3 11 4 14 5 15
REMARK SMILES IDX 6 16 7 17 10 18 8 19 9 20 18 21 19 22 20 23 21 24 22 25
REMARK SMILES IDX 23 26 24 28 25 29 26 30 87 31 27 32 86 33 28 34 29 35 30 36
REMARK SMILES IDX 80 37 31 38 85 39 79 40 81 41 32 42 84 43 78 44 77 45 33 47
REMARK SMILES IDX 65 48 45 49 64 50 46 51 49 52 63 53 82 54 47 55 48 56 62 58
REMARK SMILES IDX 83 59 50 60 34 61 35 62 43 63 36 64 37 65 41 66 44 67 38 68
REMARK SMILES IDX 39 69 42 70 40 71 66 72 67 73 75 74 68 75 69 76 73 77 76 78
REMARK SMILES IDX 70 79 71 80 74 81 72 82 51 83 52 84 60 85 53 86 54 87 58 88
REMARK SMILES IDX 61 89 55 90 56 91 59 92 57 93
REMARK H PARENT 15 6 3 12 3 13 22 27 81 46 49 57
REMARK Flexibility Score: inf
ROOT
ATOM      1  C   UNL A   1      32.919  28.636  27.126  1.00  0.00     0.021 C 
ENDROOT
BRANCH   1   2
ATOM      2  C   UNL A   1      31.492  28.202  27.456  1.00  0.00     0.116 C 
BRANCH   2   3
ATOM      3  N   UNL A   1      31.315  26.777  27.245  1.00  0.00    -0.356 N 
ATOM      4  C   UNL A   1      30.956  26.066  26.143  1.00  0.00     0.228 C 
ATOM      5  O   UNL A   1      30.823  24.846  26.271  1.00  0.00    -0.275 OA
ATOM      6  H   UNL A   1      31.484  26.226  28.043  1.00  0.00     0.163 HD
BRANCH   4   7
ATOM      7  C   UNL A   1      30.747  26.728  24.782  1.00  0.00     0.133 C 
ATOM      8  C   UNL A   1      29.323  26.423  24.297  1.00  0.00     0.024 C 
BRANCH   7   9
ATOM      9  C   UNL A   1      31.902  26.405  23.801  1.00  0.00     0.191 C 
ATOM     10  C   UNL A   1      31.706  27.078  22.434  1.00  0.00     0.076 C 
BRANCH   9  11
ATOM     11  N   UNL A   1      32.233  24.985  23.628  1.00  0.00    -0.343 N 
ATOM     12  H   UNL A   1      31.359  24.477  23.489  1.00  0.00     0.346 HD
ATOM     13  H   UNL A   1      32.747  24.723  24.470  1.00  0.00     0.346 HD
BRANCH  11  14
ATOM     14  C   UNL A   1      33.125  24.650  22.510  1.00  0.00     0.268 C 
BRANCH  14  15
ATOM     15  C   UNL A   1      33.955  23.390  22.815  1.00  0.00     0.136 C 
BRANCH  15  16
ATOM     16  C   UNL A   1      33.283  22.465  23.770  1.00  0.00     0.109 A 
ATOM     17  C   UNL A   1      32.523  21.325  23.597  1.00  0.00     0.046 A 
ATOM     18  O   UNL A   1      33.417  22.740  25.098  1.00  0.00    -0.469 OA
ATOM     19  C   UNL A   1      32.185  20.871  24.893  1.00  0.00     0.042 A 
ATOM     20  C   UNL A   1      32.740  21.773  25.770  1.00  0.00     0.195 A 
ENDBRANCH  15  16
ENDBRANCH  14  15
ENDBRANCH  11  14
ENDBRANCH   9  11
ENDBRANCH   7   9
ENDBRANCH   4   7
ENDBRANCH   2   3
ENDBRANCH   1   2
BRANCH   1  21
ATOM     21  C   UNL A   1      33.041  30.111  26.727  1.00  0.00     0.002 C 
BRANCH  21  22
ATOM     22  C   UNL A   1      31.751  30.742  26.194  1.00  0.00     0.002 C 
BRANCH  22  23
ATOM     23  C   UNL A   1      31.502  32.181  26.650  1.00  0.00     0.021 C 
BRANCH  23  24
ATOM     24  C   UNL A   1      32.700  32.836  27.323  1.00  0.00     0.116 C 
BRANCH  24  25
ATOM     25  N   UNL A   1      32.449  34.233  27.644  1.00  0.00    -0.352 N 
ATOM     26  C   UNL A   1      33.015  35.005  28.625  1.00  0.00     0.251 C 
ATOM     27  H   UNL A   1      31.780  34.684  27.080  1.00  0.00     0.163 HD
ATOM     28  O   UNL A   1      32.552  36.108  28.901  1.00  0.00    -0.269 OA
BRANCH  26  29
ATOM     29  C   UNL A   1      34.186  34.488  29.362  1.00  0.00     0.039 A 
ATOM     30  C   UNL A   1      33.991  33.848  30.588  1.00  0.00     0.014 A 
ATOM     31  C   UNL A   1      35.469  34.625  28.830  1.00  0.00     0.014 A 
ATOM     32  C   UNL A   1      35.084  33.290  31.254  1.00  0.00     0.010 A 
ATOM     33  C   UNL A   1      36.543  34.000  29.452  1.00  0.00     0.010 A 
ATOM     34  C   UNL A   1      36.363  33.336  30.676  1.00  0.00    -0.014 A 
BRANCH  34  35
ATOM     35  C   UNL A   1      37.540  32.721  31.339  1.00  0.00     0.031 A 
ATOM     36  C   UNL A   1      38.264  31.588  30.665  1.00  0.00     0.074 A 
ATOM     37  C   UNL A   1      37.906  33.122  32.571  1.00  0.00     0.049 A 
ATOM     38  N   UNL A   1      39.230  30.831  31.121  1.00  0.00    -0.248 NA
ATOM     39  C   UNL A   1      37.818  31.238  29.306  1.00  0.00     0.031 C 
ATOM     40  C   UNL A   1      37.264  34.188  33.340  1.00  0.00     0.029 A 
ATOM     41  N   UNL A   1      38.900  32.666  33.401  1.00  0.00    -0.354 N 
ATOM     42  C   UNL A   1      39.490  29.907  30.117  1.00  0.00     0.074 A 
ATOM     43  C   UNL A   1      38.544  30.159  29.053  1.00  0.00     0.031 C 
ATOM     44  C   UNL A   1      37.889  34.315  34.522  1.00  0.00     0.029 A 
ATOM     45  C   UNL A   1      38.944  33.310  34.614  1.00  0.00     0.049 A 
ATOM     46  H   UNL A   1      39.523  31.945  33.151  1.00  0.00     0.167 HD
ATOM     47  C   UNL A   1      40.448  28.952  30.078  1.00  0.00     0.037 A 
ATOM     48  C   UNL A   1      39.735  33.100  35.684  1.00  0.00     0.037 A 
ATOM     49  C   UNL A   1      41.401  28.722  31.130  1.00  0.00     0.049 A 
ATOM     50  C   UNL A   1      40.776  32.013  35.624  1.00  0.00     0.074 A 
ATOM     51  C   UNL A   1      42.443  27.813  31.167  1.00  0.00     0.029 A 
ATOM     52  N   UNL A   1      41.425  29.409  32.335  1.00  0.00    -0.354 N 
ATOM     53  N   UNL A   1      41.052  31.183  34.647  1.00  0.00    -0.248 NA
ATOM     54  C   UNL A   1      41.621  31.839  36.814  1.00  0.00     0.031 C 
ATOM     55  C   UNL A   1      43.062  27.909  32.416  1.00  0.00     0.029 A 
ATOM     56  C   UNL A   1      42.452  28.926  33.132  1.00  0.00     0.049 A 
ATOM     57  H   UNL A   1      40.806  30.132  32.587  1.00  0.00     0.167 HD
ATOM     58  C   UNL A   1      42.125  30.418  35.087  1.00  0.00     0.074 A 
ATOM     59  C   UNL A   1      42.454  30.887  36.417  1.00  0.00     0.031 C 
ATOM     60  C   UNL A   1      42.780  29.419  34.446  1.00  0.00     0.037 A 
BRANCH  47  61
ATOM     61  C   UNL A   1      40.508  28.078  28.855  1.00  0.00     0.064 A 
ATOM     62  C   UNL A   1      39.801  26.868  28.777  1.00  0.00     0.173 A 
ATOM     63  C   UNL A   1      41.257  28.472  27.737  1.00  0.00     0.173 A 
ATOM     64  F   UNL A   1      39.077  26.440  29.822  1.00  0.00    -0.203 F 
ATOM     65  C   UNL A   1      39.870  26.069  27.639  1.00  0.00     0.198 A 
ATOM     66  C   UNL A   1      41.295  27.688  26.586  1.00  0.00     0.198 A 
ATOM     67  F   UNL A   1      41.948  29.621  27.754  1.00  0.00    -0.203 F 
ATOM     68  F   UNL A   1      39.233  24.890  27.610  1.00  0.00    -0.200 F 
ATOM     69  C   UNL A   1      40.610  26.483  26.541  1.00  0.00     0.200 A 
ATOM     70  F   UNL A   1      41.998  28.098  25.521  1.00  0.00    -0.200 F 
ATOM     71  F   UNL A   1      40.669  25.717  25.444  1.00  0.00    -0.200 F 
ENDBRANCH  47  61
BRANCH  48  72
ATOM     72  C   UNL A   1      39.586  33.945  36.898  1.00  0.00     0.064 A 
ATOM     73  C   UNL A   1      38.815  33.513  37.987  1.00  0.00     0.173 A 
ATOM     74  C   UNL A   1      40.196  35.205  36.992  1.00  0.00     0.173 A 
ATOM     75  F   UNL A   1      38.196  32.325  37.938  1.00  0.00    -0.203 F 
ATOM     76  C   UNL A   1      38.639  34.318  39.110  1.00  0.00     0.198 A 
ATOM     77  C   UNL A   1      40.046  35.996  38.130  1.00  0.00     0.198 A 
ATOM     78  F   UNL A   1      40.949  35.664  35.982  1.00  0.00    -0.203 F 
ATOM     79  F   UNL A   1      37.852  33.903  40.113  1.00  0.00    -0.200 F 
ATOM     80  C   UNL A   1      39.258  35.557  39.183  1.00  0.00     0.200 A 
ATOM     81  F   UNL A   1      40.659  37.184  38.202  1.00  0.00    -0.200 F 
ATOM     82  F   UNL A   1      39.089  36.330  40.265  1.00  0.00    -0.200 F 
ENDBRANCH  48  72
BRANCH  60  83
ATOM     83  C   UNL A   1      43.960  28.803  35.142  1.00  0.00     0.064 A 
ATOM     84  C   UNL A   1      43.830  27.680  35.971  1.00  0.00     0.173 A 
ATOM     85  C   UNL A   1      45.250  29.314  34.924  1.00  0.00     0.173 A 
ATOM     86  F   UNL A   1      42.620  27.161  36.222  1.00  0.00    -0.203 F 
ATOM     87  C   UNL A   1      44.946  27.105  36.575  1.00  0.00     0.198 A 
ATOM     88  C   UNL A   1      46.365  28.717  35.503  1.00  0.00     0.198 A 
ATOM     89  F   UNL A   1      45.430  30.383  34.133  1.00  0.00    -0.203 F 
ATOM     90  F   UNL A   1      44.794  26.061  37.401  1.00  0.00    -0.200 F 
ATOM     91  C   UNL A   1      46.213  27.617  36.333  1.00  0.00     0.200 A 
ATOM     92  F   UNL A   1      47.590  29.202  35.253  1.00  0.00    -0.200 F 
ATOM     93  F   UNL A   1      47.286  27.053  36.904  1.00  0.00    -0.200 F 
ENDBRANCH  60  83
ENDBRANCH  34  35
ENDBRANCH  26  29
ENDBRANCH  24  25
ENDBRANCH  23  24
ENDBRANCH  22  23
ENDBRANCH  21  22
ENDBRANCH   1  21
TORSDOF 18
ENDMDL
MODEL 3
REMARK VINA RESULT:     -10.2      6.648     11.155
REMARK SMILES C[C@H]([NH2+]CCc1ccco1)[C@@H](C)C(=O)NCCCCCCNC(=O)c1ccc(-c2c3nc(c(-c4c(F)c(F)c(F)c(F)c4F)c4ccc([nH]4)c(-c4c(F)c(F)c(F)c(F)c4F)c4nc(c(-c5c(F)c(F)c(F)c(F)c5F)c5ccc2[nH]5)C=C4)C=C3)cc1
REMARK SMILES IDX 17 1 16 2 15 3 13 4 14 5 11 7 12 8 2 9 1 10 3 11 4 14 5 15
REMARK SMILES IDX 6 16 7 17 10 18 8 19 9 20 18 21 19 22 20 23 21 24 22 25
REMARK SMILES IDX 23 26 24 28 25 29 26 30 87 31 27 32 86 33 28 34 29 35 30 36
REMARK SMILES IDX 80 37 31 38 85 39 79 40 81 41 32 42 84 43 78 44 77 45 33 47
REMARK SMILES IDX 65 48 45 49 64 50 46 51 49 52 63 53 82 54 47 55 48 56 62 58
REMARK SMILES IDX 83 59 50 60 34 61 35 62 43 63 36 64 37 65 41 66 44 67 38 68
REMARK SMILES IDX 39 69 42 70 40 71 66 72 67 73 75 74 68 75 69 76 73 77 76 78
REMARK SMILES IDX 70 79 71 80 74 81 72 82 51 83 52 84 60 85 53 86 54 87 58 88
REMARK SMILES IDX 61 89 55 90 56 91 59 92 57 93
REMARK H PARENT 15 6 3 12 3 13 22 27 81 46 49 57
REMARK Flexibility Score: inf
ROOT
ATOM      1  C   UNL A   1      36.958  23.176  24.821  1.00  0.00     0.021 C 
ENDROOT
BRANCH   1   2
ATOM      2  C   UNL A   1      35.729  24.069  24.983  1.00  0.00     0.116 C 
BRANCH   2   3
ATOM      3  N   UNL A   1      34.708  23.742  24.004  1.00  0.00    -0.356 N 
ATOM      4  C   UNL A   1      33.534  23.066  24.118  1.00  0.00     0.228 C 
ATOM      5  O   UNL A   1      32.881  22.882  23.088  1.00  0.00    -0.275 OA
ATOM      6  H   UNL A   1      34.901  24.066  23.095  1.00  0.00     0.163 HD
BRANCH   4   7
ATOM      7  C   UNL A   1      33.010  22.569  25.464  1.00  0.00     0.133 C 
ATOM      8  C   UNL A   1      32.514  21.126  25.300  1.00  0.00     0.024 C 
BRANCH   7   9
ATOM      9  C   UNL A   1      32.022  23.576  26.106  1.00  0.00     0.191 C 
ATOM     10  C   UNL A   1      30.676  22.926  26.456  1.00  0.00     0.076 C 
BRANCH   9  11
ATOM     11  N   UNL A   1      31.806  24.833  25.377  1.00  0.00    -0.343 N 
ATOM     12  H   UNL A   1      30.845  24.830  25.032  1.00  0.00     0.346 HD
ATOM     13  H   UNL A   1      32.518  24.847  24.646  1.00  0.00     0.346 HD
BRANCH  11  14
ATOM     14  C   UNL A   1      32.003  26.075  26.135  1.00  0.00     0.268 C 
BRANCH  14  15
ATOM     15  C   UNL A   1      33.398  26.673  25.875  1.00  0.00     0.136 C 
BRANCH  15  16
ATOM     16  C   UNL A   1      33.520  27.310  24.533  1.00  0.00     0.109 A 
ATOM     17  C   UNL A   1      33.647  28.623  24.125  1.00  0.00     0.046 A 
ATOM     18  O   UNL A   1      33.522  26.482  23.452  1.00  0.00    -0.469 OA
ATOM     19  C   UNL A   1      33.747  28.594  22.714  1.00  0.00     0.042 A 
ATOM     20  C   UNL A   1      33.652  27.270  22.353  1.00  0.00     0.195 A 
ENDBRANCH  15  16
ENDBRANCH  14  15
ENDBRANCH  11  14
ENDBRANCH   9  11
ENDBRANCH   7   9
ENDBRANCH   4   7
ENDBRANCH   2   3
ENDBRANCH   1   2
BRANCH   1  21
ATOM     21  C   UNL A   1      36.953  21.944  25.734  1.00  0.00     0.002 C 
BRANCH  21  22
ATOM     22  C   UNL A   1      36.745  20.610  25.012  1.00  0.00     0.002 C 
BRANCH  22  23
ATOM     23  C   UNL A   1      38.007  19.760  24.853  1.00  0.00     0.021 C 
BRANCH  23  24
ATOM     24  C   UNL A   1      39.162  20.187  25.750  1.00  0.00     0.116 C 
BRANCH  24  25
ATOM     25  N   UNL A   1      40.134  19.120  25.931  1.00  0.00    -0.352 N 
ATOM     26  C   UNL A   1      41.488  19.216  26.126  1.00  0.00     0.251 C 
ATOM     27  H   UNL A   1      39.770  18.206  25.911  1.00  0.00     0.163 HD
ATOM     28  O   UNL A   1      42.203  18.220  26.058  1.00  0.00    -0.269 OA
BRANCH  26  29
ATOM     29  C   UNL A   1      42.085  20.538  26.402  1.00  0.00     0.039 A 
ATOM     30  C   UNL A   1      42.453  21.356  25.332  1.00  0.00     0.014 A 
ATOM     31  C   UNL A   1      42.262  20.968  27.718  1.00  0.00     0.014 A 
ATOM     32  C   UNL A   1      42.948  22.637  25.585  1.00  0.00     0.010 A 
ATOM     33  C   UNL A   1      42.677  22.271  27.966  1.00  0.00     0.010 A 
ATOM     34  C   UNL A   1      43.034  23.115  26.903  1.00  0.00    -0.014 A 
BRANCH  34  35
ATOM     35  C   UNL A   1      43.520  24.485  27.205  1.00  0.00     0.031 A 
ATOM     36  C   UNL A   1      42.563  25.509  27.749  1.00  0.00     0.074 A 
ATOM     37  C   UNL A   1      44.790  24.829  26.917  1.00  0.00     0.049 A 
ATOM     38  N   UNL A   1      42.747  26.788  27.961  1.00  0.00    -0.248 NA
ATOM     39  C   UNL A   1      41.205  25.037  28.065  1.00  0.00     0.031 C 
ATOM     40  C   UNL A   1      45.804  23.934  26.358  1.00  0.00     0.029 A 
ATOM     41  N   UNL A   1      45.441  26.031  27.041  1.00  0.00    -0.354 N 
ATOM     42  C   UNL A   1      41.527  27.272  28.415  1.00  0.00     0.074 A 
ATOM     43  C   UNL A   1      40.595  26.167  28.391  1.00  0.00     0.031 C 
ATOM     44  C   UNL A   1      46.951  24.614  26.201  1.00  0.00     0.029 A 
ATOM     45  C   UNL A   1      46.742  26.001  26.604  1.00  0.00     0.049 A 
ATOM     46  H   UNL A   1      45.014  26.840  27.408  1.00  0.00     0.167 HD
ATOM     47  C   UNL A   1      41.220  28.522  28.835  1.00  0.00     0.037 A 
ATOM     48  C   UNL A   1      47.656  26.987  26.521  1.00  0.00     0.037 A 
ATOM     49  C   UNL A   1      42.158  29.612  28.879  1.00  0.00     0.049 A 
ATOM     50  C   UNL A   1      47.282  28.375  26.972  1.00  0.00     0.074 A 
ATOM     51  C   UNL A   1      41.960  30.902  29.334  1.00  0.00     0.029 A 
ATOM     52  N   UNL A   1      43.474  29.536  28.445  1.00  0.00    -0.354 N 
ATOM     53  N   UNL A   1      46.142  28.810  27.453  1.00  0.00    -0.248 NA
ATOM     54  C   UNL A   1      48.324  29.407  26.875  1.00  0.00     0.031 C 
ATOM     55  C   UNL A   1      43.139  31.624  29.125  1.00  0.00     0.029 A 
ATOM     56  C   UNL A   1      44.093  30.766  28.602  1.00  0.00     0.049 A 
ATOM     57  H   UNL A   1      43.904  28.729  28.081  1.00  0.00     0.167 HD
ATOM     58  C   UNL A   1      46.341  30.152  27.752  1.00  0.00     0.074 A 
ATOM     59  C   UNL A   1      47.713  30.458  27.405  1.00  0.00     0.031 C 
ATOM     60  C   UNL A   1      45.467  31.048  28.272  1.00  0.00     0.037 A 
BRANCH  47  61
ATOM     61  C   UNL A   1      39.806  28.778  29.279  1.00  0.00     0.064 A 
ATOM     62  C   UNL A   1      38.822  29.225  28.384  1.00  0.00     0.173 A 
ATOM     63  C   UNL A   1      39.425  28.544  30.608  1.00  0.00     0.173 A 
ATOM     64  F   UNL A   1      39.135  29.474  27.103  1.00  0.00    -0.203 F 
ATOM     65  C   UNL A   1      37.518  29.461  28.811  1.00  0.00     0.198 A 
ATOM     66  C   UNL A   1      38.111  28.746  31.023  1.00  0.00     0.198 A 
ATOM     67  F   UNL A   1      40.323  28.112  31.505  1.00  0.00    -0.203 F 
ATOM     68  F   UNL A   1      36.609  29.942  27.951  1.00  0.00    -0.200 F 
ATOM     69  C   UNL A   1      37.161  29.213  30.129  1.00  0.00     0.200 A 
ATOM     70  F   UNL A   1      37.766  28.491  32.293  1.00  0.00    -0.200 F 
ATOM     71  F   UNL A   1      35.904  29.433  30.536  1.00  0.00    -0.200 F 
ENDBRANCH  47  61
BRANCH  48  72
ATOM     72  C   UNL A   1      49.021  26.697  26.007  1.00  0.00     0.064 A 
ATOM     73  C   UNL A   1      50.008  26.159  26.845  1.00  0.00     0.173 A 
ATOM     74  C   UNL A   1      49.374  26.964  24.676  1.00  0.00     0.173 A 
ATOM     75  F   UNL A   1      49.726  25.904  28.131  1.00  0.00    -0.203 F 
ATOM     76  C   UNL A   1      51.300  25.924  26.381  1.00  0.00     0.198 A 
ATOM     77  C   UNL A   1      50.658  26.698  24.203  1.00  0.00     0.198 A 
ATOM     78  F   UNL A   1      48.468  27.474  23.829  1.00  0.00    -0.203 F 
ATOM     79  F   UNL A   1      52.237  25.459  27.219  1.00  0.00    -0.200 F 
ATOM     80  C   UNL A   1      51.623  26.188  25.058  1.00  0.00     0.200 A 
ATOM     81  F   UNL A   1      50.961  26.940  22.921  1.00  0.00    -0.200 F 
ATOM     82  F   UNL A   1      52.866  25.960  24.611  1.00  0.00    -0.200 F 
ENDBRANCH  48  72
BRANCH  60  83
ATOM     83  C   UNL A   1      45.978  32.432  28.557  1.00  0.00     0.064 A 
ATOM     84  C   UNL A   1      46.626  32.752  29.758  1.00  0.00     0.173 A 
ATOM     85  C   UNL A   1      45.866  33.437  27.582  1.00  0.00     0.173 A 
ATOM     86  F   UNL A   1      46.747  31.832  30.726  1.00  0.00    -0.203 F 
ATOM     87  C   UNL A   1      47.123  34.033  29.982  1.00  0.00     0.198 A 
ATOM     88  C   UNL A   1      46.393  34.706  27.797  1.00  0.00     0.198 A 
ATOM     89  F   UNL A   1      45.261  33.181  26.412  1.00  0.00    -0.203 F 
ATOM     90  F   UNL A   1      47.697  34.331  31.156  1.00  0.00    -0.200 F 
ATOM     91  C   UNL A   1      47.016  35.006  28.999  1.00  0.00     0.200 A 
ATOM     92  F   UNL A   1      46.304  35.639  26.838  1.00  0.00    -0.200 F 
ATOM     93  F   UNL A   1      47.507  36.235  29.212  1.00  0.00    -0.200 F 
ENDBRANCH  60  83
ENDBRANCH  34  35
ENDBRANCH  26  29
ENDBRANCH  24  25
ENDBRANCH  23  24
ENDBRANCH  22  23
ENDBRANCH  21  22
ENDBRANCH   1  21
TORSDOF 18
ENDMDL
