MODEL 1
REMARK VINA RESULT:     -10.7      0.000      0.000
REMARK SMILES CC[C@@H]1CCC[C@](CCCCCO)(C(=O)NCCCCCCNC(=O)c2ccc(-c3c4nc(c(-c5c(F)c(F)c(F)c(F)c5F)c5ccc([nH]5)c(-c5c(F)c(F)c(F)c(F)c5F)c5nc(c(-c6c(F)c(F)c(F)c(F)c6F)c6ccc3[nH]6)C=C5)C=C4)cc2)C1
REMARK SMILES IDX 17 1 16 2 14 3 15 4 7 6 3 7 4 8 89 9 5 10 6 11 2 12 1 13
REMARK SMILES IDX 8 14 9 15 10 16 11 17 12 18 13 19 18 21 19 22 20 23 21 24
REMARK SMILES IDX 22 25 23 26 24 27 25 29 26 30 27 31 88 32 28 33 87 34 29 35
REMARK SMILES IDX 30 36 31 37 81 38 32 39 86 40 80 41 82 42 33 43 85 44 79 45
REMARK SMILES IDX 78 46 34 48 66 49 46 50 65 51 47 52 50 53 64 54 83 55 48 56
REMARK SMILES IDX 49 57 63 59 84 60 51 61 35 62 36 63 44 64 37 65 38 66 42 67
REMARK SMILES IDX 45 68 39 69 40 70 43 71 41 72 67 73 68 74 76 75 69 76 70 77
REMARK SMILES IDX 74 78 77 79 71 80 72 81 75 82 73 83 52 84 53 85 61 86 54 87
REMARK SMILES IDX 55 88 59 89 62 90 56 91 57 92 60 93 58 94
REMARK H PARENT 16 5 13 20 23 28 82 47 50 58
REMARK Flexibility Score: inf
ROOT
ATOM      1  C   UNL A   1      32.628  27.709  25.370  1.00  0.00     0.116 C 
ENDROOT
BRANCH   1   2
ATOM      2  N   UNL A   1      31.464  26.976  25.818  1.00  0.00    -0.356 N 
ATOM      3  C   UNL A   1      31.170  25.650  25.848  1.00  0.00     0.226 C 
ATOM      4  O   UNL A   1      30.071  25.385  26.354  1.00  0.00    -0.274 OA
ATOM      5  H   UNL A   1      30.744  27.550  26.167  1.00  0.00     0.163 HD
BRANCH   3   6
ATOM      6  C   UNL A   1      32.071  24.533  25.213  1.00  0.00     0.049 C 
ATOM      7  C   UNL A   1      34.588  23.807  25.048  1.00  0.00    -0.010 C 
ATOM      8  C   UNL A   1      34.626  24.384  23.630  1.00  0.00     0.003 C 
ATOM      9  C   UNL A   1      33.464  24.464  25.884  1.00  0.00     0.020 C 
ATOM     10  C   UNL A   1      33.283  24.203  22.938  1.00  0.00     0.001 C 
ATOM     11  C   UNL A   1      32.165  24.895  23.703  1.00  0.00     0.017 C 
BRANCH   7  12
ATOM     12  C   UNL A   1      35.971  23.952  25.718  1.00  0.00     0.000 C 
ATOM     13  C   UNL A   1      37.130  23.473  24.853  1.00  0.00     0.004 C 
ENDBRANCH   7  12
BRANCH   6  14
ATOM     14  C   UNL A   1      31.255  23.187  25.415  1.00  0.00     0.017 C 
BRANCH  14  15
ATOM     15  C   UNL A   1      31.924  21.808  25.544  1.00  0.00     0.001 C 
BRANCH  15  16
ATOM     16  C   UNL A   1      32.359  21.082  24.261  1.00  0.00     0.002 C 
BRANCH  16  17
ATOM     17  C   UNL A   1      32.384  19.551  24.299  1.00  0.00     0.028 C 
BRANCH  17  18
ATOM     18  C   UNL A   1      33.311  18.984  25.365  1.00  0.00     0.156 C 
BRANCH  18  19
ATOM     19  O   UNL A   1      32.563  18.465  26.457  1.00  0.00    -0.396 OA
ATOM     20  H   UNL A   1      32.945  18.779  27.291  1.00  0.00     0.210 HD
ENDBRANCH  18  19
ENDBRANCH  17  18
ENDBRANCH  16  17
ENDBRANCH  15  16
ENDBRANCH  14  15
ENDBRANCH   6  14
ENDBRANCH   3   6
ENDBRANCH   1   2
BRANCH   1  21
ATOM     21  C   UNL A   1      33.172  28.667  26.422  1.00  0.00     0.021 C 
BRANCH  21  22
ATOM     22  C   UNL A   1      32.978  30.158  26.134  1.00  0.00     0.002 C 
BRANCH  22  23
ATOM     23  C   UNL A   1      31.543  30.687  26.199  1.00  0.00     0.002 C 
BRANCH  23  24
ATOM     24  C   UNL A   1      31.373  32.145  26.629  1.00  0.00     0.021 C 
BRANCH  24  25
ATOM     25  C   UNL A   1      32.613  32.825  27.198  1.00  0.00     0.116 C 
BRANCH  25  26
ATOM     26  N   UNL A   1      32.373  34.190  27.625  1.00  0.00    -0.352 N 
ATOM     27  C   UNL A   1      33.000  34.933  28.595  1.00  0.00     0.251 C 
ATOM     28  H   UNL A   1      31.650  34.656  27.147  1.00  0.00     0.163 HD
ATOM     29  O   UNL A   1      32.573  36.046  28.881  1.00  0.00    -0.269 OA
BRANCH  27  30
ATOM     30  C   UNL A   1      34.166  34.386  29.325  1.00  0.00     0.039 A 
ATOM     31  C   UNL A   1      33.929  33.660  30.495  1.00  0.00     0.014 A 
ATOM     32  C   UNL A   1      35.478  34.592  28.887  1.00  0.00     0.014 A 
ATOM     33  C   UNL A   1      34.997  33.089  31.187  1.00  0.00     0.010 A 
ATOM     34  C   UNL A   1      36.538  33.959  29.537  1.00  0.00     0.010 A 
ATOM     35  C   UNL A   1      36.308  33.200  30.694  1.00  0.00    -0.014 A 
BRANCH  35  36
ATOM     36  C   UNL A   1      37.427  32.496  31.372  1.00  0.00     0.031 A 
ATOM     37  C   UNL A   1      38.113  31.328  30.720  1.00  0.00     0.074 A 
ATOM     38  C   UNL A   1      37.808  32.897  32.599  1.00  0.00     0.049 A 
ATOM     39  N   UNL A   1      39.122  30.613  31.155  1.00  0.00    -0.248 NA
ATOM     40  C   UNL A   1      37.585  30.889  29.420  1.00  0.00     0.031 C 
ATOM     41  C   UNL A   1      37.181  33.979  33.363  1.00  0.00     0.029 A 
ATOM     42  N   UNL A   1      38.812  32.450  33.421  1.00  0.00    -0.354 N 
ATOM     43  C   UNL A   1      39.346  29.644  30.186  1.00  0.00     0.074 A 
ATOM     44  C   UNL A   1      38.333  29.822  29.169  1.00  0.00     0.031 C 
ATOM     45  C   UNL A   1      37.838  34.135  34.523  1.00  0.00     0.029 A 
ATOM     46  C   UNL A   1      38.907  33.146  34.602  1.00  0.00     0.049 A 
ATOM     47  H   UNL A   1      39.406  31.700  33.187  1.00  0.00     0.167 HD
ATOM     48  C   UNL A   1      40.324  28.706  30.138  1.00  0.00     0.037 A 
ATOM     49  C   UNL A   1      39.764  33.005  35.630  1.00  0.00     0.037 A 
ATOM     50  C   UNL A   1      41.338  28.539  31.147  1.00  0.00     0.049 A 
ATOM     51  C   UNL A   1      40.837  31.955  35.553  1.00  0.00     0.074 A 
ATOM     52  C   UNL A   1      42.408  27.660  31.160  1.00  0.00     0.029 A 
ATOM     53  N   UNL A   1      41.403  29.260  32.331  1.00  0.00    -0.354 N 
ATOM     54  N   UNL A   1      41.092  31.100  34.593  1.00  0.00    -0.248 NA
ATOM     55  C   UNL A   1      41.749  31.857  36.701  1.00  0.00     0.031 C 
ATOM     56  C   UNL A   1      43.086  27.810  32.374  1.00  0.00     0.029 A 
ATOM     57  C   UNL A   1      42.475  28.824  33.095  1.00  0.00     0.049 A 
ATOM     58  H   UNL A   1      40.778  29.976  32.591  1.00  0.00     0.167 HD
ATOM     59  C   UNL A   1      42.202  30.377  35.009  1.00  0.00     0.074 A 
ATOM     60  C   UNL A   1      42.588  30.914  36.298  1.00  0.00     0.031 C 
ATOM     61  C   UNL A   1      42.843  29.360  34.382  1.00  0.00     0.037 A 
BRANCH  48  62
ATOM     62  C   UNL A   1      40.345  27.786  28.950  1.00  0.00     0.064 A 
ATOM     63  C   UNL A   1      41.113  28.072  27.809  1.00  0.00     0.173 A 
ATOM     64  C   UNL A   1      39.620  26.584  28.965  1.00  0.00     0.173 A 
ATOM     65  F   UNL A   1      41.818  29.210  27.738  1.00  0.00    -0.203 F 
ATOM     66  C   UNL A   1      41.127  27.207  26.718  1.00  0.00     0.198 A 
ATOM     67  C   UNL A   1      39.662  25.707  27.885  1.00  0.00     0.198 A 
ATOM     68  F   UNL A   1      38.874  26.257  30.031  1.00  0.00    -0.203 F 
ATOM     69  F   UNL A   1      41.825  27.528  25.620  1.00  0.00    -0.200 F 
ATOM     70  C   UNL A   1      40.408  26.022  26.759  1.00  0.00     0.200 A 
ATOM     71  F   UNL A   1      38.978  24.554  27.932  1.00  0.00    -0.200 F 
ATOM     72  F   UNL A   1      40.427  25.188  25.711  1.00  0.00    -0.200 F 
ENDBRANCH  48  62
BRANCH  49  73
ATOM     73  C   UNL A   1      39.660  33.905  36.809  1.00  0.00     0.064 A 
ATOM     74  C   UNL A   1      38.889  33.547  37.923  1.00  0.00     0.173 A 
ATOM     75  C   UNL A   1      40.329  35.138  36.848  1.00  0.00     0.173 A 
ATOM     76  F   UNL A   1      38.214  32.388  37.927  1.00  0.00    -0.203 F 
ATOM     77  C   UNL A   1      38.773  34.397  39.022  1.00  0.00     0.198 A 
ATOM     78  C   UNL A   1      40.238  35.972  37.960  1.00  0.00     0.198 A 
ATOM     79  F   UNL A   1      41.085  35.524  35.809  1.00  0.00    -0.203 F 
ATOM     80  F   UNL A   1      37.992  34.050  40.054  1.00  0.00    -0.200 F 
ATOM     81  C   UNL A   1      39.453  35.605  39.042  1.00  0.00     0.200 A 
ATOM     82  F   UNL A   1      40.910  37.131  37.981  1.00  0.00    -0.200 F 
ATOM     83  F   UNL A   1      39.347  36.418  40.102  1.00  0.00    -0.200 F 
ENDBRANCH  49  73
BRANCH  61  84
ATOM     84  C   UNL A   1      44.038  28.773  35.079  1.00  0.00     0.064 A 
ATOM     85  C   UNL A   1      43.918  27.678  35.949  1.00  0.00     0.173 A 
ATOM     86  C   UNL A   1      45.319  29.303  34.864  1.00  0.00     0.173 A 
ATOM     87  F   UNL A   1      42.713  27.145  36.201  1.00  0.00    -0.203 F 
ATOM     88  C   UNL A   1      45.031  27.162  36.608  1.00  0.00     0.198 A 
ATOM     89  C   UNL A   1      46.434  28.761  35.497  1.00  0.00     0.198 A 
ATOM     90  F   UNL A   1      45.491  30.343  34.035  1.00  0.00    -0.203 F 
ATOM     91  F   UNL A   1      44.883  26.157  37.482  1.00  0.00    -0.200 F 
ATOM     92  C   UNL A   1      46.288  27.700  36.376  1.00  0.00     0.200 A 
ATOM     93  F   UNL A   1      47.651  29.271  35.260  1.00  0.00    -0.200 F 
ATOM     94  F   UNL A   1      47.359  27.200  37.010  1.00  0.00    -0.200 F 
ENDBRANCH  61  84
ENDBRANCH  35  36
ENDBRANCH  27  30
ENDBRANCH  25  26
ENDBRANCH  24  25
ENDBRANCH  23  24
ENDBRANCH  22  23
ENDBRANCH  21  22
ENDBRANCH   1  21
TORSDOF 20
ENDMDL
MODEL 2
REMARK VINA RESULT:     -10.6      0.872      7.520
REMARK SMILES CC[C@@H]1CCC[C@](CCCCCO)(C(=O)NCCCCCCNC(=O)c2ccc(-c3c4nc(c(-c5c(F)c(F)c(F)c(F)c5F)c5ccc([nH]5)c(-c5c(F)c(F)c(F)c(F)c5F)c5nc(c(-c6c(F)c(F)c(F)c(F)c6F)c6ccc3[nH]6)C=C5)C=C4)cc2)C1
REMARK SMILES IDX 17 1 16 2 14 3 15 4 7 6 3 7 4 8 89 9 5 10 6 11 2 12 1 13
REMARK SMILES IDX 8 14 9 15 10 16 11 17 12 18 13 19 18 21 19 22 20 23 21 24
REMARK SMILES IDX 22 25 23 26 24 27 25 29 26 30 27 31 88 32 28 33 87 34 29 35
REMARK SMILES IDX 30 36 31 37 81 38 32 39 86 40 80 41 82 42 33 43 85 44 79 45
REMARK SMILES IDX 78 46 34 48 66 49 46 50 65 51 47 52 50 53 64 54 83 55 48 56
REMARK SMILES IDX 49 57 63 59 84 60 51 61 35 62 36 63 44 64 37 65 38 66 42 67
REMARK SMILES IDX 45 68 39 69 40 70 43 71 41 72 67 73 68 74 76 75 69 76 70 77
REMARK SMILES IDX 74 78 77 79 71 80 72 81 75 82 73 83 52 84 53 85 61 86 54 87
REMARK SMILES IDX 55 88 59 89 62 90 56 91 57 92 60 93 58 94
REMARK H PARENT 16 5 13 20 23 28 82 47 50 58
REMARK Flexibility Score: inf
ROOT
ATOM      1  C   UNL A   1      32.444  27.193  25.842  1.00  0.00     0.116 C 
ENDROOT
BRANCH   1   2
ATOM      2  N   UNL A   1      31.436  26.285  26.342  1.00  0.00    -0.356 N 
ATOM      3  C   UNL A   1      31.319  24.932  26.302  1.00  0.00     0.226 C 
ATOM      4  O   UNL A   1      30.321  24.491  26.888  1.00  0.00    -0.274 OA
ATOM      5  H   UNL A   1      30.689  26.735  26.799  1.00  0.00     0.163 HD
BRANCH   3   6
ATOM      6  C   UNL A   1      32.284  23.987  25.504  1.00  0.00     0.049 C 
ATOM      7  C   UNL A   1      34.845  23.512  25.176  1.00  0.00    -0.010 C 
ATOM      8  C   UNL A   1      34.778  24.262  23.842  1.00  0.00     0.003 C 
ATOM      9  C   UNL A   1      33.704  23.958  26.121  1.00  0.00     0.020 C 
ATOM     10  C   UNL A   1      33.429  24.052  23.171  1.00  0.00     0.001 C 
ATOM     11  C   UNL A   1      32.288  24.541  24.050  1.00  0.00     0.017 C 
BRANCH   7  12
ATOM     12  C   UNL A   1      36.237  23.694  25.819  1.00  0.00     0.000 C 
ATOM     13  C   UNL A   1      37.305  22.768  25.252  1.00  0.00     0.004 C 
ENDBRANCH   7  12
BRANCH   6  14
ATOM     14  C   UNL A   1      31.593  22.559  25.555  1.00  0.00     0.017 C 
BRANCH  14  15
ATOM     15  C   UNL A   1      32.383  21.240  25.535  1.00  0.00     0.001 C 
BRANCH  15  16
ATOM     16  C   UNL A   1      32.676  20.584  24.176  1.00  0.00     0.002 C 
BRANCH  16  17
ATOM     17  C   UNL A   1      32.686  19.052  24.128  1.00  0.00     0.028 C 
BRANCH  17  18
ATOM     18  C   UNL A   1      32.546  18.487  22.722  1.00  0.00     0.156 C 
BRANCH  18  19
ATOM     19  O   UNL A   1      32.769  17.082  22.723  1.00  0.00    -0.396 OA
ATOM     20  H   UNL A   1      33.410  16.855  22.031  1.00  0.00     0.210 HD
ENDBRANCH  18  19
ENDBRANCH  17  18
ENDBRANCH  16  17
ENDBRANCH  15  16
ENDBRANCH  14  15
ENDBRANCH   6  14
ENDBRANCH   3   6
ENDBRANCH   1   2
BRANCH   1  21
ATOM     21  C   UNL A   1      32.710  28.365  26.778  1.00  0.00     0.021 C 
BRANCH  21  22
ATOM     22  C   UNL A   1      32.889  29.731  26.108  1.00  0.00     0.002 C 
BRANCH  22  23
ATOM     23  C   UNL A   1      31.609  30.491  25.750  1.00  0.00     0.002 C 
BRANCH  23  24
ATOM     24  C   UNL A   1      31.373  31.811  26.485  1.00  0.00     0.021 C 
BRANCH  24  25
ATOM     25  C   UNL A   1      32.602  32.457  27.114  1.00  0.00     0.116 C 
BRANCH  25  26
ATOM     26  N   UNL A   1      32.381  33.831  27.525  1.00  0.00    -0.352 N 
ATOM     27  C   UNL A   1      33.042  34.588  28.460  1.00  0.00     0.251 C 
ATOM     28  H   UNL A   1      31.644  34.290  27.062  1.00  0.00     0.163 HD
ATOM     29  O   UNL A   1      32.628  35.707  28.741  1.00  0.00    -0.269 OA
BRANCH  27  30
ATOM     30  C   UNL A   1      34.229  34.050  29.161  1.00  0.00     0.039 A 
ATOM     31  C   UNL A   1      34.027  33.098  30.164  1.00  0.00     0.014 A 
ATOM     32  C   UNL A   1      35.526  34.478  28.859  1.00  0.00     0.014 A 
ATOM     33  C   UNL A   1      35.123  32.532  30.817  1.00  0.00     0.010 A 
ATOM     34  C   UNL A   1      36.623  33.859  29.458  1.00  0.00     0.010 A 
ATOM     35  C   UNL A   1      36.433  32.878  30.443  1.00  0.00    -0.014 A 
BRANCH  35  36
ATOM     36  C   UNL A   1      37.596  32.191  31.061  1.00  0.00     0.031 A 
ATOM     37  C   UNL A   1      38.053  32.541  32.450  1.00  0.00     0.074 A 
ATOM     38  C   UNL A   1      38.263  31.262  30.350  1.00  0.00     0.049 A 
ATOM     39  N   UNL A   1      39.030  32.026  33.154  1.00  0.00    -0.248 NA
ATOM     40  C   UNL A   1      37.333  33.627  33.131  1.00  0.00     0.031 C 
ATOM     41  C   UNL A   1      37.956  30.876  28.971  1.00  0.00     0.029 A 
ATOM     42  N   UNL A   1      39.333  30.470  30.685  1.00  0.00    -0.354 N 
ATOM     43  C   UNL A   1      39.043  32.724  34.354  1.00  0.00     0.074 A 
ATOM     44  C   UNL A   1      38.016  33.738  34.262  1.00  0.00     0.031 C 
ATOM     45  C   UNL A   1      38.792  29.898  28.591  1.00  0.00     0.029 A 
ATOM     46  C   UNL A   1      39.715  29.609  29.684  1.00  0.00     0.049 A 
ATOM     47  H   UNL A   1      39.784  30.515  31.559  1.00  0.00     0.167 HD
ATOM     48  C   UNL A   1      39.823  32.519  35.443  1.00  0.00     0.037 A 
ATOM     49  C   UNL A   1      40.696  28.689  29.653  1.00  0.00     0.037 A 
ATOM     50  C   UNL A   1      40.838  31.500  35.535  1.00  0.00     0.049 A 
ATOM     51  C   UNL A   1      41.550  28.485  30.873  1.00  0.00     0.074 A 
ATOM     52  C   UNL A   1      41.639  31.173  36.616  1.00  0.00     0.029 A 
ATOM     53  N   UNL A   1      41.199  30.648  34.501  1.00  0.00    -0.354 N 
ATOM     54  N   UNL A   1      41.496  29.093  32.033  1.00  0.00    -0.248 NA
ATOM     55  C   UNL A   1      42.597  27.458  30.783  1.00  0.00     0.031 C 
ATOM     56  C   UNL A   1      42.521  30.163  36.220  1.00  0.00     0.029 A 
ATOM     57  C   UNL A   1      42.232  29.818  34.909  1.00  0.00     0.049 A 
ATOM     58  H   UNL A   1      40.783  30.636  33.608  1.00  0.00     0.167 HD
ATOM     59  C   UNL A   1      42.485  28.511  32.816  1.00  0.00     0.074 A 
ATOM     60  C   UNL A   1      43.104  27.482  32.006  1.00  0.00     0.031 C 
ATOM     61  C   UNL A   1      42.848  28.804  34.090  1.00  0.00     0.037 A 
BRANCH  48  62
ATOM     62  C   UNL A   1      39.610  33.418  36.628  1.00  0.00     0.064 A 
ATOM     63  C   UNL A   1      38.740  33.068  37.673  1.00  0.00     0.173 A 
ATOM     64  C   UNL A   1      40.312  34.629  36.742  1.00  0.00     0.173 A 
ATOM     65  F   UNL A   1      38.038  31.927  37.612  1.00  0.00    -0.203 F 
ATOM     66  C   UNL A   1      38.556  33.909  38.768  1.00  0.00     0.198 A 
ATOM     67  C   UNL A   1      40.150  35.452  37.853  1.00  0.00     0.198 A 
ATOM     68  F   UNL A   1      41.162  35.012  35.776  1.00  0.00    -0.203 F 
ATOM     69  F   UNL A   1      37.681  33.576  39.726  1.00  0.00    -0.200 F 
ATOM     70  C   UNL A   1      39.267  35.096  38.861  1.00  0.00     0.200 A 
ATOM     71  F   UNL A   1      40.848  36.592  37.949  1.00  0.00    -0.200 F 
ATOM     72  F   UNL A   1      39.094  35.901  39.918  1.00  0.00    -0.200 F 
ENDBRANCH  48  62
BRANCH  49  73
ATOM     73  C   UNL A   1      40.901  27.867  28.431  1.00  0.00     0.064 A 
ATOM     74  C   UNL A   1      41.776  28.286  27.419  1.00  0.00     0.173 A 
ATOM     75  C   UNL A   1      40.231  26.648  28.251  1.00  0.00     0.173 A 
ATOM     76  F   UNL A   1      42.424  29.454  27.536  1.00  0.00    -0.203 F 
ATOM     77  C   UNL A   1      41.957  27.528  26.264  1.00  0.00     0.198 A 
ATOM     78  C   UNL A   1      40.437  25.875  27.110  1.00  0.00     0.198 A 
ATOM     79  F   UNL A   1      39.389  26.198  29.192  1.00  0.00    -0.203 F 
ATOM     80  F   UNL A   1      42.763  27.976  25.292  1.00  0.00    -0.200 F 
ATOM     81  C   UNL A   1      41.292  26.320  26.113  1.00  0.00     0.200 A 
ATOM     82  F   UNL A   1      39.805  24.701  26.976  1.00  0.00    -0.200 F 
ATOM     83  F   UNL A   1      41.472  25.588  25.005  1.00  0.00    -0.200 F 
ENDBRANCH  49  73
BRANCH  61  84
ATOM     84  C   UNL A   1      43.958  27.987  34.687  1.00  0.00     0.064 A 
ATOM     85  C   UNL A   1      45.298  28.397  34.608  1.00  0.00     0.173 A 
ATOM     86  C   UNL A   1      43.678  26.787  35.359  1.00  0.00     0.173 A 
ATOM     87  F   UNL A   1      45.621  29.528  33.963  1.00  0.00    -0.203 F 
ATOM     88  C   UNL A   1      46.319  27.616  35.144  1.00  0.00     0.198 A 
ATOM     89  C   UNL A   1      44.698  26.028  35.925  1.00  0.00     0.198 A 
ATOM     90  F   UNL A   1      42.414  26.354  35.471  1.00  0.00    -0.203 F 
ATOM     91  F   UNL A   1      47.596  27.996  35.001  1.00  0.00    -0.200 F 
ATOM     92  C   UNL A   1      46.017  26.436  35.808  1.00  0.00     0.200 A 
ATOM     93  F   UNL A   1      44.403  24.895  36.580  1.00  0.00    -0.200 F 
ATOM     94  F   UNL A   1      47.001  25.686  36.325  1.00  0.00    -0.200 F 
ENDBRANCH  61  84
ENDBRANCH  35  36
ENDBRANCH  27  30
ENDBRANCH  25  26
ENDBRANCH  24  25
ENDBRANCH  23  24
ENDBRANCH  22  23
ENDBRANCH  21  22
ENDBRANCH   1  21
TORSDOF 20
ENDMDL
MODEL 3
REMARK VINA RESULT:     -10.4      5.073     10.205
REMARK SMILES CC[C@@H]1CCC[C@](CCCCCO)(C(=O)NCCCCCCNC(=O)c2ccc(-c3c4nc(c(-c5c(F)c(F)c(F)c(F)c5F)c5ccc([nH]5)c(-c5c(F)c(F)c(F)c(F)c5F)c5nc(c(-c6c(F)c(F)c(F)c(F)c6F)c6ccc3[nH]6)C=C5)C=C4)cc2)C1
REMARK SMILES IDX 17 1 16 2 14 3 15 4 7 6 3 7 4 8 89 9 5 10 6 11 2 12 1 13
REMARK SMILES IDX 8 14 9 15 10 16 11 17 12 18 13 19 18 21 19 22 20 23 21 24
REMARK SMILES IDX 22 25 23 26 24 27 25 29 26 30 27 31 88 32 28 33 87 34 29 35
REMARK SMILES IDX 30 36 31 37 81 38 32 39 86 40 80 41 82 42 33 43 85 44 79 45
REMARK SMILES IDX 78 46 34 48 66 49 46 50 65 51 47 52 50 53 64 54 83 55 48 56
REMARK SMILES IDX 49 57 63 59 84 60 51 61 35 62 36 63 44 64 37 65 38 66 42 67
REMARK SMILES IDX 45 68 39 69 40 70 43 71 41 72 67 73 68 74 76 75 69 76 70 77
REMARK SMILES IDX 74 78 77 79 71 80 72 81 75 82 73 83 52 84 53 85 61 86 54 87
REMARK SMILES IDX 55 88 59 89 62 90 56 91 57 92 60 93 58 94
REMARK H PARENT 16 5 13 20 23 28 82 47 50 58
REMARK Flexibility Score: inf
ROOT
ATOM      1  C   UNL A   1      43.610  24.906  26.087  1.00  0.00     0.116 C 
ENDROOT
BRANCH   1   2
ATOM      2  N   UNL A   1      44.775  25.063  25.244  1.00  0.00    -0.356 N 
ATOM      3  C   UNL A   1      45.861  25.875  25.321  1.00  0.00     0.226 C 
ATOM      4  O   UNL A   1      46.696  25.694  24.425  1.00  0.00    -0.274 OA
ATOM      5  H   UNL A   1      44.780  24.467  24.461  1.00  0.00     0.163 HD
BRANCH   3   6
ATOM      6  C   UNL A   1      46.029  27.024  26.377  1.00  0.00     0.049 C 
ATOM      7  C   UNL A   1      44.888  29.263  27.138  1.00  0.00    -0.010 C 
ATOM      8  C   UNL A   1      45.987  30.033  26.400  1.00  0.00     0.003 C 
ATOM      9  C   UNL A   1      44.724  27.837  26.558  1.00  0.00     0.020 C 
ATOM     10  C   UNL A   1      47.309  29.284  26.466  1.00  0.00     0.001 C 
ATOM     11  C   UNL A   1      47.197  27.901  25.843  1.00  0.00     0.017 C 
BRANCH   7  12
ATOM     12  C   UNL A   1      43.566  30.059  27.105  1.00  0.00     0.000 C 
ATOM     13  C   UNL A   1      42.465  29.396  26.286  1.00  0.00     0.004 C 
ENDBRANCH   7  12
BRANCH   6  14
ATOM     14  C   UNL A   1      46.451  26.288  27.718  1.00  0.00     0.017 C 
BRANCH  14  15
ATOM     15  C   UNL A   1      47.428  25.101  27.756  1.00  0.00     0.001 C 
BRANCH  15  16
ATOM     16  C   UNL A   1      48.698  25.226  28.614  1.00  0.00     0.002 C 
BRANCH  16  17
ATOM     17  C   UNL A   1      50.032  25.358  27.870  1.00  0.00     0.028 C 
BRANCH  17  18
ATOM     18  C   UNL A   1      49.877  25.496  26.363  1.00  0.00     0.156 C 
BRANCH  18  19
ATOM     19  O   UNL A   1      51.150  25.585  25.734  1.00  0.00    -0.396 OA
ATOM     20  H   UNL A   1      51.404  26.517  25.647  1.00  0.00     0.210 HD
ENDBRANCH  18  19
ENDBRANCH  17  18
ENDBRANCH  16  17
ENDBRANCH  15  16
ENDBRANCH  14  15
ENDBRANCH   6  14
ENDBRANCH   3   6
ENDBRANCH   1   2
BRANCH   1  21
ATOM     21  C   UNL A   1      43.776  23.816  27.138  1.00  0.00     0.021 C 
BRANCH  21  22
ATOM     22  C   UNL A   1      42.602  23.632  28.104  1.00  0.00     0.002 C 
BRANCH  22  23
ATOM     23  C   UNL A   1      42.162  22.192  28.381  1.00  0.00     0.002 C 
BRANCH  23  24
ATOM     24  C   UNL A   1      40.921  21.703  27.633  1.00  0.00     0.021 C 
BRANCH  24  25
ATOM     25  C   UNL A   1      40.838  22.075  26.157  1.00  0.00     0.116 C 
BRANCH  25  26
ATOM     26  N   UNL A   1      39.495  22.415  25.726  1.00  0.00    -0.352 N 
ATOM     27  C   UNL A   1      38.711  23.492  26.055  1.00  0.00     0.251 C 
ATOM     28  H   UNL A   1      39.083  21.775  25.102  1.00  0.00     0.163 HD
ATOM     29  O   UNL A   1      37.550  23.542  25.665  1.00  0.00    -0.269 OA
BRANCH  27  30
ATOM     30  C   UNL A   1      39.243  24.577  26.911  1.00  0.00     0.039 A 
ATOM     31  C   UNL A   1      40.024  25.567  26.310  1.00  0.00     0.014 A 
ATOM     32  C   UNL A   1      38.998  24.623  28.287  1.00  0.00     0.014 A 
ATOM     33  C   UNL A   1      40.505  26.632  27.073  1.00  0.00     0.010 A 
ATOM     34  C   UNL A   1      39.416  25.725  29.034  1.00  0.00     0.010 A 
ATOM     35  C   UNL A   1      40.173  26.742  28.434  1.00  0.00    -0.014 A 
BRANCH  35  36
ATOM     36  C   UNL A   1      40.592  27.935  29.215  1.00  0.00     0.031 A 
ATOM     37  C   UNL A   1      41.985  28.046  29.767  1.00  0.00     0.074 A 
ATOM     38  C   UNL A   1      39.696  28.912  29.451  1.00  0.00     0.049 A 
ATOM     39  N   UNL A   1      42.529  29.025  30.448  1.00  0.00    -0.248 NA
ATOM     40  C   UNL A   1      42.881  26.901  29.546  1.00  0.00     0.031 C 
ATOM     41  C   UNL A   1      38.296  28.893  29.021  1.00  0.00     0.029 A 
ATOM     42  N   UNL A   1      39.825  30.111  30.106  1.00  0.00    -0.354 N 
ATOM     43  C   UNL A   1      43.823  28.614  30.736  1.00  0.00     0.074 A 
ATOM     44  C   UNL A   1      43.967  27.274  30.210  1.00  0.00     0.031 C 
ATOM     45  C   UNL A   1      37.707  30.041  29.390  1.00  0.00     0.029 A 
ATOM     46  C   UNL A   1      38.674  30.862  30.110  1.00  0.00     0.049 A 
ATOM     47  H   UNL A   1      40.663  30.405  30.532  1.00  0.00     0.167 HD
ATOM     48  C   UNL A   1      44.810  29.302  31.361  1.00  0.00     0.037 A 
ATOM     49  C   UNL A   1      38.429  32.078  30.633  1.00  0.00     0.037 A 
ATOM     50  C   UNL A   1      44.667  30.640  31.874  1.00  0.00     0.049 A 
ATOM     51  C   UNL A   1      39.539  32.817  31.325  1.00  0.00     0.074 A 
ATOM     52  C   UNL A   1      45.624  31.445  32.467  1.00  0.00     0.029 A 
ATOM     53  N   UNL A   1      43.487  31.370  31.864  1.00  0.00    -0.354 N 
ATOM     54  N   UNL A   1      40.784  32.453  31.517  1.00  0.00    -0.248 NA
ATOM     55  C   UNL A   1      39.213  34.144  31.865  1.00  0.00     0.031 C 
ATOM     56  C   UNL A   1      45.011  32.637  32.866  1.00  0.00     0.029 A 
ATOM     57  C   UNL A   1      43.684  32.602  32.468  1.00  0.00     0.049 A 
ATOM     58  H   UNL A   1      42.633  31.057  31.483  1.00  0.00     0.167 HD
ATOM     59  C   UNL A   1      41.394  33.510  32.180  1.00  0.00     0.074 A 
ATOM     60  C   UNL A   1      40.388  34.541  32.333  1.00  0.00     0.031 C 
ATOM     61  C   UNL A   1      42.671  33.616  32.624  1.00  0.00     0.037 A 
BRANCH  48  62
ATOM     62  C   UNL A   1      46.137  28.616  31.525  1.00  0.00     0.064 A 
ATOM     63  C   UNL A   1      46.382  27.725  32.582  1.00  0.00     0.173 A 
ATOM     64  C   UNL A   1      47.168  28.823  30.594  1.00  0.00     0.173 A 
ATOM     65  F   UNL A   1      45.436  27.497  33.505  1.00  0.00    -0.203 F 
ATOM     66  C   UNL A   1      47.615  27.093  32.719  1.00  0.00     0.198 A 
ATOM     67  C   UNL A   1      48.388  28.164  30.716  1.00  0.00     0.198 A 
ATOM     68  F   UNL A   1      46.988  29.659  29.560  1.00  0.00    -0.203 F 
ATOM     69  F   UNL A   1      47.841  26.287  33.766  1.00  0.00    -0.200 F 
ATOM     70  C   UNL A   1      48.615  27.307  31.782  1.00  0.00     0.200 A 
ATOM     71  F   UNL A   1      49.349  28.361  29.801  1.00  0.00    -0.200 F 
ATOM     72  F   UNL A   1      49.799  26.693  31.911  1.00  0.00    -0.200 F 
ENDBRANCH  48  62
BRANCH  49  73
ATOM     73  C   UNL A   1      37.078  32.684  30.494  1.00  0.00     0.064 A 
ATOM     74  C   UNL A   1      36.111  32.528  31.496  1.00  0.00     0.173 A 
ATOM     75  C   UNL A   1      36.728  33.431  29.360  1.00  0.00     0.173 A 
ATOM     76  F   UNL A   1      36.391  31.805  32.591  1.00  0.00    -0.203 F 
ATOM     77  C   UNL A   1      34.838  33.079  31.361  1.00  0.00     0.198 A 
ATOM     78  C   UNL A   1      35.465  34.008  29.239  1.00  0.00     0.198 A 
ATOM     79  F   UNL A   1      37.619  33.615  28.375  1.00  0.00    -0.203 F 
ATOM     80  F   UNL A   1      33.918  32.875  32.314  1.00  0.00    -0.200 F 
ATOM     81  C   UNL A   1      34.518  33.824  30.236  1.00  0.00     0.200 A 
ATOM     82  F   UNL A   1      35.166  34.741  28.158  1.00  0.00    -0.200 F 
ATOM     83  F   UNL A   1      33.296  34.359  30.109  1.00  0.00    -0.200 F 
ENDBRANCH  49  73
BRANCH  61  84
ATOM     84  C   UNL A   1      43.052  34.900  33.304  1.00  0.00     0.064 A 
ATOM     85  C   UNL A   1      43.014  35.033  34.701  1.00  0.00     0.173 A 
ATOM     86  C   UNL A   1      43.474  36.007  32.551  1.00  0.00     0.173 A 
ATOM     87  F   UNL A   1      42.602  34.010  35.465  1.00  0.00    -0.203 F 
ATOM     88  C   UNL A   1      43.345  36.238  35.315  1.00  0.00     0.198 A 
ATOM     89  C   UNL A   1      43.839  37.199  33.172  1.00  0.00     0.198 A 
ATOM     90  F   UNL A   1      43.538  35.931  31.214  1.00  0.00    -0.203 F 
ATOM     91  F   UNL A   1      43.240  36.361  36.646  1.00  0.00    -0.200 F 
ATOM     92  C   UNL A   1      43.764  37.317  34.551  1.00  0.00     0.200 A 
ATOM     93  F   UNL A   1      44.258  38.236  32.433  1.00  0.00    -0.200 F 
ATOM     94  F   UNL A   1      44.084  38.475  35.144  1.00  0.00    -0.200 F 
ENDBRANCH  61  84
ENDBRANCH  35  36
ENDBRANCH  27  30
ENDBRANCH  25  26
ENDBRANCH  24  25
ENDBRANCH  23  24
ENDBRANCH  22  23
ENDBRANCH  21  22
ENDBRANCH   1  21
TORSDOF 20
ENDMDL
