MODEL 1
REMARK VINA RESULT:     -10.7      0.000      0.000
REMARK SMILES CCOC(=O)NC(=O)COc1csc(C(=O)NCCCCCCNC(=O)c2ccc(-c3c4nc(c(-c5c(F)c(F)c(F)c(F)c5F)c5ccc([nH]5)c(-c5c(F)c(F)c(F)c(F)c5F)c5nc(c(-c6c(F)c(F)c(F)c(F)c6F)c6ccc3[nH]6)C=C5)C=C4)cc2)c1
REMARK SMILES IDX 19 1 18 2 17 3 15 4 16 5 14 7 11 8 12 9 90 10 13 11 10 12
REMARK SMILES IDX 9 13 7 14 4 15 5 16 6 17 8 19 3 20 2 21 1 22 20 23 21 24
REMARK SMILES IDX 22 25 23 26 24 27 25 28 26 30 27 31 28 32 89 33 29 34 88 35
REMARK SMILES IDX 30 36 31 37 32 38 82 39 33 40 87 41 81 42 83 43 34 44 86 45
REMARK SMILES IDX 80 46 79 47 35 49 67 50 47 51 66 52 48 53 51 54 65 55 84 56
REMARK SMILES IDX 49 57 50 58 64 60 85 61 52 62 36 63 37 64 45 65 38 66 39 67
REMARK SMILES IDX 43 68 46 69 40 70 41 71 44 72 42 73 68 74 69 75 77 76 70 77
REMARK SMILES IDX 71 78 75 79 78 80 72 81 73 82 76 83 74 84 53 85 54 86 62 87
REMARK SMILES IDX 55 88 56 89 60 90 63 91 57 92 58 93 61 94 59 95
REMARK H PARENT 17 6 6 18 24 29 83 48 51 59
REMARK Flexibility Score: inf
ROOT
ATOM      1  C   UNL A   1      39.643  23.261  26.802  1.00  0.00     0.021 C 
ENDROOT
BRANCH   1   2
ATOM      2  C   UNL A   1      38.258  23.046  26.189  1.00  0.00     0.116 C 
BRANCH   2   3
ATOM      3  N   UNL A   1      38.148  21.704  25.661  1.00  0.00    -0.351 N 
ATOM      4  C   UNL A   1      37.184  21.082  24.903  1.00  0.00     0.261 C 
ATOM      5  O   UNL A   1      37.424  19.902  24.629  1.00  0.00    -0.268 OA
ATOM      6  H   UNL A   1      38.909  21.124  25.887  1.00  0.00     0.163 HD
BRANCH   4   7
ATOM      7  C   UNL A   1      36.001  21.791  24.434  1.00  0.00     0.096 A 
ATOM      8  C   UNL A   1      34.429  23.005  23.200  1.00  0.00     0.131 A 
ATOM      9  C   UNL A   1      33.611  22.413  24.130  1.00  0.00     0.112 A 
ATOM     10  C   UNL A   1      35.799  22.719  23.430  1.00  0.00     0.072 A 
ATOM     11  S   UNL A   1      34.508  21.473  25.243  1.00  0.00    -0.135 S 
BRANCH   8  12
ATOM     12  O   UNL A   1      34.030  23.675  22.095  1.00  0.00    -0.483 OA
BRANCH  12  13
ATOM     13  C   UNL A   1      33.172  24.775  22.321  1.00  0.00     0.329 C 
BRANCH  13  14
ATOM     14  C   UNL A   1      32.700  25.578  21.111  1.00  0.00     0.267 C 
ATOM     15  C   UNL A   1      31.023  27.084  22.294  1.00  0.00     0.413 C 
ATOM     16  O   UNL A   1      30.290  28.049  22.131  1.00  0.00    -0.224 OA
ATOM     17  N   UNL A   1      31.781  26.593  21.251  1.00  0.00    -0.258 N 
ATOM     18  H   UNL A   1      31.629  27.083  20.411  1.00  0.00     0.176 HD
ATOM     19  O   UNL A   1      33.118  25.316  19.979  1.00  0.00    -0.271 OA
BRANCH  15  20
ATOM     20  O   UNL A   1      31.156  26.400  23.453  1.00  0.00    -0.450 OA
BRANCH  20  21
ATOM     21  C   UNL A   1      30.270  26.777  24.520  1.00  0.00     0.231 C 
ATOM     22  C   UNL A   1      31.030  27.051  25.807  1.00  0.00     0.049 C 
ENDBRANCH  20  21
ENDBRANCH  15  20
ENDBRANCH  13  14
ENDBRANCH  12  13
ENDBRANCH   8  12
ENDBRANCH   4   7
ENDBRANCH   2   3
ENDBRANCH   1   2
BRANCH   1  23
ATOM     23  C   UNL A   1      40.727  22.405  26.133  1.00  0.00     0.002 C 
BRANCH  23  24
ATOM     24  C   UNL A   1      41.199  21.205  26.965  1.00  0.00     0.002 C 
BRANCH  24  25
ATOM     25  C   UNL A   1      41.420  19.920  26.164  1.00  0.00     0.021 C 
BRANCH  25  26
ATOM     26  C   UNL A   1      42.677  19.155  26.563  1.00  0.00     0.116 C 
BRANCH  26  27
ATOM     27  N   UNL A   1      43.456  18.766  25.397  1.00  0.00    -0.352 N 
ATOM     28  C   UNL A   1      44.182  19.548  24.536  1.00  0.00     0.251 C 
ATOM     29  H   UNL A   1      43.461  17.803  25.197  1.00  0.00     0.163 HD
ATOM     30  O   UNL A   1      44.565  19.096  23.462  1.00  0.00    -0.269 OA
BRANCH  28  31
ATOM     31  C   UNL A   1      44.495  20.943  24.904  1.00  0.00     0.039 A 
ATOM     32  C   UNL A   1      44.160  21.968  24.017  1.00  0.00     0.014 A 
ATOM     33  C   UNL A   1      45.126  21.235  26.116  1.00  0.00     0.014 A 
ATOM     34  C   UNL A   1      44.408  23.294  24.373  1.00  0.00     0.010 A 
ATOM     35  C   UNL A   1      45.302  22.559  26.503  1.00  0.00     0.010 A 
ATOM     36  C   UNL A   1      44.948  23.602  25.632  1.00  0.00    -0.014 A 
BRANCH  36  37
ATOM     37  C   UNL A   1      45.141  25.010  26.060  1.00  0.00     0.031 A 
ATOM     38  C   UNL A   1      46.498  25.651  25.973  1.00  0.00     0.074 A 
ATOM     39  C   UNL A   1      44.102  25.689  26.585  1.00  0.00     0.049 A 
ATOM     40  N   UNL A   1      46.875  26.845  26.352  1.00  0.00    -0.248 NA
ATOM     41  C   UNL A   1      47.582  24.833  25.406  1.00  0.00     0.031 C 
ATOM     42  C   UNL A   1      42.750  25.159  26.764  1.00  0.00     0.029 A 
ATOM     43  N   UNL A   1      44.023  26.970  27.072  1.00  0.00    -0.354 N 
ATOM     44  C   UNL A   1      48.235  26.917  26.081  1.00  0.00     0.074 A 
ATOM     45  C   UNL A   1      48.630  25.627  25.558  1.00  0.00     0.031 C 
ATOM     46  C   UNL A   1      41.971  26.112  27.297  1.00  0.00     0.029 A 
ATOM     47  C   UNL A   1      42.776  27.304  27.541  1.00  0.00     0.049 A 
ATOM     48  H   UNL A   1      44.787  27.590  27.085  1.00  0.00     0.167 HD
ATOM     49  C   UNL A   1      49.071  27.972  26.232  1.00  0.00     0.037 A 
ATOM     50  C   UNL A   1      42.335  28.441  28.115  1.00  0.00     0.037 A 
ATOM     51  C   UNL A   1      48.666  29.257  26.738  1.00  0.00     0.049 A 
ATOM     52  C   UNL A   1      43.293  29.588  28.290  1.00  0.00     0.074 A 
ATOM     53  C   UNL A   1      49.425  30.406  26.878  1.00  0.00     0.029 A 
ATOM     54  N   UNL A   1      47.392  29.561  27.195  1.00  0.00    -0.354 N 
ATOM     55  N   UNL A   1      44.560  29.669  27.963  1.00  0.00    -0.248 NA
ATOM     56  C   UNL A   1      42.757  30.808  28.911  1.00  0.00     0.031 C 
ATOM     57  C   UNL A   1      48.627  31.386  27.476  1.00  0.00     0.029 A 
ATOM     58  C   UNL A   1      47.351  30.872  27.645  1.00  0.00     0.049 A 
ATOM     59  H   UNL A   1      46.629  28.939  27.199  1.00  0.00     0.167 HD
ATOM     60  C   UNL A   1      44.962  30.953  28.305  1.00  0.00     0.074 A 
ATOM     61  C   UNL A   1      43.800  31.622  28.850  1.00  0.00     0.031 C 
ATOM     62  C   UNL A   1      46.184  31.527  28.177  1.00  0.00     0.037 A 
BRANCH  49  63
ATOM     63  C   UNL A   1      50.511  27.783  25.848  1.00  0.00     0.064 A 
ATOM     64  C   UNL A   1      51.491  27.449  26.795  1.00  0.00     0.173 A 
ATOM     65  C   UNL A   1      50.909  27.887  24.505  1.00  0.00     0.173 A 
ATOM     66  F   UNL A   1      51.168  27.346  28.094  1.00  0.00    -0.203 F 
ATOM     67  C   UNL A   1      52.817  27.252  26.418  1.00  0.00     0.198 A 
ATOM     68  C   UNL A   1      52.229  27.656  24.127  1.00  0.00     0.198 A 
ATOM     69  F   UNL A   1      50.013  28.199  23.556  1.00  0.00    -0.203 F 
ATOM     70  F   UNL A   1      53.743  26.981  27.348  1.00  0.00    -0.200 F 
ATOM     71  C   UNL A   1      53.183  27.346  25.085  1.00  0.00     0.200 A 
ATOM     72  F   UNL A   1      52.577  27.732  22.836  1.00  0.00    -0.200 F 
ATOM     73  F   UNL A   1      54.457  27.143  24.721  1.00  0.00    -0.200 F 
ENDBRANCH  49  63
BRANCH  50  74
ATOM     74  C   UNL A   1      40.919  28.555  28.554  1.00  0.00     0.064 A 
ATOM     75  C   UNL A   1      39.923  28.997  27.673  1.00  0.00     0.173 A 
ATOM     76  C   UNL A   1      40.535  28.241  29.867  1.00  0.00     0.173 A 
ATOM     77  F   UNL A   1      40.242  29.327  26.413  1.00  0.00    -0.203 F 
ATOM     78  C   UNL A   1      38.603  29.151  28.096  1.00  0.00     0.198 A 
ATOM     79  C   UNL A   1      39.210  28.361  30.279  1.00  0.00     0.198 A 
ATOM     80  F   UNL A   1      41.447  27.805  30.748  1.00  0.00    -0.203 F 
ATOM     81  F   UNL A   1      37.683  29.632  27.249  1.00  0.00    -0.200 F 
ATOM     82  C   UNL A   1      38.248  28.828  29.396  1.00  0.00     0.200 A 
ATOM     83  F   UNL A   1      38.867  28.031  31.530  1.00  0.00    -0.200 F 
ATOM     84  F   UNL A   1      36.978  28.975  29.802  1.00  0.00    -0.200 F 
ENDBRANCH  50  74
BRANCH  62  85
ATOM     85  C   UNL A   1      46.318  32.964  28.593  1.00  0.00     0.064 A 
ATOM     86  C   UNL A   1      46.690  33.328  29.897  1.00  0.00     0.173 A 
ATOM     87  C   UNL A   1      46.108  33.993  27.661  1.00  0.00     0.173 A 
ATOM     88  F   UNL A   1      46.889  32.384  30.830  1.00  0.00    -0.203 F 
ATOM     89  C   UNL A   1      46.817  34.666  30.258  1.00  0.00     0.198 A 
ATOM     90  C   UNL A   1      46.271  35.329  28.016  1.00  0.00     0.198 A 
ATOM     91  F   UNL A   1      45.759  33.701  26.400  1.00  0.00    -0.203 F 
ATOM     92  F   UNL A   1      47.119  34.991  31.522  1.00  0.00    -0.200 F 
ATOM     93  C   UNL A   1      46.616  35.665  29.316  1.00  0.00     0.200 A 
ATOM     94  F   UNL A   1      46.094  36.290  27.100  1.00  0.00    -0.200 F 
ATOM     95  F   UNL A   1      46.748  36.952  29.664  1.00  0.00    -0.200 F 
ENDBRANCH  62  85
ENDBRANCH  36  37
ENDBRANCH  28  31
ENDBRANCH  26  27
ENDBRANCH  25  26
ENDBRANCH  24  25
ENDBRANCH  23  24
ENDBRANCH   1  23
TORSDOF 18
ENDMDL
MODEL 2
REMARK VINA RESULT:     -10.6      1.614      2.598
REMARK SMILES CCOC(=O)NC(=O)COc1csc(C(=O)NCCCCCCNC(=O)c2ccc(-c3c4nc(c(-c5c(F)c(F)c(F)c(F)c5F)c5ccc([nH]5)c(-c5c(F)c(F)c(F)c(F)c5F)c5nc(c(-c6c(F)c(F)c(F)c(F)c6F)c6ccc3[nH]6)C=C5)C=C4)cc2)c1
REMARK SMILES IDX 19 1 18 2 17 3 15 4 16 5 14 7 11 8 12 9 90 10 13 11 10 12
REMARK SMILES IDX 9 13 7 14 4 15 5 16 6 17 8 19 3 20 2 21 1 22 20 23 21 24
REMARK SMILES IDX 22 25 23 26 24 27 25 28 26 30 27 31 28 32 89 33 29 34 88 35
REMARK SMILES IDX 30 36 31 37 32 38 82 39 33 40 87 41 81 42 83 43 34 44 86 45
REMARK SMILES IDX 80 46 79 47 35 49 67 50 47 51 66 52 48 53 51 54 65 55 84 56
REMARK SMILES IDX 49 57 50 58 64 60 85 61 52 62 36 63 37 64 45 65 38 66 39 67
REMARK SMILES IDX 43 68 46 69 40 70 41 71 44 72 42 73 68 74 69 75 77 76 70 77
REMARK SMILES IDX 71 78 75 79 78 80 72 81 73 82 76 83 74 84 53 85 54 86 62 87
REMARK SMILES IDX 55 88 56 89 60 90 63 91 57 92 58 93 61 94 59 95
REMARK H PARENT 17 6 6 18 24 29 83 48 51 59
REMARK Flexibility Score: inf
ROOT
ATOM      1  C   UNL A   1      37.037  23.100  24.757  1.00  0.00     0.021 C 
ENDROOT
BRANCH   1   2
ATOM      2  C   UNL A   1      36.215  23.881  25.783  1.00  0.00     0.116 C 
BRANCH   2   3
ATOM      3  N   UNL A   1      35.561  22.971  26.698  1.00  0.00    -0.351 N 
ATOM      4  C   UNL A   1      34.408  22.230  26.604  1.00  0.00     0.261 C 
ATOM      5  O   UNL A   1      34.148  21.549  27.600  1.00  0.00    -0.268 OA
ATOM      6  H   UNL A   1      36.034  22.861  27.554  1.00  0.00     0.163 HD
BRANCH   4   7
ATOM      7  C   UNL A   1      33.593  22.229  25.395  1.00  0.00     0.096 A 
ATOM      8  C   UNL A   1      32.435  22.796  23.445  1.00  0.00     0.131 A 
ATOM      9  C   UNL A   1      32.512  21.434  23.300  1.00  0.00     0.112 A 
ATOM     10  C   UNL A   1      32.973  23.237  24.681  1.00  0.00     0.072 A 
ATOM     11  S   UNL A   1      33.284  20.706  24.642  1.00  0.00    -0.135 S 
BRANCH   8  12
ATOM     12  O   UNL A   1      32.034  23.679  22.502  1.00  0.00    -0.483 OA
BRANCH  12  13
ATOM     13  C   UNL A   1      32.259  25.041  22.803  1.00  0.00     0.329 C 
BRANCH  13  14
ATOM     14  C   UNL A   1      32.911  25.915  21.734  1.00  0.00     0.267 C 
ATOM     15  C   UNL A   1      33.030  28.089  23.051  1.00  0.00     0.413 C 
ATOM     16  O   UNL A   1      33.470  29.230  23.019  1.00  0.00    -0.224 OA
ATOM     17  N   UNL A   1      33.234  27.227  21.994  1.00  0.00    -0.258 N 
ATOM     18  H   UNL A   1      33.724  27.649  21.252  1.00  0.00     0.176 HD
ATOM     19  O   UNL A   1      33.141  25.466  20.607  1.00  0.00    -0.271 OA
BRANCH  15  20
ATOM     20  O   UNL A   1      32.307  27.568  24.068  1.00  0.00    -0.450 OA
BRANCH  20  21
ATOM     21  C   UNL A   1      31.097  28.262  24.411  1.00  0.00     0.231 C 
ATOM     22  C   UNL A   1      30.031  28.089  23.342  1.00  0.00     0.049 C 
ENDBRANCH  20  21
ENDBRANCH  15  20
ENDBRANCH  13  14
ENDBRANCH  12  13
ENDBRANCH   8  12
ENDBRANCH   4   7
ENDBRANCH   2   3
ENDBRANCH   1   2
BRANCH   1  23
ATOM     23  C   UNL A   1      37.733  21.873  25.364  1.00  0.00     0.002 C 
BRANCH  23  24
ATOM     24  C   UNL A   1      37.439  20.550  24.644  1.00  0.00     0.002 C 
BRANCH  24  25
ATOM     25  C   UNL A   1      38.426  19.422  24.954  1.00  0.00     0.021 C 
BRANCH  25  26
ATOM     26  C   UNL A   1      39.434  19.768  26.043  1.00  0.00     0.116 C 
BRANCH  26  27
ATOM     27  N   UNL A   1      40.567  18.854  26.030  1.00  0.00    -0.352 N 
ATOM     28  C   UNL A   1      41.908  19.133  26.012  1.00  0.00     0.251 C 
ATOM     29  H   UNL A   1      40.335  17.898  26.035  1.00  0.00     0.163 HD
ATOM     30  O   UNL A   1      42.720  18.254  25.744  1.00  0.00    -0.269 OA
BRANCH  28  31
ATOM     31  C   UNL A   1      42.374  20.502  26.309  1.00  0.00     0.039 A 
ATOM     32  C   UNL A   1      42.736  21.338  25.251  1.00  0.00     0.014 A 
ATOM     33  C   UNL A   1      42.461  20.954  27.629  1.00  0.00     0.014 A 
ATOM     34  C   UNL A   1      43.134  22.649  25.515  1.00  0.00     0.010 A 
ATOM     35  C   UNL A   1      42.782  22.283  27.885  1.00  0.00     0.010 A 
ATOM     36  C   UNL A   1      43.126  23.142  26.831  1.00  0.00    -0.014 A 
BRANCH  36  37
ATOM     37  C   UNL A   1      43.465  24.558  27.120  1.00  0.00     0.031 A 
ATOM     38  C   UNL A   1      44.864  25.063  26.903  1.00  0.00     0.074 A 
ATOM     39  C   UNL A   1      42.522  25.370  27.638  1.00  0.00     0.049 A 
ATOM     40  N   UNL A   1      45.364  26.246  27.153  1.00  0.00    -0.248 NA
ATOM     41  C   UNL A   1      45.836  24.105  26.353  1.00  0.00     0.031 C 
ATOM     42  C   UNL A   1      41.143  24.982  27.937  1.00  0.00     0.029 A 
ATOM     43  N   UNL A   1      42.584  26.689  28.013  1.00  0.00    -0.354 N 
ATOM     44  C   UNL A   1      46.707  26.170  26.803  1.00  0.00     0.074 A 
ATOM     45  C   UNL A   1      46.956  24.811  26.376  1.00  0.00     0.031 C 
ATOM     46  C   UNL A   1      40.483  26.043  28.424  1.00  0.00     0.029 A 
ATOM     47  C   UNL A   1      41.401  27.173  28.517  1.00  0.00     0.049 A 
ATOM     48  H   UNL A   1      43.398  27.236  27.929  1.00  0.00     0.167 HD
ATOM     49  C   UNL A   1      47.638  27.154  26.814  1.00  0.00     0.037 A 
ATOM     50  C   UNL A   1      41.096  28.389  29.010  1.00  0.00     0.037 A 
ATOM     51  C   UNL A   1      47.377  28.508  27.225  1.00  0.00     0.049 A 
ATOM     52  C   UNL A   1      42.159  29.456  29.031  1.00  0.00     0.074 A 
ATOM     53  C   UNL A   1      48.239  29.591  27.221  1.00  0.00     0.029 A 
ATOM     54  N   UNL A   1      46.164  28.964  27.722  1.00  0.00    -0.354 N 
ATOM     55  N   UNL A   1      43.405  29.393  28.630  1.00  0.00    -0.248 NA
ATOM     56  C   UNL A   1      41.769  30.767  29.569  1.00  0.00     0.031 C 
ATOM     57  C   UNL A   1      47.567  30.687  27.772  1.00  0.00     0.029 A 
ATOM     58  C   UNL A   1      46.264  30.306  28.055  1.00  0.00     0.049 A 
ATOM     59  H   UNL A   1      45.352  28.416  27.823  1.00  0.00     0.167 HD
ATOM     60  C   UNL A   1      43.937  30.660  28.833  1.00  0.00     0.074 A 
ATOM     61  C   UNL A   1      42.872  31.475  29.379  1.00  0.00     0.031 C 
ATOM     62  C   UNL A   1      45.193  31.107  28.589  1.00  0.00     0.037 A 
BRANCH  49  63
ATOM     63  C   UNL A   1      49.030  26.803  26.371  1.00  0.00     0.064 A 
ATOM     64  C   UNL A   1      49.451  26.987  25.045  1.00  0.00     0.173 A 
ATOM     65  C   UNL A   1      49.972  26.324  27.295  1.00  0.00     0.173 A 
ATOM     66  F   UNL A   1      48.589  27.432  24.117  1.00  0.00    -0.203 F 
ATOM     67  C   UNL A   1      50.753  26.680  24.656  1.00  0.00     0.198 A 
ATOM     68  C   UNL A   1      51.282  26.051  26.910  1.00  0.00     0.198 A 
ATOM     69  F   UNL A   1      49.625  26.134  28.577  1.00  0.00    -0.203 F 
ATOM     70  F   UNL A   1      51.117  26.819  23.374  1.00  0.00    -0.200 F 
ATOM     71  C   UNL A   1      51.669  26.223  25.590  1.00  0.00     0.200 A 
ATOM     72  F   UNL A   1      52.169  25.624  27.818  1.00  0.00    -0.200 F 
ATOM     73  F   UNL A   1      52.925  25.940  25.217  1.00  0.00    -0.200 F 
ENDBRANCH  49  63
BRANCH  50  74
ATOM     74  C   UNL A   1      39.726  28.668  29.514  1.00  0.00     0.064 A 
ATOM     75  C   UNL A   1      38.750  29.233  28.681  1.00  0.00     0.173 A 
ATOM     76  C   UNL A   1      39.366  28.393  30.842  1.00  0.00     0.173 A 
ATOM     77  F   UNL A   1      39.049  29.532  27.408  1.00  0.00    -0.203 F 
ATOM     78  C   UNL A   1      37.479  29.540  29.163  1.00  0.00     0.198 A 
ATOM     79  C   UNL A   1      38.085  28.667  31.315  1.00  0.00     0.198 A 
ATOM     80  F   UNL A   1      40.258  27.845  31.681  1.00  0.00    -0.203 F 
ATOM     81  F   UNL A   1      36.586  30.133  28.360  1.00  0.00    -0.200 F 
ATOM     82  C   UNL A   1      37.146  29.252  30.478  1.00  0.00     0.200 A 
ATOM     83  F   UNL A   1      37.762  28.370  32.580  1.00  0.00    -0.200 F 
ATOM     84  F   UNL A   1      35.923  29.546  30.941  1.00  0.00    -0.200 F 
ENDBRANCH  50  74
BRANCH  62  85
ATOM     85  C   UNL A   1      45.475  32.556  28.868  1.00  0.00     0.064 A 
ATOM     86  C   UNL A   1      45.238  33.555  27.911  1.00  0.00     0.173 A 
ATOM     87  C   UNL A   1      45.954  32.955  30.126  1.00  0.00     0.173 A 
ATOM     88  F   UNL A   1      44.794  33.227  26.688  1.00  0.00    -0.203 F 
ATOM     89  C   UNL A   1      45.498  34.894  28.194  1.00  0.00     0.198 A 
ATOM     90  C   UNL A   1      46.177  34.297  30.417  1.00  0.00     0.198 A 
ATOM     91  F   UNL A   1      46.189  32.042  31.080  1.00  0.00    -0.203 F 
ATOM     92  F   UNL A   1      45.316  35.823  27.247  1.00  0.00    -0.200 F 
ATOM     93  C   UNL A   1      45.959  35.264  29.449  1.00  0.00     0.200 A 
ATOM     94  F   UNL A   1      46.605  34.654  31.635  1.00  0.00    -0.200 F 
ATOM     95  F   UNL A   1      46.199  36.554  29.721  1.00  0.00    -0.200 F 
ENDBRANCH  62  85
ENDBRANCH  36  37
ENDBRANCH  28  31
ENDBRANCH  26  27
ENDBRANCH  25  26
ENDBRANCH  24  25
ENDBRANCH  23  24
ENDBRANCH   1  23
TORSDOF 18
ENDMDL
MODEL 3
REMARK VINA RESULT:     -10.5      1.447      1.968
REMARK SMILES CCOC(=O)NC(=O)COc1csc(C(=O)NCCCCCCNC(=O)c2ccc(-c3c4nc(c(-c5c(F)c(F)c(F)c(F)c5F)c5ccc([nH]5)c(-c5c(F)c(F)c(F)c(F)c5F)c5nc(c(-c6c(F)c(F)c(F)c(F)c6F)c6ccc3[nH]6)C=C5)C=C4)cc2)c1
REMARK SMILES IDX 19 1 18 2 17 3 15 4 16 5 14 7 11 8 12 9 90 10 13 11 10 12
REMARK SMILES IDX 9 13 7 14 4 15 5 16 6 17 8 19 3 20 2 21 1 22 20 23 21 24
REMARK SMILES IDX 22 25 23 26 24 27 25 28 26 30 27 31 28 32 89 33 29 34 88 35
REMARK SMILES IDX 30 36 31 37 32 38 82 39 33 40 87 41 81 42 83 43 34 44 86 45
REMARK SMILES IDX 80 46 79 47 35 49 67 50 47 51 66 52 48 53 51 54 65 55 84 56
REMARK SMILES IDX 49 57 50 58 64 60 85 61 52 62 36 63 37 64 45 65 38 66 39 67
REMARK SMILES IDX 43 68 46 69 40 70 41 71 44 72 42 73 68 74 69 75 77 76 70 77
REMARK SMILES IDX 71 78 75 79 78 80 72 81 73 82 76 83 74 84 53 85 54 86 62 87
REMARK SMILES IDX 55 88 56 89 60 90 63 91 57 92 58 93 61 94 59 95
REMARK H PARENT 17 6 6 18 24 29 83 48 51 59
REMARK Flexibility Score: inf
ROOT
ATOM      1  C   UNL A   1      39.998  22.931  27.232  1.00  0.00     0.021 C 
ENDROOT
BRANCH   1   2
ATOM      2  C   UNL A   1      38.740  23.195  26.403  1.00  0.00     0.116 C 
BRANCH   2   3
ATOM      3  N   UNL A   1      38.149  21.944  25.980  1.00  0.00    -0.351 N 
ATOM      4  C   UNL A   1      36.929  21.635  25.427  1.00  0.00     0.261 C 
ATOM      5  O   UNL A   1      36.758  20.436  25.188  1.00  0.00    -0.268 OA
ATOM      6  H   UNL A   1      38.732  21.164  26.114  1.00  0.00     0.163 HD
BRANCH   4   7
ATOM      7  C   UNL A   1      35.945  22.664  25.116  1.00  0.00     0.096 A 
ATOM      8  C   UNL A   1      34.428  24.442  25.186  1.00  0.00     0.131 A 
ATOM      9  C   UNL A   1      34.677  24.382  23.838  1.00  0.00     0.112 A 
ATOM     10  C   UNL A   1      35.083  23.406  25.901  1.00  0.00     0.072 A 
ATOM     11  S   UNL A   1      35.745  23.101  23.457  1.00  0.00    -0.135 S 
BRANCH   8  12
ATOM     12  O   UNL A   1      33.762  25.425  25.833  1.00  0.00    -0.483 OA
BRANCH  12  13
ATOM     13  C   UNL A   1      32.455  25.692  25.366  1.00  0.00     0.329 C 
BRANCH  13  14
ATOM     14  C   UNL A   1      31.332  25.796  26.395  1.00  0.00     0.267 C 
ATOM     15  C   UNL A   1      30.579  23.365  26.372  1.00  0.00     0.413 C 
ATOM     16  O   UNL A   1      29.842  22.564  26.928  1.00  0.00    -0.224 OA
ATOM     17  N   UNL A   1      30.616  24.684  26.774  1.00  0.00    -0.258 N 
ATOM     18  H   UNL A   1      29.983  24.874  27.504  1.00  0.00     0.176 HD
ATOM     19  O   UNL A   1      31.029  26.886  26.890  1.00  0.00    -0.271 OA
BRANCH  15  20
ATOM     20  O   UNL A   1      31.391  23.074  25.331  1.00  0.00    -0.450 OA
BRANCH  20  21
ATOM     21  C   UNL A   1      31.806  21.704  25.209  1.00  0.00     0.231 C 
ATOM     22  C   UNL A   1      32.335  21.401  23.817  1.00  0.00     0.049 C 
ENDBRANCH  20  21
ENDBRANCH  15  20
ENDBRANCH  13  14
ENDBRANCH  12  13
ENDBRANCH   8  12
ENDBRANCH   4   7
ENDBRANCH   2   3
ENDBRANCH   1   2
BRANCH   1  23
ATOM     23  C   UNL A   1      41.065  22.144  26.458  1.00  0.00     0.002 C 
BRANCH  23  24
ATOM     24  C   UNL A   1      41.404  20.772  27.054  1.00  0.00     0.002 C 
BRANCH  24  25
ATOM     25  C   UNL A   1      41.779  19.703  26.024  1.00  0.00     0.021 C 
BRANCH  25  26
ATOM     26  C   UNL A   1      43.122  19.034  26.292  1.00  0.00     0.116 C 
BRANCH  26  27
ATOM     27  N   UNL A   1      43.828  18.740  25.054  1.00  0.00    -0.352 N 
ATOM     28  C   UNL A   1      44.468  19.594  24.194  1.00  0.00     0.251 C 
ATOM     29  H   UNL A   1      43.847  17.790  24.797  1.00  0.00     0.163 HD
ATOM     30  O   UNL A   1      44.787  19.220  23.072  1.00  0.00    -0.269 OA
BRANCH  28  31
ATOM     31  C   UNL A   1      44.765  20.975  24.624  1.00  0.00     0.039 A 
ATOM     32  C   UNL A   1      44.453  22.033  23.768  1.00  0.00     0.014 A 
ATOM     33  C   UNL A   1      45.359  21.223  25.865  1.00  0.00     0.014 A 
ATOM     34  C   UNL A   1      44.687  23.345  24.181  1.00  0.00     0.010 A 
ATOM     35  C   UNL A   1      45.519  22.531  26.307  1.00  0.00     0.010 A 
ATOM     36  C   UNL A   1      45.188  23.606  25.467  1.00  0.00    -0.014 A 
BRANCH  36  37
ATOM     37  C   UNL A   1      45.363  24.997  25.953  1.00  0.00     0.031 A 
ATOM     38  C   UNL A   1      46.719  25.647  25.921  1.00  0.00     0.074 A 
ATOM     39  C   UNL A   1      44.309  25.650  26.481  1.00  0.00     0.049 A 
ATOM     40  N   UNL A   1      47.080  26.827  26.355  1.00  0.00    -0.248 NA
ATOM     41  C   UNL A   1      47.819  24.857  25.347  1.00  0.00     0.031 C 
ATOM     42  C   UNL A   1      42.956  25.107  26.609  1.00  0.00     0.029 A 
ATOM     43  N   UNL A   1      44.213  26.911  27.016  1.00  0.00    -0.354 N 
ATOM     44  C   UNL A   1      48.446  26.916  26.117  1.00  0.00     0.074 A 
ATOM     45  C   UNL A   1      48.860  25.650  25.553  1.00  0.00     0.031 C 
ATOM     46  C   UNL A   1      42.161  26.035  27.161  1.00  0.00     0.029 A 
ATOM     47  C   UNL A   1      42.953  27.220  27.469  1.00  0.00     0.049 A 
ATOM     48  H   UNL A   1      44.973  27.533  27.070  1.00  0.00     0.167 HD
ATOM     49  C   UNL A   1      49.273  27.968  26.328  1.00  0.00     0.037 A 
ATOM     50  C   UNL A   1      42.494  28.331  28.077  1.00  0.00     0.037 A 
ATOM     51  C   UNL A   1      48.849  29.230  26.874  1.00  0.00     0.049 A 
ATOM     52  C   UNL A   1      43.441  29.476  28.319  1.00  0.00     0.074 A 
ATOM     53  C   UNL A   1      49.598  30.377  27.076  1.00  0.00     0.029 A 
ATOM     54  N   UNL A   1      47.563  29.510  27.314  1.00  0.00    -0.354 N 
ATOM     55  N   UNL A   1      44.714  29.575  28.023  1.00  0.00    -0.248 NA
ATOM     56  C   UNL A   1      42.885  30.667  28.974  1.00  0.00     0.031 C 
ATOM     57  C   UNL A   1      48.782  31.329  27.694  1.00  0.00     0.029 A 
ATOM     58  C   UNL A   1      47.506  30.802  27.815  1.00  0.00     0.049 A 
ATOM     59  H   UNL A   1      46.804  28.885  27.278  1.00  0.00     0.167 HD
ATOM     60  C   UNL A   1      45.102  30.847  28.424  1.00  0.00     0.074 A 
ATOM     61  C   UNL A   1      43.925  31.488  28.968  1.00  0.00     0.031 C 
ATOM     62  C   UNL A   1      46.324  31.431  28.345  1.00  0.00     0.037 A 
BRANCH  49  63
ATOM     63  C   UNL A   1      50.721  27.801  25.969  1.00  0.00     0.064 A 
ATOM     64  C   UNL A   1      51.682  27.434  26.924  1.00  0.00     0.173 A 
ATOM     65  C   UNL A   1      51.149  27.960  24.640  1.00  0.00     0.173 A 
ATOM     66  F   UNL A   1      51.331  27.278  28.210  1.00  0.00    -0.203 F 
ATOM     67  C   UNL A   1      53.017  27.258  26.569  1.00  0.00     0.198 A 
ATOM     68  C   UNL A   1      52.478  27.750  24.283  1.00  0.00     0.198 A 
ATOM     69  F   UNL A   1      50.272  28.306  23.685  1.00  0.00    -0.203 F 
ATOM     70  F   UNL A   1      53.924  26.955  27.508  1.00  0.00    -0.200 F 
ATOM     71  C   UNL A   1      53.412  27.407  25.249  1.00  0.00     0.200 A 
ATOM     72  F   UNL A   1      52.854  27.879  23.004  1.00  0.00    -0.200 F 
ATOM     73  F   UNL A   1      54.695  27.225  24.906  1.00  0.00    -0.200 F 
ENDBRANCH  49  63
BRANCH  50  74
ATOM     74  C   UNL A   1      41.068  28.421  28.489  1.00  0.00     0.064 A 
ATOM     75  C   UNL A   1      40.102  28.968  27.633  1.00  0.00     0.173 A 
ATOM     76  C   UNL A   1      40.644  27.980  29.752  1.00  0.00     0.173 A 
ATOM     77  F   UNL A   1      40.460  29.421  26.423  1.00  0.00    -0.203 F 
ATOM     78  C   UNL A   1      38.774  29.098  28.035  1.00  0.00     0.198 A 
ATOM     79  C   UNL A   1      39.310  28.077  30.139  1.00  0.00     0.198 A 
ATOM     80  F   UNL A   1      41.526  27.441  30.607  1.00  0.00    -0.203 F 
ATOM     81  F   UNL A   1      37.883  29.678  27.219  1.00  0.00    -0.200 F 
ATOM     82  C   UNL A   1      38.378  28.648  29.285  1.00  0.00     0.200 A 
ATOM     83  F   UNL A   1      38.928  27.625  31.340  1.00  0.00    -0.200 F 
ATOM     84  F   UNL A   1      37.100  28.772  29.671  1.00  0.00    -0.200 F 
ENDBRANCH  50  74
BRANCH  62  85
ATOM     85  C   UNL A   1      46.440  32.851  28.820  1.00  0.00     0.064 A 
ATOM     86  C   UNL A   1      46.785  33.165  30.144  1.00  0.00     0.173 A 
ATOM     87  C   UNL A   1      46.241  33.915  27.925  1.00  0.00     0.173 A 
ATOM     88  F   UNL A   1      46.973  32.187  31.043  1.00  0.00    -0.203 F 
ATOM     89  C   UNL A   1      46.896  34.489  30.560  1.00  0.00     0.198 A 
ATOM     90  C   UNL A   1      46.389  35.236  28.336  1.00  0.00     0.198 A 
ATOM     91  F   UNL A   1      45.917  33.671  26.647  1.00  0.00    -0.203 F 
ATOM     92  F   UNL A   1      47.173  34.765  31.841  1.00  0.00    -0.200 F 
ATOM     93  C   UNL A   1      46.707  35.523  29.654  1.00  0.00     0.200 A 
ATOM     94  F   UNL A   1      46.223  36.232  27.455  1.00  0.00    -0.200 F 
ATOM     95  F   UNL A   1      46.824  36.796  30.055  1.00  0.00    -0.200 F 
ENDBRANCH  62  85
ENDBRANCH  36  37
ENDBRANCH  28  31
ENDBRANCH  26  27
ENDBRANCH  25  26
ENDBRANCH  24  25
ENDBRANCH  23  24
ENDBRANCH   1  23
TORSDOF 18
ENDMDL
