MODEL 1
REMARK VINA RESULT:     -11.9      0.000      0.000
REMARK SMILES CCC(CC)COc1cc2c(cc1Cl)C=C(C(=O)NCCCCCCNC(=O)c1ccc(-c3c4nc(c(-c5c(F)c(F)c(F)c(F)c5F)c5ccc([nH]5)c(-c5c(F)c(F)c(F)c(F)c5F)c5nc(c(-c6c(F)c(F)c(F)c(F)c6F)c6ccc3[nH]6)C=C5)C=C4)cc1)[C@@H](C(F)(F)F)O2
REMARK SMILES IDX 21 1 20 2 19 3 17 4 18 5 16 7 8 8 9 9 13 10 10 11 12 12
REMARK SMILES IDX 14 13 11 14 97 15 15 16 92 17 7 18 6 19 3 20 2 21 1 22 4 23
REMARK SMILES IDX 5 24 93 25 94 26 95 27 96 28 22 29 23 30 24 31 25 32 26 33
REMARK SMILES IDX 27 34 28 36 29 37 30 38 91 39 31 40 90 41 32 42 33 43 34 44
REMARK SMILES IDX 84 45 35 46 89 47 83 48 85 49 36 50 88 51 82 52 81 53 37 55
REMARK SMILES IDX 69 56 49 57 68 58 50 59 53 60 67 61 86 62 51 63 52 64 66 66
REMARK SMILES IDX 87 67 54 68 38 69 39 70 47 71 40 72 41 73 45 74 48 75 42 76
REMARK SMILES IDX 43 77 46 78 44 79 70 80 71 81 79 82 72 83 73 84 77 85 80 86
REMARK SMILES IDX 74 87 75 88 78 89 76 90 55 91 56 92 64 93 57 94 58 95 62 96
REMARK SMILES IDX 65 97 59 98 60 99 63 100 61 101
REMARK H PARENT 19 6 26 35 85 54 53 65
REMARK Flexibility Score: inf
ROOT
ATOM      1  C   UNL A   1      34.658  19.837  25.051  1.00  0.00     0.021 C 
ENDROOT
BRANCH   1   2
ATOM      2  C   UNL A   1      33.419  20.725  24.974  1.00  0.00     0.116 C 
BRANCH   2   3
ATOM      3  N   UNL A   1      32.811  20.667  23.660  1.00  0.00    -0.352 N 
ATOM      4  C   UNL A   1      32.184  21.528  22.828  1.00  0.00     0.251 C 
ATOM      5  O   UNL A   1      31.860  21.058  21.732  1.00  0.00    -0.270 OA
ATOM      6  H   UNL A   1      32.870  19.764  23.271  1.00  0.00     0.163 HD
BRANCH   4   7
ATOM      7  C   UNL A   1      31.865  22.947  23.140  1.00  0.00     0.067 C 
ATOM      8  C   UNL A   1      31.642  27.950  22.990  1.00  0.00     0.141 A 
ATOM      9  C   UNL A   1      30.687  26.962  23.233  1.00  0.00     0.095 A 
ATOM     10  C   UNL A   1      32.990  27.600  22.820  1.00  0.00     0.083 A 
ATOM     11  C   UNL A   1      31.077  25.628  23.190  1.00  0.00     0.131 A 
ATOM     12  C   UNL A   1      33.349  26.261  22.674  1.00  0.00     0.036 A 
ATOM     13  Cl  UNL A   1      34.237  28.788  22.733  1.00  0.00    -0.080 Cl
ATOM     14  C   UNL A   1      32.381  25.271  22.828  1.00  0.00     0.019 A 
ATOM     15  O   UNL A   1      30.139  24.679  23.503  1.00  0.00    -0.475 OA
ATOM     16  C   UNL A   1      32.683  23.865  22.594  1.00  0.00     0.025 C 
ATOM     17  C   UNL A   1      30.714  23.422  23.983  1.00  0.00     0.314 C 
BRANCH   8  18
ATOM     18  O   UNL A   1      31.252  29.262  22.932  1.00  0.00    -0.492 OA
BRANCH  18  19
ATOM     19  C   UNL A   1      30.221  29.490  21.941  1.00  0.00     0.233 C 
BRANCH  19  20
ATOM     20  C   UNL A   1      29.080  30.377  22.498  1.00  0.00     0.026 C 
BRANCH  20  21
ATOM     21  C   UNL A   1      29.155  31.817  21.936  1.00  0.00     0.003 C 
ATOM     22  C   UNL A   1      28.395  32.823  22.789  1.00  0.00     0.004 C 
ENDBRANCH  20  21
BRANCH  20  23
ATOM     23  C   UNL A   1      27.692  29.739  22.277  1.00  0.00     0.003 C 
ATOM     24  C   UNL A   1      27.329  28.605  23.224  1.00  0.00     0.004 C 
ENDBRANCH  20  23
ENDBRANCH  19  20
ENDBRANCH  18  19
ENDBRANCH   8  18
BRANCH  17  25
ATOM     25  C   UNL A   1      31.103  23.525  25.477  1.00  0.00     0.429 C 
ATOM     26  F   UNL A   1      30.409  24.518  26.086  1.00  0.00    -0.167 F 
ATOM     27  F   UNL A   1      30.816  22.386  26.156  1.00  0.00    -0.167 F 
ATOM     28  F   UNL A   1      32.417  23.769  25.673  1.00  0.00    -0.167 F 
ENDBRANCH  17  25
ENDBRANCH   4   7
ENDBRANCH   2   3
ENDBRANCH   1   2
BRANCH   1  29
ATOM     29  C   UNL A   1      35.977  20.575  24.808  1.00  0.00     0.002 C 
BRANCH  29  30
ATOM     30  C   UNL A   1      37.247  19.724  24.943  1.00  0.00     0.002 C 
BRANCH  30  31
ATOM     31  C   UNL A   1      38.565  20.500  24.956  1.00  0.00     0.021 C 
BRANCH  31  32
ATOM     32  C   UNL A   1      39.436  20.268  26.184  1.00  0.00     0.116 C 
BRANCH  32  33
ATOM     33  N   UNL A   1      40.436  19.234  25.980  1.00  0.00    -0.352 N 
ATOM     34  C   UNL A   1      41.809  19.340  26.001  1.00  0.00     0.251 C 
ATOM     35  H   UNL A   1      40.084  18.332  25.803  1.00  0.00     0.163 HD
ATOM     36  O   UNL A   1      42.512  18.396  25.673  1.00  0.00    -0.269 OA
BRANCH  34  37
ATOM     37  C   UNL A   1      42.429  20.626  26.390  1.00  0.00     0.039 A 
ATOM     38  C   UNL A   1      42.403  21.053  27.718  1.00  0.00     0.014 A 
ATOM     39  C   UNL A   1      43.012  21.429  25.405  1.00  0.00     0.014 A 
ATOM     40  C   UNL A   1      42.804  22.346  28.032  1.00  0.00     0.010 A 
ATOM     41  C   UNL A   1      43.497  22.697  25.739  1.00  0.00     0.010 A 
ATOM     42  C   UNL A   1      43.350  23.187  27.046  1.00  0.00    -0.014 A 
BRANCH  42  43
ATOM     43  C   UNL A   1      43.745  24.569  27.422  1.00  0.00     0.031 A 
ATOM     44  C   UNL A   1      45.134  25.078  27.151  1.00  0.00     0.074 A 
ATOM     45  C   UNL A   1      42.811  25.396  27.930  1.00  0.00     0.049 A 
ATOM     46  N   UNL A   1      45.614  26.287  27.311  1.00  0.00    -0.248 NA
ATOM     47  C   UNL A   1      46.117  24.112  26.636  1.00  0.00     0.031 C 
ATOM     48  C   UNL A   1      41.433  25.013  28.240  1.00  0.00     0.029 A 
ATOM     49  N   UNL A   1      42.860  26.734  28.232  1.00  0.00    -0.354 N 
ATOM     50  C   UNL A   1      46.948  26.223  26.930  1.00  0.00     0.074 A 
ATOM     51  C   UNL A   1      47.216  24.850  26.561  1.00  0.00     0.031 C 
ATOM     52  C   UNL A   1      40.747  26.103  28.613  1.00  0.00     0.029 A 
ATOM     53  C   UNL A   1      41.649  27.252  28.623  1.00  0.00     0.049 A 
ATOM     54  H   UNL A   1      43.683  27.271  28.174  1.00  0.00     0.167 HD
ATOM     55  C   UNL A   1      47.859  27.223  26.873  1.00  0.00     0.037 A 
ATOM     56  C   UNL A   1      41.299  28.510  28.948  1.00  0.00     0.037 A 
ATOM     57  C   UNL A   1      47.582  28.594  27.212  1.00  0.00     0.049 A 
ATOM     58  C   UNL A   1      42.337  29.594  28.905  1.00  0.00     0.074 A 
ATOM     59  C   UNL A   1      48.432  29.684  27.152  1.00  0.00     0.029 A 
ATOM     60  N   UNL A   1      46.360  29.062  27.672  1.00  0.00    -0.354 N 
ATOM     61  N   UNL A   1      43.586  29.523  28.513  1.00  0.00    -0.248 NA
ATOM     62  C   UNL A   1      41.924  30.929  29.359  1.00  0.00     0.031 C 
ATOM     63  C   UNL A   1      47.738  30.806  27.615  1.00  0.00     0.029 A 
ATOM     64  C   UNL A   1      46.442  30.423  27.923  1.00  0.00     0.049 A 
ATOM     65  H   UNL A   1      45.554  28.512  27.800  1.00  0.00     0.167 HD
ATOM     66  C   UNL A   1      44.106  30.800  28.666  1.00  0.00     0.074 A 
ATOM     67  C   UNL A   1      43.032  31.633  29.167  1.00  0.00     0.031 C 
ATOM     68  C   UNL A   1      45.363  31.238  28.419  1.00  0.00     0.037 A 
BRANCH  55  69
ATOM     69  C   UNL A   1      49.250  26.885  26.424  1.00  0.00     0.064 A 
ATOM     70  C   UNL A   1      50.188  26.328  27.304  1.00  0.00     0.173 A 
ATOM     71  C   UNL A   1      49.621  27.042  25.080  1.00  0.00     0.173 A 
ATOM     72  F   UNL A   1      49.884  26.165  28.600  1.00  0.00    -0.203 F 
ATOM     73  C   UNL A   1      51.452  25.950  26.858  1.00  0.00     0.198 A 
ATOM     74  C   UNL A   1      50.878  26.641  24.632  1.00  0.00     0.198 A 
ATOM     75  F   UNL A   1      48.757  27.562  24.195  1.00  0.00    -0.203 F 
ATOM     76  F   UNL A   1      52.342  25.443  27.722  1.00  0.00    -0.200 F 
ATOM     77  C   UNL A   1      51.792  26.098  25.522  1.00  0.00     0.200 A 
ATOM     78  F   UNL A   1      51.200  26.772  23.337  1.00  0.00    -0.200 F 
ATOM     79  F   UNL A   1      53.003  25.718  25.091  1.00  0.00    -0.200 F 
ENDBRANCH  55  69
BRANCH  56  80
ATOM     80  C   UNL A   1      39.892  28.805  29.319  1.00  0.00     0.064 A 
ATOM     81  C   UNL A   1      38.971  29.234  28.355  1.00  0.00     0.173 A 
ATOM     82  C   UNL A   1      39.428  28.620  30.630  1.00  0.00     0.173 A 
ATOM     83  F   UNL A   1      39.371  29.441  27.091  1.00  0.00    -0.203 F 
ATOM     84  C   UNL A   1      37.638  29.469  28.688  1.00  0.00     0.198 A 
ATOM     85  C   UNL A   1      38.091  28.829  30.957  1.00  0.00     0.198 A 
ATOM     86  F   UNL A   1      40.271  28.205  31.587  1.00  0.00    -0.203 F 
ATOM     87  F   UNL A   1      36.781  29.900  27.753  1.00  0.00    -0.200 F 
ATOM     88  C   UNL A   1      37.198  29.255  29.986  1.00  0.00     0.200 A 
ATOM     89  F   UNL A   1      37.666  28.605  32.207  1.00  0.00    -0.200 F 
ATOM     90  F   UNL A   1      35.911  29.463  30.302  1.00  0.00    -0.200 F 
ENDBRANCH  56  80
BRANCH  68  91
ATOM     91  C   UNL A   1      45.662  32.682  28.683  1.00  0.00     0.064 A 
ATOM     92  C   UNL A   1      45.371  33.670  27.732  1.00  0.00     0.173 A 
ATOM     93  C   UNL A   1      46.148  33.091  29.934  1.00  0.00     0.173 A 
ATOM     94  F   UNL A   1      44.916  33.324  26.518  1.00  0.00    -0.203 F 
ATOM     95  C   UNL A   1      45.558  35.018  28.024  1.00  0.00     0.198 A 
ATOM     96  C   UNL A   1      46.312  34.441  30.230  1.00  0.00     0.198 A 
ATOM     97  F   UNL A   1      46.433  32.182  30.879  1.00  0.00    -0.203 F 
ATOM     98  F   UNL A   1      45.291  35.946  27.095  1.00  0.00    -0.200 F 
ATOM     99  C   UNL A   1      46.017  35.403  29.275  1.00  0.00     0.200 A 
ATOM    100  F   UNL A   1      46.743  34.813  31.444  1.00  0.00    -0.200 F 
ATOM    101  F   UNL A   1      46.175  36.702  29.561  1.00  0.00    -0.200 F 
ENDBRANCH  68  91
ENDBRANCH  42  43
ENDBRANCH  34  37
ENDBRANCH  32  33
ENDBRANCH  31  32
ENDBRANCH  30  31
ENDBRANCH  29  30
ENDBRANCH   1  29
TORSDOF 19
ENDMDL
MODEL 2
REMARK VINA RESULT:     -11.5      6.402      9.836
REMARK SMILES CCC(CC)COc1cc2c(cc1Cl)C=C(C(=O)NCCCCCCNC(=O)c1ccc(-c3c4nc(c(-c5c(F)c(F)c(F)c(F)c5F)c5ccc([nH]5)c(-c5c(F)c(F)c(F)c(F)c5F)c5nc(c(-c6c(F)c(F)c(F)c(F)c6F)c6ccc3[nH]6)C=C5)C=C4)cc1)[C@@H](C(F)(F)F)O2
REMARK SMILES IDX 21 1 20 2 19 3 17 4 18 5 16 7 8 8 9 9 13 10 10 11 12 12
REMARK SMILES IDX 14 13 11 14 97 15 15 16 92 17 7 18 6 19 3 20 2 21 1 22 4 23
REMARK SMILES IDX 5 24 93 25 94 26 95 27 96 28 22 29 23 30 24 31 25 32 26 33
REMARK SMILES IDX 27 34 28 36 29 37 30 38 91 39 31 40 90 41 32 42 33 43 34 44
REMARK SMILES IDX 84 45 35 46 89 47 83 48 85 49 36 50 88 51 82 52 81 53 37 55
REMARK SMILES IDX 69 56 49 57 68 58 50 59 53 60 67 61 86 62 51 63 52 64 66 66
REMARK SMILES IDX 87 67 54 68 38 69 39 70 47 71 40 72 41 73 45 74 48 75 42 76
REMARK SMILES IDX 43 77 46 78 44 79 70 80 71 81 79 82 72 83 73 84 77 85 80 86
REMARK SMILES IDX 74 87 75 88 78 89 76 90 55 91 56 92 64 93 57 94 58 95 62 96
REMARK SMILES IDX 65 97 59 98 60 99 63 100 61 101
REMARK H PARENT 19 6 26 35 85 54 53 65
REMARK Flexibility Score: inf
ROOT
ATOM      1  C   UNL A   1      44.239  24.059  29.611  1.00  0.00     0.021 C 
ENDROOT
BRANCH   1   2
ATOM      2  C   UNL A   1      43.229  22.953  29.902  1.00  0.00     0.116 C 
BRANCH   2   3
ATOM      3  N   UNL A   1      42.418  22.661  28.736  1.00  0.00    -0.352 N 
ATOM      4  C   UNL A   1      41.693  23.368  27.841  1.00  0.00     0.251 C 
ATOM      5  O   UNL A   1      41.185  22.702  26.933  1.00  0.00    -0.270 OA
ATOM      6  H   UNL A   1      42.388  21.695  28.546  1.00  0.00     0.163 HD
BRANCH   4   7
ATOM      7  C   UNL A   1      41.469  24.838  27.885  1.00  0.00     0.067 C 
ATOM      8  C   UNL A   1      39.983  29.415  29.280  1.00  0.00     0.141 A 
ATOM      9  C   UNL A   1      41.183  28.919  28.769  1.00  0.00     0.095 A 
ATOM     10  C   UNL A   1      38.866  28.575  29.395  1.00  0.00     0.083 A 
ATOM     11  C   UNL A   1      41.281  27.561  28.487  1.00  0.00     0.131 A 
ATOM     12  C   UNL A   1      39.006  27.200  29.211  1.00  0.00     0.036 A 
ATOM     13  Cl  UNL A   1      37.306  29.183  29.813  1.00  0.00    -0.080 Cl
ATOM     14  C   UNL A   1      40.229  26.687  28.786  1.00  0.00     0.019 A 
ATOM     15  O   UNL A   1      42.444  27.109  27.919  1.00  0.00    -0.475 OA
ATOM     16  C   UNL A   1      40.456  25.252  28.668  1.00  0.00     0.025 C 
ATOM     17  C   UNL A   1      42.282  25.872  27.156  1.00  0.00     0.314 C 
BRANCH   8  18
ATOM     18  O   UNL A   1      39.905  30.731  29.654  1.00  0.00    -0.492 OA
BRANCH  18  19
ATOM     19  C   UNL A   1      40.646  31.007  30.866  1.00  0.00     0.233 C 
BRANCH  19  20
ATOM     20  C   UNL A   1      39.764  31.708  31.929  1.00  0.00     0.026 C 
BRANCH  20  21
ATOM     21  C   UNL A   1      38.751  32.678  31.275  1.00  0.00     0.003 C 
ATOM     22  C   UNL A   1      39.358  34.039  30.960  1.00  0.00     0.004 C 
ENDBRANCH  20  21
BRANCH  20  23
ATOM     23  C   UNL A   1      39.074  30.693  32.866  1.00  0.00     0.003 C 
ATOM     24  C   UNL A   1      39.767  29.345  33.004  1.00  0.00     0.004 C 
ENDBRANCH  20  23
ENDBRANCH  19  20
ENDBRANCH  18  19
ENDBRANCH   8  18
BRANCH  17  25
ATOM     25  C   UNL A   1      41.710  26.160  25.748  1.00  0.00     0.429 C 
ATOM     26  F   UNL A   1      41.842  27.473  25.436  1.00  0.00    -0.167 F 
ATOM     27  F   UNL A   1      42.367  25.470  24.782  1.00  0.00    -0.167 F 
ATOM     28  F   UNL A   1      40.403  25.842  25.625  1.00  0.00    -0.167 F 
ENDBRANCH  17  25
ENDBRANCH   4   7
ENDBRANCH   2   3
ENDBRANCH   1   2
BRANCH   1  29
ATOM     29  C   UNL A   1      45.229  23.728  28.490  1.00  0.00     0.002 C 
BRANCH  29  30
ATOM     30  C   UNL A   1      46.346  24.755  28.268  1.00  0.00     0.002 C 
BRANCH  30  31
ATOM     31  C   UNL A   1      47.304  24.453  27.114  1.00  0.00     0.021 C 
BRANCH  31  32
ATOM     32  C   UNL A   1      46.682  24.531  25.725  1.00  0.00     0.116 C 
BRANCH  32  33
ATOM     33  N   UNL A   1      47.491  25.289  24.786  1.00  0.00    -0.352 N 
ATOM     34  C   UNL A   1      47.598  26.654  24.639  1.00  0.00     0.251 C 
ATOM     35  H   UNL A   1      48.039  24.752  24.169  1.00  0.00     0.163 HD
ATOM     36  O   UNL A   1      48.222  27.133  23.705  1.00  0.00    -0.269 OA
BRANCH  34  37
ATOM     37  C   UNL A   1      46.915  27.541  25.607  1.00  0.00     0.039 A 
ATOM     38  C   UNL A   1      47.637  28.181  26.615  1.00  0.00     0.014 A 
ATOM     39  C   UNL A   1      45.529  27.705  25.523  1.00  0.00     0.014 A 
ATOM     40  C   UNL A   1      46.959  28.841  27.632  1.00  0.00     0.010 A 
ATOM     41  C   UNL A   1      44.856  28.445  26.500  1.00  0.00     0.010 A 
ATOM     42  C   UNL A   1      45.560  28.976  27.591  1.00  0.00    -0.014 A 
BRANCH  42  43
ATOM     43  C   UNL A   1      44.874  29.672  28.712  1.00  0.00     0.031 A 
ATOM     44  C   UNL A   1      44.623  28.972  30.019  1.00  0.00     0.074 A 
ATOM     45  C   UNL A   1      44.560  30.974  28.573  1.00  0.00     0.049 A 
ATOM     46  N   UNL A   1      44.142  29.462  31.136  1.00  0.00    -0.248 NA
ATOM     47  C   UNL A   1      44.951  27.540  30.091  1.00  0.00     0.031 C 
ATOM     48  C   UNL A   1      44.752  31.755  27.350  1.00  0.00     0.029 A 
ATOM     49  N   UNL A   1      44.058  31.881  29.472  1.00  0.00    -0.354 N 
ATOM     50  C   UNL A   1      44.098  28.400  32.031  1.00  0.00     0.074 A 
ATOM     51  C   UNL A   1      44.570  27.231  31.323  1.00  0.00     0.031 C 
ATOM     52  C   UNL A   1      44.448  33.038  27.597  1.00  0.00     0.029 A 
ATOM     53  C   UNL A   1      43.986  33.160  28.977  1.00  0.00     0.049 A 
ATOM     54  H   UNL A   1      43.778  31.639  30.384  1.00  0.00     0.167 HD
ATOM     55  C   UNL A   1      43.719  28.408  33.331  1.00  0.00     0.037 A 
ATOM     56  C   UNL A   1      43.598  34.307  29.566  1.00  0.00     0.037 A 
ATOM     57  C   UNL A   1      43.278  29.579  34.041  1.00  0.00     0.049 A 
ATOM     58  C   UNL A   1      43.154  34.280  31.000  1.00  0.00     0.074 A 
ATOM     59  C   UNL A   1      42.907  29.691  35.370  1.00  0.00     0.029 A 
ATOM     60  N   UNL A   1      43.152  30.842  33.482  1.00  0.00    -0.354 N 
ATOM     61  N   UNL A   1      43.148  33.275  31.841  1.00  0.00    -0.248 NA
ATOM     62  C   UNL A   1      42.653  35.541  31.564  1.00  0.00     0.031 C 
ATOM     63  C   UNL A   1      42.516  31.012  35.606  1.00  0.00     0.029 A 
ATOM     64  C   UNL A   1      42.684  31.734  34.434  1.00  0.00     0.049 A 
ATOM     65  H   UNL A   1      43.364  31.071  32.549  1.00  0.00     0.167 HD
ATOM     66  C   UNL A   1      42.650  33.781  33.034  1.00  0.00     0.074 A 
ATOM     67  C   UNL A   1      42.385  35.187  32.815  1.00  0.00     0.031 C 
ATOM     68  C   UNL A   1      42.428  33.132  34.201  1.00  0.00     0.037 A 
BRANCH  55  69
ATOM     69  C   UNL A   1      43.763  27.111  34.085  1.00  0.00     0.064 A 
ATOM     70  C   UNL A   1      42.597  26.384  34.359  1.00  0.00     0.173 A 
ATOM     71  C   UNL A   1      44.992  26.551  34.465  1.00  0.00     0.173 A 
ATOM     72  F   UNL A   1      41.396  26.880  34.023  1.00  0.00    -0.203 F 
ATOM     73  C   UNL A   1      42.657  25.146  34.994  1.00  0.00     0.198 A 
ATOM     74  C   UNL A   1      45.051  25.303  35.079  1.00  0.00     0.198 A 
ATOM     75  F   UNL A   1      46.138  27.203  34.218  1.00  0.00    -0.203 F 
ATOM     76  F   UNL A   1      41.527  24.480  35.269  1.00  0.00    -0.200 F 
ATOM     77  C   UNL A   1      43.884  24.603  35.346  1.00  0.00     0.200 A 
ATOM     78  F   UNL A   1      46.238  24.772  35.406  1.00  0.00    -0.200 F 
ATOM     79  F   UNL A   1      43.941  23.403  35.942  1.00  0.00    -0.200 F 
ENDBRANCH  55  69
BRANCH  56  80
ATOM     80  C   UNL A   1      43.639  35.576  28.795  1.00  0.00     0.064 A 
ATOM     81  C   UNL A   1      44.819  36.325  28.710  1.00  0.00     0.173 A 
ATOM     82  C   UNL A   1      42.518  36.039  28.092  1.00  0.00     0.173 A 
ATOM     83  F   UNL A   1      45.913  35.931  29.379  1.00  0.00    -0.203 F 
ATOM     84  C   UNL A   1      44.876  37.493  27.951  1.00  0.00     0.198 A 
ATOM     85  C   UNL A   1      42.582  37.191  27.312  1.00  0.00     0.198 A 
ATOM     86  F   UNL A   1      41.366  35.353  28.138  1.00  0.00    -0.203 F 
ATOM     87  F   UNL A   1      46.010  38.205  27.904  1.00  0.00    -0.200 F 
ATOM     88  C   UNL A   1      43.761  37.918  27.245  1.00  0.00     0.200 A 
ATOM     89  F   UNL A   1      41.508  37.589  26.618  1.00  0.00    -0.200 F 
ATOM     90  F   UNL A   1      43.821  39.031  26.500  1.00  0.00    -0.200 F 
ENDBRANCH  56  80
BRANCH  68  91
ATOM     91  C   UNL A   1      41.869  33.925  35.343  1.00  0.00     0.064 A 
ATOM     92  C   UNL A   1      40.491  33.958  35.598  1.00  0.00     0.173 A 
ATOM     93  C   UNL A   1      42.724  34.573  36.246  1.00  0.00     0.173 A 
ATOM     94  F   UNL A   1      39.634  33.362  34.754  1.00  0.00    -0.203 F 
ATOM     95  C   UNL A   1      39.988  34.614  36.717  1.00  0.00     0.198 A 
ATOM     96  C   UNL A   1      42.220  35.209  37.376  1.00  0.00     0.198 A 
ATOM     97  F   UNL A   1      44.051  34.562  36.047  1.00  0.00    -0.203 F 
ATOM     98  F   UNL A   1      38.666  34.650  36.934  1.00  0.00    -0.200 F 
ATOM     99  C   UNL A   1      40.853  35.228  37.611  1.00  0.00     0.200 A 
ATOM    100  F   UNL A   1      43.058  35.791  38.247  1.00  0.00    -0.200 F 
ATOM    101  F   UNL A   1      40.368  35.840  38.701  1.00  0.00    -0.200 F 
ENDBRANCH  68  91
ENDBRANCH  42  43
ENDBRANCH  34  37
ENDBRANCH  32  33
ENDBRANCH  31  32
ENDBRANCH  30  31
ENDBRANCH  29  30
ENDBRANCH   1  29
TORSDOF 19
ENDMDL
MODEL 3
REMARK VINA RESULT:     -11.5      6.271      9.701
REMARK SMILES CCC(CC)COc1cc2c(cc1Cl)C=C(C(=O)NCCCCCCNC(=O)c1ccc(-c3c4nc(c(-c5c(F)c(F)c(F)c(F)c5F)c5ccc([nH]5)c(-c5c(F)c(F)c(F)c(F)c5F)c5nc(c(-c6c(F)c(F)c(F)c(F)c6F)c6ccc3[nH]6)C=C5)C=C4)cc1)[C@@H](C(F)(F)F)O2
REMARK SMILES IDX 21 1 20 2 19 3 17 4 18 5 16 7 8 8 9 9 13 10 10 11 12 12
REMARK SMILES IDX 14 13 11 14 97 15 15 16 92 17 7 18 6 19 3 20 2 21 1 22 4 23
REMARK SMILES IDX 5 24 93 25 94 26 95 27 96 28 22 29 23 30 24 31 25 32 26 33
REMARK SMILES IDX 27 34 28 36 29 37 30 38 91 39 31 40 90 41 32 42 33 43 34 44
REMARK SMILES IDX 84 45 35 46 89 47 83 48 85 49 36 50 88 51 82 52 81 53 37 55
REMARK SMILES IDX 69 56 49 57 68 58 50 59 53 60 67 61 86 62 51 63 52 64 66 66
REMARK SMILES IDX 87 67 54 68 38 69 39 70 47 71 40 72 41 73 45 74 48 75 42 76
REMARK SMILES IDX 43 77 46 78 44 79 70 80 71 81 79 82 72 83 73 84 77 85 80 86
REMARK SMILES IDX 74 87 75 88 78 89 76 90 55 91 56 92 64 93 57 94 58 95 62 96
REMARK SMILES IDX 65 97 59 98 60 99 63 100 61 101
REMARK H PARENT 19 6 26 35 85 54 53 65
REMARK Flexibility Score: inf
ROOT
ATOM      1  C   UNL A   1      43.405  24.625  27.418  1.00  0.00     0.021 C 
ENDROOT
BRANCH   1   2
ATOM      2  C   UNL A   1      42.325  24.183  28.401  1.00  0.00     0.116 C 
BRANCH   2   3
ATOM      3  N   UNL A   1      41.008  24.250  27.800  1.00  0.00    -0.352 N 
ATOM      4  C   UNL A   1      40.019  25.165  27.697  1.00  0.00     0.251 C 
ATOM      5  O   UNL A   1      39.046  24.815  27.021  1.00  0.00    -0.270 OA
ATOM      6  H   UNL A   1      40.771  23.407  27.347  1.00  0.00     0.163 HD
BRANCH   4   7
ATOM      7  C   UNL A   1      40.025  26.512  28.331  1.00  0.00     0.067 C 
ATOM      8  C   UNL A   1      39.060  30.379  31.366  1.00  0.00     0.141 A 
ATOM      9  C   UNL A   1      40.236  29.878  30.807  1.00  0.00     0.095 A 
ATOM     10  C   UNL A   1      37.821  29.821  31.016  1.00  0.00     0.083 A 
ATOM     11  C   UNL A   1      40.166  28.753  29.994  1.00  0.00     0.131 A 
ATOM     12  C   UNL A   1      37.773  28.633  30.288  1.00  0.00     0.036 A 
ATOM     13  Cl  UNL A   1      36.328  30.535  31.503  1.00  0.00    -0.080 Cl
ATOM     14  C   UNL A   1      38.955  28.079  29.802  1.00  0.00     0.019 A 
ATOM     15  O   UNL A   1      41.324  28.322  29.399  1.00  0.00    -0.475 OA
ATOM     16  C   UNL A   1      38.970  26.792  29.117  1.00  0.00     0.025 C 
ATOM     17  C   UNL A   1      41.103  27.548  28.178  1.00  0.00     0.314 C 
BRANCH   8  18
ATOM     18  O   UNL A   1      39.126  31.427  32.246  1.00  0.00    -0.492 OA
BRANCH  18  19
ATOM     19  C   UNL A   1      39.797  32.580  31.683  1.00  0.00     0.233 C 
BRANCH  19  20
ATOM     20  C   UNL A   1      38.996  33.883  31.929  1.00  0.00     0.026 C 
BRANCH  20  21
ATOM     21  C   UNL A   1      38.628  34.583  30.599  1.00  0.00     0.003 C 
ATOM     22  C   UNL A   1      38.356  33.599  29.470  1.00  0.00     0.004 C 
ENDBRANCH  20  21
BRANCH  20  23
ATOM     23  C   UNL A   1      37.758  33.640  32.819  1.00  0.00     0.003 C 
ATOM     24  C   UNL A   1      36.472  34.311  32.358  1.00  0.00     0.004 C 
ENDBRANCH  20  23
ENDBRANCH  19  20
ENDBRANCH  18  19
ENDBRANCH   8  18
BRANCH  17  25
ATOM     25  C   UNL A   1      40.835  28.480  26.972  1.00  0.00     0.429 C 
ATOM     26  F   UNL A   1      41.137  27.855  25.808  1.00  0.00    -0.167 F 
ATOM     27  F   UNL A   1      39.529  28.837  26.887  1.00  0.00    -0.167 F 
ATOM     28  F   UNL A   1      41.545  29.628  27.014  1.00  0.00    -0.167 F 
ENDBRANCH  17  25
ENDBRANCH   4   7
ENDBRANCH   2   3
ENDBRANCH   1   2
BRANCH   1  29
ATOM     29  C   UNL A   1      43.114  24.262  25.959  1.00  0.00     0.002 C 
BRANCH  29  30
ATOM     30  C   UNL A   1      44.344  23.968  25.091  1.00  0.00     0.002 C 
BRANCH  30  31
ATOM     31  C   UNL A   1      45.531  23.332  25.817  1.00  0.00     0.021 C 
BRANCH  31  32
ATOM     32  C   UNL A   1      46.664  24.292  26.161  1.00  0.00     0.116 C 
BRANCH  32  33
ATOM     33  N   UNL A   1      47.175  25.001  25.002  1.00  0.00    -0.352 N 
ATOM     34  C   UNL A   1      47.062  26.336  24.683  1.00  0.00     0.251 C 
ATOM     35  H   UNL A   1      47.673  24.452  24.354  1.00  0.00     0.163 HD
ATOM     36  O   UNL A   1      47.435  26.751  23.596  1.00  0.00    -0.269 OA
BRANCH  34  37
ATOM     37  C   UNL A   1      46.448  27.263  25.660  1.00  0.00     0.039 A 
ATOM     38  C   UNL A   1      47.235  27.913  26.612  1.00  0.00     0.014 A 
ATOM     39  C   UNL A   1      45.064  27.455  25.642  1.00  0.00     0.014 A 
ATOM     40  C   UNL A   1      46.623  28.614  27.644  1.00  0.00     0.010 A 
ATOM     41  C   UNL A   1      44.458  28.235  26.631  1.00  0.00     0.010 A 
ATOM     42  C   UNL A   1      45.227  28.779  27.670  1.00  0.00    -0.014 A 
BRANCH  42  43
ATOM     43  C   UNL A   1      44.615  29.519  28.805  1.00  0.00     0.031 A 
ATOM     44  C   UNL A   1      44.380  28.847  30.130  1.00  0.00     0.074 A 
ATOM     45  C   UNL A   1      44.355  30.832  28.659  1.00  0.00     0.049 A 
ATOM     46  N   UNL A   1      43.962  29.372  31.256  1.00  0.00    -0.248 NA
ATOM     47  C   UNL A   1      44.645  27.403  30.210  1.00  0.00     0.031 C 
ATOM     48  C   UNL A   1      44.537  31.589  27.420  1.00  0.00     0.029 A 
ATOM     49  N   UNL A   1      43.928  31.772  29.563  1.00  0.00    -0.354 N 
ATOM     50  C   UNL A   1      43.902  28.325  32.167  1.00  0.00     0.074 A 
ATOM     51  C   UNL A   1      44.295  27.126  31.459  1.00  0.00     0.031 C 
ATOM     52  C   UNL A   1      44.301  32.888  27.659  1.00  0.00     0.029 A 
ATOM     53  C   UNL A   1      43.895  33.048  29.053  1.00  0.00     0.049 A 
ATOM     54  H   UNL A   1      43.670  31.554  30.487  1.00  0.00     0.167 HD
ATOM     55  C   UNL A   1      43.571  28.365  33.479  1.00  0.00     0.037 A 
ATOM     56  C   UNL A   1      43.581  34.218  29.640  1.00  0.00     0.037 A 
ATOM     57  C   UNL A   1      43.209  29.564  34.189  1.00  0.00     0.049 A 
ATOM     58  C   UNL A   1      43.189  34.228  31.088  1.00  0.00     0.074 A 
ATOM     59  C   UNL A   1      42.892  29.709  35.528  1.00  0.00     0.029 A 
ATOM     60  N   UNL A   1      43.121  30.825  33.616  1.00  0.00    -0.354 N 
ATOM     61  N   UNL A   1      43.167  33.235  31.943  1.00  0.00    -0.248 NA
ATOM     62  C   UNL A   1      42.765  35.518  31.653  1.00  0.00     0.031 C 
ATOM     63  C   UNL A   1      42.570  31.049  35.759  1.00  0.00     0.029 A 
ATOM     64  C   UNL A   1      42.728  31.748  34.572  1.00  0.00     0.049 A 
ATOM     65  H   UNL A   1      43.309  31.032  32.673  1.00  0.00     0.167 HD
ATOM     66  C   UNL A   1      42.736  33.777  33.146  1.00  0.00     0.074 A 
ATOM     67  C   UNL A   1      42.527  35.192  32.917  1.00  0.00     0.031 C 
ATOM     68  C   UNL A   1      42.527  33.154  34.329  1.00  0.00     0.037 A 
BRANCH  55  69
ATOM     69  C   UNL A   1      43.584  27.078  34.249  1.00  0.00     0.064 A 
ATOM     70  C   UNL A   1      42.401  26.380  34.527  1.00  0.00     0.173 A 
ATOM     71  C   UNL A   1      44.798  26.495  34.640  1.00  0.00     0.173 A 
ATOM     72  F   UNL A   1      41.213  26.899  34.182  1.00  0.00    -0.203 F 
ATOM     73  C   UNL A   1      42.431  25.149  35.178  1.00  0.00     0.198 A 
ATOM     74  C   UNL A   1      44.828  25.253  35.270  1.00  0.00     0.198 A 
ATOM     75  F   UNL A   1      45.960  27.118  34.389  1.00  0.00    -0.203 F 
ATOM     76  F   UNL A   1      41.286  24.511  35.457  1.00  0.00    -0.200 F 
ATOM     77  C   UNL A   1      43.644  24.583  35.540  1.00  0.00     0.200 A 
ATOM     78  F   UNL A   1      46.002  24.700  35.607  1.00  0.00    -0.200 F 
ATOM     79  F   UNL A   1      43.673  23.390  36.151  1.00  0.00    -0.200 F 
ENDBRANCH  55  69
BRANCH  56  80
ATOM     80  C   UNL A   1      43.652  35.474  28.850  1.00  0.00     0.064 A 
ATOM     81  C   UNL A   1      44.872  36.135  28.663  1.00  0.00     0.173 A 
ATOM     82  C   UNL A   1      42.514  36.012  28.231  1.00  0.00     0.173 A 
ATOM     83  F   UNL A   1      45.985  35.668  29.248  1.00  0.00    -0.203 F 
ATOM     84  C   UNL A   1      44.952  37.290  27.885  1.00  0.00     0.198 A 
ATOM     85  C   UNL A   1      42.598  37.150  27.433  1.00  0.00     0.198 A 
ATOM     86  F   UNL A   1      41.323  35.412  28.377  1.00  0.00    -0.203 F 
ATOM     87  F   UNL A   1      46.127  37.917  27.739  1.00  0.00    -0.200 F 
ATOM     88  C   UNL A   1      43.817  37.789  27.263  1.00  0.00     0.200 A 
ATOM     89  F   UNL A   1      41.504  37.619  26.820  1.00  0.00    -0.200 F 
ATOM     90  F   UNL A   1      43.897  38.888  26.500  1.00  0.00    -0.200 F 
ENDBRANCH  56  80
BRANCH  68  91
ATOM     91  C   UNL A   1      42.046  33.985  35.479  1.00  0.00     0.064 A 
ATOM     92  C   UNL A   1      42.917  34.833  36.177  1.00  0.00     0.173 A 
ATOM     93  C   UNL A   1      40.685  34.010  35.819  1.00  0.00     0.173 A 
ATOM     94  F   UNL A   1      44.228  34.834  35.894  1.00  0.00    -0.203 F 
ATOM     95  C   UNL A   1      42.442  35.676  37.177  1.00  0.00     0.198 A 
ATOM     96  C   UNL A   1      40.210  34.870  36.804  1.00  0.00     0.198 A 
ATOM     97  F   UNL A   1      39.813  33.221  35.174  1.00  0.00    -0.203 F 
ATOM     98  F   UNL A   1      43.294  36.466  37.845  1.00  0.00    -0.200 F 
ATOM     99  C   UNL A   1      41.089  35.703  37.482  1.00  0.00     0.200 A 
ATOM    100  F   UNL A   1      38.901  34.905  37.089  1.00  0.00    -0.200 F 
ATOM    101  F   UNL A   1      40.631  36.532  38.430  1.00  0.00    -0.200 F 
ENDBRANCH  68  91
ENDBRANCH  42  43
ENDBRANCH  34  37
ENDBRANCH  32  33
ENDBRANCH  31  32
ENDBRANCH  30  31
ENDBRANCH  29  30
ENDBRANCH   1  29
TORSDOF 19
ENDMDL
