MODEL 1
REMARK VINA RESULT:     -11.7      0.000      0.000
REMARK SMILES Nc1c(Br)cc(C(=O)NCCCCCCNC(=O)c2ccc(-c3c4nc(c(-c5c(F)c(F)c(F)c(F)c5F)c5ccc([nH]5)c(-c5c(F)c(F)c(F)c(F)c5F)c5nc(c(-c6c(F)c(F)c(F)c(F)c6F)c6ccc3[nH]6)C=C5)C=C4)cc2)cc1Br
REMARK SMILES IDX 13 1 12 2 11 3 10 4 9 5 7 6 8 7 6 9 2 10 3 11 83 12 4 13
REMARK SMILES IDX 5 14 82 15 84 16 1 17 14 20 15 21 16 22 17 23 18 25 19 26
REMARK SMILES IDX 20 27 81 28 21 29 80 30 22 31 23 32 24 33 74 34 25 35 79 36
REMARK SMILES IDX 73 37 75 38 26 39 78 40 72 41 71 42 27 44 59 45 39 46 58 47
REMARK SMILES IDX 40 48 43 49 57 50 76 51 41 52 42 53 56 55 77 56 44 57 28 58
REMARK SMILES IDX 29 59 37 60 30 61 31 62 35 63 38 64 32 65 33 66 36 67 34 68
REMARK SMILES IDX 60 69 61 70 69 71 62 72 63 73 67 74 70 75 64 76 65 77 68 78
REMARK SMILES IDX 66 79 45 80 46 81 54 82 47 83 48 84 52 85 55 86 49 87 50 88
REMARK SMILES IDX 53 89 51 90
REMARK H PARENT 9 8 1 18 1 19 16 24 75 43 43 54
REMARK Flexibility Score: inf
ROOT
ATOM      1  C   UNL A   1      31.448  30.721  26.092  1.00  0.00     0.002 C 
ENDROOT
BRANCH   1   2
ATOM      2  C   UNL A   1      32.241  29.855  27.081  1.00  0.00     0.002 C 
BRANCH   2   3
ATOM      3  C   UNL A   1      31.492  28.622  27.609  1.00  0.00     0.021 C 
BRANCH   3   4
ATOM      4  C   UNL A   1      32.262  27.315  27.407  1.00  0.00     0.116 C 
BRANCH   4   5
ATOM      5  N   UNL A   1      31.372  26.295  26.890  1.00  0.00    -0.352 N 
ATOM      6  C   UNL A   1      30.630  26.168  25.748  1.00  0.00     0.251 C 
ATOM      7  O   UNL A   1      29.936  25.155  25.649  1.00  0.00    -0.269 OA
ATOM      8  H   UNL A   1      31.282  25.522  27.493  1.00  0.00     0.163 HD
BRANCH   6   9
ATOM      9  C   UNL A   1      30.646  27.133  24.611  1.00  0.00     0.042 A 
ATOM     10  C   UNL A   1      30.932  29.005  22.478  1.00  0.00     0.060 A 
ATOM     11  C   UNL A   1      29.674  28.687  23.018  1.00  0.00     0.042 A 
ATOM     12  C   UNL A   1      32.044  28.346  23.021  1.00  0.00     0.042 A 
ATOM     13  Br  UNL A   1      28.096  29.544  22.382  1.00  0.00    -0.049 Br
ATOM     14  C   UNL A   1      29.526  27.731  24.036  1.00  0.00     0.031 A 
ATOM     15  C   UNL A   1      31.907  27.432  24.070  1.00  0.00     0.031 A 
ATOM     16  Br  UNL A   1      33.796  28.663  22.347  1.00  0.00    -0.049 Br
BRANCH  10  17
ATOM     17  N   UNL A   1      31.078  29.995  21.511  1.00  0.00    -0.397 N 
ATOM     18  H   UNL A   1      30.469  30.022  20.737  1.00  0.00     0.156 HD
ATOM     19  H   UNL A   1      31.790  30.669  21.601  1.00  0.00     0.156 HD
ENDBRANCH  10  17
ENDBRANCH   6   9
ENDBRANCH   4   5
ENDBRANCH   3   4
ENDBRANCH   2   3
ENDBRANCH   1   2
BRANCH   1  20
ATOM     20  C   UNL A   1      31.329  32.198  26.476  1.00  0.00     0.021 C 
BRANCH  20  21
ATOM     21  C   UNL A   1      32.559  32.764  27.179  1.00  0.00     0.116 C 
BRANCH  21  22
ATOM     22  N   UNL A   1      32.369  34.155  27.561  1.00  0.00    -0.352 N 
ATOM     23  C   UNL A   1      32.964  34.869  28.569  1.00  0.00     0.251 C 
ATOM     24  H   UNL A   1      31.719  34.656  27.016  1.00  0.00     0.163 HD
ATOM     25  O   UNL A   1      32.521  35.965  28.897  1.00  0.00    -0.269 OA
BRANCH  23  26
ATOM     26  C   UNL A   1      34.138  34.311  29.273  1.00  0.00     0.039 A 
ATOM     27  C   UNL A   1      33.936  33.542  30.422  1.00  0.00     0.014 A 
ATOM     28  C   UNL A   1      35.433  34.565  28.815  1.00  0.00     0.014 A 
ATOM     29  C   UNL A   1      35.032  32.985  31.083  1.00  0.00     0.010 A 
ATOM     30  C   UNL A   1      36.519  33.954  29.432  1.00  0.00     0.010 A 
ATOM     31  C   UNL A   1      36.330  33.164  30.577  1.00  0.00    -0.014 A 
BRANCH  31  32
ATOM     32  C   UNL A   1      37.504  32.541  31.237  1.00  0.00     0.031 A 
ATOM     33  C   UNL A   1      38.247  31.425  30.558  1.00  0.00     0.074 A 
ATOM     34  C   UNL A   1      37.860  32.937  32.473  1.00  0.00     0.049 A 
ATOM     35  N   UNL A   1      39.252  30.711  30.997  1.00  0.00    -0.248 NA
ATOM     36  C   UNL A   1      37.777  31.039  29.219  1.00  0.00     0.031 C 
ATOM     37  C   UNL A   1      37.188  33.978  33.252  1.00  0.00     0.029 A 
ATOM     38  N   UNL A   1      38.868  32.503  33.297  1.00  0.00    -0.354 N 
ATOM     39  C   UNL A   1      39.524  29.786  29.998  1.00  0.00     0.074 A 
ATOM     40  C   UNL A   1      38.544  29.993  28.954  1.00  0.00     0.031 C 
ATOM     41  C   UNL A   1      37.815  34.118  34.431  1.00  0.00     0.029 A 
ATOM     42  C   UNL A   1      38.910  33.154  34.505  1.00  0.00     0.049 A 
ATOM     43  H   UNL A   1      39.501  31.793  33.045  1.00  0.00     0.167 HD
ATOM     44  C   UNL A   1      40.515  28.864  29.946  1.00  0.00     0.037 A 
ATOM     45  C   UNL A   1      39.734  32.987  35.555  1.00  0.00     0.037 A 
ATOM     46  C   UNL A   1      41.503  28.681  30.977  1.00  0.00     0.049 A 
ATOM     47  C   UNL A   1      40.824  31.953  35.476  1.00  0.00     0.074 A 
ATOM     48  C   UNL A   1      42.586  27.821  30.992  1.00  0.00     0.029 A 
ATOM     49  N   UNL A   1      41.520  29.367  32.183  1.00  0.00    -0.354 N 
ATOM     50  N   UNL A   1      41.117  31.133  34.498  1.00  0.00    -0.248 NA
ATOM     51  C   UNL A   1      41.701  31.827  36.649  1.00  0.00     0.031 C 
ATOM     52  C   UNL A   1      43.233  27.953  32.227  1.00  0.00     0.029 A 
ATOM     53  C   UNL A   1      42.582  28.933  32.961  1.00  0.00     0.049 A 
ATOM     54  H   UNL A   1      40.874  30.063  32.447  1.00  0.00     0.167 HD
ATOM     55  C   UNL A   1      42.226  30.413  34.920  1.00  0.00     0.074 A 
ATOM     56  C   UNL A   1      42.561  30.904  36.241  1.00  0.00     0.031 C 
ATOM     57  C   UNL A   1      42.904  29.434  34.273  1.00  0.00     0.037 A 
BRANCH  44  58
ATOM     58  C   UNL A   1      40.578  27.983  28.731  1.00  0.00     0.064 A 
ATOM     59  C   UNL A   1      39.876  26.770  28.663  1.00  0.00     0.173 A 
ATOM     60  C   UNL A   1      41.336  28.365  27.613  1.00  0.00     0.173 A 
ATOM     61  F   UNL A   1      39.147  26.352  29.708  1.00  0.00    -0.203 F 
ATOM     62  C   UNL A   1      39.958  25.956  27.536  1.00  0.00     0.198 A 
ATOM     63  C   UNL A   1      41.389  27.564  26.475  1.00  0.00     0.198 A 
ATOM     64  F   UNL A   1      42.022  29.518  27.621  1.00  0.00    -0.203 F 
ATOM     65  F   UNL A   1      39.324  24.774  27.517  1.00  0.00    -0.200 F 
ATOM     66  C   UNL A   1      40.710  26.356  26.441  1.00  0.00     0.200 A 
ATOM     67  F   UNL A   1      42.105  27.958  25.413  1.00  0.00    -0.200 F 
ATOM     68  F   UNL A   1      40.786  25.572  25.357  1.00  0.00    -0.200 F 
ENDBRANCH  44  58
BRANCH  45  69
ATOM     69  C   UNL A   1      39.578  33.845  36.760  1.00  0.00     0.064 A 
ATOM     70  C   UNL A   1      38.801  33.419  37.845  1.00  0.00     0.173 A 
ATOM     71  C   UNL A   1      40.206  35.095  36.855  1.00  0.00     0.173 A 
ATOM     72  F   UNL A   1      38.165  32.240  37.792  1.00  0.00    -0.203 F 
ATOM     73  C   UNL A   1      38.646  34.218  38.976  1.00  0.00     0.198 A 
ATOM     74  C   UNL A   1      40.073  35.881  37.997  1.00  0.00     0.198 A 
ATOM     75  F   UNL A   1      40.965  35.544  35.845  1.00  0.00    -0.203 F 
ATOM     76  F   UNL A   1      37.867  33.804  39.985  1.00  0.00    -0.200 F 
ATOM     77  C   UNL A   1      39.288  35.445  39.054  1.00  0.00     0.200 A 
ATOM     78  F   UNL A   1      40.706  37.059  38.074  1.00  0.00    -0.200 F 
ATOM     79  F   UNL A   1      39.145  36.210  40.145  1.00  0.00    -0.200 F 
ENDBRANCH  45  69
BRANCH  57  80
ATOM     80  C   UNL A   1      44.098  28.849  34.970  1.00  0.00     0.064 A 
ATOM     81  C   UNL A   1      43.991  27.710  35.781  1.00  0.00     0.173 A 
ATOM     82  C   UNL A   1      45.370  29.414  34.794  1.00  0.00     0.173 A 
ATOM     83  F   UNL A   1      42.794  27.142  35.994  1.00  0.00    -0.203 F 
ATOM     84  C   UNL A   1      45.111  27.172  36.410  1.00  0.00     0.198 A 
ATOM     85  C   UNL A   1      46.492  28.856  35.399  1.00  0.00     0.198 A 
ATOM     86  F   UNL A   1      45.527  30.501  34.024  1.00  0.00    -0.203 F 
ATOM     87  F   UNL A   1      44.979  26.111  37.218  1.00  0.00    -0.200 F 
ATOM     88  C   UNL A   1      46.361  27.740  36.213  1.00  0.00     0.200 A 
ATOM     89  F   UNL A   1      47.700  29.398  35.196  1.00  0.00    -0.200 F 
ATOM     90  F   UNL A   1      47.439  27.216  36.812  1.00  0.00    -0.200 F 
ENDBRANCH  57  80
ENDBRANCH  31  32
ENDBRANCH  23  26
ENDBRANCH  21  22
ENDBRANCH  20  21
ENDBRANCH   1  20
TORSDOF 14
ENDMDL
MODEL 2
REMARK VINA RESULT:     -11.6      1.276      2.215
REMARK SMILES Nc1c(Br)cc(C(=O)NCCCCCCNC(=O)c2ccc(-c3c4nc(c(-c5c(F)c(F)c(F)c(F)c5F)c5ccc([nH]5)c(-c5c(F)c(F)c(F)c(F)c5F)c5nc(c(-c6c(F)c(F)c(F)c(F)c6F)c6ccc3[nH]6)C=C5)C=C4)cc2)cc1Br
REMARK SMILES IDX 13 1 12 2 11 3 10 4 9 5 7 6 8 7 6 9 2 10 3 11 83 12 4 13
REMARK SMILES IDX 5 14 82 15 84 16 1 17 14 20 15 21 16 22 17 23 18 25 19 26
REMARK SMILES IDX 20 27 81 28 21 29 80 30 22 31 23 32 24 33 74 34 25 35 79 36
REMARK SMILES IDX 73 37 75 38 26 39 78 40 72 41 71 42 27 44 59 45 39 46 58 47
REMARK SMILES IDX 40 48 43 49 57 50 76 51 41 52 42 53 56 55 77 56 44 57 28 58
REMARK SMILES IDX 29 59 37 60 30 61 31 62 35 63 38 64 32 65 33 66 36 67 34 68
REMARK SMILES IDX 60 69 61 70 69 71 62 72 63 73 67 74 70 75 64 76 65 77 68 78
REMARK SMILES IDX 66 79 45 80 46 81 54 82 47 83 48 84 52 85 55 86 49 87 50 88
REMARK SMILES IDX 53 89 51 90
REMARK H PARENT 9 8 1 18 1 19 16 24 75 43 43 54
REMARK Flexibility Score: inf
ROOT
ATOM      1  C   UNL A   1      31.578  30.987  26.150  1.00  0.00     0.002 C 
ENDROOT
BRANCH   1   2
ATOM      2  C   UNL A   1      32.131  29.848  27.018  1.00  0.00     0.002 C 
BRANCH   2   3
ATOM      3  C   UNL A   1      33.652  29.648  26.934  1.00  0.00     0.021 C 
BRANCH   3   4
ATOM      4  C   UNL A   1      34.057  28.443  26.083  1.00  0.00     0.116 C 
BRANCH   4   5
ATOM      5  N   UNL A   1      34.125  28.824  24.687  1.00  0.00    -0.352 N 
ATOM      6  C   UNL A   1      33.280  28.687  23.620  1.00  0.00     0.251 C 
ATOM      7  O   UNL A   1      33.686  29.106  22.535  1.00  0.00    -0.269 OA
ATOM      8  H   UNL A   1      34.964  29.284  24.455  1.00  0.00     0.163 HD
BRANCH   6   9
ATOM      9  C   UNL A   1      31.901  28.123  23.694  1.00  0.00     0.042 A 
ATOM     10  C   UNL A   1      29.374  26.812  23.860  1.00  0.00     0.060 A 
ATOM     11  C   UNL A   1      29.493  28.127  23.381  1.00  0.00     0.042 A 
ATOM     12  C   UNL A   1      30.553  26.174  24.273  1.00  0.00     0.042 A 
ATOM     13  Br  UNL A   1      27.965  29.080  22.759  1.00  0.00    -0.049 Br
ATOM     14  C   UNL A   1      30.730  28.791  23.341  1.00  0.00     0.031 A 
ATOM     15  C   UNL A   1      31.793  26.813  24.188  1.00  0.00     0.031 A 
ATOM     16  Br  UNL A   1      30.515  24.406  24.978  1.00  0.00    -0.049 Br
BRANCH  10  17
ATOM     17  N   UNL A   1      28.156  26.139  23.840  1.00  0.00    -0.397 N 
ATOM     18  H   UNL A   1      27.497  26.333  23.135  1.00  0.00     0.156 HD
ATOM     19  H   UNL A   1      27.954  25.468  24.532  1.00  0.00     0.156 HD
ENDBRANCH  10  17
ENDBRANCH   6   9
ENDBRANCH   4   5
ENDBRANCH   3   4
ENDBRANCH   2   3
ENDBRANCH   1   2
BRANCH   1  20
ATOM     20  C   UNL A   1      31.394  32.322  26.876  1.00  0.00     0.021 C 
BRANCH  20  21
ATOM     21  C   UNL A   1      32.699  33.037  27.213  1.00  0.00     0.116 C 
BRANCH  21  22
ATOM     22  N   UNL A   1      32.465  34.395  27.679  1.00  0.00    -0.352 N 
ATOM     23  C   UNL A   1      33.005  35.050  28.757  1.00  0.00     0.251 C 
ATOM     24  H   UNL A   1      31.826  34.919  27.144  1.00  0.00     0.163 HD
ATOM     25  O   UNL A   1      32.527  36.113  29.139  1.00  0.00    -0.269 OA
BRANCH  23  26
ATOM     26  C   UNL A   1      34.163  34.467  29.467  1.00  0.00     0.039 A 
ATOM     27  C   UNL A   1      33.950  33.806  30.679  1.00  0.00     0.014 A 
ATOM     28  C   UNL A   1      35.455  34.595  28.952  1.00  0.00     0.014 A 
ATOM     29  C   UNL A   1      35.029  33.227  31.350  1.00  0.00     0.010 A 
ATOM     30  C   UNL A   1      36.519  33.959  29.584  1.00  0.00     0.010 A 
ATOM     31  C   UNL A   1      36.317  33.275  30.793  1.00  0.00    -0.014 A 
BRANCH  31  32
ATOM     32  C   UNL A   1      37.469  32.624  31.465  1.00  0.00     0.031 A 
ATOM     33  C   UNL A   1      38.177  31.475  30.806  1.00  0.00     0.074 A 
ATOM     34  C   UNL A   1      37.835  33.027  32.696  1.00  0.00     0.049 A 
ATOM     35  N   UNL A   1      39.158  30.736  31.258  1.00  0.00    -0.248 NA
ATOM     36  C   UNL A   1      37.698  31.084  29.471  1.00  0.00     0.031 C 
ATOM     37  C   UNL A   1      37.195  34.102  33.458  1.00  0.00     0.029 A 
ATOM     38  N   UNL A   1      38.826  32.574  33.530  1.00  0.00    -0.354 N 
ATOM     39  C   UNL A   1      39.402  29.788  30.273  1.00  0.00     0.074 A 
ATOM     40  C   UNL A   1      38.431  30.010  29.223  1.00  0.00     0.031 C 
ATOM     41  C   UNL A   1      37.824  34.239  34.636  1.00  0.00     0.029 A 
ATOM     42  C   UNL A   1      38.886  33.241  34.727  1.00  0.00     0.049 A 
ATOM     43  H   UNL A   1      39.437  31.840  33.290  1.00  0.00     0.167 HD
ATOM     44  C   UNL A   1      40.364  28.834  30.238  1.00  0.00     0.037 A 
ATOM     45  C   UNL A   1      39.703  33.064  35.783  1.00  0.00     0.037 A 
ATOM     46  C   UNL A   1      41.342  28.634  31.275  1.00  0.00     0.049 A 
ATOM     47  C   UNL A   1      40.759  31.995  35.722  1.00  0.00     0.074 A 
ATOM     48  C   UNL A   1      42.397  27.740  31.306  1.00  0.00     0.029 A 
ATOM     49  N   UNL A   1      41.379  29.338  32.470  1.00  0.00    -0.354 N 
ATOM     50  N   UNL A   1      41.027  31.151  34.757  1.00  0.00    -0.248 NA
ATOM     51  C   UNL A   1      41.629  31.858  36.899  1.00  0.00     0.031 C 
ATOM     52  C   UNL A   1      43.045  27.870  32.540  1.00  0.00     0.029 A 
ATOM     53  C   UNL A   1      42.424  28.882  33.257  1.00  0.00     0.049 A 
ATOM     54  H   UNL A   1      40.755  30.058  32.722  1.00  0.00     0.167 HD
ATOM     55  C   UNL A   1      42.112  30.402  35.193  1.00  0.00     0.074 A 
ATOM     56  C   UNL A   1      42.460  30.901  36.507  1.00  0.00     0.031 C 
ATOM     57  C   UNL A   1      42.760  29.392  34.563  1.00  0.00     0.037 A 
BRANCH  44  58
ATOM     58  C   UNL A   1      40.401  27.933  29.037  1.00  0.00     0.064 A 
ATOM     59  C   UNL A   1      41.171  28.244  27.905  1.00  0.00     0.173 A 
ATOM     60  C   UNL A   1      39.673  26.733  29.024  1.00  0.00     0.173 A 
ATOM     61  F   UNL A   1      41.876  29.384  27.860  1.00  0.00    -0.203 F 
ATOM     62  C   UNL A   1      41.182  27.407  26.793  1.00  0.00     0.198 A 
ATOM     63  C   UNL A   1      39.712  25.882  27.922  1.00  0.00     0.198 A 
ATOM     64  F   UNL A   1      38.926  26.383  30.081  1.00  0.00    -0.203 F 
ATOM     65  F   UNL A   1      41.878  27.754  25.701  1.00  0.00    -0.200 F 
ATOM     66  C   UNL A   1      40.457  26.224  26.804  1.00  0.00     0.200 A 
ATOM     67  F   UNL A   1      39.023  24.734  27.940  1.00  0.00    -0.200 F 
ATOM     68  F   UNL A   1      40.470  25.418  25.733  1.00  0.00    -0.200 F 
ENDBRANCH  44  58
BRANCH  45  69
ATOM     69  C   UNL A   1      39.572  33.944  36.974  1.00  0.00     0.064 A 
ATOM     70  C   UNL A   1      38.818  33.539  38.084  1.00  0.00     0.173 A 
ATOM     71  C   UNL A   1      40.200  35.197  37.032  1.00  0.00     0.173 A 
ATOM     72  F   UNL A   1      38.183  32.358  38.066  1.00  0.00    -0.203 F 
ATOM     73  C   UNL A   1      38.687  34.359  39.202  1.00  0.00     0.198 A 
ATOM     74  C   UNL A   1      40.091  36.004  38.161  1.00  0.00     0.198 A 
ATOM     75  F   UNL A   1      40.937  35.627  35.997  1.00  0.00    -0.203 F 
ATOM     76  F   UNL A   1      37.930  33.965  40.235  1.00  0.00    -0.200 F 
ATOM     77  C   UNL A   1      39.329  35.588  39.242  1.00  0.00     0.200 A 
ATOM     78  F   UNL A   1      40.724  37.184  38.202  1.00  0.00    -0.200 F 
ATOM     79  F   UNL A   1      39.209  36.374  40.321  1.00  0.00    -0.200 F 
ENDBRANCH  45  69
BRANCH  57  80
ATOM     80  C   UNL A   1      43.932  28.779  35.272  1.00  0.00     0.064 A 
ATOM     81  C   UNL A   1      45.237  29.258  35.085  1.00  0.00     0.173 A 
ATOM     82  C   UNL A   1      43.742  27.724  36.177  1.00  0.00     0.173 A 
ATOM     83  F   UNL A   1      45.474  30.255  34.217  1.00  0.00    -0.203 F 
ATOM     84  C   UNL A   1      46.313  28.686  35.761  1.00  0.00     0.198 A 
ATOM     85  C   UNL A   1      44.815  27.175  36.874  1.00  0.00     0.198 A 
ATOM     86  F   UNL A   1      42.513  27.233  36.395  1.00  0.00    -0.203 F 
ATOM     87  F   UNL A   1      47.557  29.129  35.532  1.00  0.00    -0.200 F 
ATOM     88  C   UNL A   1      46.100  27.652  36.660  1.00  0.00     0.200 A 
ATOM     89  F   UNL A   1      44.606  26.186  37.751  1.00  0.00    -0.200 F 
ATOM     90  F   UNL A   1      47.135  27.109  37.315  1.00  0.00    -0.200 F 
ENDBRANCH  57  80
ENDBRANCH  31  32
ENDBRANCH  23  26
ENDBRANCH  21  22
ENDBRANCH  20  21
ENDBRANCH   1  20
TORSDOF 14
ENDMDL
MODEL 3
REMARK VINA RESULT:     -11.5      1.377      2.497
REMARK SMILES Nc1c(Br)cc(C(=O)NCCCCCCNC(=O)c2ccc(-c3c4nc(c(-c5c(F)c(F)c(F)c(F)c5F)c5ccc([nH]5)c(-c5c(F)c(F)c(F)c(F)c5F)c5nc(c(-c6c(F)c(F)c(F)c(F)c6F)c6ccc3[nH]6)C=C5)C=C4)cc2)cc1Br
REMARK SMILES IDX 13 1 12 2 11 3 10 4 9 5 7 6 8 7 6 9 2 10 3 11 83 12 4 13
REMARK SMILES IDX 5 14 82 15 84 16 1 17 14 20 15 21 16 22 17 23 18 25 19 26
REMARK SMILES IDX 20 27 81 28 21 29 80 30 22 31 23 32 24 33 74 34 25 35 79 36
REMARK SMILES IDX 73 37 75 38 26 39 78 40 72 41 71 42 27 44 59 45 39 46 58 47
REMARK SMILES IDX 40 48 43 49 57 50 76 51 41 52 42 53 56 55 77 56 44 57 28 58
REMARK SMILES IDX 29 59 37 60 30 61 31 62 35 63 38 64 32 65 33 66 36 67 34 68
REMARK SMILES IDX 60 69 61 70 69 71 62 72 63 73 67 74 70 75 64 76 65 77 68 78
REMARK SMILES IDX 66 79 45 80 46 81 54 82 47 83 48 84 52 85 55 86 49 87 50 88
REMARK SMILES IDX 53 89 51 90
REMARK H PARENT 9 8 1 18 1 19 16 24 75 43 43 54
REMARK Flexibility Score: inf
ROOT
ATOM      1  C   UNL A   1      31.430  30.823  26.363  1.00  0.00     0.002 C 
ENDROOT
BRANCH   1   2
ATOM      2  C   UNL A   1      32.474  30.096  27.224  1.00  0.00     0.002 C 
BRANCH   2   3
ATOM      3  C   UNL A   1      32.636  28.599  26.920  1.00  0.00     0.021 C 
BRANCH   3   4
ATOM      4  C   UNL A   1      34.001  28.247  26.326  1.00  0.00     0.116 C 
BRANCH   4   5
ATOM      5  N   UNL A   1      34.111  28.790  24.987  1.00  0.00    -0.352 N 
ATOM      6  C   UNL A   1      33.699  28.368  23.752  1.00  0.00     0.251 C 
ATOM      7  O   UNL A   1      34.005  29.080  22.794  1.00  0.00    -0.269 OA
ATOM      8  H   UNL A   1      34.585  29.652  24.959  1.00  0.00     0.163 HD
BRANCH   6   9
ATOM      9  C   UNL A   1      32.873  27.152  23.499  1.00  0.00     0.042 A 
ATOM     10  C   UNL A   1      31.106  24.941  23.151  1.00  0.00     0.060 A 
ATOM     11  C   UNL A   1      32.486  24.827  22.915  1.00  0.00     0.042 A 
ATOM     12  C   UNL A   1      30.629  26.198  23.549  1.00  0.00     0.042 A 
ATOM     13  Br  UNL A   1      33.253  23.159  22.405  1.00  0.00    -0.049 Br
ATOM     14  C   UNL A   1      33.352  25.926  23.041  1.00  0.00     0.031 A 
ATOM     15  C   UNL A   1      31.494  27.282  23.725  1.00  0.00     0.031 A 
ATOM     16  Br  UNL A   1      28.773  26.488  23.860  1.00  0.00    -0.049 Br
BRANCH  10  17
ATOM     17  N   UNL A   1      30.263  23.835  23.083  1.00  0.00    -0.397 N 
ATOM     18  H   UNL A   1      30.410  23.145  22.396  1.00  0.00     0.156 HD
ATOM     19  H   UNL A   1      29.520  23.744  23.722  1.00  0.00     0.156 HD
ENDBRANCH  10  17
ENDBRANCH   6   9
ENDBRANCH   4   5
ENDBRANCH   3   4
ENDBRANCH   2   3
ENDBRANCH   1   2
BRANCH   1  20
ATOM     20  C   UNL A   1      31.409  32.345  26.520  1.00  0.00     0.021 C 
BRANCH  20  21
ATOM     21  C   UNL A   1      32.646  32.922  27.202  1.00  0.00     0.116 C 
BRANCH  21  22
ATOM     22  N   UNL A   1      32.436  34.298  27.624  1.00  0.00    -0.352 N 
ATOM     23  C   UNL A   1      33.004  34.985  28.666  1.00  0.00     0.251 C 
ATOM     24  H   UNL A   1      31.792  34.810  27.082  1.00  0.00     0.163 HD
ATOM     25  O   UNL A   1      32.546  36.067  29.019  1.00  0.00    -0.269 OA
BRANCH  23  26
ATOM     26  C   UNL A   1      34.169  34.414  29.375  1.00  0.00     0.039 A 
ATOM     27  C   UNL A   1      33.961  33.718  30.568  1.00  0.00     0.014 A 
ATOM     28  C   UNL A   1      35.463  34.587  28.878  1.00  0.00     0.014 A 
ATOM     29  C   UNL A   1      35.047  33.150  31.236  1.00  0.00     0.010 A 
ATOM     30  C   UNL A   1      36.536  33.963  29.505  1.00  0.00     0.010 A 
ATOM     31  C   UNL A   1      36.339  33.245  30.695  1.00  0.00    -0.014 A 
BRANCH  31  32
ATOM     32  C   UNL A   1      37.500  32.607  31.364  1.00  0.00     0.031 A 
ATOM     33  C   UNL A   1      38.225  31.471  30.698  1.00  0.00     0.074 A 
ATOM     34  C   UNL A   1      37.860  33.008  32.597  1.00  0.00     0.049 A 
ATOM     35  N   UNL A   1      39.216  30.744  31.146  1.00  0.00    -0.248 NA
ATOM     36  C   UNL A   1      37.752  31.081  29.361  1.00  0.00     0.031 C 
ATOM     37  C   UNL A   1      37.204  34.069  33.365  1.00  0.00     0.029 A 
ATOM     38  N   UNL A   1      38.858  32.565  33.428  1.00  0.00    -0.354 N 
ATOM     39  C   UNL A   1      39.474  29.805  30.156  1.00  0.00     0.074 A 
ATOM     40  C   UNL A   1      38.501  30.020  29.107  1.00  0.00     0.031 C 
ATOM     41  C   UNL A   1      37.831  34.209  34.544  1.00  0.00     0.029 A 
ATOM     42  C   UNL A   1      38.908  33.226  34.630  1.00  0.00     0.049 A 
ATOM     43  H   UNL A   1      39.479  31.841  33.185  1.00  0.00     0.167 HD
ATOM     44  C   UNL A   1      40.450  28.866  30.115  1.00  0.00     0.037 A 
ATOM     45  C   UNL A   1      39.727  33.054  35.684  1.00  0.00     0.037 A 
ATOM     46  C   UNL A   1      41.431  28.675  31.152  1.00  0.00     0.049 A 
ATOM     47  C   UNL A   1      40.798  32.001  35.618  1.00  0.00     0.074 A 
ATOM     48  C   UNL A   1      42.499  27.796  31.177  1.00  0.00     0.029 A 
ATOM     49  N   UNL A   1      41.457  29.372  32.351  1.00  0.00    -0.354 N 
ATOM     50  N   UNL A   1      41.079  31.166  34.648  1.00  0.00    -0.248 NA
ATOM     51  C   UNL A   1      41.670  31.870  36.794  1.00  0.00     0.031 C 
ATOM     52  C   UNL A   1      43.144  27.928  32.413  1.00  0.00     0.029 A 
ATOM     53  C   UNL A   1      42.509  28.926  33.135  1.00  0.00     0.049 A 
ATOM     54  H   UNL A   1      40.823  30.081  32.607  1.00  0.00     0.167 HD
ATOM     55  C   UNL A   1      42.174  30.431  35.080  1.00  0.00     0.074 A 
ATOM     56  C   UNL A   1      42.515  30.928  36.397  1.00  0.00     0.031 C 
ATOM     57  C   UNL A   1      42.837  29.434  34.444  1.00  0.00     0.037 A 
BRANCH  44  58
ATOM     58  C   UNL A   1      40.500  27.972  28.909  1.00  0.00     0.064 A 
ATOM     59  C   UNL A   1      41.271  28.298  27.782  1.00  0.00     0.173 A 
ATOM     60  C   UNL A   1      39.784  26.766  28.887  1.00  0.00     0.173 A 
ATOM     61  F   UNL A   1      41.965  29.444  27.747  1.00  0.00    -0.203 F 
ATOM     62  C   UNL A   1      41.294  27.467  26.665  1.00  0.00     0.198 A 
ATOM     63  C   UNL A   1      39.835  25.922  27.780  1.00  0.00     0.198 A 
ATOM     64  F   UNL A   1      39.036  26.402  29.939  1.00  0.00    -0.203 F 
ATOM     65  F   UNL A   1      41.991  27.827  25.578  1.00  0.00    -0.200 F 
ATOM     66  C   UNL A   1      40.581  26.277  26.667  1.00  0.00     0.200 A 
ATOM     67  F   UNL A   1      39.157  24.766  27.789  1.00  0.00    -0.200 F 
ATOM     68  F   UNL A   1      40.606  25.478  25.591  1.00  0.00    -0.200 F 
ENDBRANCH  44  58
BRANCH  45  69
ATOM     69  C   UNL A   1      39.583  33.926  36.880  1.00  0.00     0.064 A 
ATOM     70  C   UNL A   1      40.202  35.182  36.929  1.00  0.00     0.173 A 
ATOM     71  C   UNL A   1      38.820  33.528  37.988  1.00  0.00     0.173 A 
ATOM     72  F   UNL A   1      40.958  35.596  35.902  1.00  0.00    -0.203 F 
ATOM     73  C   UNL A   1      40.075  36.003  38.048  1.00  0.00     0.198 A 
ATOM     74  C   UNL A   1      38.671  34.361  39.094  1.00  0.00     0.198 A 
ATOM     75  F   UNL A   1      38.203  32.338  37.986  1.00  0.00    -0.203 F 
ATOM     76  F   UNL A   1      40.708  37.183  38.085  1.00  0.00    -0.200 F 
ATOM     77  C   UNL A   1      39.304  35.595  39.126  1.00  0.00     0.200 A 
ATOM     78  F   UNL A   1      37.914  33.970  40.128  1.00  0.00    -0.200 F 
ATOM     79  F   UNL A   1      39.176  36.388  40.199  1.00  0.00    -0.200 F 
ENDBRANCH  45  69
BRANCH  57  80
ATOM     80  C   UNL A   1      44.018  28.834  35.150  1.00  0.00     0.064 A 
ATOM     81  C   UNL A   1      43.888  27.709  35.976  1.00  0.00     0.173 A 
ATOM     82  C   UNL A   1      45.301  29.371  34.967  1.00  0.00     0.173 A 
ATOM     83  F   UNL A   1      42.679  27.168  36.196  1.00  0.00    -0.203 F 
ATOM     84  C   UNL A   1      44.997  27.156  36.613  1.00  0.00     0.198 A 
ATOM     85  C   UNL A   1      46.412  28.798  35.580  1.00  0.00     0.198 A 
ATOM     86  F   UNL A   1      45.480  30.444  34.182  1.00  0.00    -0.203 F 
ATOM     87  F   UNL A   1      44.842  26.109  37.435  1.00  0.00    -0.200 F 
ATOM     88  C   UNL A   1      46.258  27.696  36.409  1.00  0.00     0.200 A 
ATOM     89  F   UNL A   1      47.631  29.313  35.371  1.00  0.00    -0.200 F 
ATOM     90  F   UNL A   1      47.324  27.159  37.016  1.00  0.00    -0.200 F 
ENDBRANCH  57  80
ENDBRANCH  31  32
ENDBRANCH  23  26
ENDBRANCH  21  22
ENDBRANCH  20  21
ENDBRANCH   1  20
TORSDOF 14
ENDMDL
