MODEL 1
REMARK VINA RESULT:     -12.7      0.000      0.000
REMARK SMILES O=C1OC(c2ccc(Cl)cc2)=N/C1=C/Nc1ccc(O)c(C(=O)NCCCCCCNC(=O)c2ccc(-c3c4nc(c(-c5c(F)c(F)c(F)c(F)c5F)c5ccc([nH]5)c(-c5c(F)c(F)c(F)c(F)c5F)c5nc(c(-c6c(F)c(F)c(F)c(F)c6F)c6ccc3[nH]6)C=C5)C=C4)cc2)c1
REMARK SMILES IDX 27 1 26 2 25 3 24 4 22 5 23 6 21 8 16 9 17 10 97 11 18 12
REMARK SMILES IDX 19 13 15 14 14 16 1 17 2 18 3 19 13 20 4 21 12 22 5 23 6 24
REMARK SMILES IDX 11 25 7 26 10 27 8 28 9 29 20 30 28 32 29 33 30 34 31 35
REMARK SMILES IDX 32 36 33 38 34 39 35 40 96 41 36 42 95 43 37 44 38 45 39 46
REMARK SMILES IDX 89 47 40 48 94 49 88 50 90 51 41 52 93 53 87 54 86 55 42 57
REMARK SMILES IDX 74 58 54 59 73 60 55 61 58 62 72 63 91 64 56 65 57 66 71 68
REMARK SMILES IDX 92 69 59 70 43 71 44 72 52 73 45 74 46 75 50 76 53 77 47 78
REMARK SMILES IDX 48 79 51 80 49 81 75 82 76 83 84 84 77 85 78 86 82 87 85 88
REMARK SMILES IDX 79 89 80 90 83 91 81 92 60 93 61 94 69 95 62 96 63 97 67 98
REMARK SMILES IDX 70 99 64 100 65 101 68 102 66 103
REMARK H PARENT 24 7 15 15 20 31 31 37 90 56 58 67
REMARK Flexibility Score: inf
ROOT
ATOM      1  C   UNL A   1      34.792  32.339  28.524  1.00  0.00     0.002 C 
ENDROOT
BRANCH   1   2
ATOM      2  C   UNL A   1      33.823  31.512  27.673  1.00  0.00     0.021 C 
BRANCH   2   3
ATOM      3  C   UNL A   1      34.347  30.103  27.379  1.00  0.00     0.116 C 
BRANCH   3   4
ATOM      4  N   UNL A   1      33.343  29.138  27.755  1.00  0.00    -0.352 N 
ATOM      5  C   UNL A   1      32.569  28.287  27.016  1.00  0.00     0.255 C 
ATOM      6  O   UNL A   1      31.664  27.713  27.631  1.00  0.00    -0.269 OA
ATOM      7  H   UNL A   1      33.185  29.082  28.725  1.00  0.00     0.163 HD
BRANCH   5   8
ATOM      8  C   UNL A   1      32.810  27.921  25.587  1.00  0.00     0.083 A 
ATOM      9  C   UNL A   1      33.828  26.177  24.179  1.00  0.00     0.039 A 
ATOM     10  C   UNL A   1      33.601  26.967  23.055  1.00  0.00     0.030 A 
ATOM     11  C   UNL A   1      33.459  26.678  25.431  1.00  0.00     0.043 A 
ATOM     12  C   UNL A   1      32.907  28.169  23.168  1.00  0.00     0.049 A 
ATOM     13  C   UNL A   1      32.478  28.623  24.422  1.00  0.00     0.128 A 
BRANCH   9  14
ATOM     14  N   UNL A   1      34.464  24.933  24.107  1.00  0.00    -0.360 N 
ATOM     15  H   UNL A   1      35.442  24.930  24.227  1.00  0.00     0.166 HD
BRANCH  14  16
ATOM     16  C   UNL A   1      33.869  23.721  23.889  1.00  0.00     0.119 C 
ATOM     17  O   UNL A   1      35.930  23.105  26.007  1.00  0.00    -0.244 OA
ATOM     18  C   UNL A   1      35.170  22.314  25.489  1.00  0.00     0.365 C 
ATOM     19  O   UNL A   1      35.033  20.984  25.763  1.00  0.00    -0.402 OA
ATOM     20  C   UNL A   1      34.158  22.532  24.421  1.00  0.00     0.168 C 
ATOM     21  C   UNL A   1      34.095  20.524  24.905  1.00  0.00     0.231 C 
ATOM     22  N   UNL A   1      33.543  21.358  24.088  1.00  0.00    -0.204 NA
BRANCH  21  23
ATOM     23  C   UNL A   1      33.855  19.090  24.960  1.00  0.00     0.037 A 
ATOM     24  C   UNL A   1      34.767  18.195  24.398  1.00  0.00     0.015 A 
ATOM     25  C   UNL A   1      32.716  18.633  25.629  1.00  0.00     0.015 A 
ATOM     26  C   UNL A   1      34.535  16.823  24.514  1.00  0.00     0.021 A 
ATOM     27  C   UNL A   1      32.478  17.262  25.724  1.00  0.00     0.021 A 
ATOM     28  C   UNL A   1      33.392  16.364  25.172  1.00  0.00     0.041 A 
ATOM     29  Cl  UNL A   1      33.109  14.672  25.310  1.00  0.00    -0.084 Cl
ENDBRANCH  21  23
ENDBRANCH  14  16
ENDBRANCH   9  14
BRANCH  13  30
ATOM     30  O   UNL A   1      31.674  29.726  24.428  1.00  0.00    -0.507 OA
ATOM     31  H   UNL A   1      30.867  29.714  24.903  1.00  0.00     0.293 HD
ENDBRANCH  13  30
ENDBRANCH   5   8
ENDBRANCH   3   4
ENDBRANCH   2   3
ENDBRANCH   1   2
BRANCH   1  32
ATOM     32  C   UNL A   1      34.611  33.854  28.382  1.00  0.00     0.002 C 
BRANCH  32  33
ATOM     33  C   UNL A   1      33.376  34.413  29.091  1.00  0.00     0.021 C 
BRANCH  33  34
ATOM     34  C   UNL A   1      33.494  35.890  29.448  1.00  0.00     0.116 C 
BRANCH  34  35
ATOM     35  N   UNL A   1      32.608  36.238  30.549  1.00  0.00    -0.352 N 
ATOM     36  C   UNL A   1      32.611  35.773  31.838  1.00  0.00     0.251 C 
ATOM     37  H   UNL A   1      31.909  36.900  30.337  1.00  0.00     0.163 HD
ATOM     38  O   UNL A   1      31.642  35.945  32.569  1.00  0.00    -0.269 OA
BRANCH  36  39
ATOM     39  C   UNL A   1      33.797  35.052  32.338  1.00  0.00     0.039 A 
ATOM     40  C   UNL A   1      33.648  33.768  32.860  1.00  0.00     0.014 A 
ATOM     41  C   UNL A   1      35.058  35.654  32.281  1.00  0.00     0.014 A 
ATOM     42  C   UNL A   1      34.776  33.059  33.275  1.00  0.00     0.010 A 
ATOM     43  C   UNL A   1      36.188  34.918  32.617  1.00  0.00     0.010 A 
ATOM     44  C   UNL A   1      36.057  33.616  33.124  1.00  0.00    -0.014 A 
BRANCH  44  45
ATOM     45  C   UNL A   1      37.278  32.861  33.497  1.00  0.00     0.031 A 
ATOM     46  C   UNL A   1      37.980  33.164  34.792  1.00  0.00     0.074 A 
ATOM     47  C   UNL A   1      37.792  31.958  32.640  1.00  0.00     0.049 A 
ATOM     48  N   UNL A   1      39.108  32.688  35.254  1.00  0.00    -0.248 NA
ATOM     49  C   UNL A   1      37.344  34.158  35.671  1.00  0.00     0.031 C 
ATOM     50  C   UNL A   1      37.221  31.606  31.339  1.00  0.00     0.029 A 
ATOM     51  N   UNL A   1      38.919  31.179  32.730  1.00  0.00    -0.354 N 
ATOM     52  C   UNL A   1      39.318  33.330  36.467  1.00  0.00     0.074 A 
ATOM     53  C   UNL A   1      38.236  34.274  36.642  1.00  0.00     0.031 C 
ATOM     54  C   UNL A   1      37.988  30.667  30.762  1.00  0.00     0.029 A 
ATOM     55  C   UNL A   1      39.128  30.385  31.628  1.00  0.00     0.049 A 
ATOM     56  H   UNL A   1      39.520  31.187  33.509  1.00  0.00     0.167 HD
ATOM     57  C   UNL A   1      40.311  33.129  37.366  1.00  0.00     0.037 A 
ATOM     58  C   UNL A   1      40.136  29.539  31.343  1.00  0.00     0.037 A 
ATOM     59  C   UNL A   1      41.374  32.175  37.193  1.00  0.00     0.049 A 
ATOM     60  C   UNL A   1      41.247  29.363  32.345  1.00  0.00     0.074 A 
ATOM     61  C   UNL A   1      42.403  31.862  38.064  1.00  0.00     0.029 A 
ATOM     62  N   UNL A   1      41.549  31.384  36.067  1.00  0.00    -0.354 N 
ATOM     63  N   UNL A   1      41.403  29.928  33.518  1.00  0.00    -0.248 NA
ATOM     64  C   UNL A   1      42.321  28.426  31.985  1.00  0.00     0.031 C 
ATOM     65  C   UNL A   1      43.233  30.926  37.442  1.00  0.00     0.029 A 
ATOM     66  C   UNL A   1      42.684  30.604  36.210  1.00  0.00     0.049 A 
ATOM     67  H   UNL A   1      40.954  31.378  35.281  1.00  0.00     0.167 HD
ATOM     68  C   UNL A   1      42.567  29.389  34.050  1.00  0.00     0.074 A 
ATOM     69  C   UNL A   1      43.071  28.444  33.077  1.00  0.00     0.031 C 
ATOM     70  C   UNL A   1      43.164  29.653  35.239  1.00  0.00     0.037 A 
BRANCH  57  71
ATOM     71  C   UNL A   1      40.294  33.956  38.621  1.00  0.00     0.064 A 
ATOM     72  C   UNL A   1      39.595  33.545  39.766  1.00  0.00     0.173 A 
ATOM     73  C   UNL A   1      41.023  35.152  38.694  1.00  0.00     0.173 A 
ATOM     74  F   UNL A   1      38.871  32.414  39.747  1.00  0.00    -0.203 F 
ATOM     75  C   UNL A   1      39.601  34.314  40.926  1.00  0.00     0.198 A 
ATOM     76  C   UNL A   1      41.058  35.901  39.867  1.00  0.00     0.198 A 
ATOM     77  F   UNL A   1      41.716  35.590  37.632  1.00  0.00    -0.203 F 
ATOM     78  F   UNL A   1      38.884  33.927  41.990  1.00  0.00    -0.200 F 
ATOM     79  C   UNL A   1      40.340  35.487  40.979  1.00  0.00     0.200 A 
ATOM     80  F   UNL A   1      41.785  37.025  39.922  1.00  0.00    -0.200 F 
ATOM     81  F   UNL A   1      40.357  36.219  42.101  1.00  0.00    -0.200 F 
ENDBRANCH  57  71
BRANCH  58  82
ATOM     82  C   UNL A   1      40.142  28.786  30.061  1.00  0.00     0.064 A 
ATOM     83  C   UNL A   1      40.759  29.313  28.917  1.00  0.00     0.173 A 
ATOM     84  C   UNL A   1      39.515  27.536  29.943  1.00  0.00     0.173 A 
ATOM     85  F   UNL A   1      41.356  30.513  28.973  1.00  0.00    -0.203 F 
ATOM     86  C   UNL A   1      40.720  28.637  27.699  1.00  0.00     0.198 A 
ATOM     87  C   UNL A   1      39.506  26.845  28.733  1.00  0.00     0.198 A 
ATOM     88  F   UNL A   1      38.915  26.982  31.007  1.00  0.00    -0.203 F 
ATOM     89  F   UNL A   1      41.264  29.194  26.609  1.00  0.00    -0.200 F 
ATOM     90  C   UNL A   1      40.097  27.401  27.609  1.00  0.00     0.200 A 
ATOM     91  F   UNL A   1      38.919  25.643  28.655  1.00  0.00    -0.200 F 
ATOM     92  F   UNL A   1      40.058  26.752  26.438  1.00  0.00    -0.200 F 
ENDBRANCH  58  82
BRANCH  70  93
ATOM     93  C   UNL A   1      44.402  28.874  35.580  1.00  0.00     0.064 A 
ATOM     94  C   UNL A   1      44.342  27.636  36.237  1.00  0.00     0.173 A 
ATOM     95  C   UNL A   1      45.665  29.352  35.193  1.00  0.00     0.173 A 
ATOM     96  F   UNL A   1      43.162  27.143  36.640  1.00  0.00    -0.203 F 
ATOM     97  C   UNL A   1      45.501  26.918  36.517  1.00  0.00     0.198 A 
ATOM     98  C   UNL A   1      46.818  28.613  35.442  1.00  0.00     0.198 A 
ATOM     99  F   UNL A   1      45.778  30.526  34.555  1.00  0.00    -0.203 F 
ATOM    100  F   UNL A   1      45.424  25.763  37.190  1.00  0.00    -0.200 F 
ATOM    101  C   UNL A   1      46.736  27.402  36.111  1.00  0.00     0.200 A 
ATOM    102  F   UNL A   1      48.008  29.074  35.033  1.00  0.00    -0.200 F 
ATOM    103  F   UNL A   1      47.850  26.702  36.369  1.00  0.00    -0.200 F 
ENDBRANCH  70  93
ENDBRANCH  44  45
ENDBRANCH  36  39
ENDBRANCH  34  35
ENDBRANCH  33  34
ENDBRANCH  32  33
ENDBRANCH   1  32
TORSDOF 17
ENDMDL
MODEL 2
REMARK VINA RESULT:     -12.6      5.234      8.780
REMARK SMILES O=C1OC(c2ccc(Cl)cc2)=N/C1=C/Nc1ccc(O)c(C(=O)NCCCCCCNC(=O)c2ccc(-c3c4nc(c(-c5c(F)c(F)c(F)c(F)c5F)c5ccc([nH]5)c(-c5c(F)c(F)c(F)c(F)c5F)c5nc(c(-c6c(F)c(F)c(F)c(F)c6F)c6ccc3[nH]6)C=C5)C=C4)cc2)c1
REMARK SMILES IDX 27 1 26 2 25 3 24 4 22 5 23 6 21 8 16 9 17 10 97 11 18 12
REMARK SMILES IDX 19 13 15 14 14 16 1 17 2 18 3 19 13 20 4 21 12 22 5 23 6 24
REMARK SMILES IDX 11 25 7 26 10 27 8 28 9 29 20 30 28 32 29 33 30 34 31 35
REMARK SMILES IDX 32 36 33 38 34 39 35 40 96 41 36 42 95 43 37 44 38 45 39 46
REMARK SMILES IDX 89 47 40 48 94 49 88 50 90 51 41 52 93 53 87 54 86 55 42 57
REMARK SMILES IDX 74 58 54 59 73 60 55 61 58 62 72 63 91 64 56 65 57 66 71 68
REMARK SMILES IDX 92 69 59 70 43 71 44 72 52 73 45 74 46 75 50 76 53 77 47 78
REMARK SMILES IDX 48 79 51 80 49 81 75 82 76 83 84 84 77 85 78 86 82 87 85 88
REMARK SMILES IDX 79 89 80 90 83 91 81 92 60 93 61 94 69 95 62 96 63 97 67 98
REMARK SMILES IDX 70 99 64 100 65 101 68 102 66 103
REMARK H PARENT 24 7 15 15 20 31 31 37 90 56 58 67
REMARK Flexibility Score: inf
ROOT
ATOM      1  C   UNL A   1      36.134  33.422  30.483  1.00  0.00     0.002 C 
ENDROOT
BRANCH   1   2
ATOM      2  C   UNL A   1      36.391  32.729  31.825  1.00  0.00     0.021 C 
BRANCH   2   3
ATOM      3  C   UNL A   1      37.717  33.150  32.465  1.00  0.00     0.116 C 
BRANCH   3   4
ATOM      4  N   UNL A   1      37.700  32.795  33.863  1.00  0.00    -0.352 N 
ATOM      5  C   UNL A   1      37.916  31.609  34.509  1.00  0.00     0.255 C 
ATOM      6  O   UNL A   1      37.644  31.596  35.713  1.00  0.00    -0.269 OA
ATOM      7  H   UNL A   1      37.493  33.546  34.465  1.00  0.00     0.163 HD
BRANCH   5   8
ATOM      8  C   UNL A   1      38.554  30.400  33.903  1.00  0.00     0.083 A 
ATOM      9  C   UNL A   1      40.727  29.266  33.673  1.00  0.00     0.039 A 
ATOM     10  C   UNL A   1      40.146  28.356  32.792  1.00  0.00     0.030 A 
ATOM     11  C   UNL A   1      39.931  30.292  34.191  1.00  0.00     0.043 A 
ATOM     12  C   UNL A   1      38.778  28.398  32.538  1.00  0.00     0.049 A 
ATOM     13  C   UNL A   1      37.980  29.389  33.124  1.00  0.00     0.128 A 
BRANCH   9  14
ATOM     14  N   UNL A   1      42.084  29.226  34.009  1.00  0.00    -0.360 N 
ATOM     15  H   UNL A   1      42.423  29.963  34.567  1.00  0.00     0.166 HD
BRANCH  14  16
ATOM     16  C   UNL A   1      42.989  28.267  33.644  1.00  0.00     0.119 C 
ATOM     17  O   UNL A   1      41.437  26.939  35.867  1.00  0.00    -0.244 OA
ATOM     18  C   UNL A   1      42.364  26.460  35.250  1.00  0.00     0.365 C 
ATOM     19  O   UNL A   1      42.895  25.209  35.376  1.00  0.00    -0.402 OA
ATOM     20  C   UNL A   1      43.197  27.060  34.172  1.00  0.00     0.168 C 
ATOM     21  C   UNL A   1      43.930  25.157  34.508  1.00  0.00     0.231 C 
ATOM     22  N   UNL A   1      44.176  26.193  33.776  1.00  0.00    -0.204 NA
BRANCH  21  23
ATOM     23  C   UNL A   1      44.709  23.928  34.543  1.00  0.00     0.037 A 
ATOM     24  C   UNL A   1      46.103  23.969  34.495  1.00  0.00     0.015 A 
ATOM     25  C   UNL A   1      44.028  22.714  34.676  1.00  0.00     0.015 A 
ATOM     26  C   UNL A   1      46.824  22.776  34.585  1.00  0.00     0.021 A 
ATOM     27  C   UNL A   1      44.752  21.524  34.746  1.00  0.00     0.021 A 
ATOM     28  C   UNL A   1      46.146  21.561  34.706  1.00  0.00     0.041 A 
ATOM     29  Cl  UNL A   1      47.038  20.094  34.815  1.00  0.00    -0.084 Cl
ENDBRANCH  21  23
ENDBRANCH  14  16
ENDBRANCH   9  14
BRANCH  13  30
ATOM     30  O   UNL A   1      36.632  29.267  32.948  1.00  0.00    -0.507 OA
ATOM     31  H   UNL A   1      36.238  29.542  32.143  1.00  0.00     0.293 HD
ENDBRANCH  13  30
ENDBRANCH   5   8
ENDBRANCH   3   4
ENDBRANCH   2   3
ENDBRANCH   1   2
BRANCH   1  32
ATOM     32  C   UNL A   1      34.769  34.112  30.388  1.00  0.00     0.002 C 
BRANCH  32  33
ATOM     33  C   UNL A   1      34.034  33.880  29.067  1.00  0.00     0.021 C 
BRANCH  33  34
ATOM     34  C   UNL A   1      34.733  32.886  28.147  1.00  0.00     0.116 C 
BRANCH  34  35
ATOM     35  N   UNL A   1      33.899  31.718  27.904  1.00  0.00    -0.352 N 
ATOM     36  C   UNL A   1      34.279  30.420  27.681  1.00  0.00     0.251 C 
ATOM     37  H   UNL A   1      32.928  31.884  27.898  1.00  0.00     0.163 HD
ATOM     38  O   UNL A   1      33.487  29.605  27.220  1.00  0.00    -0.269 OA
BRANCH  36  39
ATOM     39  C   UNL A   1      35.661  30.012  27.999  1.00  0.00     0.039 A 
ATOM     40  C   UNL A   1      36.638  30.075  27.006  1.00  0.00     0.014 A 
ATOM     41  C   UNL A   1      35.983  29.572  29.287  1.00  0.00     0.014 A 
ATOM     42  C   UNL A   1      37.958  29.750  27.320  1.00  0.00     0.010 A 
ATOM     43  C   UNL A   1      37.310  29.329  29.619  1.00  0.00     0.010 A 
ATOM     44  C   UNL A   1      38.309  29.408  28.637  1.00  0.00    -0.014 A 
BRANCH  44  45
ATOM     45  C   UNL A   1      39.716  29.121  29.013  1.00  0.00     0.031 A 
ATOM     46  C   UNL A   1      40.514  30.150  29.766  1.00  0.00     0.074 A 
ATOM     47  C   UNL A   1      40.291  27.971  28.615  1.00  0.00     0.049 A 
ATOM     48  N   UNL A   1      41.779  30.133  30.102  1.00  0.00    -0.248 NA
ATOM     49  C   UNL A   1      39.803  31.373  30.169  1.00  0.00     0.031 C 
ATOM     50  C   UNL A   1      39.629  26.914  27.848  1.00  0.00     0.029 A 
ATOM     51  N   UNL A   1      41.569  27.502  28.791  1.00  0.00    -0.354 N 
ATOM     52  C   UNL A   1      42.013  31.342  30.744  1.00  0.00     0.074 A 
ATOM     53  C   UNL A   1      40.779  32.095  30.696  1.00  0.00     0.031 C 
ATOM     54  C   UNL A   1      40.498  25.913  27.638  1.00  0.00     0.029 A 
ATOM     55  C   UNL A   1      41.790  26.276  28.212  1.00  0.00     0.049 A 
ATOM     56  H   UNL A   1      42.262  27.997  29.285  1.00  0.00     0.167 HD
ATOM     57  C   UNL A   1      43.149  31.772  31.342  1.00  0.00     0.037 A 
ATOM     58  C   UNL A   1      42.914  25.537  28.138  1.00  0.00     0.037 A 
ATOM     59  C   UNL A   1      44.368  31.009  31.400  1.00  0.00     0.049 A 
ATOM     60  C   UNL A   1      44.173  26.057  28.780  1.00  0.00     0.074 A 
ATOM     61  C   UNL A   1      45.561  31.335  32.022  1.00  0.00     0.029 A 
ATOM     62  N   UNL A   1      44.551  29.768  30.808  1.00  0.00    -0.354 N 
ATOM     63  N   UNL A   1      44.368  27.174  29.440  1.00  0.00    -0.248 NA
ATOM     64  C   UNL A   1      45.370  25.211  28.672  1.00  0.00     0.031 C 
ATOM     65  C   UNL A   1      46.483  30.320  31.756  1.00  0.00     0.029 A 
ATOM     66  C   UNL A   1      45.846  29.328  31.027  1.00  0.00     0.049 A 
ATOM     67  H   UNL A   1      43.863  29.273  30.306  1.00  0.00     0.167 HD
ATOM     68  C   UNL A   1      45.692  27.147  29.856  1.00  0.00     0.074 A 
ATOM     69  C   UNL A   1      46.251  25.897  29.384  1.00  0.00     0.031 C 
ATOM     70  C   UNL A   1      46.383  28.072  30.565  1.00  0.00     0.037 A 
BRANCH  57  71
ATOM     71  C   UNL A   1      43.129  33.131  31.983  1.00  0.00     0.064 A 
ATOM     72  C   UNL A   1      42.894  33.294  33.357  1.00  0.00     0.173 A 
ATOM     73  C   UNL A   1      43.392  34.280  31.224  1.00  0.00     0.173 A 
ATOM     74  F   UNL A   1      42.626  32.229  34.129  1.00  0.00    -0.203 F 
ATOM     75  C   UNL A   1      42.894  34.559  33.940  1.00  0.00     0.198 A 
ATOM     76  C   UNL A   1      43.427  35.540  31.816  1.00  0.00     0.198 A 
ATOM     77  F   UNL A   1      43.630  34.183  29.907  1.00  0.00    -0.203 F 
ATOM     78  F   UNL A   1      42.616  34.694  35.244  1.00  0.00    -0.200 F 
ATOM     79  C   UNL A   1      43.169  35.679  33.171  1.00  0.00     0.200 A 
ATOM     80  F   UNL A   1      43.710  36.620  31.075  1.00  0.00    -0.200 F 
ATOM     81  F   UNL A   1      43.183  36.894  33.736  1.00  0.00    -0.200 F 
ENDBRANCH  57  71
BRANCH  58  82
ATOM     82  C   UNL A   1      42.902  24.224  27.440  1.00  0.00     0.064 A 
ATOM     83  C   UNL A   1      43.224  24.128  26.078  1.00  0.00     0.173 A 
ATOM     84  C   UNL A   1      42.549  23.042  28.108  1.00  0.00     0.173 A 
ATOM     85  F   UNL A   1      43.550  25.232  25.389  1.00  0.00    -0.203 F 
ATOM     86  C   UNL A   1      43.162  22.910  25.406  1.00  0.00     0.198 A 
ATOM     87  C   UNL A   1      42.521  21.818  27.444  1.00  0.00     0.198 A 
ATOM     88  F   UNL A   1      42.238  23.075  29.413  1.00  0.00    -0.203 F 
ATOM     89  F   UNL A   1      43.415  22.858  24.091  1.00  0.00    -0.200 F 
ATOM     90  C   UNL A   1      42.814  21.754  26.090  1.00  0.00     0.200 A 
ATOM     91  F   UNL A   1      42.201  20.702  28.112  1.00  0.00    -0.200 F 
ATOM     92  F   UNL A   1      42.753  20.583  25.443  1.00  0.00    -0.200 F 
ENDBRANCH  58  82
BRANCH  70  93
ATOM     93  C   UNL A   1      47.806  27.751  30.923  1.00  0.00     0.064 A 
ATOM     94  C   UNL A   1      48.136  27.029  32.079  1.00  0.00     0.173 A 
ATOM     95  C   UNL A   1      48.851  28.126  30.062  1.00  0.00     0.173 A 
ATOM     96  F   UNL A   1      47.176  26.659  32.940  1.00  0.00    -0.203 F 
ATOM     97  C   UNL A   1      49.460  26.717  32.374  1.00  0.00     0.198 A 
ATOM     98  C   UNL A   1      50.170  27.781  30.343  1.00  0.00     0.198 A 
ATOM     99  F   UNL A   1      48.590  28.811  28.939  1.00  0.00    -0.203 F 
ATOM    100  F   UNL A   1      49.756  26.070  33.509  1.00  0.00    -0.200 F 
ATOM    101  C   UNL A   1      50.474  27.084  31.502  1.00  0.00     0.200 A 
ATOM    102  F   UNL A   1      51.145  28.122  29.490  1.00  0.00    -0.200 F 
ATOM    103  F   UNL A   1      51.747  26.771  31.781  1.00  0.00    -0.200 F 
ENDBRANCH  70  93
ENDBRANCH  44  45
ENDBRANCH  36  39
ENDBRANCH  34  35
ENDBRANCH  33  34
ENDBRANCH  32  33
ENDBRANCH   1  32
TORSDOF 17
ENDMDL
MODEL 3
REMARK VINA RESULT:     -12.6      1.822      7.454
REMARK SMILES O=C1OC(c2ccc(Cl)cc2)=N/C1=C/Nc1ccc(O)c(C(=O)NCCCCCCNC(=O)c2ccc(-c3c4nc(c(-c5c(F)c(F)c(F)c(F)c5F)c5ccc([nH]5)c(-c5c(F)c(F)c(F)c(F)c5F)c5nc(c(-c6c(F)c(F)c(F)c(F)c6F)c6ccc3[nH]6)C=C5)C=C4)cc2)c1
REMARK SMILES IDX 27 1 26 2 25 3 24 4 22 5 23 6 21 8 16 9 17 10 97 11 18 12
REMARK SMILES IDX 19 13 15 14 14 16 1 17 2 18 3 19 13 20 4 21 12 22 5 23 6 24
REMARK SMILES IDX 11 25 7 26 10 27 8 28 9 29 20 30 28 32 29 33 30 34 31 35
REMARK SMILES IDX 32 36 33 38 34 39 35 40 96 41 36 42 95 43 37 44 38 45 39 46
REMARK SMILES IDX 89 47 40 48 94 49 88 50 90 51 41 52 93 53 87 54 86 55 42 57
REMARK SMILES IDX 74 58 54 59 73 60 55 61 58 62 72 63 91 64 56 65 57 66 71 68
REMARK SMILES IDX 92 69 59 70 43 71 44 72 52 73 45 74 46 75 50 76 53 77 47 78
REMARK SMILES IDX 48 79 51 80 49 81 75 82 76 83 84 84 77 85 78 86 82 87 85 88
REMARK SMILES IDX 79 89 80 90 83 91 81 92 60 93 61 94 69 95 62 96 63 97 67 98
REMARK SMILES IDX 70 99 64 100 65 101 68 102 66 103
REMARK H PARENT 24 7 15 15 20 31 31 37 90 56 58 67
REMARK Flexibility Score: inf
ROOT
ATOM      1  C   UNL A   1      32.982  30.202  26.754  1.00  0.00     0.002 C 
ENDROOT
BRANCH   1   2
ATOM      2  C   UNL A   1      32.997  28.706  27.083  1.00  0.00     0.021 C 
BRANCH   2   3
ATOM      3  C   UNL A   1      33.820  27.887  26.083  1.00  0.00     0.116 C 
BRANCH   3   4
ATOM      4  N   UNL A   1      33.922  28.621  24.845  1.00  0.00    -0.352 N 
ATOM      5  C   UNL A   1      33.109  28.681  23.747  1.00  0.00     0.255 C 
ATOM      6  O   UNL A   1      33.575  29.267  22.765  1.00  0.00    -0.269 OA
ATOM      7  H   UNL A   1      34.728  29.182  24.777  1.00  0.00     0.163 HD
BRANCH   5   8
ATOM      8  C   UNL A   1      31.692  28.207  23.694  1.00  0.00     0.083 A 
ATOM      9  C   UNL A   1      30.293  26.229  24.134  1.00  0.00     0.039 A 
ATOM     10  C   UNL A   1      29.200  26.894  23.582  1.00  0.00     0.030 A 
ATOM     11  C   UNL A   1      31.529  26.883  24.154  1.00  0.00     0.043 A 
ATOM     12  C   UNL A   1      29.314  28.222  23.178  1.00  0.00     0.049 A 
ATOM     13  C   UNL A   1      30.543  28.887  23.273  1.00  0.00     0.128 A 
BRANCH   9  14
ATOM     14  N   UNL A   1      30.212  24.917  24.612  1.00  0.00    -0.360 N 
ATOM     15  H   UNL A   1      29.643  24.770  25.402  1.00  0.00     0.166 HD
BRANCH  14  16
ATOM     16  C   UNL A   1      30.840  23.818  24.093  1.00  0.00     0.119 C 
ATOM     17  O   UNL A   1      30.656  23.182  27.039  1.00  0.00    -0.244 OA
ATOM     18  C   UNL A   1      31.162  22.489  26.182  1.00  0.00     0.365 C 
ATOM     19  O   UNL A   1      31.723  21.254  26.331  1.00  0.00    -0.402 OA
ATOM     20  C   UNL A   1      31.323  22.747  24.726  1.00  0.00     0.168 C 
ATOM     21  C   UNL A   1      32.183  20.907  25.107  1.00  0.00     0.231 C 
ATOM     22  N   UNL A   1      31.997  21.722  24.123  1.00  0.00    -0.204 NA
BRANCH  21  23
ATOM     23  C   UNL A   1      32.911  19.649  25.052  1.00  0.00     0.037 A 
ATOM     24  C   UNL A   1      32.265  18.441  25.322  1.00  0.00     0.015 A 
ATOM     25  C   UNL A   1      34.257  19.676  24.676  1.00  0.00     0.015 A 
ATOM     26  C   UNL A   1      32.977  17.246  25.208  1.00  0.00     0.021 A 
ATOM     27  C   UNL A   1      34.971  18.481  24.583  1.00  0.00     0.021 A 
ATOM     28  C   UNL A   1      34.326  17.272  24.843  1.00  0.00     0.041 A 
ATOM     29  Cl  UNL A   1      35.200  15.796  24.706  1.00  0.00    -0.084 Cl
ENDBRANCH  21  23
ENDBRANCH  14  16
ENDBRANCH   9  14
BRANCH  13  30
ATOM     30  O   UNL A   1      30.534  30.224  23.003  1.00  0.00    -0.507 OA
ATOM     31  H   UNL A   1      30.380  30.840  23.693  1.00  0.00     0.293 HD
ENDBRANCH  13  30
ENDBRANCH   5   8
ENDBRANCH   3   4
ENDBRANCH   2   3
ENDBRANCH   1   2
BRANCH   1  32
ATOM     32  C   UNL A   1      31.582  30.770  26.493  1.00  0.00     0.002 C 
BRANCH  32  33
ATOM     33  C   UNL A   1      31.472  32.285  26.669  1.00  0.00     0.021 C 
BRANCH  33  34
ATOM     34  C   UNL A   1      32.724  32.923  27.261  1.00  0.00     0.116 C 
BRANCH  34  35
ATOM     35  N   UNL A   1      32.487  34.314  27.618  1.00  0.00    -0.352 N 
ATOM     36  C   UNL A   1      33.005  35.035  28.663  1.00  0.00     0.251 C 
ATOM     37  H   UNL A   1      31.869  34.804  27.028  1.00  0.00     0.163 HD
ATOM     38  O   UNL A   1      32.504  36.104  28.996  1.00  0.00    -0.269 OA
BRANCH  36  39
ATOM     39  C   UNL A   1      34.175  34.506  29.390  1.00  0.00     0.039 A 
ATOM     40  C   UNL A   1      33.988  33.879  30.622  1.00  0.00     0.014 A 
ATOM     41  C   UNL A   1      35.455  34.630  28.842  1.00  0.00     0.014 A 
ATOM     42  C   UNL A   1      35.083  33.322  31.282  1.00  0.00     0.010 A 
ATOM     43  C   UNL A   1      36.531  34.004  29.459  1.00  0.00     0.010 A 
ATOM     44  C   UNL A   1      36.357  33.350  30.689  1.00  0.00    -0.014 A 
BRANCH  44  45
ATOM     45  C   UNL A   1      37.527  32.709  31.338  1.00  0.00     0.031 A 
ATOM     46  C   UNL A   1      38.226  31.565  30.658  1.00  0.00     0.074 A 
ATOM     47  C   UNL A   1      37.911  33.109  32.565  1.00  0.00     0.049 A 
ATOM     48  N   UNL A   1      39.201  30.811  31.098  1.00  0.00    -0.248 NA
ATOM     49  C   UNL A   1      37.747  31.201  29.315  1.00  0.00     0.031 C 
ATOM     50  C   UNL A   1      37.286  34.183  33.340  1.00  0.00     0.029 A 
ATOM     51  N   UNL A   1      38.914  32.650  33.383  1.00  0.00    -0.354 N 
ATOM     52  C   UNL A   1      39.441  29.882  30.094  1.00  0.00     0.074 A 
ATOM     53  C   UNL A   1      38.471  30.126  29.049  1.00  0.00     0.031 C 
ATOM     54  C   UNL A   1      37.932  34.314  34.509  1.00  0.00     0.029 A 
ATOM     55  C   UNL A   1      38.983  33.305  34.588  1.00  0.00     0.049 A 
ATOM     56  H   UNL A   1      39.525  31.921  33.130  1.00  0.00     0.167 HD
ATOM     57  C   UNL A   1      40.402  28.930  30.039  1.00  0.00     0.037 A 
ATOM     58  C   UNL A   1      39.794  33.101  35.645  1.00  0.00     0.037 A 
ATOM     59  C   UNL A   1      41.374  28.705  31.076  1.00  0.00     0.049 A 
ATOM     60  C   UNL A   1      40.829  32.010  35.571  1.00  0.00     0.074 A 
ATOM     61  C   UNL A   1      42.418  27.796  31.098  1.00  0.00     0.029 A 
ATOM     62  N   UNL A   1      41.418  29.393  32.280  1.00  0.00    -0.354 N 
ATOM     63  N   UNL A   1      41.090  31.179  34.591  1.00  0.00    -0.248 NA
ATOM     64  C   UNL A   1      41.689  31.832  36.750  1.00  0.00     0.031 C 
ATOM     65  C   UNL A   1      43.056  27.893  32.337  1.00  0.00     0.029 A 
ATOM     66  C   UNL A   1      42.454  28.910  33.062  1.00  0.00     0.049 A 
ATOM     67  H   UNL A   1      40.803  30.118  32.540  1.00  0.00     0.167 HD
ATOM     68  C   UNL A   1      42.162  30.407  35.018  1.00  0.00     0.074 A 
ATOM     69  C   UNL A   1      42.512  30.878  36.342  1.00  0.00     0.031 C 
ATOM     70  C   UNL A   1      42.801  29.401  34.372  1.00  0.00     0.037 A 
BRANCH  57  71
ATOM     71  C   UNL A   1      40.450  28.057  28.817  1.00  0.00     0.064 A 
ATOM     72  C   UNL A   1      41.213  28.407  27.691  1.00  0.00     0.173 A 
ATOM     73  C   UNL A   1      39.763  26.835  28.787  1.00  0.00     0.173 A 
ATOM     74  F   UNL A   1      41.881  29.570  27.662  1.00  0.00    -0.203 F 
ATOM     75  C   UNL A   1      41.261  27.581  26.572  1.00  0.00     0.198 A 
ATOM     76  C   UNL A   1      39.842  25.993  27.680  1.00  0.00     0.198 A 
ATOM     77  F   UNL A   1      39.024  26.447  29.837  1.00  0.00    -0.203 F 
ATOM     78  F   UNL A   1      41.954  27.960  25.490  1.00  0.00    -0.200 F 
ATOM     79  C   UNL A   1      40.583  26.371  26.571  1.00  0.00     0.200 A 
ATOM     80  F   UNL A   1      39.200  24.818  27.687  1.00  0.00    -0.200 F 
ATOM     81  F   UNL A   1      40.641  25.570  25.498  1.00  0.00    -0.200 F 
ENDBRANCH  57  71
BRANCH  58  82
ATOM     82  C   UNL A   1      39.669  33.951  36.859  1.00  0.00     0.064 A 
ATOM     83  C   UNL A   1      38.877  33.547  37.944  1.00  0.00     0.173 A 
ATOM     84  C   UNL A   1      40.318  35.191  36.955  1.00  0.00     0.173 A 
ATOM     85  F   UNL A   1      38.221  32.378  37.894  1.00  0.00    -0.203 F 
ATOM     86  C   UNL A   1      38.712  34.364  39.061  1.00  0.00     0.198 A 
ATOM     87  C   UNL A   1      40.181  35.991  38.087  1.00  0.00     0.198 A 
ATOM     88  F   UNL A   1      41.094  35.624  35.949  1.00  0.00    -0.203 F 
ATOM     89  F   UNL A   1      37.901  33.980  40.055  1.00  0.00    -0.200 F 
ATOM     90  C   UNL A   1      39.368  35.584  39.134  1.00  0.00     0.200 A 
ATOM     91  F   UNL A   1      40.830  37.161  38.161  1.00  0.00    -0.200 F 
ATOM     92  F   UNL A   1      39.209  36.369  40.207  1.00  0.00    -0.200 F 
ENDBRANCH  58  82
BRANCH  70  93
ATOM     93  C   UNL A   1      43.977  28.771  35.062  1.00  0.00     0.064 A 
ATOM     94  C   UNL A   1      43.840  27.640  35.878  1.00  0.00     0.173 A 
ATOM     95  C   UNL A   1      45.270  29.281  34.856  1.00  0.00     0.173 A 
ATOM     96  F   UNL A   1      42.626  27.123  36.118  1.00  0.00    -0.203 F 
ATOM     97  C   UNL A   1      44.950  27.056  36.484  1.00  0.00     0.198 A 
ATOM     98  C   UNL A   1      46.381  28.673  35.434  1.00  0.00     0.198 A 
ATOM     99  F   UNL A   1      45.458  30.357  34.078  1.00  0.00    -0.203 F 
ATOM    100  F   UNL A   1      44.790  26.006  37.299  1.00  0.00    -0.200 F 
ATOM    101  C   UNL A   1      46.219  27.567  36.254  1.00  0.00     0.200 A 
ATOM    102  F   UNL A   1      47.607  29.157  35.196  1.00  0.00    -0.200 F 
ATOM    103  F   UNL A   1      47.287  26.995  36.827  1.00  0.00    -0.200 F 
ENDBRANCH  70  93
ENDBRANCH  44  45
ENDBRANCH  36  39
ENDBRANCH  34  35
ENDBRANCH  33  34
ENDBRANCH  32  33
ENDBRANCH   1  32
TORSDOF 17
ENDMDL
