MODEL 1
REMARK VINA RESULT:     -11.7      0.000      0.000
REMARK SMILES C=CCN(CC(=O)NCCCCCCNC(=O)c1ccc(-c2c3nc(c(-c4c(F)c(F)c(F)c(F)c4F)c4ccc([nH]4)c(-c4c(F)c(F)c(F)c(F)c4F)c4nc(c(-c5c(F)c(F)c(F)c(F)c5F)c5ccc2[nH]5)C=C4)C=C3)cc1)C(=O)[C@@H]1Oc2ccccc2O[C@H]1C
REMARK SMILES IDX 11 1 10 2 9 3 8 4 6 5 7 6 5 8 4 9 3 10 2 11 1 12 81 13 82 14
REMARK SMILES IDX 83 15 84 16 92 17 85 18 91 19 93 20 86 21 90 22 87 23 89 24
REMARK SMILES IDX 88 25 12 26 13 27 14 28 15 29 16 30 17 32 18 33 19 34 80 35
REMARK SMILES IDX 20 36 79 37 21 38 22 39 23 40 73 41 24 42 78 43 72 44 74 45
REMARK SMILES IDX 25 46 77 47 71 48 70 49 26 51 58 52 38 53 57 54 39 55 42 56
REMARK SMILES IDX 56 57 75 58 40 59 41 60 55 62 76 63 43 64 27 65 28 66 36 67
REMARK SMILES IDX 29 68 30 69 34 70 37 71 31 72 32 73 35 74 33 75 59 76 60 77
REMARK SMILES IDX 68 78 61 79 62 80 66 81 69 82 63 83 64 84 67 85 65 86 44 87
REMARK SMILES IDX 45 88 53 89 46 90 47 91 51 92 54 93 48 94 49 95 52 96 50 97
REMARK H PARENT 8 7 15 31 74 50 42 61
REMARK Flexibility Score: inf
ROOT
ATOM      1  C   UNL A   1      34.639  32.068  29.013  1.00  0.00     0.002 C 
ENDROOT
BRANCH   1   2
ATOM      2  C   UNL A   1      34.773  31.041  27.879  1.00  0.00     0.021 C 
BRANCH   2   3
ATOM      3  C   UNL A   1      33.478  30.766  27.114  1.00  0.00     0.116 C 
BRANCH   3   4
ATOM      4  N   UNL A   1      32.759  29.628  27.654  1.00  0.00    -0.355 N 
ATOM      5  C   UNL A   1      31.956  28.711  27.039  1.00  0.00     0.239 C 
ATOM      6  O   UNL A   1      31.404  27.868  27.752  1.00  0.00    -0.273 OA
ATOM      7  H   UNL A   1      32.866  29.497  28.624  1.00  0.00     0.163 HD
BRANCH   5   8
ATOM      8  C   UNL A   1      31.711  28.745  25.523  1.00  0.00     0.219 C 
BRANCH   8   9
ATOM      9  N   UNL A   1      31.573  27.411  24.932  1.00  0.00    -0.326 N 
BRANCH   9  10
ATOM     10  C   UNL A   1      30.272  27.082  24.341  1.00  0.00     0.147 C 
BRANCH  10  11
ATOM     11  C   UNL A   1      29.693  28.176  23.501  1.00  0.00    -0.014 C 
ATOM     12  C   UNL A   1      30.259  28.623  22.370  1.00  0.00     0.006 C 
ENDBRANCH  10  11
ENDBRANCH   9  10
BRANCH   9  13
ATOM     13  C   UNL A   1      32.746  26.833  24.446  1.00  0.00     0.268 C 
ATOM     14  O   UNL A   1      33.811  27.455  24.497  1.00  0.00    -0.270 OA
BRANCH  13  15
ATOM     15  C   UNL A   1      32.690  25.411  23.843  1.00  0.00     0.302 C 
ATOM     16  O   UNL A   1      33.091  24.537  24.905  1.00  0.00    -0.473 OA
ATOM     17  C   UNL A   1      33.445  25.263  22.502  1.00  0.00     0.221 C 
ATOM     18  C   UNL A   1      34.303  23.961  24.695  1.00  0.00     0.162 A 
ATOM     19  O   UNL A   1      34.040  23.965  22.317  1.00  0.00    -0.482 OA
ATOM     20  C   UNL A   1      32.530  25.515  21.301  1.00  0.00     0.057 C 
ATOM     21  C   UNL A   1      35.069  23.687  25.820  1.00  0.00     0.050 A 
ATOM     22  C   UNL A   1      34.781  23.668  23.425  1.00  0.00     0.161 A 
ATOM     23  C   UNL A   1      36.357  23.181  25.667  1.00  0.00     0.004 A 
ATOM     24  C   UNL A   1      36.031  23.086  23.266  1.00  0.00     0.050 A 
ATOM     25  C   UNL A   1      36.834  22.871  24.391  1.00  0.00     0.004 A 
ENDBRANCH  13  15
ENDBRANCH   9  13
ENDBRANCH   8   9
ENDBRANCH   5   8
ENDBRANCH   3   4
ENDBRANCH   2   3
ENDBRANCH   1   2
BRANCH   1  26
ATOM     26  C   UNL A   1      34.679  33.538  28.584  1.00  0.00     0.002 C 
BRANCH  26  27
ATOM     27  C   UNL A   1      33.368  34.311  28.750  1.00  0.00     0.021 C 
BRANCH  27  28
ATOM     28  C   UNL A   1      33.497  35.703  29.369  1.00  0.00     0.116 C 
BRANCH  28  29
ATOM     29  N   UNL A   1      32.558  35.925  30.457  1.00  0.00    -0.352 N 
ATOM     30  C   UNL A   1      32.616  35.523  31.773  1.00  0.00     0.251 C 
ATOM     31  H   UNL A   1      31.756  36.444  30.216  1.00  0.00     0.163 HD
ATOM     32  O   UNL A   1      31.645  35.661  32.501  1.00  0.00    -0.269 OA
BRANCH  30  33
ATOM     33  C   UNL A   1      33.847  34.895  32.305  1.00  0.00     0.039 A 
ATOM     34  C   UNL A   1      33.771  33.593  32.807  1.00  0.00     0.014 A 
ATOM     35  C   UNL A   1      35.065  35.579  32.322  1.00  0.00     0.014 A 
ATOM     36  C   UNL A   1      34.930  32.951  33.251  1.00  0.00     0.010 A 
ATOM     37  C   UNL A   1      36.232  34.914  32.695  1.00  0.00     0.010 A 
ATOM     38  C   UNL A   1      36.179  33.590  33.157  1.00  0.00    -0.014 A 
BRANCH  38  39
ATOM     39  C   UNL A   1      37.430  32.861  33.498  1.00  0.00     0.031 A 
ATOM     40  C   UNL A   1      38.177  33.156  34.766  1.00  0.00     0.074 A 
ATOM     41  C   UNL A   1      37.924  31.959  32.627  1.00  0.00     0.049 A 
ATOM     42  N   UNL A   1      39.283  32.619  35.221  1.00  0.00    -0.248 NA
ATOM     43  C   UNL A   1      37.626  34.213  35.627  1.00  0.00     0.031 C 
ATOM     44  C   UNL A   1      37.330  31.627  31.332  1.00  0.00     0.029 A 
ATOM     45  N   UNL A   1      39.039  31.160  32.695  1.00  0.00    -0.354 N 
ATOM     46  C   UNL A   1      39.561  33.273  36.414  1.00  0.00     0.074 A 
ATOM     47  C   UNL A   1      38.543  34.289  36.582  1.00  0.00     0.031 C 
ATOM     48  C   UNL A   1      38.066  30.672  30.742  1.00  0.00     0.029 A 
ATOM     49  C   UNL A   1      39.205  30.353  31.597  1.00  0.00     0.049 A 
ATOM     50  H   UNL A   1      39.660  31.165  33.458  1.00  0.00     0.167 HD
ATOM     51  C   UNL A   1      40.559  33.034  37.300  1.00  0.00     0.037 A 
ATOM     52  C   UNL A   1      40.167  29.458  31.305  1.00  0.00     0.037 A 
ATOM     53  C   UNL A   1      41.568  32.018  37.130  1.00  0.00     0.049 A 
ATOM     54  C   UNL A   1      41.270  29.213  32.299  1.00  0.00     0.074 A 
ATOM     55  C   UNL A   1      42.579  31.651  38.001  1.00  0.00     0.029 A 
ATOM     56  N   UNL A   1      41.704  31.217  36.005  1.00  0.00    -0.354 N 
ATOM     57  N   UNL A   1      41.471  29.773  33.466  1.00  0.00    -0.248 NA
ATOM     58  C   UNL A   1      42.273  28.203  31.937  1.00  0.00     0.031 C 
ATOM     59  C   UNL A   1      43.366  30.677  37.376  1.00  0.00     0.029 A 
ATOM     60  C   UNL A   1      42.806  30.385  36.143  1.00  0.00     0.049 A 
ATOM     61  H   UNL A   1      41.107  31.236  35.222  1.00  0.00     0.167 HD
ATOM     62  C   UNL A   1      42.609  29.173  33.987  1.00  0.00     0.074 A 
ATOM     63  C   UNL A   1      43.041  28.188  33.017  1.00  0.00     0.031 C 
ATOM     64  C   UNL A   1      43.238  29.418  35.164  1.00  0.00     0.037 A 
BRANCH  51  65
ATOM     65  C   UNL A   1      40.615  33.900  38.528  1.00  0.00     0.064 A 
ATOM     66  C   UNL A   1      39.880  33.592  39.685  1.00  0.00     0.173 A 
ATOM     67  C   UNL A   1      41.426  35.044  38.557  1.00  0.00     0.173 A 
ATOM     68  F   UNL A   1      39.082  32.514  39.712  1.00  0.00    -0.203 F 
ATOM     69  C   UNL A   1      39.919  34.422  40.803  1.00  0.00     0.198 A 
ATOM     70  C   UNL A   1      41.492  35.851  39.690  1.00  0.00     0.198 A 
ATOM     71  F   UNL A   1      42.159  35.382  37.486  1.00  0.00    -0.203 F 
ATOM     72  F   UNL A   1      39.156  34.143  41.869  1.00  0.00    -0.200 F 
ATOM     73  C   UNL A   1      40.729  35.547  40.807  1.00  0.00     0.200 A 
ATOM     74  F   UNL A   1      42.288  36.929  39.698  1.00  0.00    -0.200 F 
ATOM     75  F   UNL A   1      40.766  36.344  41.884  1.00  0.00    -0.200 F 
ENDBRANCH  51  65
BRANCH  52  76
ATOM     76  C   UNL A   1      40.108  28.710  30.022  1.00  0.00     0.064 A 
ATOM     77  C   UNL A   1      40.702  29.220  28.859  1.00  0.00     0.173 A 
ATOM     78  C   UNL A   1      39.481  27.458  29.939  1.00  0.00     0.173 A 
ATOM     79  F   UNL A   1      41.296  30.422  28.883  1.00  0.00    -0.203 F 
ATOM     80  C   UNL A   1      40.661  28.511  27.660  1.00  0.00     0.198 A 
ATOM     81  C   UNL A   1      39.468  26.737  28.748  1.00  0.00     0.198 A 
ATOM     82  F   UNL A   1      38.904  26.922  31.025  1.00  0.00    -0.203 F 
ATOM     83  F   UNL A   1      41.206  29.038  26.554  1.00  0.00    -0.200 F 
ATOM     84  C   UNL A   1      40.053  27.266  27.607  1.00  0.00     0.200 A 
ATOM     85  F   UNL A   1      38.896  25.526  28.706  1.00  0.00    -0.200 F 
ATOM     86  F   UNL A   1      40.028  26.578  26.458  1.00  0.00    -0.200 F 
ENDBRANCH  52  76
BRANCH  64  87
ATOM     87  C   UNL A   1      44.457  28.593  35.475  1.00  0.00     0.064 A 
ATOM     88  C   UNL A   1      45.747  29.024  35.133  1.00  0.00     0.173 A 
ATOM     89  C   UNL A   1      44.334  27.366  36.146  1.00  0.00     0.173 A 
ATOM     90  F   UNL A   1      45.922  30.182  34.478  1.00  0.00    -0.203 F 
ATOM     91  C   UNL A   1      46.865  28.243  35.420  1.00  0.00     0.198 A 
ATOM     92  C   UNL A   1      45.455  26.604  36.463  1.00  0.00     0.198 A 
ATOM     93  F   UNL A   1      43.125  26.908  36.504  1.00  0.00    -0.203 F 
ATOM     94  F   UNL A   1      48.082  28.648  35.030  1.00  0.00    -0.200 F 
ATOM     95  C   UNL A   1      46.718  27.038  36.090  1.00  0.00     0.200 A 
ATOM     96  F   UNL A   1      45.313  25.447  37.125  1.00  0.00    -0.200 F 
ATOM     97  F   UNL A   1      47.795  26.289  36.369  1.00  0.00    -0.200 F 
ENDBRANCH  64  87
ENDBRANCH  38  39
ENDBRANCH  30  33
ENDBRANCH  28  29
ENDBRANCH  27  28
ENDBRANCH  26  27
ENDBRANCH   1  26
TORSDOF 18
ENDMDL
MODEL 2
REMARK VINA RESULT:     -11.7      1.782      7.653
REMARK SMILES C=CCN(CC(=O)NCCCCCCNC(=O)c1ccc(-c2c3nc(c(-c4c(F)c(F)c(F)c(F)c4F)c4ccc([nH]4)c(-c4c(F)c(F)c(F)c(F)c4F)c4nc(c(-c5c(F)c(F)c(F)c(F)c5F)c5ccc2[nH]5)C=C4)C=C3)cc1)C(=O)[C@@H]1Oc2ccccc2O[C@H]1C
REMARK SMILES IDX 11 1 10 2 9 3 8 4 6 5 7 6 5 8 4 9 3 10 2 11 1 12 81 13 82 14
REMARK SMILES IDX 83 15 84 16 92 17 85 18 91 19 93 20 86 21 90 22 87 23 89 24
REMARK SMILES IDX 88 25 12 26 13 27 14 28 15 29 16 30 17 32 18 33 19 34 80 35
REMARK SMILES IDX 20 36 79 37 21 38 22 39 23 40 73 41 24 42 78 43 72 44 74 45
REMARK SMILES IDX 25 46 77 47 71 48 70 49 26 51 58 52 38 53 57 54 39 55 42 56
REMARK SMILES IDX 56 57 75 58 40 59 41 60 55 62 76 63 43 64 27 65 28 66 36 67
REMARK SMILES IDX 29 68 30 69 34 70 37 71 31 72 32 73 35 74 33 75 59 76 60 77
REMARK SMILES IDX 68 78 61 79 62 80 66 81 69 82 63 83 64 84 67 85 65 86 44 87
REMARK SMILES IDX 45 88 53 89 46 90 47 91 51 92 54 93 48 94 49 95 52 96 50 97
REMARK H PARENT 8 7 15 31 74 50 42 61
REMARK Flexibility Score: inf
ROOT
ATOM      1  C   UNL A   1      32.956  30.087  26.761  1.00  0.00     0.002 C 
ENDROOT
BRANCH   1   2
ATOM      2  C   UNL A   1      33.497  29.206  25.626  1.00  0.00     0.021 C 
BRANCH   2   3
ATOM      3  C   UNL A   1      32.444  28.764  24.609  1.00  0.00     0.116 C 
BRANCH   3   4
ATOM      4  N   UNL A   1      33.017  28.551  23.293  1.00  0.00    -0.355 N 
ATOM      5  C   UNL A   1      33.572  27.435  22.736  1.00  0.00     0.239 C 
ATOM      6  O   UNL A   1      34.052  27.542  21.603  1.00  0.00    -0.273 OA
ATOM      7  H   UNL A   1      33.004  29.342  22.706  1.00  0.00     0.163 HD
BRANCH   5   8
ATOM      8  C   UNL A   1      33.638  26.104  23.498  1.00  0.00     0.219 C 
BRANCH   8   9
ATOM      9  N   UNL A   1      32.731  25.086  22.960  1.00  0.00    -0.326 N 
BRANCH   9  10
ATOM     10  C   UNL A   1      31.357  25.510  22.674  1.00  0.00     0.147 C 
BRANCH  10  11
ATOM     11  C   UNL A   1      30.373  25.131  23.736  1.00  0.00    -0.014 C 
ATOM     12  C   UNL A   1      30.158  25.859  24.842  1.00  0.00     0.006 C 
ENDBRANCH  10  11
ENDBRANCH   9  10
BRANCH   9  13
ATOM     13  C   UNL A   1      33.330  24.059  22.229  1.00  0.00     0.268 C 
ATOM     14  O   UNL A   1      33.396  24.132  20.998  1.00  0.00    -0.270 OA
BRANCH  13  15
ATOM     15  C   UNL A   1      33.900  22.835  22.980  1.00  0.00     0.302 C 
ATOM     16  O   UNL A   1      32.775  22.240  23.637  1.00  0.00    -0.473 OA
ATOM     17  C   UNL A   1      35.130  23.152  23.863  1.00  0.00     0.221 C 
ATOM     18  C   UNL A   1      32.814  22.371  24.988  1.00  0.00     0.162 A 
ATOM     19  O   UNL A   1      35.206  22.347  25.054  1.00  0.00    -0.482 OA
ATOM     20  C   UNL A   1      36.443  22.957  23.102  1.00  0.00     0.057 C 
ATOM     21  C   UNL A   1      31.593  22.475  25.642  1.00  0.00     0.050 A 
ATOM     22  C   UNL A   1      34.005  22.419  25.700  1.00  0.00     0.161 A 
ATOM     23  C   UNL A   1      31.568  22.701  27.016  1.00  0.00     0.004 A 
ATOM     24  C   UNL A   1      33.988  22.562  27.081  1.00  0.00     0.050 A 
ATOM     25  C   UNL A   1      32.765  22.735  27.736  1.00  0.00     0.004 A 
ENDBRANCH  13  15
ENDBRANCH   9  13
ENDBRANCH   8   9
ENDBRANCH   5   8
ENDBRANCH   3   4
ENDBRANCH   2   3
ENDBRANCH   1   2
BRANCH   1  26
ATOM     26  C   UNL A   1      31.552  30.660  26.546  1.00  0.00     0.002 C 
BRANCH  26  27
ATOM     27  C   UNL A   1      31.414  32.170  26.760  1.00  0.00     0.021 C 
BRANCH  27  28
ATOM     28  C   UNL A   1      32.671  32.884  27.254  1.00  0.00     0.116 C 
BRANCH  28  29
ATOM     29  N   UNL A   1      32.423  34.266  27.631  1.00  0.00    -0.352 N 
ATOM     30  C   UNL A   1      33.006  35.034  28.614  1.00  0.00     0.251 C 
ATOM     31  H   UNL A   1      31.731  34.725  27.101  1.00  0.00     0.163 HD
ATOM     32  O   UNL A   1      32.543  36.130  28.894  1.00  0.00    -0.269 OA
BRANCH  30  33
ATOM     33  C   UNL A   1      34.179  34.524  29.360  1.00  0.00     0.039 A 
ATOM     34  C   UNL A   1      33.982  33.987  30.634  1.00  0.00     0.014 A 
ATOM     35  C   UNL A   1      35.466  34.581  28.818  1.00  0.00     0.014 A 
ATOM     36  C   UNL A   1      35.061  33.436  31.331  1.00  0.00     0.010 A 
ATOM     37  C   UNL A   1      36.528  33.965  29.481  1.00  0.00     0.010 A 
ATOM     38  C   UNL A   1      36.335  33.379  30.741  1.00  0.00    -0.014 A 
BRANCH  38  39
ATOM     39  C   UNL A   1      37.453  32.669  31.419  1.00  0.00     0.031 A 
ATOM     40  C   UNL A   1      38.135  31.499  30.769  1.00  0.00     0.074 A 
ATOM     41  C   UNL A   1      37.822  33.054  32.657  1.00  0.00     0.049 A 
ATOM     42  N   UNL A   1      39.124  30.764  31.216  1.00  0.00    -0.248 NA
ATOM     43  C   UNL A   1      37.623  31.082  29.456  1.00  0.00     0.031 C 
ATOM     44  C   UNL A   1      37.198  34.132  33.424  1.00  0.00     0.029 A 
ATOM     45  N   UNL A   1      38.805  32.579  33.490  1.00  0.00    -0.354 N 
ATOM     46  C   UNL A   1      39.348  29.798  30.244  1.00  0.00     0.074 A 
ATOM     47  C   UNL A   1      38.353  30.002  29.213  1.00  0.00     0.031 C 
ATOM     48  C   UNL A   1      37.832  34.259  34.600  1.00  0.00     0.029 A 
ATOM     49  C   UNL A   1      38.880  33.247  34.688  1.00  0.00     0.049 A 
ATOM     50  H   UNL A   1      39.400  31.832  33.252  1.00  0.00     0.167 HD
ATOM     51  C   UNL A   1      40.311  28.844  30.203  1.00  0.00     0.037 A 
ATOM     52  C   UNL A   1      39.697  33.065  35.742  1.00  0.00     0.037 A 
ATOM     53  C   UNL A   1      41.302  28.647  31.230  1.00  0.00     0.049 A 
ATOM     54  C   UNL A   1      40.753  31.996  35.679  1.00  0.00     0.074 A 
ATOM     55  C   UNL A   1      42.360  27.755  31.250  1.00  0.00     0.029 A 
ATOM     56  N   UNL A   1      41.349  29.345  32.430  1.00  0.00    -0.354 N 
ATOM     57  N   UNL A   1      41.015  31.147  34.715  1.00  0.00    -0.248 NA
ATOM     58  C   UNL A   1      41.633  31.866  36.847  1.00  0.00     0.031 C 
ATOM     59  C   UNL A   1      43.005  27.866  32.488  1.00  0.00     0.029 A 
ATOM     60  C   UNL A   1      42.394  28.875  33.213  1.00  0.00     0.049 A 
ATOM     61  H   UNL A   1      40.732  30.067  32.688  1.00  0.00     0.167 HD
ATOM     62  C   UNL A   1      42.099  30.397  35.150  1.00  0.00     0.074 A 
ATOM     63  C   UNL A   1      42.460  30.907  36.456  1.00  0.00     0.031 C 
ATOM     64  C   UNL A   1      42.736  29.378  34.521  1.00  0.00     0.037 A 
BRANCH  51  65
ATOM     65  C   UNL A   1      40.325  27.928  29.010  1.00  0.00     0.064 A 
ATOM     66  C   UNL A   1      41.066  28.228  27.856  1.00  0.00     0.173 A 
ATOM     67  C   UNL A   1      39.601  26.726  29.026  1.00  0.00     0.173 A 
ATOM     68  F   UNL A   1      41.772  29.366  27.782  1.00  0.00    -0.203 F 
ATOM     69  C   UNL A   1      41.044  27.384  26.748  1.00  0.00     0.198 A 
ATOM     70  C   UNL A   1      39.611  25.866  27.931  1.00  0.00     0.198 A 
ATOM     71  F   UNL A   1      38.884  26.382  30.105  1.00  0.00    -0.203 F 
ATOM     72  F   UNL A   1      41.705  27.726  25.633  1.00  0.00    -0.200 F 
ATOM     73  C   UNL A   1      40.321  26.201  26.787  1.00  0.00     0.200 A 
ATOM     74  F   UNL A   1      38.926  24.715  27.977  1.00  0.00    -0.200 F 
ATOM     75  F   UNL A   1      40.301  25.390  25.721  1.00  0.00    -0.200 F 
ENDBRANCH  51  65
BRANCH  52  76
ATOM     76  C   UNL A   1      39.559  33.940  36.935  1.00  0.00     0.064 A 
ATOM     77  C   UNL A   1      38.832  33.522  38.059  1.00  0.00     0.173 A 
ATOM     78  C   UNL A   1      40.173  35.201  36.988  1.00  0.00     0.173 A 
ATOM     79  F   UNL A   1      38.210  32.334  38.050  1.00  0.00    -0.203 F 
ATOM     80  C   UNL A   1      38.717  34.336  39.185  1.00  0.00     0.198 A 
ATOM     81  C   UNL A   1      40.083  35.999  38.125  1.00  0.00     0.198 A 
ATOM     82  F   UNL A   1      40.886  35.645  35.941  1.00  0.00    -0.203 F 
ATOM     83  F   UNL A   1      37.987  33.927  40.232  1.00  0.00    -0.200 F 
ATOM     84  C   UNL A   1      39.350  35.569  39.221  1.00  0.00     0.200 A 
ATOM     85  F   UNL A   1      40.712  37.182  38.162  1.00  0.00    -0.200 F 
ATOM     86  F   UNL A   1      39.252  36.344  40.310  1.00  0.00    -0.200 F 
ENDBRANCH  52  76
BRANCH  64  87
ATOM     87  C   UNL A   1      43.903  28.754  35.235  1.00  0.00     0.064 A 
ATOM     88  C   UNL A   1      45.208  29.248  35.089  1.00  0.00     0.173 A 
ATOM     89  C   UNL A   1      43.711  27.662  36.096  1.00  0.00     0.173 A 
ATOM     90  F   UNL A   1      45.452  30.281  34.267  1.00  0.00    -0.203 F 
ATOM     91  C   UNL A   1      46.280  28.652  35.749  1.00  0.00     0.198 A 
ATOM     92  C   UNL A   1      44.779  27.090  36.783  1.00  0.00     0.198 A 
ATOM     93  F   UNL A   1      42.483  27.153  36.279  1.00  0.00    -0.203 F 
ATOM     94  F   UNL A   1      47.526  29.103  35.546  1.00  0.00    -0.200 F 
ATOM     95  C   UNL A   1      46.063  27.578  36.601  1.00  0.00     0.200 A 
ATOM     96  F   UNL A   1      44.564  26.064  37.618  1.00  0.00    -0.200 F 
ATOM     97  F   UNL A   1      47.095  27.008  37.239  1.00  0.00    -0.200 F 
ENDBRANCH  64  87
ENDBRANCH  38  39
ENDBRANCH  30  33
ENDBRANCH  28  29
ENDBRANCH  27  28
ENDBRANCH  26  27
ENDBRANCH   1  26
TORSDOF 18
ENDMDL
MODEL 3
REMARK VINA RESULT:     -11.7      2.918      4.621
REMARK SMILES C=CCN(CC(=O)NCCCCCCNC(=O)c1ccc(-c2c3nc(c(-c4c(F)c(F)c(F)c(F)c4F)c4ccc([nH]4)c(-c4c(F)c(F)c(F)c(F)c4F)c4nc(c(-c5c(F)c(F)c(F)c(F)c5F)c5ccc2[nH]5)C=C4)C=C3)cc1)C(=O)[C@@H]1Oc2ccccc2O[C@H]1C
REMARK SMILES IDX 11 1 10 2 9 3 8 4 6 5 7 6 5 8 4 9 3 10 2 11 1 12 81 13 82 14
REMARK SMILES IDX 83 15 84 16 92 17 85 18 91 19 93 20 86 21 90 22 87 23 89 24
REMARK SMILES IDX 88 25 12 26 13 27 14 28 15 29 16 30 17 32 18 33 19 34 80 35
REMARK SMILES IDX 20 36 79 37 21 38 22 39 23 40 73 41 24 42 78 43 72 44 74 45
REMARK SMILES IDX 25 46 77 47 71 48 70 49 26 51 58 52 38 53 57 54 39 55 42 56
REMARK SMILES IDX 56 57 75 58 40 59 41 60 55 62 76 63 43 64 27 65 28 66 36 67
REMARK SMILES IDX 29 68 30 69 34 70 37 71 31 72 32 73 35 74 33 75 59 76 60 77
REMARK SMILES IDX 68 78 61 79 62 80 66 81 69 82 63 83 64 84 67 85 65 86 44 87
REMARK SMILES IDX 45 88 53 89 46 90 47 91 51 92 54 93 48 94 49 95 52 96 50 97
REMARK H PARENT 8 7 15 31 74 50 42 61
REMARK Flexibility Score: inf
ROOT
ATOM      1  C   UNL A   1      31.111  27.131  26.926  1.00  0.00     0.002 C 
ENDROOT
BRANCH   1   2
ATOM      2  C   UNL A   1      30.787  26.881  25.446  1.00  0.00     0.021 C 
BRANCH   2   3
ATOM      3  C   UNL A   1      30.003  25.598  25.174  1.00  0.00     0.116 C 
BRANCH   3   4
ATOM      4  N   UNL A   1      29.960  24.731  26.337  1.00  0.00    -0.355 N 
ATOM      5  C   UNL A   1      30.497  23.493  26.542  1.00  0.00     0.239 C 
ATOM      6  O   UNL A   1      30.253  22.937  27.617  1.00  0.00    -0.273 OA
ATOM      7  H   UNL A   1      29.460  25.095  27.103  1.00  0.00     0.163 HD
BRANCH   5   8
ATOM      8  C   UNL A   1      31.339  22.793  25.465  1.00  0.00     0.219 C 
BRANCH   8   9
ATOM      9  N   UNL A   1      32.779  22.854  25.731  1.00  0.00    -0.326 N 
BRANCH   9  10
ATOM     10  C   UNL A   1      33.289  24.091  26.330  1.00  0.00     0.147 C 
BRANCH  10  11
ATOM     11  C   UNL A   1      34.125  24.915  25.402  1.00  0.00    -0.014 C 
ATOM     12  C   UNL A   1      33.957  24.934  24.071  1.00  0.00     0.006 C 
ENDBRANCH  10  11
ENDBRANCH   9  10
BRANCH   9  13
ATOM     13  C   UNL A   1      33.410  21.632  25.967  1.00  0.00     0.268 C 
ATOM     14  O   UNL A   1      33.441  21.161  27.108  1.00  0.00    -0.270 OA
BRANCH  13  15
ATOM     15  C   UNL A   1      34.068  20.884  24.785  1.00  0.00     0.302 C 
ATOM     16  O   UNL A   1      33.086  19.936  24.348  1.00  0.00    -0.473 OA
ATOM     17  C   UNL A   1      35.478  20.329  25.095  1.00  0.00     0.221 C 
ATOM     18  C   UNL A   1      33.431  18.649  24.612  1.00  0.00     0.162 A 
ATOM     19  O   UNL A   1      35.773  19.097  24.412  1.00  0.00    -0.482 OA
ATOM     20  C   UNL A   1      36.577  21.326  24.724  1.00  0.00     0.057 C 
ATOM     21  C   UNL A   1      32.394  17.765  24.876  1.00  0.00     0.050 A 
ATOM     22  C   UNL A   1      34.752  18.220  24.640  1.00  0.00     0.161 A 
ATOM     23  C   UNL A   1      32.686  16.454  25.241  1.00  0.00     0.004 A 
ATOM     24  C   UNL A   1      35.049  16.894  24.924  1.00  0.00     0.050 A 
ATOM     25  C   UNL A   1      34.013  16.016  25.256  1.00  0.00     0.004 A 
ENDBRANCH  13  15
ENDBRANCH   9  13
ENDBRANCH   8   9
ENDBRANCH   5   8
ENDBRANCH   3   4
ENDBRANCH   2   3
ENDBRANCH   1   2
BRANCH   1  26
ATOM     26  C   UNL A   1      32.175  28.197  27.202  1.00  0.00     0.002 C 
BRANCH  26  27
ATOM     27  C   UNL A   1      31.762  29.639  26.895  1.00  0.00     0.021 C 
BRANCH  27  28
ATOM     28  C   UNL A   1      32.842  30.514  26.261  1.00  0.00     0.116 C 
BRANCH  28  29
ATOM     29  N   UNL A   1      32.774  31.899  26.698  1.00  0.00    -0.352 N 
ATOM     30  C   UNL A   1      33.557  32.583  27.602  1.00  0.00     0.251 C 
ATOM     31  H   UNL A   1      32.057  32.432  26.284  1.00  0.00     0.163 HD
ATOM     32  O   UNL A   1      33.237  33.704  27.967  1.00  0.00    -0.269 OA
BRANCH  30  33
ATOM     33  C   UNL A   1      34.775  31.951  28.158  1.00  0.00     0.039 A 
ATOM     34  C   UNL A   1      35.937  32.719  28.272  1.00  0.00     0.014 A 
ATOM     35  C   UNL A   1      34.782  30.612  28.557  1.00  0.00     0.014 A 
ATOM     36  C   UNL A   1      37.079  32.167  28.857  1.00  0.00     0.010 A 
ATOM     37  C   UNL A   1      35.897  30.086  29.208  1.00  0.00     0.010 A 
ATOM     38  C   UNL A   1      37.056  30.860  29.372  1.00  0.00    -0.014 A 
BRANCH  38  39
ATOM     39  C   UNL A   1      38.223  30.319  30.120  1.00  0.00     0.031 A 
ATOM     40  C   UNL A   1      38.495  30.735  31.537  1.00  0.00     0.074 A 
ATOM     41  C   UNL A   1      39.074  29.482  29.494  1.00  0.00     0.049 A 
ATOM     42  N   UNL A   1      39.464  30.365  32.337  1.00  0.00    -0.248 NA
ATOM     43  C   UNL A   1      37.573  31.717  32.126  1.00  0.00     0.031 C 
ATOM     44  C   UNL A   1      38.959  29.051  28.101  1.00  0.00     0.029 A 
ATOM     45  N   UNL A   1      40.206  28.849  29.945  1.00  0.00    -0.354 N 
ATOM     46  C   UNL A   1      39.272  31.069  33.518  1.00  0.00     0.074 A 
ATOM     47  C   UNL A   1      38.131  31.935  33.309  1.00  0.00     0.031 C 
ATOM     48  C   UNL A   1      39.958  28.201  27.820  1.00  0.00     0.029 A 
ATOM     49  C   UNL A   1      40.807  28.057  28.999  1.00  0.00     0.049 A 
ATOM     50  H   UNL A   1      40.553  28.953  30.860  1.00  0.00     0.167 HD
ATOM     51  C   UNL A   1      39.968  30.985  34.679  1.00  0.00     0.037 A 
ATOM     52  C   UNL A   1      41.919  27.301  29.067  1.00  0.00     0.037 A 
ATOM     53  C   UNL A   1      41.102  30.119  34.884  1.00  0.00     0.049 A 
ATOM     54  C   UNL A   1      42.681  27.228  30.361  1.00  0.00     0.074 A 
ATOM     55  C   UNL A   1      41.831  29.910  36.041  1.00  0.00     0.029 A 
ATOM     56  N   UNL A   1      41.682  29.328  33.902  1.00  0.00    -0.354 N 
ATOM     57  N   UNL A   1      42.436  27.828  31.501  1.00  0.00    -0.248 NA
ATOM     58  C   UNL A   1      43.868  26.363  30.382  1.00  0.00     0.031 C 
ATOM     59  C   UNL A   1      42.891  29.046  35.743  1.00  0.00     0.029 A 
ATOM     60  C   UNL A   1      42.784  28.660  34.418  1.00  0.00     0.049 A 
ATOM     61  H   UNL A   1      41.360  29.251  32.974  1.00  0.00     0.167 HD
ATOM     62  C   UNL A   1      43.424  27.401  32.378  1.00  0.00     0.074 A 
ATOM     63  C   UNL A   1      44.258  26.472  31.644  1.00  0.00     0.031 C 
ATOM     64  C   UNL A   1      43.620  27.749  33.674  1.00  0.00     0.037 A 
BRANCH  51  65
ATOM     65  C   UNL A   1      39.528  31.869  35.814  1.00  0.00     0.064 A 
ATOM     66  C   UNL A   1      38.494  31.493  36.686  1.00  0.00     0.173 A 
ATOM     67  C   UNL A   1      40.159  33.101  36.044  1.00  0.00     0.173 A 
ATOM     68  F   UNL A   1      37.851  30.329  36.511  1.00  0.00    -0.203 F 
ATOM     69  C   UNL A   1      38.078  32.337  37.714  1.00  0.00     0.198 A 
ATOM     70  C   UNL A   1      39.766  33.926  37.095  1.00  0.00     0.198 A 
ATOM     71  F   UNL A   1      41.160  33.508  35.249  1.00  0.00    -0.203 F 
ATOM     72  F   UNL A   1      37.043  31.985  38.490  1.00  0.00    -0.200 F 
ATOM     73  C   UNL A   1      38.717  33.550  37.920  1.00  0.00     0.200 A 
ATOM     74  F   UNL A   1      40.396  35.090  37.303  1.00  0.00    -0.200 F 
ATOM     75  F   UNL A   1      38.316  34.360  38.909  1.00  0.00    -0.200 F 
ENDBRANCH  51  65
BRANCH  52  76
ATOM     76  C   UNL A   1      42.358  26.533  27.872  1.00  0.00     0.064 A 
ATOM     77  C   UNL A   1      43.343  27.036  27.010  1.00  0.00     0.173 A 
ATOM     78  C   UNL A   1      41.821  25.270  27.582  1.00  0.00     0.173 A 
ATOM     79  F   UNL A   1      43.872  28.248  27.233  1.00  0.00    -0.203 F 
ATOM     80  C   UNL A   1      43.766  26.309  25.899  1.00  0.00     0.198 A 
ATOM     81  C   UNL A   1      42.267  24.531  26.490  1.00  0.00     0.198 A 
ATOM     82  F   UNL A   1      40.880  24.741  28.380  1.00  0.00    -0.203 F 
ATOM     83  F   UNL A   1      44.684  26.828  25.072  1.00  0.00    -0.200 F 
ATOM     84  C   UNL A   1      43.235  25.053  25.645  1.00  0.00     0.200 A 
ATOM     85  F   UNL A   1      41.765  23.310  26.259  1.00  0.00    -0.200 F 
ATOM     86  F   UNL A   1      43.654  24.347  24.586  1.00  0.00    -0.200 F 
ENDBRANCH  52  76
BRANCH  64  87
ATOM     87  C   UNL A   1      44.777  27.108  34.389  1.00  0.00     0.064 A 
ATOM     88  C   UNL A   1      44.646  25.878  35.051  1.00  0.00     0.173 A 
ATOM     89  C   UNL A   1      46.040  27.722  34.393  1.00  0.00     0.173 A 
ATOM     90  F   UNL A   1      43.459  25.255  35.091  1.00  0.00    -0.203 F 
ATOM     91  C   UNL A   1      45.726  25.303  35.718  1.00  0.00     0.198 A 
ATOM     92  C   UNL A   1      47.126  27.128  35.030  1.00  0.00     0.198 A 
ATOM     93  F   UNL A   1      46.224  28.896  33.771  1.00  0.00    -0.203 F 
ATOM     94  F   UNL A   1      45.562  24.157  36.393  1.00  0.00    -0.200 F 
ATOM     95  C   UNL A   1      46.966  25.925  35.700  1.00  0.00     0.200 A 
ATOM     96  F   UNL A   1      48.327  27.722  34.999  1.00  0.00    -0.200 F 
ATOM     97  F   UNL A   1      48.005  25.369  36.339  1.00  0.00    -0.200 F 
ENDBRANCH  64  87
ENDBRANCH  38  39
ENDBRANCH  30  33
ENDBRANCH  28  29
ENDBRANCH  27  28
ENDBRANCH  26  27
ENDBRANCH   1  26
TORSDOF 18
ENDMDL
