MODEL 1
REMARK VINA RESULT:     -12.0      0.000      0.000
REMARK SMILES CC(C)C[C@H](CNC(=O)Nc1ccccc1Br)C(=O)NCCCCCCNC(=O)c1ccc(-c2c3nc(c(-c4c(F)c(F)c(F)c(F)c4F)c4ccc([nH]4)c(-c4c(F)c(F)c(F)c(F)c4F)c4nc(c(-c5c(F)c(F)c(F)c(F)c5F)c5ccc2[nH]5)C=C4)C=C3)cc1
REMARK SMILES IDX 23 1 22 2 21 3 20 4 18 5 19 6 5 8 4 9 2 10 1 11 3 12 6 13
REMARK SMILES IDX 7 14 8 15 9 17 10 18 11 20 12 21 16 22 13 23 15 24 17 25
REMARK SMILES IDX 14 26 24 27 25 28 26 29 27 30 28 31 29 33 30 34 31 35 92 36
REMARK SMILES IDX 32 37 91 38 33 39 34 40 35 41 85 42 36 43 90 44 84 45 86 46
REMARK SMILES IDX 37 47 89 48 83 49 82 50 38 52 70 53 50 54 69 55 51 56 54 57
REMARK SMILES IDX 68 58 87 59 52 60 53 61 67 63 88 64 55 65 39 66 40 67 48 68
REMARK SMILES IDX 41 69 42 70 46 71 49 72 43 73 44 74 47 75 45 76 71 77 72 78
REMARK SMILES IDX 80 79 73 80 74 81 78 82 81 83 75 84 76 85 79 86 77 87 56 88
REMARK SMILES IDX 57 89 65 90 58 91 59 92 63 93 66 94 60 95 61 96 64 97 62 98
REMARK H PARENT 20 7 7 16 10 19 27 32 86 51 54 62
REMARK Flexibility Score: inf
ROOT
ATOM      1  C   UNL A   1      32.396  30.086  26.182  1.00  0.00     0.002 C 
ENDROOT
BRANCH   1   2
ATOM      2  C   UNL A   1      32.082  28.941  27.148  1.00  0.00     0.021 C 
BRANCH   2   3
ATOM      3  C   UNL A   1      32.397  27.559  26.593  1.00  0.00     0.116 C 
BRANCH   3   4
ATOM      4  N   UNL A   1      31.319  26.622  26.790  1.00  0.00    -0.356 N 
ATOM      5  C   UNL A   1      30.549  25.951  25.902  1.00  0.00     0.224 C 
ATOM      6  O   UNL A   1      29.782  25.104  26.374  1.00  0.00    -0.275 OA
ATOM      7  H   UNL A   1      31.106  26.438  27.734  1.00  0.00     0.163 HD
BRANCH   5   8
ATOM      8  C   UNL A   1      30.568  26.192  24.395  1.00  0.00     0.098 C 
BRANCH   8   9
ATOM      9  C   UNL A   1      29.667  27.317  23.825  1.00  0.00     0.018 C 
BRANCH   9  10
ATOM     10  C   UNL A   1      30.199  28.264  22.736  1.00  0.00    -0.017 C 
ATOM     11  C   UNL A   1      29.457  29.604  22.738  1.00  0.00     0.007 C 
ATOM     12  C   UNL A   1      31.689  28.563  22.960  1.00  0.00     0.007 C 
ENDBRANCH   9  10
ENDBRANCH   8   9
BRANCH   8  13
ATOM     13  C   UNL A   1      30.836  24.965  23.502  1.00  0.00     0.131 C 
BRANCH  13  14
ATOM     14  N   UNL A   1      31.557  25.147  22.253  1.00  0.00    -0.337 N 
ATOM     15  C   UNL A   1      32.754  24.727  21.789  1.00  0.00     0.319 C 
ATOM     16  H   UNL A   1      31.064  25.696  21.602  1.00  0.00     0.165 HD
ATOM     17  O   UNL A   1      33.214  25.282  20.788  1.00  0.00    -0.249 OA
ATOM     18  N   UNL A   1      33.521  23.841  22.457  1.00  0.00    -0.307 N 
ATOM     19  H   UNL A   1      34.488  23.939  22.301  1.00  0.00     0.171 HD
BRANCH  18  20
ATOM     20  C   UNL A   1      33.177  22.803  23.334  1.00  0.00     0.057 A 
ATOM     21  C   UNL A   1      32.511  21.717  22.755  1.00  0.00     0.027 A 
ATOM     22  C   UNL A   1      33.475  22.770  24.706  1.00  0.00     0.041 A 
ATOM     23  C   UNL A   1      32.296  20.549  23.487  1.00  0.00     0.002 A 
ATOM     24  C   UNL A   1      33.246  21.601  25.439  1.00  0.00     0.018 A 
ATOM     25  Br  UNL A   1      34.081  24.289  25.677  1.00  0.00    -0.049 Br
ATOM     26  C   UNL A   1      32.688  20.481  24.821  1.00  0.00     0.001 A 
ENDBRANCH  18  20
ENDBRANCH  13  14
ENDBRANCH   8  13
ENDBRANCH   5   8
ENDBRANCH   3   4
ENDBRANCH   2   3
ENDBRANCH   1   2
BRANCH   1  27
ATOM     27  C   UNL A   1      31.199  30.955  25.771  1.00  0.00     0.002 C 
BRANCH  27  28
ATOM     28  C   UNL A   1      31.113  32.336  26.431  1.00  0.00     0.021 C 
BRANCH  28  29
ATOM     29  C   UNL A   1      32.384  32.808  27.131  1.00  0.00     0.116 C 
BRANCH  29  30
ATOM     30  N   UNL A   1      32.281  34.179  27.594  1.00  0.00    -0.352 N 
ATOM     31  C   UNL A   1      33.001  34.846  28.546  1.00  0.00     0.251 C 
ATOM     32  H   UNL A   1      31.581  34.714  27.154  1.00  0.00     0.163 HD
ATOM     33  O   UNL A   1      32.641  35.965  28.912  1.00  0.00    -0.269 OA
BRANCH  31  34
ATOM     34  C   UNL A   1      34.199  34.233  29.156  1.00  0.00     0.039 A 
ATOM     35  C   UNL A   1      34.022  33.381  30.249  1.00  0.00     0.014 A 
ATOM     36  C   UNL A   1      35.487  34.521  28.694  1.00  0.00     0.014 A 
ATOM     37  C   UNL A   1      35.129  32.786  30.852  1.00  0.00     0.010 A 
ATOM     38  C   UNL A   1      36.588  33.875  29.255  1.00  0.00     0.010 A 
ATOM     39  C   UNL A   1      36.420  33.009  30.344  1.00  0.00    -0.014 A 
BRANCH  39  40
ATOM     40  C   UNL A   1      37.590  32.329  30.950  1.00  0.00     0.031 A 
ATOM     41  C   UNL A   1      38.056  32.692  32.331  1.00  0.00     0.074 A 
ATOM     42  C   UNL A   1      38.249  31.398  30.236  1.00  0.00     0.049 A 
ATOM     43  N   UNL A   1      39.035  32.179  33.034  1.00  0.00    -0.248 NA
ATOM     44  C   UNL A   1      37.345  33.789  33.004  1.00  0.00     0.031 C 
ATOM     45  C   UNL A   1      37.925  31.002  28.865  1.00  0.00     0.029 A 
ATOM     46  N   UNL A   1      39.323  30.611  30.566  1.00  0.00    -0.354 N 
ATOM     47  C   UNL A   1      39.063  32.896  34.222  1.00  0.00     0.074 A 
ATOM     48  C   UNL A   1      38.037  33.912  34.127  1.00  0.00     0.031 C 
ATOM     49  C   UNL A   1      38.757  30.020  28.484  1.00  0.00     0.029 A 
ATOM     50  C   UNL A   1      39.687  29.737  29.572  1.00  0.00     0.049 A 
ATOM     51  H   UNL A   1      39.790  30.670  31.430  1.00  0.00     0.167 HD
ATOM     52  C   UNL A   1      39.860  32.710  35.302  1.00  0.00     0.037 A 
ATOM     53  C   UNL A   1      40.655  28.801  29.549  1.00  0.00     0.037 A 
ATOM     54  C   UNL A   1      40.862  31.681  35.402  1.00  0.00     0.049 A 
ATOM     55  C   UNL A   1      41.514  28.605  30.766  1.00  0.00     0.074 A 
ATOM     56  C   UNL A   1      41.663  31.355  36.482  1.00  0.00     0.029 A 
ATOM     57  N   UNL A   1      41.207  30.814  34.374  1.00  0.00    -0.354 N 
ATOM     58  N   UNL A   1      41.473  29.228  31.918  1.00  0.00    -0.248 NA
ATOM     59  C   UNL A   1      42.551  27.567  30.679  1.00  0.00     0.031 C 
ATOM     60  C   UNL A   1      42.525  30.322  36.094  1.00  0.00     0.029 A 
ATOM     61  C   UNL A   1      42.230  29.973  34.786  1.00  0.00     0.049 A 
ATOM     62  H   UNL A   1      40.787  30.799  33.485  1.00  0.00     0.167 HD
ATOM     63  C   UNL A   1      42.461  28.647  32.700  1.00  0.00     0.074 A 
ATOM     64  C   UNL A   1      43.070  27.606  31.898  1.00  0.00     0.031 C 
ATOM     65  C   UNL A   1      42.832  28.949  33.970  1.00  0.00     0.037 A 
BRANCH  52  66
ATOM     66  C   UNL A   1      39.680  33.643  36.465  1.00  0.00     0.064 A 
ATOM     67  C   UNL A   1      40.315  34.893  36.512  1.00  0.00     0.173 A 
ATOM     68  C   UNL A   1      38.842  33.293  37.535  1.00  0.00     0.173 A 
ATOM     69  F   UNL A   1      41.135  35.272  35.520  1.00  0.00    -0.203 F 
ATOM     70  C   UNL A   1      40.146  35.744  37.601  1.00  0.00     0.198 A 
ATOM     71  C   UNL A   1      38.651  34.159  38.609  1.00  0.00     0.198 A 
ATOM     72  F   UNL A   1      38.205  32.113  37.537  1.00  0.00    -0.203 F 
ATOM     73  F   UNL A   1      40.803  36.911  37.648  1.00  0.00    -0.200 F 
ATOM     74  C   UNL A   1      39.310  35.379  38.645  1.00  0.00     0.200 A 
ATOM     75  F   UNL A   1      37.834  33.810  39.612  1.00  0.00    -0.200 F 
ATOM     76  F   UNL A   1      39.144  36.200  39.692  1.00  0.00    -0.200 F 
ENDBRANCH  52  66
BRANCH  53  77
ATOM     77  C   UNL A   1      40.825  27.946  28.347  1.00  0.00     0.064 A 
ATOM     78  C   UNL A   1      41.625  28.367  27.277  1.00  0.00     0.173 A 
ATOM     79  C   UNL A   1      40.205  26.693  28.247  1.00  0.00     0.173 A 
ATOM     80  F   UNL A   1      42.221  29.567  27.319  1.00  0.00    -0.203 F 
ATOM     81  C   UNL A   1      41.788  27.573  26.144  1.00  0.00     0.198 A 
ATOM     82  C   UNL A   1      40.389  25.888  27.124  1.00  0.00     0.198 A 
ATOM     83  F   UNL A   1      39.433  26.243  29.248  1.00  0.00    -0.203 F 
ATOM     84  F   UNL A   1      42.528  28.016  25.119  1.00  0.00    -0.200 F 
ATOM     85  C   UNL A   1      41.174  26.331  26.071  1.00  0.00     0.200 A 
ATOM     86  F   UNL A   1      39.805  24.683  27.064  1.00  0.00    -0.200 F 
ATOM     87  F   UNL A   1      41.336  25.565  24.985  1.00  0.00    -0.200 F 
ENDBRANCH  53  77
BRANCH  65  88
ATOM     88  C   UNL A   1      43.941  28.132  34.565  1.00  0.00     0.064 A 
ATOM     89  C   UNL A   1      43.688  26.919  35.222  1.00  0.00     0.173 A 
ATOM     90  C   UNL A   1      45.273  28.563  34.468  1.00  0.00     0.173 A 
ATOM     91  F   UNL A   1      42.429  26.474  35.354  1.00  0.00    -0.203 F 
ATOM     92  C   UNL A   1      44.724  26.183  35.790  1.00  0.00     0.198 A 
ATOM     93  C   UNL A   1      46.309  27.810  35.013  1.00  0.00     0.198 A 
ATOM     94  F   UNL A   1      45.570  29.713  33.845  1.00  0.00    -0.203 F 
ATOM     95  F   UNL A   1      44.452  25.057  36.463  1.00  0.00    -0.200 F 
ATOM     96  C   UNL A   1      46.034  26.626  35.682  1.00  0.00     0.200 A 
ATOM     97  F   UNL A   1      47.576  28.233  34.897  1.00  0.00    -0.200 F 
ATOM     98  F   UNL A   1      47.029  25.917  36.232  1.00  0.00    -0.200 F 
ENDBRANCH  65  88
ENDBRANCH  39  40
ENDBRANCH  31  34
ENDBRANCH  29  30
ENDBRANCH  28  29
ENDBRANCH  27  28
ENDBRANCH   1  27
TORSDOF 18
ENDMDL
MODEL 2
REMARK VINA RESULT:     -11.7      5.518     10.004
REMARK SMILES CC(C)C[C@H](CNC(=O)Nc1ccccc1Br)C(=O)NCCCCCCNC(=O)c1ccc(-c2c3nc(c(-c4c(F)c(F)c(F)c(F)c4F)c4ccc([nH]4)c(-c4c(F)c(F)c(F)c(F)c4F)c4nc(c(-c5c(F)c(F)c(F)c(F)c5F)c5ccc2[nH]5)C=C4)C=C3)cc1
REMARK SMILES IDX 23 1 22 2 21 3 20 4 18 5 19 6 5 8 4 9 2 10 1 11 3 12 6 13
REMARK SMILES IDX 7 14 8 15 9 17 10 18 11 20 12 21 16 22 13 23 15 24 17 25
REMARK SMILES IDX 14 26 24 27 25 28 26 29 27 30 28 31 29 33 30 34 31 35 92 36
REMARK SMILES IDX 32 37 91 38 33 39 34 40 35 41 85 42 36 43 90 44 84 45 86 46
REMARK SMILES IDX 37 47 89 48 83 49 82 50 38 52 70 53 50 54 69 55 51 56 54 57
REMARK SMILES IDX 68 58 87 59 52 60 53 61 67 63 88 64 55 65 39 66 40 67 48 68
REMARK SMILES IDX 41 69 42 70 46 71 49 72 43 73 44 74 47 75 45 76 71 77 72 78
REMARK SMILES IDX 80 79 73 80 74 81 78 82 81 83 75 84 76 85 79 86 77 87 56 88
REMARK SMILES IDX 57 89 65 90 58 91 59 92 63 93 66 94 60 95 61 96 64 97 62 98
REMARK H PARENT 20 7 7 16 10 19 27 32 86 51 54 62
REMARK Flexibility Score: inf
ROOT
ATOM      1  C   UNL A   1      37.618  21.619  25.054  1.00  0.00     0.002 C 
ENDROOT
BRANCH   1   2
ATOM      2  C   UNL A   1      36.773  22.651  24.304  1.00  0.00     0.021 C 
BRANCH   2   3
ATOM      3  C   UNL A   1      35.947  23.551  25.212  1.00  0.00     0.116 C 
BRANCH   3   4
ATOM      4  N   UNL A   1      35.498  22.874  26.404  1.00  0.00    -0.356 N 
ATOM      5  C   UNL A   1      34.491  21.991  26.599  1.00  0.00     0.224 C 
ATOM      6  O   UNL A   1      34.429  21.471  27.719  1.00  0.00    -0.275 OA
ATOM      7  H   UNL A   1      36.012  23.091  27.215  1.00  0.00     0.163 HD
BRANCH   5   8
ATOM      8  C   UNL A   1      33.450  21.627  25.544  1.00  0.00     0.098 C 
BRANCH   8   9
ATOM      9  C   UNL A   1      33.848  20.605  24.449  1.00  0.00     0.018 C 
BRANCH   9  10
ATOM     10  C   UNL A   1      33.222  19.200  24.431  1.00  0.00    -0.017 C 
ATOM     11  C   UNL A   1      32.291  19.010  23.229  1.00  0.00     0.007 C 
ATOM     12  C   UNL A   1      34.313  18.122  24.342  1.00  0.00     0.007 C 
ENDBRANCH   9  10
ENDBRANCH   8   9
BRANCH   8  13
ATOM     13  C   UNL A   1      32.434  22.723  25.167  1.00  0.00     0.131 C 
BRANCH  13  14
ATOM     14  N   UNL A   1      31.180  22.803  25.897  1.00  0.00    -0.337 N 
ATOM     15  C   UNL A   1      30.575  23.767  26.623  1.00  0.00     0.319 C 
ATOM     16  H   UNL A   1      30.656  21.971  25.851  1.00  0.00     0.165 HD
ATOM     17  O   UNL A   1      29.641  23.438  27.358  1.00  0.00    -0.249 OA
ATOM     18  N   UNL A   1      31.045  25.029  26.688  1.00  0.00    -0.307 N 
ATOM     19  H   UNL A   1      30.839  25.500  27.528  1.00  0.00     0.171 HD
BRANCH  18  20
ATOM     20  C   UNL A   1      31.776  25.788  25.763  1.00  0.00     0.057 A 
ATOM     21  C   UNL A   1      33.108  26.045  26.108  1.00  0.00     0.027 A 
ATOM     22  C   UNL A   1      31.284  26.265  24.537  1.00  0.00     0.041 A 
ATOM     23  C   UNL A   1      33.980  26.618  25.182  1.00  0.00     0.002 A 
ATOM     24  C   UNL A   1      32.159  26.850  23.616  1.00  0.00     0.018 A 
ATOM     25  Br  UNL A   1      29.436  26.267  24.087  1.00  0.00    -0.049 Br
ATOM     26  C   UNL A   1      33.512  26.995  23.926  1.00  0.00     0.001 A 
ENDBRANCH  18  20
ENDBRANCH  13  14
ENDBRANCH   8  13
ENDBRANCH   5   8
ENDBRANCH   3   4
ENDBRANCH   2   3
ENDBRANCH   1   2
BRANCH   1  27
ATOM     27  C   UNL A   1      37.371  20.153  24.672  1.00  0.00     0.002 C 
BRANCH  27  28
ATOM     28  C   UNL A   1      38.371  19.135  25.229  1.00  0.00     0.021 C 
BRANCH  28  29
ATOM     29  C   UNL A   1      39.547  19.727  26.000  1.00  0.00     0.116 C 
BRANCH  29  30
ATOM     30  N   UNL A   1      40.709  18.857  25.987  1.00  0.00    -0.352 N 
ATOM     31  C   UNL A   1      42.040  19.162  26.043  1.00  0.00     0.251 C 
ATOM     32  H   UNL A   1      40.506  17.896  25.926  1.00  0.00     0.163 HD
ATOM     33  O   UNL A   1      42.877  18.281  25.845  1.00  0.00    -0.269 OA
BRANCH  31  34
ATOM     34  C   UNL A   1      42.489  20.542  26.321  1.00  0.00     0.039 A 
ATOM     35  C   UNL A   1      42.801  21.367  25.237  1.00  0.00     0.014 A 
ATOM     36  C   UNL A   1      42.648  21.013  27.628  1.00  0.00     0.014 A 
ATOM     37  C   UNL A   1      43.231  22.674  25.461  1.00  0.00     0.010 A 
ATOM     38  C   UNL A   1      43.014  22.340  27.850  1.00  0.00     0.010 A 
ATOM     39  C   UNL A   1      43.317  23.179  26.769  1.00  0.00    -0.014 A 
BRANCH  39  40
ATOM     40  C   UNL A   1      43.718  24.588  27.002  1.00  0.00     0.031 A 
ATOM     41  C   UNL A   1      42.721  25.595  27.498  1.00  0.00     0.074 A 
ATOM     42  C   UNL A   1      44.983  24.961  26.737  1.00  0.00     0.049 A 
ATOM     43  N   UNL A   1      42.900  26.859  27.793  1.00  0.00    -0.248 NA
ATOM     44  C   UNL A   1      41.336  25.131  27.665  1.00  0.00     0.031 C 
ATOM     45  C   UNL A   1      46.025  24.086  26.198  1.00  0.00     0.029 A 
ATOM     46  N   UNL A   1      45.610  26.172  26.892  1.00  0.00    -0.354 N 
ATOM     47  C   UNL A   1      41.652  27.340  28.168  1.00  0.00     0.074 A 
ATOM     48  C   UNL A   1      40.716  26.248  28.017  1.00  0.00     0.031 C 
ATOM     49  C   UNL A   1      47.172  24.777  26.104  1.00  0.00     0.029 A 
ATOM     50  C   UNL A   1      46.939  26.147  26.550  1.00  0.00     0.049 A 
ATOM     51  H   UNL A   1      45.152  26.980  27.215  1.00  0.00     0.167 HD
ATOM     52  C   UNL A   1      41.324  28.576  28.617  1.00  0.00     0.037 A 
ATOM     53  C   UNL A   1      47.869  27.119  26.602  1.00  0.00     0.037 A 
ATOM     54  C   UNL A   1      42.265  29.652  28.789  1.00  0.00     0.049 A 
ATOM     55  C   UNL A   1      47.481  28.477  27.118  1.00  0.00     0.074 A 
ATOM     56  C   UNL A   1      42.051  30.913  29.315  1.00  0.00     0.029 A 
ATOM     57  N   UNL A   1      43.604  29.593  28.428  1.00  0.00    -0.354 N 
ATOM     58  N   UNL A   1      46.320  28.896  27.557  1.00  0.00    -0.248 NA
ATOM     59  C   UNL A   1      48.541  29.494  27.155  1.00  0.00     0.031 C 
ATOM     60  C   UNL A   1      43.248  31.634  29.230  1.00  0.00     0.029 A 
ATOM     61  C   UNL A   1      44.221  30.807  28.693  1.00  0.00     0.049 A 
ATOM     62  H   UNL A   1      44.051  28.807  28.041  1.00  0.00     0.167 HD
ATOM     63  C   UNL A   1      46.510  30.216  27.938  1.00  0.00     0.074 A 
ATOM     64  C   UNL A   1      47.906  30.521  27.701  1.00  0.00     0.031 C 
ATOM     65  C   UNL A   1      45.609  31.097  28.440  1.00  0.00     0.037 A 
BRANCH  52  66
ATOM     66  C   UNL A   1      39.882  28.830  28.951  1.00  0.00     0.064 A 
ATOM     67  C   UNL A   1      39.378  28.623  30.244  1.00  0.00     0.173 A 
ATOM     68  C   UNL A   1      38.999  29.310  27.971  1.00  0.00     0.173 A 
ATOM     69  F   UNL A   1      40.178  28.156  31.214  1.00  0.00    -0.203 F 
ATOM     70  C   UNL A   1      38.036  28.855  30.536  1.00  0.00     0.198 A 
ATOM     71  C   UNL A   1      37.665  29.569  28.274  1.00  0.00     0.198 A 
ATOM     72  F   UNL A   1      39.431  29.531  26.721  1.00  0.00    -0.203 F 
ATOM     73  F   UNL A   1      37.565  28.602  31.765  1.00  0.00    -0.200 F 
ATOM     74  C   UNL A   1      37.183  29.333  29.553  1.00  0.00     0.200 A 
ATOM     75  F   UNL A   1      36.844  30.041  27.327  1.00  0.00    -0.200 F 
ATOM     76  F   UNL A   1      35.892  29.559  29.836  1.00  0.00    -0.200 F 
ENDBRANCH  52  66
BRANCH  53  77
ATOM     77  C   UNL A   1      49.268  26.825  26.202  1.00  0.00     0.064 A 
ATOM     78  C   UNL A   1      50.179  26.291  27.124  1.00  0.00     0.173 A 
ATOM     79  C   UNL A   1      49.720  27.058  24.896  1.00  0.00     0.173 A 
ATOM     80  F   UNL A   1      49.796  26.071  28.390  1.00  0.00    -0.203 F 
ATOM     81  C   UNL A   1      51.494  26.014  26.759  1.00  0.00     0.198 A 
ATOM     82  C   UNL A   1      51.029  26.757  24.525  1.00  0.00     0.198 A 
ATOM     83  F   UNL A   1      48.885  27.562  23.975  1.00  0.00    -0.203 F 
ATOM     84  F   UNL A   1      52.354  25.540  27.670  1.00  0.00    -0.200 F 
ATOM     85  C   UNL A   1      51.917  26.242  25.458  1.00  0.00     0.200 A 
ATOM     86  F   UNL A   1      51.430  26.965  23.263  1.00  0.00    -0.200 F 
ATOM     87  F   UNL A   1      53.180  25.970  25.105  1.00  0.00    -0.200 F 
ENDBRANCH  53  77
BRANCH  65  88
ATOM     88  C   UNL A   1      46.117  32.470  28.773  1.00  0.00     0.064 A 
ATOM     89  C   UNL A   1      46.076  33.514  27.837  1.00  0.00     0.173 A 
ATOM     90  C   UNL A   1      46.641  32.746  30.045  1.00  0.00     0.173 A 
ATOM     91  F   UNL A   1      45.600  33.294  26.602  1.00  0.00    -0.203 F 
ATOM     92  C   UNL A   1      46.573  34.776  28.151  1.00  0.00     0.198 A 
ATOM     93  C   UNL A   1      47.110  34.017  30.364  1.00  0.00     0.198 A 
ATOM     94  F   UNL A   1      46.697  31.784  30.978  1.00  0.00    -0.203 F 
ATOM     95  F   UNL A   1      46.577  35.741  27.222  1.00  0.00    -0.200 F 
ATOM     96  C   UNL A   1      47.085  35.028  29.415  1.00  0.00     0.200 A 
ATOM     97  F   UNL A   1      47.594  34.263  31.590  1.00  0.00    -0.200 F 
ATOM     98  F   UNL A   1      47.565  36.243  29.714  1.00  0.00    -0.200 F 
ENDBRANCH  65  88
ENDBRANCH  39  40
ENDBRANCH  31  34
ENDBRANCH  29  30
ENDBRANCH  28  29
ENDBRANCH  27  28
ENDBRANCH   1  27
TORSDOF 18
ENDMDL
MODEL 3
REMARK VINA RESULT:     -11.7      0.632      7.306
REMARK SMILES CC(C)C[C@H](CNC(=O)Nc1ccccc1Br)C(=O)NCCCCCCNC(=O)c1ccc(-c2c3nc(c(-c4c(F)c(F)c(F)c(F)c4F)c4ccc([nH]4)c(-c4c(F)c(F)c(F)c(F)c4F)c4nc(c(-c5c(F)c(F)c(F)c(F)c5F)c5ccc2[nH]5)C=C4)C=C3)cc1
REMARK SMILES IDX 23 1 22 2 21 3 20 4 18 5 19 6 5 8 4 9 2 10 1 11 3 12 6 13
REMARK SMILES IDX 7 14 8 15 9 17 10 18 11 20 12 21 16 22 13 23 15 24 17 25
REMARK SMILES IDX 14 26 24 27 25 28 26 29 27 30 28 31 29 33 30 34 31 35 92 36
REMARK SMILES IDX 32 37 91 38 33 39 34 40 35 41 85 42 36 43 90 44 84 45 86 46
REMARK SMILES IDX 37 47 89 48 83 49 82 50 38 52 70 53 50 54 69 55 51 56 54 57
REMARK SMILES IDX 68 58 87 59 52 60 53 61 67 63 88 64 55 65 39 66 40 67 48 68
REMARK SMILES IDX 41 69 42 70 46 71 49 72 43 73 44 74 47 75 45 76 71 77 72 78
REMARK SMILES IDX 80 79 73 80 74 81 78 82 81 83 75 84 76 85 79 86 77 87 56 88
REMARK SMILES IDX 57 89 65 90 58 91 59 92 63 93 66 94 60 95 61 96 64 97 62 98
REMARK H PARENT 20 7 7 16 10 19 27 32 86 51 54 62
REMARK Flexibility Score: inf
ROOT
ATOM      1  C   UNL A   1      31.860  29.729  27.030  1.00  0.00     0.002 C 
ENDROOT
BRANCH   1   2
ATOM      2  C   UNL A   1      33.206  29.066  26.726  1.00  0.00     0.021 C 
BRANCH   2   3
ATOM      3  C   UNL A   1      33.086  27.709  26.045  1.00  0.00     0.116 C 
BRANCH   3   4
ATOM      4  N   UNL A   1      31.948  26.954  26.509  1.00  0.00    -0.356 N 
ATOM      5  C   UNL A   1      30.956  26.333  25.830  1.00  0.00     0.224 C 
ATOM      6  O   UNL A   1      30.182  25.643  26.504  1.00  0.00    -0.275 OA
ATOM      7  H   UNL A   1      31.882  26.877  27.489  1.00  0.00     0.163 HD
BRANCH   5   8
ATOM      8  C   UNL A   1      30.743  26.449  24.323  1.00  0.00     0.098 C 
BRANCH   8   9
ATOM      9  C   UNL A   1      29.620  27.390  23.817  1.00  0.00     0.018 C 
BRANCH   9  10
ATOM     10  C   UNL A   1      29.945  28.831  23.390  1.00  0.00    -0.017 C 
ATOM     11  C   UNL A   1      31.336  28.934  22.757  1.00  0.00     0.007 C 
ATOM     12  C   UNL A   1      28.930  29.331  22.352  1.00  0.00     0.007 C 
ENDBRANCH   9  10
ENDBRANCH   8   9
BRANCH   8  13
ATOM     13  C   UNL A   1      31.069  25.202  23.480  1.00  0.00     0.131 C 
BRANCH  13  14
ATOM     14  N   UNL A   1      31.714  25.373  22.189  1.00  0.00    -0.337 N 
ATOM     15  C   UNL A   1      32.842  24.886  21.630  1.00  0.00     0.319 C 
ATOM     16  H   UNL A   1      31.218  25.976  21.589  1.00  0.00     0.165 HD
ATOM     17  O   UNL A   1      33.271  25.439  20.615  1.00  0.00    -0.249 OA
ATOM     18  N   UNL A   1      33.587  23.927  22.217  1.00  0.00    -0.307 N 
ATOM     19  H   UNL A   1      34.546  23.962  21.996  1.00  0.00     0.171 HD
BRANCH  18  20
ATOM     20  C   UNL A   1      33.230  22.887  23.087  1.00  0.00     0.057 A 
ATOM     21  C   UNL A   1      32.426  21.884  22.535  1.00  0.00     0.027 A 
ATOM     22  C   UNL A   1      33.638  22.775  24.426  1.00  0.00     0.041 A 
ATOM     23  C   UNL A   1      32.173  20.710  23.245  1.00  0.00     0.002 A 
ATOM     24  C   UNL A   1      33.372  21.602  25.139  1.00  0.00     0.018 A 
ATOM     25  Br  UNL A   1      34.453  24.199  25.389  1.00  0.00    -0.049 Br
ATOM     26  C   UNL A   1      32.669  20.558  24.536  1.00  0.00     0.001 A 
ENDBRANCH  18  20
ENDBRANCH  13  14
ENDBRANCH   8  13
ENDBRANCH   5   8
ENDBRANCH   3   4
ENDBRANCH   2   3
ENDBRANCH   1   2
BRANCH   1  27
ATOM     27  C   UNL A   1      31.404  30.797  26.025  1.00  0.00     0.002 C 
BRANCH  27  28
ATOM     28  C   UNL A   1      31.315  32.229  26.560  1.00  0.00     0.021 C 
BRANCH  28  29
ATOM     29  C   UNL A   1      32.614  32.800  27.123  1.00  0.00     0.116 C 
BRANCH  29  30
ATOM     30  N   UNL A   1      32.451  34.154  27.621  1.00  0.00    -0.352 N 
ATOM     31  C   UNL A   1      33.072  34.794  28.656  1.00  0.00     0.251 C 
ATOM     32  H   UNL A   1      31.787  34.696  27.137  1.00  0.00     0.163 HD
ATOM     33  O   UNL A   1      32.665  35.895  29.026  1.00  0.00    -0.269 OA
BRANCH  31  34
ATOM     34  C   UNL A   1      34.217  34.171  29.353  1.00  0.00     0.039 A 
ATOM     35  C   UNL A   1      33.951  33.282  30.398  1.00  0.00     0.014 A 
ATOM     36  C   UNL A   1      35.538  34.486  29.020  1.00  0.00     0.014 A 
ATOM     37  C   UNL A   1      35.007  32.677  31.080  1.00  0.00     0.010 A 
ATOM     38  C   UNL A   1      36.591  33.832  29.658  1.00  0.00     0.010 A 
ATOM     39  C   UNL A   1      36.335  32.928  30.699  1.00  0.00    -0.014 A 
BRANCH  39  40
ATOM     40  C   UNL A   1      37.454  32.239  31.387  1.00  0.00     0.031 A 
ATOM     41  C   UNL A   1      38.188  31.114  30.717  1.00  0.00     0.074 A 
ATOM     42  C   UNL A   1      37.787  32.618  32.635  1.00  0.00     0.049 A 
ATOM     43  N   UNL A   1      39.212  30.422  31.150  1.00  0.00    -0.248 NA
ATOM     44  C   UNL A   1      37.696  30.695  29.396  1.00  0.00     0.031 C 
ATOM     45  C   UNL A   1      37.111  33.658  33.410  1.00  0.00     0.029 A 
ATOM     46  N   UNL A   1      38.783  32.175  33.468  1.00  0.00    -0.354 N 
ATOM     47  C   UNL A   1      39.478  29.482  30.163  1.00  0.00     0.074 A 
ATOM     48  C   UNL A   1      38.479  29.659  29.132  1.00  0.00     0.031 C 
ATOM     49  C   UNL A   1      37.735  33.802  34.589  1.00  0.00     0.029 A 
ATOM     50  C   UNL A   1      38.836  32.848  34.663  1.00  0.00     0.049 A 
ATOM     51  H   UNL A   1      39.400  31.445  33.232  1.00  0.00     0.167 HD
ATOM     52  C   UNL A   1      40.477  28.569  30.114  1.00  0.00     0.037 A 
ATOM     53  C   UNL A   1      39.687  32.716  35.698  1.00  0.00     0.037 A 
ATOM     54  C   UNL A   1      41.484  28.414  31.132  1.00  0.00     0.049 A 
ATOM     55  C   UNL A   1      40.796  31.705  35.611  1.00  0.00     0.074 A 
ATOM     56  C   UNL A   1      42.586  27.577  31.138  1.00  0.00     0.029 A 
ATOM     57  N   UNL A   1      41.504  29.110  32.332  1.00  0.00    -0.354 N 
ATOM     58  N   UNL A   1      41.094  30.884  34.635  1.00  0.00    -0.248 NA
ATOM     59  C   UNL A   1      41.693  31.612  36.771  1.00  0.00     0.031 C 
ATOM     60  C   UNL A   1      43.248  27.732  32.362  1.00  0.00     0.029 A 
ATOM     61  C   UNL A   1      42.584  28.699  33.100  1.00  0.00     0.049 A 
ATOM     62  H   UNL A   1      40.849  29.793  32.600  1.00  0.00     0.167 HD
ATOM     63  C   UNL A   1      42.221  30.190  35.051  1.00  0.00     0.074 A 
ATOM     64  C   UNL A   1      42.567  30.704  36.360  1.00  0.00     0.031 C 
ATOM     65  C   UNL A   1      42.908  29.214  34.406  1.00  0.00     0.037 A 
BRANCH  52  66
ATOM     66  C   UNL A   1      40.528  27.662  28.918  1.00  0.00     0.064 A 
ATOM     67  C   UNL A   1      39.774  26.481  28.856  1.00  0.00     0.173 A 
ATOM     68  C   UNL A   1      41.324  27.990  27.810  1.00  0.00     0.173 A 
ATOM     69  F   UNL A   1      39.005  26.115  29.892  1.00  0.00    -0.203 F 
ATOM     70  C   UNL A   1      39.839  25.645  27.743  1.00  0.00     0.198 A 
ATOM     71  C   UNL A   1      41.365  27.168  26.686  1.00  0.00     0.198 A 
ATOM     72  F   UNL A   1      42.061  29.112  27.815  1.00  0.00    -0.203 F 
ATOM     73  F   UNL A   1      39.149  24.496  27.727  1.00  0.00    -0.200 F 
ATOM     74  C   UNL A   1      40.629  25.992  26.658  1.00  0.00     0.200 A 
ATOM     75  F   UNL A   1      42.120  27.510  25.634  1.00  0.00    -0.200 F 
ATOM     76  F   UNL A   1      40.689  25.190  25.586  1.00  0.00    -0.200 F 
ENDBRANCH  52  66
BRANCH  53  77
ATOM     77  C   UNL A   1      39.551  33.602  36.882  1.00  0.00     0.064 A 
ATOM     78  C   UNL A   1      40.216  34.834  36.933  1.00  0.00     0.173 A 
ATOM     79  C   UNL A   1      38.751  33.244  37.976  1.00  0.00     0.173 A 
ATOM     80  F   UNL A   1      41.008  35.209  35.919  1.00  0.00    -0.203 F 
ATOM     81  C   UNL A   1      40.097  35.671  38.040  1.00  0.00     0.198 A 
ATOM     82  C   UNL A   1      38.613  34.093  39.073  1.00  0.00     0.198 A 
ATOM     83  F   UNL A   1      38.090  32.077  37.972  1.00  0.00    -0.203 F 
ATOM     84  F   UNL A   1      40.773  36.826  38.080  1.00  0.00    -0.200 F 
ATOM     85  C   UNL A   1      39.291  35.302  39.107  1.00  0.00     0.200 A 
ATOM     86  F   UNL A   1      37.821  33.739  40.095  1.00  0.00    -0.200 F 
ATOM     87  F   UNL A   1      39.171  36.109  40.169  1.00  0.00    -0.200 F 
ENDBRANCH  53  77
BRANCH  65  88
ATOM     88  C   UNL A   1      44.107  28.650  35.111  1.00  0.00     0.064 A 
ATOM     89  C   UNL A   1      45.390  29.179  34.912  1.00  0.00     0.173 A 
ATOM     90  C   UNL A   1      43.969  27.576  36.003  1.00  0.00     0.173 A 
ATOM     91  F   UNL A   1      45.576  30.196  34.056  1.00  0.00    -0.203 F 
ATOM     92  C   UNL A   1      46.498  28.632  35.554  1.00  0.00     0.198 A 
ATOM     93  C   UNL A   1      45.075  27.050  36.665  1.00  0.00     0.198 A 
ATOM     94  F   UNL A   1      42.762  27.037  36.233  1.00  0.00    -0.203 F 
ATOM     95  F   UNL A   1      47.722  29.116  35.303  1.00  0.00    -0.200 F 
ATOM     96  C   UNL A   1      46.339  27.571  36.433  1.00  0.00     0.200 A 
ATOM     97  F   UNL A   1      44.918  26.032  37.523  1.00  0.00    -0.200 F 
ATOM     98  F   UNL A   1      47.406  27.044  37.048  1.00  0.00    -0.200 F 
ENDBRANCH  65  88
ENDBRANCH  39  40
ENDBRANCH  31  34
ENDBRANCH  29  30
ENDBRANCH  28  29
ENDBRANCH  27  28
ENDBRANCH   1  27
TORSDOF 18
ENDMDL
