MODEL 1
REMARK VINA RESULT:     -12.0      0.000      0.000
REMARK SMILES Cc1nn(-c2cc(Cl)ccc2Cl)nc1C(=O)NCCCCCCNC(=O)c1ccc(-c2c3nc(c(-c4c(F)c(F)c(F)c(F)c4F)c4ccc([nH]4)c(-c4c(F)c(F)c(F)c(F)c4F)c4nc(c(-c5c(F)c(F)c(F)c(F)c5F)c5ccc2[nH]5)C=C4)C=C3)cc1
REMARK SMILES IDX 21 1 20 2 19 3 18 4 17 5 15 6 16 7 14 9 1 10 2 11 3 12 4 13
REMARK SMILES IDX 13 14 5 15 6 16 11 17 7 18 10 19 12 20 8 21 9 22 22 23 23 24
REMARK SMILES IDX 24 25 25 26 26 28 27 29 28 30 89 31 29 32 88 33 30 34 31 35
REMARK SMILES IDX 32 36 82 37 33 38 87 39 81 40 83 41 34 42 86 43 80 44 79 45
REMARK SMILES IDX 35 47 67 48 47 49 66 50 48 51 51 52 65 53 84 54 49 55 50 56
REMARK SMILES IDX 64 58 85 59 52 60 36 61 37 62 45 63 38 64 39 65 43 66 46 67
REMARK SMILES IDX 40 68 41 69 44 70 42 71 68 72 69 73 77 74 70 75 71 76 75 77
REMARK SMILES IDX 78 78 72 79 73 80 76 81 74 82 53 83 54 84 62 85 55 86 56 87
REMARK SMILES IDX 60 88 63 89 57 90 58 91 61 92 59 93
REMARK H PARENT 17 8 24 27 83 46 51 57
REMARK Flexibility Score: inf
ROOT
ATOM      1  C   UNL A   1      40.836  21.238  27.570  1.00  0.00     0.002 C 
ENDROOT
BRANCH   1   2
ATOM      2  C   UNL A   1      40.518  22.310  26.510  1.00  0.00     0.002 C 
BRANCH   2   3
ATOM      3  C   UNL A   1      39.062  22.795  26.485  1.00  0.00     0.021 C 
BRANCH   3   4
ATOM      4  C   UNL A   1      38.119  21.817  25.783  1.00  0.00     0.116 C 
BRANCH   4   5
ATOM      5  N   UNL A   1      37.710  22.353  24.514  1.00  0.00    -0.351 N 
ATOM      6  C   UNL A   1      36.565  22.946  24.060  1.00  0.00     0.273 C 
ATOM      7  O   UNL A   1      36.587  23.193  22.848  1.00  0.00    -0.267 OA
ATOM      8  H   UNL A   1      38.407  22.277  23.822  1.00  0.00     0.163 HD
BRANCH   6   9
ATOM      9  C   UNL A   1      35.421  23.354  24.901  1.00  0.00     0.173 A 
ATOM     10  C   UNL A   1      34.666  21.550  26.742  1.00  0.00     0.071 C 
ATOM     11  C   UNL A   1      34.698  22.846  26.026  1.00  0.00     0.093 A 
ATOM     12  N   UNL A   1      33.851  23.782  26.479  1.00  0.00    -0.153 NA
ATOM     13  N   UNL A   1      33.977  24.759  25.567  1.00  0.00    -0.149 N 
ATOM     14  N   UNL A   1      34.814  24.511  24.552  1.00  0.00    -0.143 NA
BRANCH  13  15
ATOM     15  C   UNL A   1      33.159  25.901  25.566  1.00  0.00     0.106 A 
ATOM     16  C   UNL A   1      33.731  27.116  25.988  1.00  0.00     0.052 A 
ATOM     17  C   UNL A   1      31.819  25.847  25.167  1.00  0.00     0.068 A 
ATOM     18  C   UNL A   1      32.968  28.278  25.964  1.00  0.00     0.043 A 
ATOM     19  C   UNL A   1      31.054  27.019  25.194  1.00  0.00     0.024 A 
ATOM     20  Cl  UNL A   1      30.987  24.381  24.784  1.00  0.00    -0.082 Cl
ATOM     21  Cl  UNL A   1      33.684  29.780  26.398  1.00  0.00    -0.084 Cl
ATOM     22  C   UNL A   1      31.630  28.233  25.578  1.00  0.00     0.022 A 
ENDBRANCH  13  15
ENDBRANCH   6   9
ENDBRANCH   4   5
ENDBRANCH   3   4
ENDBRANCH   2   3
ENDBRANCH   1   2
BRANCH   1  23
ATOM     23  C   UNL A   1      41.955  20.245  27.215  1.00  0.00     0.021 C 
BRANCH  23  24
ATOM     24  C   UNL A   1      42.109  20.042  25.721  1.00  0.00     0.116 C 
BRANCH  24  25
ATOM     25  N   UNL A   1      43.511  19.841  25.323  1.00  0.00    -0.352 N 
ATOM     26  C   UNL A   1      44.473  20.785  24.988  1.00  0.00     0.251 C 
ATOM     27  H   UNL A   1      43.810  18.903  25.288  1.00  0.00     0.163 HD
ATOM     28  O   UNL A   1      45.475  20.490  24.369  1.00  0.00    -0.269 OA
BRANCH  26  29
ATOM     29  C   UNL A   1      44.248  22.168  25.438  1.00  0.00     0.039 A 
ATOM     30  C   UNL A   1      43.508  23.113  24.721  1.00  0.00     0.014 A 
ATOM     31  C   UNL A   1      44.771  22.472  26.682  1.00  0.00     0.014 A 
ATOM     32  C   UNL A   1      43.286  24.356  25.313  1.00  0.00     0.010 A 
ATOM     33  C   UNL A   1      44.237  23.504  27.377  1.00  0.00     0.010 A 
ATOM     34  C   UNL A   1      43.671  24.532  26.648  1.00  0.00    -0.014 A 
BRANCH  34  35
ATOM     35  C   UNL A   1      43.537  25.772  27.386  1.00  0.00     0.031 A 
ATOM     36  C   UNL A   1      44.508  26.822  27.019  1.00  0.00     0.074 A 
ATOM     37  C   UNL A   1      42.423  26.017  28.115  1.00  0.00     0.049 A 
ATOM     38  N   UNL A   1      45.431  27.329  27.764  1.00  0.00    -0.248 NA
ATOM     39  C   UNL A   1      44.545  27.277  25.622  1.00  0.00     0.031 C 
ATOM     40  C   UNL A   1      41.223  25.181  28.302  1.00  0.00     0.029 A 
ATOM     41  N   UNL A   1      42.090  27.149  28.783  1.00  0.00    -0.354 N 
ATOM     42  C   UNL A   1      46.056  28.299  26.990  1.00  0.00     0.074 A 
ATOM     43  C   UNL A   1      45.599  28.096  25.639  1.00  0.00     0.031 C 
ATOM     44  C   UNL A   1      40.228  25.918  28.846  1.00  0.00     0.029 A 
ATOM     45  C   UNL A   1      40.767  27.214  29.202  1.00  0.00     0.049 A 
ATOM     46  H   UNL A   1      42.737  27.871  28.957  1.00  0.00     0.167 HD
ATOM     47  C   UNL A   1      46.719  29.337  27.571  1.00  0.00     0.037 A 
ATOM     48  C   UNL A   1      40.167  28.283  29.781  1.00  0.00     0.037 A 
ATOM     49  C   UNL A   1      46.960  29.080  28.969  1.00  0.00     0.049 A 
ATOM     50  C   UNL A   1      41.258  29.132  30.332  1.00  0.00     0.074 A 
ATOM     51  C   UNL A   1      47.675  28.122  29.663  1.00  0.00     0.029 A 
ATOM     52  N   UNL A   1      46.088  29.624  29.883  1.00  0.00    -0.354 N 
ATOM     53  N   UNL A   1      42.039  28.745  31.307  1.00  0.00    -0.248 NA
ATOM     54  C   UNL A   1      41.806  30.166  29.466  1.00  0.00     0.031 C 
ATOM     55  C   UNL A   1      46.857  27.798  30.788  1.00  0.00     0.029 A 
ATOM     56  C   UNL A   1      45.734  28.625  30.756  1.00  0.00     0.049 A 
ATOM     57  H   UNL A   1      45.777  30.557  29.907  1.00  0.00     0.167 HD
ATOM     58  C   UNL A   1      43.308  29.175  30.943  1.00  0.00     0.074 A 
ATOM     59  C   UNL A   1      43.092  30.100  29.829  1.00  0.00     0.031 C 
ATOM     60  C   UNL A   1      44.428  28.519  31.369  1.00  0.00     0.037 A 
BRANCH  47  61
ATOM     61  C   UNL A   1      46.838  30.716  26.979  1.00  0.00     0.064 A 
ATOM     62  C   UNL A   1      48.099  31.343  26.956  1.00  0.00     0.173 A 
ATOM     63  C   UNL A   1      45.735  31.553  26.705  1.00  0.00     0.173 A 
ATOM     64  F   UNL A   1      49.214  30.644  27.212  1.00  0.00    -0.203 F 
ATOM     65  C   UNL A   1      48.234  32.719  26.757  1.00  0.00     0.198 A 
ATOM     66  C   UNL A   1      45.879  32.915  26.452  1.00  0.00     0.198 A 
ATOM     67  F   UNL A   1      44.471  31.119  26.783  1.00  0.00    -0.203 F 
ATOM     68  F   UNL A   1      49.440  33.293  26.870  1.00  0.00    -0.200 F 
ATOM     69  C   UNL A   1      47.122  33.505  26.512  1.00  0.00     0.200 A 
ATOM     70  F   UNL A   1      44.787  33.662  26.233  1.00  0.00    -0.200 F 
ATOM     71  F   UNL A   1      47.241  34.833  26.386  1.00  0.00    -0.200 F 
ENDBRANCH  47  61
BRANCH  48  72
ATOM     72  C   UNL A   1      38.778  28.757  29.575  1.00  0.00     0.064 A 
ATOM     73  C   UNL A   1      37.929  29.047  30.654  1.00  0.00     0.173 A 
ATOM     74  C   UNL A   1      38.340  29.189  28.305  1.00  0.00     0.173 A 
ATOM     75  F   UNL A   1      38.292  28.716  31.902  1.00  0.00    -0.203 F 
ATOM     76  C   UNL A   1      36.723  29.737  30.476  1.00  0.00     0.198 A 
ATOM     77  C   UNL A   1      37.136  29.874  28.128  1.00  0.00     0.198 A 
ATOM     78  F   UNL A   1      39.116  29.035  27.222  1.00  0.00    -0.203 F 
ATOM     79  F   UNL A   1      35.963  30.041  31.538  1.00  0.00    -0.200 F 
ATOM     80  C   UNL A   1      36.333  30.158  29.215  1.00  0.00     0.200 A 
ATOM     81  F   UNL A   1      36.794  30.310  26.907  1.00  0.00    -0.200 F 
ATOM     82  F   UNL A   1      35.208  30.869  29.053  1.00  0.00    -0.200 F 
ENDBRANCH  48  72
BRANCH  60  83
ATOM     83  C   UNL A   1      44.253  27.426  32.392  1.00  0.00     0.064 A 
ATOM     84  C   UNL A   1      44.187  26.059  32.067  1.00  0.00     0.173 A 
ATOM     85  C   UNL A   1      44.328  27.752  33.750  1.00  0.00     0.173 A 
ATOM     86  F   UNL A   1      44.221  25.654  30.795  1.00  0.00    -0.203 F 
ATOM     87  C   UNL A   1      44.159  25.072  33.051  1.00  0.00     0.198 A 
ATOM     88  C   UNL A   1      44.332  26.764  34.733  1.00  0.00     0.198 A 
ATOM     89  F   UNL A   1      44.458  29.035  34.124  1.00  0.00    -0.203 F 
ATOM     90  F   UNL A   1      44.096  23.777  32.702  1.00  0.00    -0.200 F 
ATOM     91  C   UNL A   1      44.240  25.426  34.384  1.00  0.00     0.200 A 
ATOM     92  F   UNL A   1      44.464  27.108  36.021  1.00  0.00    -0.200 F 
ATOM     93  F   UNL A   1      44.258  24.478  35.332  1.00  0.00    -0.200 F 
ENDBRANCH  60  83
ENDBRANCH  34  35
ENDBRANCH  26  29
ENDBRANCH  24  25
ENDBRANCH  23  24
ENDBRANCH   1  23
TORSDOF 14
ENDMDL
MODEL 2
REMARK VINA RESULT:     -11.8      3.474      8.914
REMARK SMILES Cc1nn(-c2cc(Cl)ccc2Cl)nc1C(=O)NCCCCCCNC(=O)c1ccc(-c2c3nc(c(-c4c(F)c(F)c(F)c(F)c4F)c4ccc([nH]4)c(-c4c(F)c(F)c(F)c(F)c4F)c4nc(c(-c5c(F)c(F)c(F)c(F)c5F)c5ccc2[nH]5)C=C4)C=C3)cc1
REMARK SMILES IDX 21 1 20 2 19 3 18 4 17 5 15 6 16 7 14 9 1 10 2 11 3 12 4 13
REMARK SMILES IDX 13 14 5 15 6 16 11 17 7 18 10 19 12 20 8 21 9 22 22 23 23 24
REMARK SMILES IDX 24 25 25 26 26 28 27 29 28 30 89 31 29 32 88 33 30 34 31 35
REMARK SMILES IDX 32 36 82 37 33 38 87 39 81 40 83 41 34 42 86 43 80 44 79 45
REMARK SMILES IDX 35 47 67 48 47 49 66 50 48 51 51 52 65 53 84 54 49 55 50 56
REMARK SMILES IDX 64 58 85 59 52 60 36 61 37 62 45 63 38 64 39 65 43 66 46 67
REMARK SMILES IDX 40 68 41 69 44 70 42 71 68 72 69 73 77 74 70 75 71 76 75 77
REMARK SMILES IDX 78 78 72 79 73 80 76 81 74 82 53 83 54 84 62 85 55 86 56 87
REMARK SMILES IDX 60 88 63 89 57 90 58 91 61 92 59 93
REMARK H PARENT 17 8 24 27 83 46 51 57
REMARK Flexibility Score: inf
ROOT
ATOM      1  C   UNL A   1      32.215  28.289  26.935  1.00  0.00     0.002 C 
ENDROOT
BRANCH   1   2
ATOM      2  C   UNL A   1      31.191  27.167  26.678  1.00  0.00     0.002 C 
BRANCH   2   3
ATOM      3  C   UNL A   1      31.246  26.537  25.280  1.00  0.00     0.021 C 
BRANCH   3   4
ATOM      4  C   UNL A   1      30.115  25.539  25.029  1.00  0.00     0.116 C 
BRANCH   4   5
ATOM      5  N   UNL A   1      29.898  24.738  26.202  1.00  0.00    -0.351 N 
ATOM      6  C   UNL A   1      30.418  23.556  26.653  1.00  0.00     0.273 C 
ATOM      7  O   UNL A   1      29.888  23.152  27.696  1.00  0.00    -0.267 OA
ATOM      8  H   UNL A   1      29.229  25.124  26.813  1.00  0.00     0.163 HD
BRANCH   6   9
ATOM      9  C   UNL A   1      31.556  22.835  26.047  1.00  0.00     0.173 A 
ATOM     10  C   UNL A   1      33.882  24.180  26.050  1.00  0.00     0.071 C 
ATOM     11  C   UNL A   1      32.962  23.034  25.867  1.00  0.00     0.093 A 
ATOM     12  N   UNL A   1      33.520  21.909  25.396  1.00  0.00    -0.153 NA
ATOM     13  N   UNL A   1      32.456  21.119  25.181  1.00  0.00    -0.149 N 
ATOM     14  N   UNL A   1      31.261  21.659  25.449  1.00  0.00    -0.143 NA
BRANCH  13  15
ATOM     15  C   UNL A   1      32.559  19.868  24.550  1.00  0.00     0.106 A 
ATOM     16  C   UNL A   1      32.960  18.771  25.335  1.00  0.00     0.052 A 
ATOM     17  C   UNL A   1      32.281  19.705  23.190  1.00  0.00     0.068 A 
ATOM     18  C   UNL A   1      33.036  17.508  24.760  1.00  0.00     0.043 A 
ATOM     19  C   UNL A   1      32.407  18.434  22.618  1.00  0.00     0.024 A 
ATOM     20  Cl  UNL A   1      31.935  21.014  22.114  1.00  0.00    -0.082 Cl
ATOM     21  Cl  UNL A   1      33.443  16.148  25.731  1.00  0.00    -0.084 Cl
ATOM     22  C   UNL A   1      32.770  17.336  23.403  1.00  0.00     0.022 A 
ENDBRANCH  13  15
ENDBRANCH   6   9
ENDBRANCH   4   5
ENDBRANCH   3   4
ENDBRANCH   2   3
ENDBRANCH   1   2
BRANCH   1  23
ATOM     23  C   UNL A   1      33.399  28.364  25.957  1.00  0.00     0.021 C 
BRANCH  23  24
ATOM     24  C   UNL A   1      34.603  29.074  26.545  1.00  0.00     0.116 C 
BRANCH  24  25
ATOM     25  N   UNL A   1      34.275  30.420  27.038  1.00  0.00    -0.352 N 
ATOM     26  C   UNL A   1      34.944  31.198  27.975  1.00  0.00     0.251 C 
ATOM     27  H   UNL A   1      33.467  30.828  26.650  1.00  0.00     0.163 HD
ATOM     28  O   UNL A   1      34.408  32.134  28.534  1.00  0.00    -0.269 OA
BRANCH  26  29
ATOM     29  C   UNL A   1      36.351  30.864  28.251  1.00  0.00     0.039 A 
ATOM     30  C   UNL A   1      37.277  31.762  28.789  1.00  0.00     0.014 A 
ATOM     31  C   UNL A   1      36.701  29.549  28.000  1.00  0.00     0.014 A 
ATOM     32  C   UNL A   1      38.550  31.283  29.097  1.00  0.00     0.010 A 
ATOM     33  C   UNL A   1      37.774  29.029  28.640  1.00  0.00     0.010 A 
ATOM     34  C   UNL A   1      38.779  29.904  29.005  1.00  0.00    -0.014 A 
BRANCH  34  35
ATOM     35  C   UNL A   1      40.054  29.265  29.259  1.00  0.00     0.031 A 
ATOM     36  C   UNL A   1      40.323  28.955  30.677  1.00  0.00     0.074 A 
ATOM     37  C   UNL A   1      40.770  28.737  28.238  1.00  0.00     0.049 A 
ATOM     38  N   UNL A   1      41.249  29.451  31.425  1.00  0.00    -0.248 NA
ATOM     39  C   UNL A   1      39.375  28.087  31.391  1.00  0.00     0.031 C 
ATOM     40  C   UNL A   1      40.454  28.689  26.799  1.00  0.00     0.029 A 
ATOM     41  N   UNL A   1      41.923  28.027  28.303  1.00  0.00    -0.354 N 
ATOM     42  C   UNL A   1      41.119  28.826  32.659  1.00  0.00     0.074 A 
ATOM     43  C   UNL A   1      39.851  28.144  32.636  1.00  0.00     0.031 C 
ATOM     44  C   UNL A   1      41.275  27.813  26.177  1.00  0.00     0.029 A 
ATOM     45  C   UNL A   1      42.275  27.374  27.128  1.00  0.00     0.049 A 
ATOM     46  H   UNL A   1      42.470  27.977  29.121  1.00  0.00     0.167 HD
ATOM     47  C   UNL A   1      42.178  28.733  33.510  1.00  0.00     0.037 A 
ATOM     48  C   UNL A   1      43.312  26.515  26.974  1.00  0.00     0.037 A 
ATOM     49  C   UNL A   1      43.239  29.627  33.118  1.00  0.00     0.049 A 
ATOM     50  C   UNL A   1      44.258  26.792  28.089  1.00  0.00     0.074 A 
ATOM     51  C   UNL A   1      43.346  31.000  32.998  1.00  0.00     0.029 A 
ATOM     52  N   UNL A   1      44.277  29.110  32.378  1.00  0.00    -0.354 N 
ATOM     53  N   UNL A   1      44.906  27.921  28.208  1.00  0.00    -0.248 NA
ATOM     54  C   UNL A   1      44.082  26.039  29.323  1.00  0.00     0.031 C 
ATOM     55  C   UNL A   1      44.108  31.206  31.808  1.00  0.00     0.029 A 
ATOM     56  C   UNL A   1      44.483  29.955  31.316  1.00  0.00     0.049 A 
ATOM     57  H   UNL A   1      44.778  28.286  32.575  1.00  0.00     0.167 HD
ATOM     58  C   UNL A   1      44.860  28.220  29.564  1.00  0.00     0.074 A 
ATOM     59  C   UNL A   1      44.393  26.992  30.208  1.00  0.00     0.031 C 
ATOM     60  C   UNL A   1      44.911  29.511  30.007  1.00  0.00     0.037 A 
BRANCH  47  61
ATOM     61  C   UNL A   1      42.403  27.599  34.476  1.00  0.00     0.064 A 
ATOM     62  C   UNL A   1      42.946  26.391  33.996  1.00  0.00     0.173 A 
ATOM     63  C   UNL A   1      41.847  27.547  35.772  1.00  0.00     0.173 A 
ATOM     64  F   UNL A   1      43.491  26.325  32.773  1.00  0.00    -0.203 F 
ATOM     65  C   UNL A   1      42.860  25.204  34.727  1.00  0.00     0.198 A 
ATOM     66  C   UNL A   1      41.813  26.373  36.520  1.00  0.00     0.198 A 
ATOM     67  F   UNL A   1      41.213  28.591  36.321  1.00  0.00    -0.203 F 
ATOM     68  F   UNL A   1      43.275  24.054  34.179  1.00  0.00    -0.200 F 
ATOM     69  C   UNL A   1      42.287  25.195  35.986  1.00  0.00     0.200 A 
ATOM     70  F   UNL A   1      41.239  26.382  37.732  1.00  0.00    -0.200 F 
ATOM     71  F   UNL A   1      42.145  24.047  36.662  1.00  0.00    -0.200 F 
ENDBRANCH  47  61
BRANCH  48  72
ATOM     72  C   UNL A   1      43.345  25.281  26.152  1.00  0.00     0.064 A 
ATOM     73  C   UNL A   1      44.387  25.026  25.247  1.00  0.00     0.173 A 
ATOM     74  C   UNL A   1      42.485  24.199  26.433  1.00  0.00     0.173 A 
ATOM     75  F   UNL A   1      45.279  25.986  24.962  1.00  0.00    -0.203 F 
ATOM     76  C   UNL A   1      44.564  23.763  24.668  1.00  0.00     0.198 A 
ATOM     77  C   UNL A   1      42.661  22.941  25.854  1.00  0.00     0.198 A 
ATOM     78  F   UNL A   1      41.511  24.315  27.347  1.00  0.00    -0.203 F 
ATOM     79  F   UNL A   1      45.601  23.543  23.847  1.00  0.00    -0.200 F 
ATOM     80  C   UNL A   1      43.707  22.719  24.979  1.00  0.00     0.200 A 
ATOM     81  F   UNL A   1      41.848  21.932  26.198  1.00  0.00    -0.200 F 
ATOM     82  F   UNL A   1      43.912  21.496  24.472  1.00  0.00    -0.200 F 
ENDBRANCH  48  72
BRANCH  60  83
ATOM     83  C   UNL A   1      45.200  30.589  28.993  1.00  0.00     0.064 A 
ATOM     84  C   UNL A   1      44.201  31.334  28.343  1.00  0.00     0.173 A 
ATOM     85  C   UNL A   1      46.524  31.000  28.803  1.00  0.00     0.173 A 
ATOM     86  F   UNL A   1      42.908  31.079  28.554  1.00  0.00    -0.203 F 
ATOM     87  C   UNL A   1      44.512  32.411  27.514  1.00  0.00     0.198 A 
ATOM     88  C   UNL A   1      46.832  32.096  28.000  1.00  0.00     0.198 A 
ATOM     89  F   UNL A   1      47.519  30.370  29.448  1.00  0.00    -0.203 F 
ATOM     90  F   UNL A   1      43.531  33.099  26.909  1.00  0.00    -0.200 F 
ATOM     91  C   UNL A   1      45.829  32.796  27.349  1.00  0.00     0.200 A 
ATOM     92  F   UNL A   1      48.106  32.498  27.886  1.00  0.00    -0.200 F 
ATOM     93  F   UNL A   1      46.129  33.858  26.589  1.00  0.00    -0.200 F 
ENDBRANCH  60  83
ENDBRANCH  34  35
ENDBRANCH  26  29
ENDBRANCH  24  25
ENDBRANCH  23  24
ENDBRANCH   1  23
TORSDOF 14
ENDMDL
MODEL 3
REMARK VINA RESULT:     -11.8      2.374      6.941
REMARK SMILES Cc1nn(-c2cc(Cl)ccc2Cl)nc1C(=O)NCCCCCCNC(=O)c1ccc(-c2c3nc(c(-c4c(F)c(F)c(F)c(F)c4F)c4ccc([nH]4)c(-c4c(F)c(F)c(F)c(F)c4F)c4nc(c(-c5c(F)c(F)c(F)c(F)c5F)c5ccc2[nH]5)C=C4)C=C3)cc1
REMARK SMILES IDX 21 1 20 2 19 3 18 4 17 5 15 6 16 7 14 9 1 10 2 11 3 12 4 13
REMARK SMILES IDX 13 14 5 15 6 16 11 17 7 18 10 19 12 20 8 21 9 22 22 23 23 24
REMARK SMILES IDX 24 25 25 26 26 28 27 29 28 30 89 31 29 32 88 33 30 34 31 35
REMARK SMILES IDX 32 36 82 37 33 38 87 39 81 40 83 41 34 42 86 43 80 44 79 45
REMARK SMILES IDX 35 47 67 48 47 49 66 50 48 51 51 52 65 53 84 54 49 55 50 56
REMARK SMILES IDX 64 58 85 59 52 60 36 61 37 62 45 63 38 64 39 65 43 66 46 67
REMARK SMILES IDX 40 68 41 69 44 70 42 71 68 72 69 73 77 74 70 75 71 76 75 77
REMARK SMILES IDX 78 78 72 79 73 80 76 81 74 82 53 83 54 84 62 85 55 86 56 87
REMARK SMILES IDX 60 88 63 89 57 90 58 91 61 92 59 93
REMARK H PARENT 17 8 24 27 83 46 51 57
REMARK Flexibility Score: inf
ROOT
ATOM      1  C   UNL A   1      36.238  20.805  25.216  1.00  0.00     0.002 C 
ENDROOT
BRANCH   1   2
ATOM      2  C   UNL A   1      34.844  20.420  24.685  1.00  0.00     0.002 C 
BRANCH   2   3
ATOM      3  C   UNL A   1      33.692  20.589  25.685  1.00  0.00     0.021 C 
BRANCH   3   4
ATOM      4  C   UNL A   1      32.458  21.248  25.068  1.00  0.00     0.116 C 
BRANCH   4   5
ATOM      5  N   UNL A   1      31.631  21.807  26.102  1.00  0.00    -0.351 N 
ATOM      6  C   UNL A   1      31.533  23.046  26.671  1.00  0.00     0.273 C 
ATOM      7  O   UNL A   1      30.732  23.091  27.614  1.00  0.00    -0.267 OA
ATOM      8  H   UNL A   1      30.998  21.156  26.482  1.00  0.00     0.163 HD
BRANCH   6   9
ATOM      9  C   UNL A   1      32.221  24.264  26.196  1.00  0.00     0.173 A 
ATOM     10  C   UNL A   1      34.882  24.027  25.918  1.00  0.00     0.071 C 
ATOM     11  C   UNL A   1      33.544  24.653  25.815  1.00  0.00     0.093 A 
ATOM     12  N   UNL A   1      33.516  25.881  25.275  1.00  0.00    -0.153 NA
ATOM     13  N   UNL A   1      32.239  26.253  25.457  1.00  0.00    -0.149 N 
ATOM     14  N   UNL A   1      31.456  25.374  26.095  1.00  0.00    -0.143 NA
BRANCH  13  15
ATOM     15  C   UNL A   1      31.781  27.547  25.161  1.00  0.00     0.106 A 
ATOM     16  C   UNL A   1      30.965  27.709  24.026  1.00  0.00     0.052 A 
ATOM     17  C   UNL A   1      32.120  28.647  25.955  1.00  0.00     0.068 A 
ATOM     18  C   UNL A   1      30.457  28.967  23.720  1.00  0.00     0.043 A 
ATOM     19  C   UNL A   1      31.636  29.913  25.605  1.00  0.00     0.024 A 
ATOM     20  Cl  UNL A   1      33.237  28.576  27.273  1.00  0.00    -0.082 Cl
ATOM     21  Cl  UNL A   1      29.391  29.157  22.383  1.00  0.00    -0.084 Cl
ATOM     22  C   UNL A   1      30.795  30.071  24.499  1.00  0.00     0.022 A 
ENDBRANCH  13  15
ENDBRANCH   6   9
ENDBRANCH   4   5
ENDBRANCH   3   4
ENDBRANCH   2   3
ENDBRANCH   1   2
BRANCH   1  23
ATOM     23  C   UNL A   1      37.349  19.760  25.022  1.00  0.00     0.021 C 
BRANCH  23  24
ATOM     24  C   UNL A   1      38.724  20.292  25.380  1.00  0.00     0.116 C 
BRANCH  24  25
ATOM     25  N   UNL A   1      39.691  19.216  25.646  1.00  0.00    -0.352 N 
ATOM     26  C   UNL A   1      41.044  19.306  25.947  1.00  0.00     0.251 C 
ATOM     27  H   UNL A   1      39.328  18.301  25.603  1.00  0.00     0.163 HD
ATOM     28  O   UNL A   1      41.795  18.361  25.820  1.00  0.00    -0.269 OA
BRANCH  26  29
ATOM     29  C   UNL A   1      41.538  20.596  26.458  1.00  0.00     0.039 A 
ATOM     30  C   UNL A   1      42.266  21.513  25.693  1.00  0.00     0.014 A 
ATOM     31  C   UNL A   1      41.174  20.889  27.760  1.00  0.00     0.014 A 
ATOM     32  C   UNL A   1      42.582  22.741  26.272  1.00  0.00     0.010 A 
ATOM     33  C   UNL A   1      41.154  22.184  28.154  1.00  0.00     0.010 A 
ATOM     34  C   UNL A   1      42.018  23.052  27.516  1.00  0.00    -0.014 A 
BRANCH  34  35
ATOM     35  C   UNL A   1      42.279  24.271  28.254  1.00  0.00     0.031 A 
ATOM     36  C   UNL A   1      41.241  25.313  28.123  1.00  0.00     0.074 A 
ATOM     37  C   UNL A   1      43.239  24.301  29.208  1.00  0.00     0.049 A 
ATOM     38  N   UNL A   1      41.364  26.477  27.583  1.00  0.00    -0.248 NA
ATOM     39  C   UNL A   1      39.866  24.979  28.522  1.00  0.00     0.031 C 
ATOM     40  C   UNL A   1      44.134  23.225  29.670  1.00  0.00     0.029 A 
ATOM     41  N   UNL A   1      43.550  25.315  30.053  1.00  0.00    -0.354 N 
ATOM     42  C   UNL A   1      40.131  27.101  27.732  1.00  0.00     0.074 A 
ATOM     43  C   UNL A   1      39.207  26.076  28.144  1.00  0.00     0.031 C 
ATOM     44  C   UNL A   1      44.721  23.582  30.834  1.00  0.00     0.029 A 
ATOM     45  C   UNL A   1      44.383  24.964  31.108  1.00  0.00     0.049 A 
ATOM     46  H   UNL A   1      43.212  26.232  29.928  1.00  0.00     0.167 HD
ATOM     47  C   UNL A   1      40.029  28.458  27.729  1.00  0.00     0.037 A 
ATOM     48  C   UNL A   1      44.740  25.764  32.141  1.00  0.00     0.037 A 
ATOM     49  C   UNL A   1      41.232  29.067  27.220  1.00  0.00     0.049 A 
ATOM     50  C   UNL A   1      44.517  27.164  31.688  1.00  0.00     0.074 A 
ATOM     51  C   UNL A   1      41.893  29.028  26.006  1.00  0.00     0.029 A 
ATOM     52  N   UNL A   1      42.160  29.521  28.129  1.00  0.00    -0.354 N 
ATOM     53  N   UNL A   1      45.199  27.715  30.718  1.00  0.00    -0.248 NA
ATOM     54  C   UNL A   1      43.211  27.754  31.947  1.00  0.00     0.031 C 
ATOM     55  C   UNL A   1      43.279  28.968  26.345  1.00  0.00     0.029 A 
ATOM     56  C   UNL A   1      43.386  29.049  27.733  1.00  0.00     0.049 A 
ATOM     57  H   UNL A   1      41.976  30.080  28.918  1.00  0.00     0.167 HD
ATOM     58  C   UNL A   1      44.263  28.436  29.986  1.00  0.00     0.074 A 
ATOM     59  C   UNL A   1      43.067  28.473  30.829  1.00  0.00     0.031 C 
ATOM     60  C   UNL A   1      44.438  28.675  28.652  1.00  0.00     0.037 A 
BRANCH  47  61
ATOM     61  C   UNL A   1      39.001  29.242  28.502  1.00  0.00     0.064 A 
ATOM     62  C   UNL A   1      38.988  29.150  29.907  1.00  0.00     0.173 A 
ATOM     63  C   UNL A   1      37.863  29.838  27.918  1.00  0.00     0.173 A 
ATOM     64  F   UNL A   1      40.015  28.592  30.565  1.00  0.00    -0.203 F 
ATOM     65  C   UNL A   1      37.881  29.549  30.661  1.00  0.00     0.198 A 
ATOM     66  C   UNL A   1      36.784  30.285  28.678  1.00  0.00     0.198 A 
ATOM     67  F   UNL A   1      37.693  29.908  26.592  1.00  0.00    -0.203 F 
ATOM     68  F   UNL A   1      37.861  29.326  31.982  1.00  0.00    -0.200 F 
ATOM     69  C   UNL A   1      36.777  30.109  30.044  1.00  0.00     0.200 A 
ATOM     70  F   UNL A   1      35.717  30.811  28.058  1.00  0.00    -0.200 F 
ATOM     71  F   UNL A   1      35.689  30.433  30.756  1.00  0.00    -0.200 F 
ENDBRANCH  47  61
BRANCH  48  72
ATOM     72  C   UNL A   1      44.917  25.377  33.562  1.00  0.00     0.064 A 
ATOM     73  C   UNL A   1      43.825  25.244  34.432  1.00  0.00     0.173 A 
ATOM     74  C   UNL A   1      46.150  24.872  34.027  1.00  0.00     0.173 A 
ATOM     75  F   UNL A   1      42.607  25.652  34.048  1.00  0.00    -0.203 F 
ATOM     76  C   UNL A   1      43.954  24.632  35.686  1.00  0.00     0.198 A 
ATOM     77  C   UNL A   1      46.278  24.265  35.278  1.00  0.00     0.198 A 
ATOM     78  F   UNL A   1      47.235  24.876  33.240  1.00  0.00    -0.203 F 
ATOM     79  F   UNL A   1      42.877  24.476  36.469  1.00  0.00    -0.200 F 
ATOM     80  C   UNL A   1      45.179  24.135  36.103  1.00  0.00     0.200 A 
ATOM     81  F   UNL A   1      47.461  23.753  35.649  1.00  0.00    -0.200 F 
ATOM     82  F   UNL A   1      45.290  23.497  37.277  1.00  0.00    -0.200 F 
ENDBRANCH  48  72
BRANCH  60  83
ATOM     83  C   UNL A   1      45.761  28.289  28.040  1.00  0.00     0.064 A 
ATOM     84  C   UNL A   1      45.993  27.056  27.403  1.00  0.00     0.173 A 
ATOM     85  C   UNL A   1      46.766  29.256  27.938  1.00  0.00     0.173 A 
ATOM     86  F   UNL A   1      45.046  26.118  27.358  1.00  0.00    -0.203 F 
ATOM     87  C   UNL A   1      47.187  26.791  26.732  1.00  0.00     0.198 A 
ATOM     88  C   UNL A   1      47.946  29.002  27.240  1.00  0.00     0.198 A 
ATOM     89  F   UNL A   1      46.578  30.474  28.468  1.00  0.00    -0.203 F 
ATOM     90  F   UNL A   1      47.374  25.604  26.137  1.00  0.00    -0.200 F 
ATOM     91  C   UNL A   1      48.160  27.769  26.645  1.00  0.00     0.200 A 
ATOM     92  F   UNL A   1      48.864  29.971  27.113  1.00  0.00    -0.200 F 
ATOM     93  F   UNL A   1      49.290  27.534  25.964  1.00  0.00    -0.200 F 
ENDBRANCH  60  83
ENDBRANCH  34  35
ENDBRANCH  26  29
ENDBRANCH  24  25
ENDBRANCH  23  24
ENDBRANCH   1  23
TORSDOF 14
ENDMDL
