MODEL 1
REMARK VINA RESULT:     -12.3      0.000      0.000
REMARK SMILES C=Cc1cncc(-c2ccc([C@@H](C)C(=O)NCCCCCCNC(=O)c3ccc(-c4c5nc(c(-c6c(F)c(F)c(F)c(F)c6F)c6ccc([nH]6)c(-c6c(F)c(F)c(F)c(F)c6F)c6nc(c(-c7c(F)c(F)c(F)c(F)c7F)c7ccc4[nH]7)C=C6)C=C5)cc3)cc2)c1
REMARK SMILES IDX 19 1 18 2 17 3 16 4 14 5 15 6 12 8 13 9 11 10 8 11 9 12
REMARK SMILES IDX 90 13 10 14 89 15 7 16 3 17 4 18 91 19 5 20 6 21 2 22 1 23
REMARK SMILES IDX 20 24 21 25 22 26 23 27 24 28 25 30 26 31 27 32 88 33 28 34
REMARK SMILES IDX 87 35 29 36 30 37 31 38 81 39 32 40 86 41 80 42 82 43 33 44
REMARK SMILES IDX 85 45 79 46 78 47 34 49 66 50 46 51 65 52 47 53 50 54 64 55
REMARK SMILES IDX 83 56 48 57 49 58 63 60 84 61 51 62 35 63 36 64 44 65 37 66
REMARK SMILES IDX 38 67 42 68 45 69 39 70 40 71 43 72 41 73 67 74 68 75 76 76
REMARK SMILES IDX 69 77 70 78 74 79 77 80 71 81 72 82 75 83 73 84 52 85 53 86
REMARK SMILES IDX 61 87 54 88 55 89 59 90 62 91 56 92 57 93 60 94 58 95
REMARK H PARENT 16 7 23 29 82 48 50 59
REMARK Flexibility Score: inf
ROOT
ATOM      1  C   UNL A   1      35.066  23.539  25.551  1.00  0.00     0.002 C 
ENDROOT
BRANCH   1   2
ATOM      2  C   UNL A   1      34.778  24.958  25.048  1.00  0.00     0.021 C 
BRANCH   2   3
ATOM      3  C   UNL A   1      33.601  25.635  25.753  1.00  0.00     0.116 C 
BRANCH   3   4
ATOM      4  N   UNL A   1      32.768  26.365  24.821  1.00  0.00    -0.356 N 
ATOM      5  C   UNL A   1      31.534  26.101  24.310  1.00  0.00     0.227 C 
ATOM      6  O   UNL A   1      31.126  26.877  23.438  1.00  0.00    -0.274 OA
ATOM      7  H   UNL A   1      33.168  27.204  24.496  1.00  0.00     0.163 HD
BRANCH   5   8
ATOM      8  C   UNL A   1      30.648  24.935  24.772  1.00  0.00     0.105 C 
ATOM      9  C   UNL A   1      30.068  25.113  26.177  1.00  0.00     0.023 C 
BRANCH   8  10
ATOM     10  C   UNL A   1      31.223  23.561  24.463  1.00  0.00    -0.036 A 
ATOM     11  C   UNL A   1      32.219  20.928  23.948  1.00  0.00    -0.017 A 
ATOM     12  C   UNL A   1      32.086  21.880  22.927  1.00  0.00     0.009 A 
ATOM     13  C   UNL A   1      31.855  21.330  25.241  1.00  0.00     0.009 A 
ATOM     14  C   UNL A   1      31.632  23.178  23.184  1.00  0.00     0.005 A 
ATOM     15  C   UNL A   1      31.350  22.615  25.492  1.00  0.00     0.005 A 
BRANCH  11  16
ATOM     16  C   UNL A   1      32.738  19.574  23.655  1.00  0.00     0.001 A 
ATOM     17  C   UNL A   1      34.197  17.669  24.119  1.00  0.00    -0.007 A 
ATOM     18  C   UNL A   1      33.614  17.028  23.031  1.00  0.00     0.119 A 
ATOM     19  C   UNL A   1      33.745  18.962  24.421  1.00  0.00     0.020 A 
ATOM     20  N   UNL A   1      32.644  17.565  22.261  1.00  0.00    -0.263 NA
ATOM     21  C   UNL A   1      32.244  18.816  22.588  1.00  0.00     0.119 A 
BRANCH  17  22
ATOM     22  C   UNL A   1      35.280  17.008  24.853  1.00  0.00     0.002 C 
ATOM     23  C   UNL A   1      35.181  15.793  25.403  1.00  0.00     0.009 C 
ENDBRANCH  17  22
ENDBRANCH  11  16
ENDBRANCH   8  10
ENDBRANCH   5   8
ENDBRANCH   3   4
ENDBRANCH   2   3
ENDBRANCH   1   2
BRANCH   1  24
ATOM     24  C   UNL A   1      35.365  22.509  24.453  1.00  0.00     0.002 C 
BRANCH  24  25
ATOM     25  C   UNL A   1      36.361  21.409  24.835  1.00  0.00     0.021 C 
BRANCH  25  26
ATOM     26  C   UNL A   1      37.775  21.905  25.132  1.00  0.00     0.116 C 
BRANCH  26  27
ATOM     27  N   UNL A   1      38.597  20.868  25.738  1.00  0.00    -0.352 N 
ATOM     28  C   UNL A   1      39.777  20.973  26.433  1.00  0.00     0.251 C 
ATOM     29  H   UNL A   1      38.254  19.951  25.635  1.00  0.00     0.163 HD
ATOM     30  O   UNL A   1      40.450  19.974  26.663  1.00  0.00    -0.269 OA
BRANCH  28  31
ATOM     31  C   UNL A   1      40.249  22.296  26.890  1.00  0.00     0.039 A 
ATOM     32  C   UNL A   1      41.232  22.361  27.880  1.00  0.00     0.014 A 
ATOM     33  C   UNL A   1      39.717  23.471  26.348  1.00  0.00     0.014 A 
ATOM     34  C   UNL A   1      41.746  23.601  28.265  1.00  0.00     0.010 A 
ATOM     35  C   UNL A   1      40.273  24.702  26.687  1.00  0.00     0.010 A 
ATOM     36  C   UNL A   1      41.304  24.776  27.635  1.00  0.00    -0.014 A 
BRANCH  36  37
ATOM     37  C   UNL A   1      41.954  26.083  27.906  1.00  0.00     0.031 A 
ATOM     38  C   UNL A   1      41.214  27.173  28.626  1.00  0.00     0.074 A 
ATOM     39  C   UNL A   1      43.188  26.314  27.415  1.00  0.00     0.049 A 
ATOM     40  N   UNL A   1      41.587  28.404  28.869  1.00  0.00    -0.248 NA
ATOM     41  C   UNL A   1      39.871  26.841  29.124  1.00  0.00     0.031 C 
ATOM     42  C   UNL A   1      43.988  25.348  26.659  1.00  0.00     0.029 A 
ATOM     43  N   UNL A   1      43.978  27.435  27.462  1.00  0.00    -0.354 N 
ATOM     44  C   UNL A   1      40.524  28.996  29.538  1.00  0.00     0.074 A 
ATOM     45  C   UNL A   1      39.474  28.003  29.624  1.00  0.00     0.031 C 
ATOM     46  C   UNL A   1      45.159  25.914  26.324  1.00  0.00     0.029 A 
ATOM     47  C   UNL A   1      45.174  27.292  26.801  1.00  0.00     0.049 A 
ATOM     48  H   UNL A   1      43.714  28.262  27.925  1.00  0.00     0.167 HD
ATOM     49  C   UNL A   1      40.442  30.248  30.047  1.00  0.00     0.037 A 
ATOM     50  C   UNL A   1      46.164  28.179  26.586  1.00  0.00     0.037 A 
ATOM     51  C   UNL A   1      41.495  31.228  29.968  1.00  0.00     0.049 A 
ATOM     52  C   UNL A   1      46.031  29.574  27.133  1.00  0.00     0.074 A 
ATOM     53  C   UNL A   1      41.534  32.499  30.514  1.00  0.00     0.029 A 
ATOM     54  N   UNL A   1      42.691  31.049  29.287  1.00  0.00    -0.354 N 
ATOM     55  N   UNL A   1      45.053  30.098  27.831  1.00  0.00    -0.248 NA
ATOM     56  C   UNL A   1      47.138  30.500  26.860  1.00  0.00     0.031 C 
ATOM     57  C   UNL A   1      42.729  33.109  30.119  1.00  0.00     0.029 A 
ATOM     58  C   UNL A   1      43.459  32.201  29.369  1.00  0.00     0.049 A 
ATOM     59  H   UNL A   1      42.955  30.227  28.816  1.00  0.00     0.167 HD
ATOM     60  C   UNL A   1      45.433  31.407  28.095  1.00  0.00     0.074 A 
ATOM     61  C   UNL A   1      46.741  31.590  27.502  1.00  0.00     0.031 C 
ATOM     62  C   UNL A   1      44.755  32.371  28.765  1.00  0.00     0.037 A 
BRANCH  49  63
ATOM     63  C   UNL A   1      39.167  30.637  30.739  1.00  0.00     0.064 A 
ATOM     64  C   UNL A   1      38.063  31.127  30.026  1.00  0.00     0.173 A 
ATOM     65  C   UNL A   1      39.030  30.471  32.126  1.00  0.00     0.173 A 
ATOM     66  F   UNL A   1      38.145  31.312  28.700  1.00  0.00    -0.203 F 
ATOM     67  C   UNL A   1      36.878  31.460  30.678  1.00  0.00     0.198 A 
ATOM     68  C   UNL A   1      37.833  30.775  32.771  1.00  0.00     0.198 A 
ATOM     69  F   UNL A   1      40.052  29.998  32.856  1.00  0.00    -0.203 F 
ATOM     70  F   UNL A   1      35.852  31.966  29.981  1.00  0.00    -0.200 F 
ATOM     71  C   UNL A   1      36.761  31.276  32.047  1.00  0.00     0.200 A 
ATOM     72  F   UNL A   1      37.718  30.585  34.092  1.00  0.00    -0.200 F 
ATOM     73  F   UNL A   1      35.617  31.587  32.671  1.00  0.00    -0.200 F 
ENDBRANCH  49  63
BRANCH  50  74
ATOM     74  C   UNL A   1      47.369  27.773  25.816  1.00  0.00     0.064 A 
ATOM     75  C   UNL A   1      47.366  27.785  24.415  1.00  0.00     0.173 A 
ATOM     76  C   UNL A   1      48.545  27.364  26.462  1.00  0.00     0.173 A 
ATOM     77  F   UNL A   1      46.257  28.147  23.752  1.00  0.00    -0.203 F 
ATOM     78  C   UNL A   1      48.485  27.386  23.689  1.00  0.00     0.198 A 
ATOM     79  C   UNL A   1      49.675  26.994  25.736  1.00  0.00     0.198 A 
ATOM     80  F   UNL A   1      48.602  27.339  27.802  1.00  0.00    -0.203 F 
ATOM     81  F   UNL A   1      48.441  27.365  22.350  1.00  0.00    -0.200 F 
ATOM     82  C   UNL A   1      49.641  26.998  24.350  1.00  0.00     0.200 A 
ATOM     83  F   UNL A   1      50.794  26.635  26.379  1.00  0.00    -0.200 F 
ATOM     84  F   UNL A   1      50.721  26.620  23.651  1.00  0.00    -0.200 F 
ENDBRANCH  50  74
BRANCH  62  85
ATOM     85  C   UNL A   1      45.423  33.710  28.898  1.00  0.00     0.064 A 
ATOM     86  C   UNL A   1      46.294  33.991  29.960  1.00  0.00     0.173 A 
ATOM     87  C   UNL A   1      45.217  34.709  27.935  1.00  0.00     0.173 A 
ATOM     88  F   UNL A   1      46.509  33.075  30.918  1.00  0.00    -0.203 F 
ATOM     89  C   UNL A   1      46.916  35.232  30.067  1.00  0.00     0.198 A 
ATOM     90  C   UNL A   1      45.865  35.938  28.027  1.00  0.00     0.198 A 
ATOM     91  F   UNL A   1      44.397  34.488  26.896  1.00  0.00    -0.203 F 
ATOM     92  F   UNL A   1      47.707  35.495  31.116  1.00  0.00    -0.200 F 
ATOM     93  C   UNL A   1      46.707  36.200  29.097  1.00  0.00     0.200 A 
ATOM     94  F   UNL A   1      45.673  36.867  27.081  1.00  0.00    -0.200 F 
ATOM     95  F   UNL A   1      47.314  37.391  29.196  1.00  0.00    -0.200 F 
ENDBRANCH  62  85
ENDBRANCH  36  37
ENDBRANCH  28  31
ENDBRANCH  26  27
ENDBRANCH  25  26
ENDBRANCH  24  25
ENDBRANCH   1  24
TORSDOF 16
ENDMDL
MODEL 2
REMARK VINA RESULT:     -12.1      1.435      2.479
REMARK SMILES C=Cc1cncc(-c2ccc([C@@H](C)C(=O)NCCCCCCNC(=O)c3ccc(-c4c5nc(c(-c6c(F)c(F)c(F)c(F)c6F)c6ccc([nH]6)c(-c6c(F)c(F)c(F)c(F)c6F)c6nc(c(-c7c(F)c(F)c(F)c(F)c7F)c7ccc4[nH]7)C=C6)C=C5)cc3)cc2)c1
REMARK SMILES IDX 19 1 18 2 17 3 16 4 14 5 15 6 12 8 13 9 11 10 8 11 9 12
REMARK SMILES IDX 90 13 10 14 89 15 7 16 3 17 4 18 91 19 5 20 6 21 2 22 1 23
REMARK SMILES IDX 20 24 21 25 22 26 23 27 24 28 25 30 26 31 27 32 88 33 28 34
REMARK SMILES IDX 87 35 29 36 30 37 31 38 81 39 32 40 86 41 80 42 82 43 33 44
REMARK SMILES IDX 85 45 79 46 78 47 34 49 66 50 46 51 65 52 47 53 50 54 64 55
REMARK SMILES IDX 83 56 48 57 49 58 63 60 84 61 51 62 35 63 36 64 44 65 37 66
REMARK SMILES IDX 38 67 42 68 45 69 39 70 40 71 43 72 41 73 67 74 68 75 76 76
REMARK SMILES IDX 69 77 70 78 74 79 77 80 71 81 72 82 75 83 73 84 52 85 53 86
REMARK SMILES IDX 61 87 54 88 55 89 59 90 62 91 56 92 57 93 60 94 58 95
REMARK H PARENT 16 7 23 29 82 48 50 59
REMARK Flexibility Score: inf
ROOT
ATOM      1  C   UNL A   1      36.755  22.611  25.187  1.00  0.00     0.002 C 
ENDROOT
BRANCH   1   2
ATOM      2  C   UNL A   1      35.749  23.550  24.513  1.00  0.00     0.021 C 
BRANCH   2   3
ATOM      3  C   UNL A   1      35.037  24.493  25.486  1.00  0.00     0.116 C 
BRANCH   3   4
ATOM      4  N   UNL A   1      34.402  25.593  24.793  1.00  0.00    -0.356 N 
ATOM      5  C   UNL A   1      33.103  25.823  24.457  1.00  0.00     0.227 C 
ATOM      6  O   UNL A   1      32.887  26.823  23.762  1.00  0.00    -0.274 OA
ATOM      7  H   UNL A   1      35.022  26.304  24.514  1.00  0.00     0.163 HD
BRANCH   5   8
ATOM      8  C   UNL A   1      31.932  24.938  24.909  1.00  0.00     0.105 C 
ATOM      9  C   UNL A   1      31.361  25.312  26.278  1.00  0.00     0.023 C 
BRANCH   8  10
ATOM     10  C   UNL A   1      32.152  23.452  24.667  1.00  0.00    -0.036 A 
ATOM     11  C   UNL A   1      32.650  20.684  24.134  1.00  0.00    -0.017 A 
ATOM     12  C   UNL A   1      32.518  21.173  25.442  1.00  0.00     0.009 A 
ATOM     13  C   UNL A   1      32.512  21.615  23.093  1.00  0.00     0.009 A 
ATOM     14  C   UNL A   1      32.239  22.519  25.702  1.00  0.00     0.005 A 
ATOM     15  C   UNL A   1      32.286  22.974  23.354  1.00  0.00     0.005 A 
BRANCH  11  16
ATOM     16  C   UNL A   1      32.906  19.249  23.885  1.00  0.00     0.001 A 
ATOM     17  C   UNL A   1      33.745  17.053  24.553  1.00  0.00    -0.007 A 
ATOM     18  C   UNL A   1      33.312  16.574  23.321  1.00  0.00     0.119 A 
ATOM     19  C   UNL A   1      33.535  18.413  24.824  1.00  0.00     0.020 A 
ATOM     20  N   UNL A   1      32.702  17.328  22.382  1.00  0.00    -0.263 NA
ATOM     21  C   UNL A   1      32.527  18.636  22.686  1.00  0.00     0.119 A 
BRANCH  17  22
ATOM     22  C   UNL A   1      34.442  16.152  25.476  1.00  0.00     0.002 C 
ATOM     23  C   UNL A   1      35.736  15.829  25.375  1.00  0.00     0.009 C 
ENDBRANCH  17  22
ENDBRANCH  11  16
ENDBRANCH   8  10
ENDBRANCH   5   8
ENDBRANCH   3   4
ENDBRANCH   2   3
ENDBRANCH   1   2
BRANCH   1  24
ATOM     24  C   UNL A   1      36.427  21.116  25.075  1.00  0.00     0.002 C 
BRANCH  24  25
ATOM     25  C   UNL A   1      37.635  20.185  24.929  1.00  0.00     0.021 C 
BRANCH  25  26
ATOM     26  C   UNL A   1      38.856  20.590  25.752  1.00  0.00     0.116 C 
BRANCH  26  27
ATOM     27  N   UNL A   1      39.781  19.480  25.930  1.00  0.00    -0.352 N 
ATOM     28  C   UNL A   1      41.141  19.488  26.116  1.00  0.00     0.251 C 
ATOM     29  H   UNL A   1      39.368  18.586  25.917  1.00  0.00     0.163 HD
ATOM     30  O   UNL A   1      41.787  18.451  26.010  1.00  0.00    -0.269 OA
BRANCH  28  31
ATOM     31  C   UNL A   1      41.836  20.755  26.428  1.00  0.00     0.039 A 
ATOM     32  C   UNL A   1      42.251  21.577  25.377  1.00  0.00     0.014 A 
ATOM     33  C   UNL A   1      42.083  21.127  27.753  1.00  0.00     0.014 A 
ATOM     34  C   UNL A   1      42.836  22.814  25.656  1.00  0.00     0.010 A 
ATOM     35  C   UNL A   1      42.610  22.386  28.030  1.00  0.00     0.010 A 
ATOM     36  C   UNL A   1      42.974  23.248  26.985  1.00  0.00    -0.014 A 
BRANCH  36  37
ATOM     37  C   UNL A   1      43.434  24.623  27.300  1.00  0.00     0.031 A 
ATOM     38  C   UNL A   1      42.477  25.649  27.835  1.00  0.00     0.074 A 
ATOM     39  C   UNL A   1      44.705  24.969  27.014  1.00  0.00     0.049 A 
ATOM     40  N   UNL A   1      42.679  26.919  28.079  1.00  0.00    -0.248 NA
ATOM     41  C   UNL A   1      41.108  25.191  28.114  1.00  0.00     0.031 C 
ATOM     42  C   UNL A   1      45.716  24.072  26.449  1.00  0.00     0.029 A 
ATOM     43  N   UNL A   1      45.361  26.168  27.142  1.00  0.00    -0.354 N 
ATOM     44  C   UNL A   1      41.462  27.415  28.532  1.00  0.00     0.074 A 
ATOM     45  C   UNL A   1      40.517  26.318  28.485  1.00  0.00     0.031 C 
ATOM     46  C   UNL A   1      46.865  24.748  26.291  1.00  0.00     0.029 A 
ATOM     47  C   UNL A   1      46.661  26.134  26.700  1.00  0.00     0.049 A 
ATOM     48  H   UNL A   1      44.940  26.975  27.515  1.00  0.00     0.167 HD
ATOM     49  C   UNL A   1      41.170  28.664  28.962  1.00  0.00     0.037 A 
ATOM     50  C   UNL A   1      47.580  27.114  26.614  1.00  0.00     0.037 A 
ATOM     51  C   UNL A   1      42.119  29.748  29.016  1.00  0.00     0.049 A 
ATOM     52  C   UNL A   1      47.217  28.502  27.066  1.00  0.00     0.074 A 
ATOM     53  C   UNL A   1      41.937  31.030  29.502  1.00  0.00     0.029 A 
ATOM     54  N   UNL A   1      43.426  29.677  28.555  1.00  0.00    -0.354 N 
ATOM     55  N   UNL A   1      46.087  28.940  27.564  1.00  0.00    -0.248 NA
ATOM     56  C   UNL A   1      48.257  29.531  26.941  1.00  0.00     0.031 C 
ATOM     57  C   UNL A   1      43.116  31.752  29.286  1.00  0.00     0.029 A 
ATOM     58  C   UNL A   1      44.050  30.905  28.712  1.00  0.00     0.049 A 
ATOM     59  H   UNL A   1      43.848  28.874  28.174  1.00  0.00     0.167 HD
ATOM     60  C   UNL A   1      46.283  30.288  27.828  1.00  0.00     0.074 A 
ATOM     61  C   UNL A   1      47.649  30.591  27.456  1.00  0.00     0.031 C 
ATOM     62  C   UNL A   1      45.408  31.194  28.328  1.00  0.00     0.037 A 
BRANCH  49  63
ATOM     63  C   UNL A   1      39.763  28.936  29.410  1.00  0.00     0.064 A 
ATOM     64  C   UNL A   1      39.359  28.719  30.737  1.00  0.00     0.173 A 
ATOM     65  C   UNL A   1      38.820  29.466  28.517  1.00  0.00     0.173 A 
ATOM     66  F   UNL A   1      40.220  28.206  31.629  1.00  0.00    -0.203 F 
ATOM     67  C   UNL A   1      38.058  29.000  31.145  1.00  0.00     0.198 A 
ATOM     68  C   UNL A   1      37.528  29.774  28.936  1.00  0.00     0.198 A 
ATOM     69  F   UNL A   1      39.155  29.700  27.239  1.00  0.00    -0.203 F 
ATOM     70  F   UNL A   1      37.684  28.745  32.406  1.00  0.00    -0.200 F 
ATOM     71  C   UNL A   1      37.146  29.534  30.247  1.00  0.00     0.200 A 
ATOM     72  F   UNL A   1      36.652  30.302  28.070  1.00  0.00    -0.200 F 
ATOM     73  F   UNL A   1      35.897  29.813  30.645  1.00  0.00    -0.200 F 
ENDBRANCH  49  63
BRANCH  50  74
ATOM     74  C   UNL A   1      48.934  26.815  26.078  1.00  0.00     0.064 A 
ATOM     75  C   UNL A   1      49.945  26.322  26.914  1.00  0.00     0.173 A 
ATOM     76  C   UNL A   1      49.246  27.017  24.726  1.00  0.00     0.173 A 
ATOM     77  F   UNL A   1      49.701  26.133  28.219  1.00  0.00    -0.203 F 
ATOM     78  C   UNL A   1      51.222  26.060  26.421  1.00  0.00     0.198 A 
ATOM     79  C   UNL A   1      50.514  26.727  24.228  1.00  0.00     0.198 A 
ATOM     80  F   UNL A   1      48.312  27.484  23.883  1.00  0.00    -0.203 F 
ATOM     81  F   UNL A   1      52.182  25.630  27.251  1.00  0.00    -0.200 F 
ATOM     82  C   UNL A   1      51.503  26.256  25.078  1.00  0.00     0.200 A 
ATOM     83  F   UNL A   1      50.777  26.902  22.926  1.00  0.00    -0.200 F 
ATOM     84  F   UNL A   1      52.730  25.997  24.602  1.00  0.00    -0.200 F 
ENDBRANCH  50  74
BRANCH  62  85
ATOM     85  C   UNL A   1      45.906  32.599  28.510  1.00  0.00     0.064 A 
ATOM     86  C   UNL A   1      46.561  32.997  29.685  1.00  0.00     0.173 A 
ATOM     87  C   UNL A   1      45.759  33.546  27.486  1.00  0.00     0.173 A 
ATOM     88  F   UNL A   1      46.710  32.133  30.701  1.00  0.00    -0.203 F 
ATOM     89  C   UNL A   1      47.029  34.299  29.837  1.00  0.00     0.198 A 
ATOM     90  C   UNL A   1      46.256  34.839  27.629  1.00  0.00     0.198 A 
ATOM     91  F   UNL A   1      45.144  33.214  26.341  1.00  0.00    -0.203 F 
ATOM     92  F   UNL A   1      47.609  34.671  30.987  1.00  0.00    -0.200 F 
ATOM     93  C   UNL A   1      46.883  35.216  28.807  1.00  0.00     0.200 A 
ATOM     94  F   UNL A   1      46.127  35.720  26.628  1.00  0.00    -0.200 F 
ATOM     95  F   UNL A   1      47.342  36.467  28.952  1.00  0.00    -0.200 F 
ENDBRANCH  62  85
ENDBRANCH  36  37
ENDBRANCH  28  31
ENDBRANCH  26  27
ENDBRANCH  25  26
ENDBRANCH  24  25
ENDBRANCH   1  24
TORSDOF 16
ENDMDL
MODEL 3
REMARK VINA RESULT:     -12.1      5.007     10.204
REMARK SMILES C=Cc1cncc(-c2ccc([C@@H](C)C(=O)NCCCCCCNC(=O)c3ccc(-c4c5nc(c(-c6c(F)c(F)c(F)c(F)c6F)c6ccc([nH]6)c(-c6c(F)c(F)c(F)c(F)c6F)c6nc(c(-c7c(F)c(F)c(F)c(F)c7F)c7ccc4[nH]7)C=C6)C=C5)cc3)cc2)c1
REMARK SMILES IDX 19 1 18 2 17 3 16 4 14 5 15 6 12 8 13 9 11 10 8 11 9 12
REMARK SMILES IDX 90 13 10 14 89 15 7 16 3 17 4 18 91 19 5 20 6 21 2 22 1 23
REMARK SMILES IDX 20 24 21 25 22 26 23 27 24 28 25 30 26 31 27 32 88 33 28 34
REMARK SMILES IDX 87 35 29 36 30 37 31 38 81 39 32 40 86 41 80 42 82 43 33 44
REMARK SMILES IDX 85 45 79 46 78 47 34 49 66 50 46 51 65 52 47 53 50 54 64 55
REMARK SMILES IDX 83 56 48 57 49 58 63 60 84 61 51 62 35 63 36 64 44 65 37 66
REMARK SMILES IDX 38 67 42 68 45 69 39 70 40 71 43 72 41 73 67 74 68 75 76 76
REMARK SMILES IDX 69 77 70 78 74 79 77 80 71 81 72 82 75 83 73 84 52 85 53 86
REMARK SMILES IDX 61 87 54 88 55 89 59 90 62 91 56 92 57 93 60 94 58 95
REMARK H PARENT 16 7 23 29 82 48 50 59
REMARK Flexibility Score: inf
ROOT
ATOM      1  C   UNL A   1      32.800  29.994  27.121  1.00  0.00     0.002 C 
ENDROOT
BRANCH   1   2
ATOM      2  C   UNL A   1      32.821  28.463  27.065  1.00  0.00     0.021 C 
BRANCH   2   3
ATOM      3  C   UNL A   1      33.883  27.894  26.121  1.00  0.00     0.116 C 
BRANCH   3   4
ATOM      4  N   UNL A   1      33.990  28.675  24.907  1.00  0.00    -0.356 N 
ATOM      5  C   UNL A   1      33.354  28.576  23.707  1.00  0.00     0.227 C 
ATOM      6  O   UNL A   1      33.747  29.339  22.816  1.00  0.00    -0.274 OA
ATOM      7  H   UNL A   1      34.642  29.411  24.958  1.00  0.00     0.163 HD
BRANCH   5   8
ATOM      8  C   UNL A   1      32.195  27.608  23.429  1.00  0.00     0.105 C 
ATOM      9  C   UNL A   1      30.853  28.064  24.006  1.00  0.00     0.023 C 
BRANCH   8  10
ATOM     10  C   UNL A   1      32.546  26.144  23.648  1.00  0.00    -0.036 A 
ATOM     11  C   UNL A   1      33.322  23.420  24.064  1.00  0.00    -0.017 A 
ATOM     12  C   UNL A   1      32.265  24.006  24.778  1.00  0.00     0.009 A 
ATOM     13  C   UNL A   1      33.974  24.230  23.122  1.00  0.00     0.009 A 
ATOM     14  C   UNL A   1      31.864  25.326  24.550  1.00  0.00     0.005 A 
ATOM     15  C   UNL A   1      33.607  25.570  22.931  1.00  0.00     0.005 A 
BRANCH  11  16
ATOM     16  C   UNL A   1      33.702  22.010  24.296  1.00  0.00     0.001 A 
ATOM     17  C   UNL A   1      33.341  19.605  24.060  1.00  0.00    -0.007 A 
ATOM     18  C   UNL A   1      34.522  19.414  24.770  1.00  0.00     0.119 A 
ATOM     19  C   UNL A   1      32.936  20.927  23.831  1.00  0.00     0.020 A 
ATOM     20  N   UNL A   1      35.298  20.413  25.240  1.00  0.00    -0.263 NA
ATOM     21  C   UNL A   1      34.864  21.672  24.998  1.00  0.00     0.119 A 
BRANCH  17  22
ATOM     22  C   UNL A   1      32.552  18.443  23.641  1.00  0.00     0.002 C 
ATOM     23  C   UNL A   1      32.231  18.172  22.371  1.00  0.00     0.009 C 
ENDBRANCH  17  22
ENDBRANCH  11  16
ENDBRANCH   8  10
ENDBRANCH   5   8
ENDBRANCH   3   4
ENDBRANCH   2   3
ENDBRANCH   1   2
BRANCH   1  24
ATOM     24  C   UNL A   1      31.548  30.650  26.523  1.00  0.00     0.002 C 
BRANCH  24  25
ATOM     25  C   UNL A   1      31.488  32.177  26.632  1.00  0.00     0.021 C 
BRANCH  25  26
ATOM     26  C   UNL A   1      32.655  32.809  27.387  1.00  0.00     0.116 C 
BRANCH  26  27
ATOM     27  N   UNL A   1      32.417  34.216  27.674  1.00  0.00    -0.352 N 
ATOM     28  C   UNL A   1      32.979  35.028  28.627  1.00  0.00     0.251 C 
ATOM     29  H   UNL A   1      31.751  34.653  27.095  1.00  0.00     0.163 HD
ATOM     30  O   UNL A   1      32.485  36.122  28.878  1.00  0.00    -0.269 OA
BRANCH  28  31
ATOM     31  C   UNL A   1      34.174  34.577  29.370  1.00  0.00     0.039 A 
ATOM     32  C   UNL A   1      34.025  34.118  30.681  1.00  0.00     0.014 A 
ATOM     33  C   UNL A   1      35.440  34.614  28.776  1.00  0.00     0.014 A 
ATOM     34  C   UNL A   1      35.132  33.613  31.367  1.00  0.00     0.010 A 
ATOM     35  C   UNL A   1      36.530  34.054  29.438  1.00  0.00     0.010 A 
ATOM     36  C   UNL A   1      36.382  33.532  30.732  1.00  0.00    -0.014 A 
BRANCH  36  37
ATOM     37  C   UNL A   1      37.529  32.846  31.378  1.00  0.00     0.031 A 
ATOM     38  C   UNL A   1      38.171  31.653  30.732  1.00  0.00     0.074 A 
ATOM     39  C   UNL A   1      37.930  33.252  32.598  1.00  0.00     0.049 A 
ATOM     40  N   UNL A   1      39.119  30.875  31.191  1.00  0.00    -0.248 NA
ATOM     41  C   UNL A   1      37.670  31.272  29.403  1.00  0.00     0.031 C 
ATOM     42  C   UNL A   1      37.353  34.370  33.347  1.00  0.00     0.029 A 
ATOM     43  N   UNL A   1      38.904  32.762  33.433  1.00  0.00    -0.354 N 
ATOM     44  C   UNL A   1      39.322  29.909  30.214  1.00  0.00     0.074 A 
ATOM     45  C   UNL A   1      38.368  30.172  29.156  1.00  0.00     0.031 C 
ATOM     46  C   UNL A   1      37.990  34.489  34.522  1.00  0.00     0.029 A 
ATOM     47  C   UNL A   1      38.988  33.430  34.630  1.00  0.00     0.049 A 
ATOM     48  H   UNL A   1      39.486  32.006  33.196  1.00  0.00     0.167 HD
ATOM     49  C   UNL A   1      40.232  28.907  30.196  1.00  0.00     0.037 A 
ATOM     50  C   UNL A   1      39.768  33.203  35.703  1.00  0.00     0.037 A 
ATOM     51  C   UNL A   1      41.186  28.658  31.247  1.00  0.00     0.049 A 
ATOM     52  C   UNL A   1      40.747  32.061  35.671  1.00  0.00     0.074 A 
ATOM     53  C   UNL A   1      42.195  27.712  31.290  1.00  0.00     0.029 A 
ATOM     54  N   UNL A   1      41.239  29.353  32.447  1.00  0.00    -0.354 N 
ATOM     55  N   UNL A   1      40.983  31.202  34.709  1.00  0.00    -0.248 NA
ATOM     56  C   UNL A   1      41.565  31.857  36.873  1.00  0.00     0.031 C 
ATOM     57  C   UNL A   1      42.824  27.797  32.537  1.00  0.00     0.029 A 
ATOM     58  C   UNL A   1      42.241  28.830  33.252  1.00  0.00     0.049 A 
ATOM     59  H   UNL A   1      40.653  30.104  32.691  1.00  0.00     0.167 HD
ATOM     60  C   UNL A   1      41.986  30.367  35.182  1.00  0.00     0.074 A 
ATOM     61  C   UNL A   1      42.331  30.838  36.507  1.00  0.00     0.031 C 
ATOM     62  C   UNL A   1      42.565  29.304  34.573  1.00  0.00     0.037 A 
BRANCH  49  63
ATOM     63  C   UNL A   1      40.246  27.998  29.001  1.00  0.00     0.064 A 
ATOM     64  C   UNL A   1      40.977  28.313  27.846  1.00  0.00     0.173 A 
ATOM     65  C   UNL A   1      39.560  26.774  29.029  1.00  0.00     0.173 A 
ATOM     66  F   UNL A   1      41.643  29.474  27.764  1.00  0.00    -0.203 F 
ATOM     67  C   UNL A   1      41.001  27.448  26.754  1.00  0.00     0.198 A 
ATOM     68  C   UNL A   1      39.611  25.898  27.948  1.00  0.00     0.198 A 
ATOM     69  F   UNL A   1      38.852  26.420  30.113  1.00  0.00    -0.203 F 
ATOM     70  F   UNL A   1      41.671  27.789  25.646  1.00  0.00    -0.200 F 
ATOM     71  C   UNL A   1      40.325  26.238  26.809  1.00  0.00     0.200 A 
ATOM     72  F   UNL A   1      38.968  24.724  28.008  1.00  0.00    -0.200 F 
ATOM     73  F   UNL A   1      40.358  25.403  25.762  1.00  0.00    -0.200 F 
ENDBRANCH  49  63
BRANCH  50  74
ATOM     74  C   UNL A   1      39.656  34.078  36.901  1.00  0.00     0.064 A 
ATOM     75  C   UNL A   1      38.863  33.702  37.994  1.00  0.00     0.173 A 
ATOM     76  C   UNL A   1      40.334  35.303  36.977  1.00  0.00     0.173 A 
ATOM     77  F   UNL A   1      38.179  32.549  37.958  1.00  0.00    -0.203 F 
ATOM     78  C   UNL A   1      38.738  34.527  39.109  1.00  0.00     0.198 A 
ATOM     79  C   UNL A   1      40.233  36.113  38.105  1.00  0.00     0.198 A 
ATOM     80  F   UNL A   1      41.109  35.706  35.959  1.00  0.00    -0.203 F 
ATOM     81  F   UNL A   1      37.940  34.164  40.122  1.00  0.00    -0.200 F 
ATOM     82  C   UNL A   1      39.429  35.728  39.167  1.00  0.00     0.200 A 
ATOM     83  F   UNL A   1      40.914  37.265  38.163  1.00  0.00    -0.200 F 
ATOM     84  F   UNL A   1      39.313  36.519  40.243  1.00  0.00    -0.200 F 
ENDBRANCH  50  74
BRANCH  62  85
ATOM     85  C   UNL A   1      43.639  28.581  35.335  1.00  0.00     0.064 A 
ATOM     86  C   UNL A   1      43.329  27.554  36.239  1.00  0.00     0.173 A 
ATOM     87  C   UNL A   1      44.991  28.893  35.133  1.00  0.00     0.173 A 
ATOM     88  F   UNL A   1      42.049  27.231  36.482  1.00  0.00    -0.203 F 
ATOM     89  C   UNL A   1      44.333  26.883  36.931  1.00  0.00     0.198 A 
ATOM     90  C   UNL A   1      45.995  28.198  35.803  1.00  0.00     0.198 A 
ATOM     91  F   UNL A   1      45.340  29.863  34.275  1.00  0.00    -0.203 F 
ATOM     92  F   UNL A   1      44.012  25.938  37.826  1.00  0.00    -0.200 F 
ATOM     93  C   UNL A   1      45.664  27.200  36.707  1.00  0.00     0.200 A 
ATOM     94  F   UNL A   1      47.281  28.496  35.574  1.00  0.00    -0.200 F 
ATOM     95  F   UNL A   1      46.631  26.547  37.367  1.00  0.00    -0.200 F 
ENDBRANCH  62  85
ENDBRANCH  36  37
ENDBRANCH  28  31
ENDBRANCH  26  27
ENDBRANCH  25  26
ENDBRANCH  24  25
ENDBRANCH   1  24
TORSDOF 16
ENDMDL
