MODEL 1
REMARK VINA RESULT:     -12.2      0.000      0.000
REMARK SMILES O=C(NCCCCCCNC(=O)[C@@H]1CCC(=O)N1C(=O)/C=C/c1ccccc1)c1ccc(-c2c3nc(c(-c4c(F)c(F)c(F)c(F)c4F)c4ccc([nH]4)c(-c4c(F)c(F)c(F)c(F)c4F)c4nc(c(-c5c(F)c(F)c(F)c(F)c5F)c5ccc2[nH]5)C=C4)C=C3)cc1
REMARK SMILES IDX 7 1 6 2 5 3 4 4 3 5 1 6 2 7 29 9 30 10 91 11 31 12 90 13
REMARK SMILES IDX 32 14 33 15 34 16 84 17 35 18 89 19 83 20 85 21 36 22 88 23
REMARK SMILES IDX 82 24 81 25 37 27 69 28 49 29 68 30 50 31 53 32 67 33 86 34
REMARK SMILES IDX 51 35 52 36 66 38 87 39 54 40 38 41 39 42 47 43 40 44 41 45
REMARK SMILES IDX 45 46 48 47 42 48 43 49 46 50 44 51 70 52 71 53 79 54 72 55
REMARK SMILES IDX 73 56 77 57 80 58 74 59 75 60 78 61 76 62 55 63 56 64 64 65
REMARK SMILES IDX 57 66 58 67 62 68 65 69 59 70 60 71 63 72 61 73 8 74 9 75
REMARK SMILES IDX 10 76 11 77 12 79 13 80 14 81 18 82 15 83 16 84 17 85 19 86
REMARK SMILES IDX 20 87 21 88 22 89 23 90 24 91 28 92 25 93 27 94 26 95
REMARK H PARENT 3 8 85 26 53 37 10 78
REMARK Flexibility Score: inf
ROOT
ATOM      1  C   UNL A   1      32.293  28.958  26.737  1.00  0.00     0.002 C 
ENDROOT
BRANCH   1   2
ATOM      2  C   UNL A   1      31.716  30.048  25.828  1.00  0.00     0.002 C 
BRANCH   2   3
ATOM      3  C   UNL A   1      31.461  31.399  26.491  1.00  0.00     0.021 C 
BRANCH   3   4
ATOM      4  C   UNL A   1      32.712  32.171  26.875  1.00  0.00     0.116 C 
BRANCH   4   5
ATOM      5  N   UNL A   1      32.433  33.502  27.392  1.00  0.00    -0.352 N 
ATOM      6  O   UNL A   1      32.687  35.278  28.772  1.00  0.00    -0.269 OA
ATOM      7  C   UNL A   1      33.114  34.205  28.358  1.00  0.00     0.251 C 
ATOM      8  H   UNL A   1      31.656  33.959  26.998  1.00  0.00     0.163 HD
BRANCH   7   9
ATOM      9  C   UNL A   1      34.358  33.636  28.919  1.00  0.00     0.039 A 
ATOM     10  C   UNL A   1      34.306  32.497  29.723  1.00  0.00     0.014 A 
ATOM     11  C   UNL A   1      35.581  34.266  28.668  1.00  0.00     0.014 A 
ATOM     12  C   UNL A   1      35.440  32.094  30.413  1.00  0.00     0.010 A 
ATOM     13  C   UNL A   1      36.746  33.785  29.275  1.00  0.00     0.010 A 
ATOM     14  C   UNL A   1      36.680  32.713  30.176  1.00  0.00    -0.014 A 
BRANCH  14  15
ATOM     15  C   UNL A   1      37.886  32.142  30.831  1.00  0.00     0.031 A 
ATOM     16  C   UNL A   1      38.295  32.535  32.222  1.00  0.00     0.074 A 
ATOM     17  C   UNL A   1      38.576  31.197  30.162  1.00  0.00     0.049 A 
ATOM     18  N   UNL A   1      39.278  32.066  32.951  1.00  0.00    -0.248 NA
ATOM     19  C   UNL A   1      37.515  33.593  32.880  1.00  0.00     0.031 C 
ATOM     20  C   UNL A   1      38.283  30.758  28.794  1.00  0.00     0.029 A 
ATOM     21  N   UNL A   1      39.631  30.409  30.542  1.00  0.00    -0.354 N 
ATOM     22  C   UNL A   1      39.238  32.771  34.147  1.00  0.00     0.074 A 
ATOM     23  C   UNL A   1      38.156  33.727  34.035  1.00  0.00     0.031 C 
ATOM     24  C   UNL A   1      39.090  29.739  28.475  1.00  0.00     0.029 A 
ATOM     25  C   UNL A   1      40.007  29.502  29.582  1.00  0.00     0.049 A 
ATOM     26  H   UNL A   1      40.075  30.487  31.416  1.00  0.00     0.167 HD
ATOM     27  C   UNL A   1      40.026  32.621  35.240  1.00  0.00     0.037 A 
ATOM     28  C   UNL A   1      40.994  28.589  29.582  1.00  0.00     0.037 A 
ATOM     29  C   UNL A   1      41.100  31.665  35.344  1.00  0.00     0.049 A 
ATOM     30  C   UNL A   1      41.855  28.457  30.804  1.00  0.00     0.074 A 
ATOM     31  C   UNL A   1      41.953  31.433  36.410  1.00  0.00     0.029 A 
ATOM     32  N   UNL A   1      41.473  30.780  34.340  1.00  0.00    -0.354 N 
ATOM     33  N   UNL A   1      41.788  29.113  31.937  1.00  0.00    -0.248 NA
ATOM     34  C   UNL A   1      42.928  27.458  30.749  1.00  0.00     0.031 C 
ATOM     35  C   UNL A   1      42.865  30.440  36.037  1.00  0.00     0.029 A 
ATOM     36  C   UNL A   1      42.550  30.013  34.757  1.00  0.00     0.049 A 
ATOM     37  H   UNL A   1      41.036  30.709  33.461  1.00  0.00     0.167 HD
ATOM     38  C   UNL A   1      42.804  28.604  32.731  1.00  0.00     0.074 A 
ATOM     39  C   UNL A   1      43.445  27.556  31.965  1.00  0.00     0.031 C 
ATOM     40  C   UNL A   1      43.181  28.980  33.977  1.00  0.00     0.037 A 
BRANCH  27  41
ATOM     41  C   UNL A   1      39.765  33.515  36.420  1.00  0.00     0.064 A 
ATOM     42  C   UNL A   1      40.377  34.772  36.539  1.00  0.00     0.173 A 
ATOM     43  C   UNL A   1      38.841  33.142  37.410  1.00  0.00     0.173 A 
ATOM     44  F   UNL A   1      41.274  35.175  35.626  1.00  0.00    -0.203 F 
ATOM     45  C   UNL A   1      40.087  35.614  37.611  1.00  0.00     0.198 A 
ATOM     46  C   UNL A   1      38.533  33.998  38.464  1.00  0.00     0.198 A 
ATOM     47  F   UNL A   1      38.220  31.955  37.342  1.00  0.00    -0.203 F 
ATOM     48  F   UNL A   1      40.710  36.796  37.720  1.00  0.00    -0.200 F 
ATOM     49  C   UNL A   1      39.159  35.230  38.567  1.00  0.00     0.200 A 
ATOM     50  F   UNL A   1      37.624  33.632  39.380  1.00  0.00    -0.200 F 
ATOM     51  F   UNL A   1      38.870  36.048  39.589  1.00  0.00    -0.200 F 
ENDBRANCH  27  41
BRANCH  28  52
ATOM     52  C   UNL A   1      41.227  27.751  28.378  1.00  0.00     0.064 A 
ATOM     53  C   UNL A   1      42.112  28.153  27.369  1.00  0.00     0.173 A 
ATOM     54  C   UNL A   1      40.566  26.524  28.213  1.00  0.00     0.173 A 
ATOM     55  F   UNL A   1      42.758  29.324  27.472  1.00  0.00    -0.203 F 
ATOM     56  C   UNL A   1      42.308  27.371  26.232  1.00  0.00     0.198 A 
ATOM     57  C   UNL A   1      40.791  25.726  27.095  1.00  0.00     0.198 A 
ATOM     58  F   UNL A   1      39.714  26.087  29.154  1.00  0.00    -0.203 F 
ATOM     59  F   UNL A   1      43.121  27.804  25.258  1.00  0.00    -0.200 F 
ATOM     60  C   UNL A   1      41.655  26.156  26.099  1.00  0.00     0.200 A 
ATOM     61  F   UNL A   1      40.174  24.542  26.983  1.00  0.00    -0.200 F 
ATOM     62  F   UNL A   1      41.850  25.402  25.009  1.00  0.00    -0.200 F 
ENDBRANCH  28  52
BRANCH  40  63
ATOM     63  C   UNL A   1      44.333  28.232  34.585  1.00  0.00     0.064 A 
ATOM     64  C   UNL A   1      44.139  27.050  35.316  1.00  0.00     0.173 A 
ATOM     65  C   UNL A   1      45.645  28.707  34.440  1.00  0.00     0.173 A 
ATOM     66  F   UNL A   1      42.900  26.566  35.498  1.00  0.00    -0.203 F 
ATOM     67  C   UNL A   1      45.210  26.395  35.916  1.00  0.00     0.198 A 
ATOM     68  C   UNL A   1      46.718  28.030  35.013  1.00  0.00     0.198 A 
ATOM     69  F   UNL A   1      45.886  29.829  33.747  1.00  0.00    -0.203 F 
ATOM     70  F   UNL A   1      44.991  25.307  36.667  1.00  0.00    -0.200 F 
ATOM     71  C   UNL A   1      46.499  26.882  35.760  1.00  0.00     0.200 A 
ATOM     72  F   UNL A   1      47.964  28.496  34.852  1.00  0.00    -0.200 F 
ATOM     73  F   UNL A   1      47.529  26.254  36.342  1.00  0.00    -0.200 F 
ENDBRANCH  40  63
ENDBRANCH  14  15
ENDBRANCH   7   9
ENDBRANCH   4   5
ENDBRANCH   3   4
ENDBRANCH   2   3
ENDBRANCH   1   2
BRANCH   1  74
ATOM     74  C   UNL A   1      31.367  27.775  27.045  1.00  0.00     0.021 C 
BRANCH  74  75
ATOM     75  C   UNL A   1      31.520  26.581  26.112  1.00  0.00     0.116 C 
BRANCH  75  76
ATOM     76  N   UNL A   1      32.887  26.098  26.038  1.00  0.00    -0.354 N 
ATOM     77  C   UNL A   1      33.448  25.266  25.113  1.00  0.00     0.243 C 
ATOM     78  H   UNL A   1      33.489  26.414  26.750  1.00  0.00     0.163 HD
ATOM     79  O   UNL A   1      34.680  25.221  25.054  1.00  0.00    -0.273 OA
BRANCH  77  80
ATOM     80  C   UNL A   1      32.558  24.436  24.169  1.00  0.00     0.183 C 
ATOM     81  C   UNL A   1      32.835  22.954  24.422  1.00  0.00     0.046 C 
ATOM     82  N   UNL A   1      32.915  24.641  22.770  1.00  0.00    -0.266 N 
ATOM     83  C   UNL A   1      32.673  22.320  23.061  1.00  0.00     0.103 C 
ATOM     84  C   UNL A   1      33.140  23.409  22.133  1.00  0.00     0.230 C 
ATOM     85  O   UNL A   1      33.576  23.194  21.013  1.00  0.00    -0.274 OA
BRANCH  82  86
ATOM     86  C   UNL A   1      32.750  25.900  22.218  1.00  0.00     0.253 C 
ATOM     87  O   UNL A   1      33.657  26.496  21.637  1.00  0.00    -0.269 OA
BRANCH  86  88
ATOM     88  C   UNL A   1      31.452  26.605  22.289  1.00  0.00     0.072 C 
ATOM     89  C   UNL A   1      31.323  27.893  22.639  1.00  0.00     0.014 C 
BRANCH  89  90
ATOM     90  C   UNL A   1      30.067  28.664  22.587  1.00  0.00    -0.025 A 
ATOM     91  C   UNL A   1      30.080  29.917  21.955  1.00  0.00     0.008 A 
ATOM     92  C   UNL A   1      28.858  28.212  23.134  1.00  0.00     0.008 A 
ATOM     93  C   UNL A   1      28.920  30.692  21.872  1.00  0.00     0.001 A 
ATOM     94  C   UNL A   1      27.698  28.986  23.051  1.00  0.00     0.001 A 
ATOM     95  C   UNL A   1      27.729  30.227  22.421  1.00  0.00     0.000 A 
ENDBRANCH  89  90
ENDBRANCH  86  88
ENDBRANCH  82  86
ENDBRANCH  77  80
ENDBRANCH  75  76
ENDBRANCH  74  75
ENDBRANCH   1  74
TORSDOF 16
ENDMDL
MODEL 2
REMARK VINA RESULT:     -12.0      0.866      1.952
REMARK SMILES O=C(NCCCCCCNC(=O)[C@@H]1CCC(=O)N1C(=O)/C=C/c1ccccc1)c1ccc(-c2c3nc(c(-c4c(F)c(F)c(F)c(F)c4F)c4ccc([nH]4)c(-c4c(F)c(F)c(F)c(F)c4F)c4nc(c(-c5c(F)c(F)c(F)c(F)c5F)c5ccc2[nH]5)C=C4)C=C3)cc1
REMARK SMILES IDX 7 1 6 2 5 3 4 4 3 5 1 6 2 7 29 9 30 10 91 11 31 12 90 13
REMARK SMILES IDX 32 14 33 15 34 16 84 17 35 18 89 19 83 20 85 21 36 22 88 23
REMARK SMILES IDX 82 24 81 25 37 27 69 28 49 29 68 30 50 31 53 32 67 33 86 34
REMARK SMILES IDX 51 35 52 36 66 38 87 39 54 40 38 41 39 42 47 43 40 44 41 45
REMARK SMILES IDX 45 46 48 47 42 48 43 49 46 50 44 51 70 52 71 53 79 54 72 55
REMARK SMILES IDX 73 56 77 57 80 58 74 59 75 60 78 61 76 62 55 63 56 64 64 65
REMARK SMILES IDX 57 66 58 67 62 68 65 69 59 70 60 71 63 72 61 73 8 74 9 75
REMARK SMILES IDX 10 76 11 77 12 79 13 80 14 81 18 82 15 83 16 84 17 85 19 86
REMARK SMILES IDX 20 87 21 88 22 89 23 90 24 91 28 92 25 93 27 94 26 95
REMARK H PARENT 3 8 85 26 53 37 10 78
REMARK Flexibility Score: inf
ROOT
ATOM      1  C   UNL A   1      31.923  29.363  26.771  1.00  0.00     0.002 C 
ENDROOT
BRANCH   1   2
ATOM      2  C   UNL A   1      31.476  30.428  25.764  1.00  0.00     0.002 C 
BRANCH   2   3
ATOM      3  C   UNL A   1      31.266  31.830  26.329  1.00  0.00     0.021 C 
BRANCH   3   4
ATOM      4  C   UNL A   1      32.506  32.473  26.926  1.00  0.00     0.116 C 
BRANCH   4   5
ATOM      5  N   UNL A   1      32.272  33.816  27.435  1.00  0.00    -0.352 N 
ATOM      6  O   UNL A   1      32.584  35.591  28.805  1.00  0.00    -0.269 OA
ATOM      7  C   UNL A   1      32.973  34.501  28.399  1.00  0.00     0.251 C 
ATOM      8  H   UNL A   1      31.513  34.298  27.035  1.00  0.00     0.163 HD
BRANCH   7   9
ATOM      9  C   UNL A   1      34.195  33.891  28.968  1.00  0.00     0.039 A 
ATOM     10  C   UNL A   1      34.094  32.835  29.873  1.00  0.00     0.014 A 
ATOM     11  C   UNL A   1      35.449  34.405  28.622  1.00  0.00     0.014 A 
ATOM     12  C   UNL A   1      35.221  32.410  30.559  1.00  0.00     0.010 A 
ATOM     13  C   UNL A   1      36.599  33.893  29.232  1.00  0.00     0.010 A 
ATOM     14  C   UNL A   1      36.492  32.911  30.228  1.00  0.00    -0.014 A 
BRANCH  14  15
ATOM     15  C   UNL A   1      37.679  32.313  30.892  1.00  0.00     0.031 A 
ATOM     16  C   UNL A   1      38.084  32.691  32.288  1.00  0.00     0.074 A 
ATOM     17  C   UNL A   1      38.354  31.354  30.226  1.00  0.00     0.049 A 
ATOM     18  N   UNL A   1      39.049  32.198  33.025  1.00  0.00    -0.248 NA
ATOM     19  C   UNL A   1      37.321  33.764  32.942  1.00  0.00     0.031 C 
ATOM     20  C   UNL A   1      38.064  30.926  28.853  1.00  0.00     0.029 A 
ATOM     21  N   UNL A   1      39.387  30.542  30.613  1.00  0.00    -0.354 N 
ATOM     22  C   UNL A   1      39.014  32.899  34.223  1.00  0.00     0.074 A 
ATOM     23  C   UNL A   1      37.954  33.880  34.104  1.00  0.00     0.031 C 
ATOM     24  C   UNL A   1      38.852  29.891  28.538  1.00  0.00     0.029 A 
ATOM     25  C   UNL A   1      39.753  29.630  29.653  1.00  0.00     0.049 A 
ATOM     26  H   UNL A   1      39.825  30.607  31.492  1.00  0.00     0.167 HD
ATOM     27  C   UNL A   1      39.787  32.729  35.323  1.00  0.00     0.037 A 
ATOM     28  C   UNL A   1      40.719  28.695  29.659  1.00  0.00     0.037 A 
ATOM     29  C   UNL A   1      40.839  31.749  35.433  1.00  0.00     0.049 A 
ATOM     30  C   UNL A   1      41.565  28.540  30.889  1.00  0.00     0.074 A 
ATOM     31  C   UNL A   1      41.676  31.495  36.507  1.00  0.00     0.029 A 
ATOM     32  N   UNL A   1      41.202  30.859  34.430  1.00  0.00    -0.354 N 
ATOM     33  N   UNL A   1      41.502  29.194  32.024  1.00  0.00    -0.248 NA
ATOM     34  C   UNL A   1      42.616  27.517  30.840  1.00  0.00     0.031 C 
ATOM     35  C   UNL A   1      42.569  30.482  36.139  1.00  0.00     0.029 A 
ATOM     36  C   UNL A   1      42.257  30.067  34.854  1.00  0.00     0.049 A 
ATOM     37  H   UNL A   1      40.772  30.800  33.546  1.00  0.00     0.167 HD
ATOM     38  C   UNL A   1      42.499  28.660  32.826  1.00  0.00     0.074 A 
ATOM     39  C   UNL A   1      43.124  27.600  32.062  1.00  0.00     0.031 C 
ATOM     40  C   UNL A   1      42.872  29.023  34.077  1.00  0.00     0.037 A 
BRANCH  27  41
ATOM     41  C   UNL A   1      39.535  33.624  36.504  1.00  0.00     0.064 A 
ATOM     42  C   UNL A   1      38.731  33.213  37.578  1.00  0.00     0.173 A 
ATOM     43  C   UNL A   1      40.157  34.880  36.596  1.00  0.00     0.173 A 
ATOM     44  F   UNL A   1      38.106  32.027  37.538  1.00  0.00    -0.203 F 
ATOM     45  C   UNL A   1      38.547  34.031  38.691  1.00  0.00     0.198 A 
ATOM     46  C   UNL A   1      39.993  35.682  37.722  1.00  0.00     0.198 A 
ATOM     47  F   UNL A   1      40.943  35.319  35.601  1.00  0.00    -0.203 F 
ATOM     48  F   UNL A   1      37.747  33.631  39.690  1.00  0.00    -0.200 F 
ATOM     49  C   UNL A   1      39.185  35.260  38.766  1.00  0.00     0.200 A 
ATOM     50  F   UNL A   1      40.623  36.863  37.799  1.00  0.00    -0.200 F 
ATOM     51  F   UNL A   1      39.019  36.039  39.844  1.00  0.00    -0.200 F 
ENDBRANCH  27  41
BRANCH  28  52
ATOM     52  C   UNL A   1      40.945  27.856  28.454  1.00  0.00     0.064 A 
ATOM     53  C   UNL A   1      41.809  28.267  27.431  1.00  0.00     0.173 A 
ATOM     54  C   UNL A   1      40.298  26.619  28.304  1.00  0.00     0.173 A 
ATOM     55  F   UNL A   1      42.440  29.446  27.520  1.00  0.00    -0.203 F 
ATOM     56  C   UNL A   1      41.998  27.484  26.294  1.00  0.00     0.198 A 
ATOM     57  C   UNL A   1      40.517  25.821  27.186  1.00  0.00     0.198 A 
ATOM     58  F   UNL A   1      39.468  26.175  29.260  1.00  0.00    -0.203 F 
ATOM     59  F   UNL A   1      42.790  27.925  25.306  1.00  0.00    -0.200 F 
ATOM     60  C   UNL A   1      41.359  26.259  26.175  1.00  0.00     0.200 A 
ATOM     61  F   UNL A   1      39.915  24.628  27.087  1.00  0.00    -0.200 F 
ATOM     62  F   UNL A   1      41.548  25.505  25.084  1.00  0.00    -0.200 F 
ENDBRANCH  28  52
BRANCH  40  63
ATOM     63  C   UNL A   1      44.002  28.248  34.692  1.00  0.00     0.064 A 
ATOM     64  C   UNL A   1      45.341  28.615  34.491  1.00  0.00     0.173 A 
ATOM     65  C   UNL A   1      43.742  27.121  35.487  1.00  0.00     0.173 A 
ATOM     66  F   UNL A   1      45.642  29.674  33.724  1.00  0.00    -0.203 F 
ATOM     67  C   UNL A   1      46.379  27.859  35.028  1.00  0.00     0.198 A 
ATOM     68  C   UNL A   1      44.782  26.387  36.050  1.00  0.00     0.198 A 
ATOM     69  F   UNL A   1      42.479  26.731  35.715  1.00  0.00    -0.203 F 
ATOM     70  F   UNL A   1      47.651  28.190  34.764  1.00  0.00    -0.200 F 
ATOM     71  C   UNL A   1      46.099  26.749  35.810  1.00  0.00     0.200 A 
ATOM     72  F   UNL A   1      44.510  25.321  36.815  1.00  0.00    -0.200 F 
ATOM     73  F   UNL A   1      47.100  26.019  36.321  1.00  0.00    -0.200 F 
ENDBRANCH  40  63
ENDBRANCH  14  15
ENDBRANCH   7   9
ENDBRANCH   4   5
ENDBRANCH   3   4
ENDBRANCH   2   3
ENDBRANCH   1   2
BRANCH   1  74
ATOM     74  C   UNL A   1      33.343  28.814  26.588  1.00  0.00     0.021 C 
BRANCH  74  75
ATOM     75  C   UNL A   1      33.417  27.391  26.051  1.00  0.00     0.116 C 
BRANCH  75  76
ATOM     76  N   UNL A   1      33.747  27.340  24.639  1.00  0.00    -0.354 N 
ATOM     77  C   UNL A   1      33.678  26.277  23.785  1.00  0.00     0.243 C 
ATOM     78  H   UNL A   1      34.061  28.185  24.244  1.00  0.00     0.163 HD
ATOM     79  O   UNL A   1      33.711  26.511  22.573  1.00  0.00    -0.273 OA
BRANCH  77  80
ATOM     80  C   UNL A   1      33.544  24.844  24.333  1.00  0.00     0.183 C 
ATOM     81  C   UNL A   1      34.600  23.968  23.661  1.00  0.00     0.046 C 
ATOM     82  N   UNL A   1      32.272  24.238  23.955  1.00  0.00    -0.266 N 
ATOM     83  C   UNL A   1      33.928  22.621  23.541  1.00  0.00     0.103 C 
ATOM     84  C   UNL A   1      32.483  22.991  23.344  1.00  0.00     0.230 C 
ATOM     85  O   UNL A   1      31.674  22.264  22.789  1.00  0.00    -0.274 OA
BRANCH  82  86
ATOM     86  C   UNL A   1      31.099  24.795  24.437  1.00  0.00     0.253 C 
ATOM     87  O   UNL A   1      30.608  24.479  25.521  1.00  0.00    -0.269 OA
BRANCH  86  88
ATOM     88  C   UNL A   1      30.365  25.822  23.667  1.00  0.00     0.072 C 
ATOM     89  C   UNL A   1      30.182  27.080  24.090  1.00  0.00     0.014 C 
BRANCH  89  90
ATOM     90  C   UNL A   1      29.579  28.164  23.292  1.00  0.00    -0.025 A 
ATOM     91  C   UNL A   1      28.182  28.297  23.297  1.00  0.00     0.008 A 
ATOM     92  C   UNL A   1      30.326  29.073  22.529  1.00  0.00     0.008 A 
ATOM     93  C   UNL A   1      27.553  29.306  22.563  1.00  0.00     0.001 A 
ATOM     94  C   UNL A   1      29.699  30.083  21.796  1.00  0.00     0.001 A 
ATOM     95  C   UNL A   1      28.312  30.199  21.812  1.00  0.00     0.000 A 
ENDBRANCH  89  90
ENDBRANCH  86  88
ENDBRANCH  82  86
ENDBRANCH  77  80
ENDBRANCH  75  76
ENDBRANCH  74  75
ENDBRANCH   1  74
TORSDOF 16
ENDMDL
MODEL 3
REMARK VINA RESULT:     -12.0      1.114      2.136
REMARK SMILES O=C(NCCCCCCNC(=O)[C@@H]1CCC(=O)N1C(=O)/C=C/c1ccccc1)c1ccc(-c2c3nc(c(-c4c(F)c(F)c(F)c(F)c4F)c4ccc([nH]4)c(-c4c(F)c(F)c(F)c(F)c4F)c4nc(c(-c5c(F)c(F)c(F)c(F)c5F)c5ccc2[nH]5)C=C4)C=C3)cc1
REMARK SMILES IDX 7 1 6 2 5 3 4 4 3 5 1 6 2 7 29 9 30 10 91 11 31 12 90 13
REMARK SMILES IDX 32 14 33 15 34 16 84 17 35 18 89 19 83 20 85 21 36 22 88 23
REMARK SMILES IDX 82 24 81 25 37 27 69 28 49 29 68 30 50 31 53 32 67 33 86 34
REMARK SMILES IDX 51 35 52 36 66 38 87 39 54 40 38 41 39 42 47 43 40 44 41 45
REMARK SMILES IDX 45 46 48 47 42 48 43 49 46 50 44 51 70 52 71 53 79 54 72 55
REMARK SMILES IDX 73 56 77 57 80 58 74 59 75 60 78 61 76 62 55 63 56 64 64 65
REMARK SMILES IDX 57 66 58 67 62 68 65 69 59 70 60 71 63 72 61 73 8 74 9 75
REMARK SMILES IDX 10 76 11 77 12 79 13 80 14 81 18 82 15 83 16 84 17 85 19 86
REMARK SMILES IDX 20 87 21 88 22 89 23 90 24 91 28 92 25 93 27 94 26 95
REMARK H PARENT 3 8 85 26 53 37 10 78
REMARK Flexibility Score: inf
ROOT
ATOM      1  C   UNL A   1      33.097  29.929  26.935  1.00  0.00     0.002 C 
ENDROOT
BRANCH   1   2
ATOM      2  C   UNL A   1      31.740  30.482  26.487  1.00  0.00     0.002 C 
BRANCH   2   3
ATOM      3  C   UNL A   1      31.485  31.954  26.803  1.00  0.00     0.021 C 
BRANCH   3   4
ATOM      4  C   UNL A   1      32.716  32.743  27.215  1.00  0.00     0.116 C 
BRANCH   4   5
ATOM      5  N   UNL A   1      32.417  34.107  27.624  1.00  0.00    -0.352 N 
ATOM      6  O   UNL A   1      32.570  35.956  28.920  1.00  0.00    -0.269 OA
ATOM      7  C   UNL A   1      33.011  34.853  28.615  1.00  0.00     0.251 C 
ATOM      8  H   UNL A   1      31.696  34.554  27.125  1.00  0.00     0.163 HD
BRANCH   7   9
ATOM      9  C   UNL A   1      34.177  34.296  29.334  1.00  0.00     0.039 A 
ATOM     10  C   UNL A   1      35.468  34.531  28.862  1.00  0.00     0.014 A 
ATOM     11  C   UNL A   1      33.975  33.500  30.466  1.00  0.00     0.014 A 
ATOM     12  C   UNL A   1      36.535  33.838  29.411  1.00  0.00     0.010 A 
ATOM     13  C   UNL A   1      35.069  32.893  31.091  1.00  0.00     0.010 A 
ATOM     14  C   UNL A   1      36.356  33.033  30.550  1.00  0.00    -0.014 A 
BRANCH  14  15
ATOM     15  C   UNL A   1      37.559  32.434  31.183  1.00  0.00     0.031 A 
ATOM     16  C   UNL A   1      38.003  32.815  32.567  1.00  0.00     0.074 A 
ATOM     17  C   UNL A   1      38.214  31.472  30.502  1.00  0.00     0.049 A 
ATOM     18  N   UNL A   1      38.986  32.322  33.279  1.00  0.00    -0.248 NA
ATOM     19  C   UNL A   1      37.260  33.891  33.239  1.00  0.00     0.031 C 
ATOM     20  C   UNL A   1      37.887  31.041  29.139  1.00  0.00     0.029 A 
ATOM     21  N   UNL A   1      39.256  30.659  30.863  1.00  0.00    -0.354 N 
ATOM     22  C   UNL A   1      38.985  33.027  34.475  1.00  0.00     0.074 A 
ATOM     23  C   UNL A   1      37.924  34.009  34.382  1.00  0.00     0.031 C 
ATOM     24  C   UNL A   1      38.663  30.003  28.806  1.00  0.00     0.029 A 
ATOM     25  C   UNL A   1      39.593  29.743  29.897  1.00  0.00     0.049 A 
ATOM     26  H   UNL A   1      39.718  30.725  31.730  1.00  0.00     0.167 HD
ATOM     27  C   UNL A   1      39.787  32.858  35.555  1.00  0.00     0.037 A 
ATOM     28  C   UNL A   1      40.558  28.806  29.879  1.00  0.00     0.037 A 
ATOM     29  C   UNL A   1      40.840  31.876  35.639  1.00  0.00     0.049 A 
ATOM     30  C   UNL A   1      41.437  28.652  31.086  1.00  0.00     0.074 A 
ATOM     31  C   UNL A   1      41.705  31.623  36.690  1.00  0.00     0.029 A 
ATOM     32  N   UNL A   1      41.173  30.983  34.629  1.00  0.00    -0.354 N 
ATOM     33  N   UNL A   1      41.405  29.310  32.220  1.00  0.00    -0.248 NA
ATOM     34  C   UNL A   1      42.484  27.628  31.012  1.00  0.00     0.031 C 
ATOM     35  C   UNL A   1      42.586  30.608  36.301  1.00  0.00     0.029 A 
ATOM     36  C   UNL A   1      42.239  30.189  35.027  1.00  0.00     0.049 A 
ATOM     37  H   UNL A   1      40.720  30.922  33.757  1.00  0.00     0.167 HD
ATOM     38  C   UNL A   1      42.423  28.776  32.996  1.00  0.00     0.074 A 
ATOM     39  C   UNL A   1      43.024  27.713  32.219  1.00  0.00     0.031 C 
ATOM     40  C   UNL A   1      42.830  29.142  34.236  1.00  0.00     0.037 A 
BRANCH  27  41
ATOM     41  C   UNL A   1      39.569  33.757  36.739  1.00  0.00     0.064 A 
ATOM     42  C   UNL A   1      38.748  33.373  37.810  1.00  0.00     0.173 A 
ATOM     43  C   UNL A   1      40.240  34.986  36.838  1.00  0.00     0.173 A 
ATOM     44  F   UNL A   1      38.077  32.213  37.764  1.00  0.00    -0.203 F 
ATOM     45  C   UNL A   1      38.594  34.192  38.927  1.00  0.00     0.198 A 
ATOM     46  C   UNL A   1      40.106  35.789  37.968  1.00  0.00     0.198 A 
ATOM     47  F   UNL A   1      41.044  35.399  35.846  1.00  0.00    -0.203 F 
ATOM     48  F   UNL A   1      37.779  33.820  39.923  1.00  0.00    -0.200 F 
ATOM     49  C   UNL A   1      39.281  35.395  39.009  1.00  0.00     0.200 A 
ATOM     50  F   UNL A   1      40.783  36.944  38.052  1.00  0.00    -0.200 F 
ATOM     51  F   UNL A   1      39.144  36.174  40.091  1.00  0.00    -0.200 F 
ENDBRANCH  27  41
BRANCH  28  52
ATOM     52  C   UNL A   1      40.749  27.964  28.671  1.00  0.00     0.064 A 
ATOM     53  C   UNL A   1      40.092  26.734  28.527  1.00  0.00     0.173 A 
ATOM     54  C   UNL A   1      41.595  28.376  27.630  1.00  0.00     0.173 A 
ATOM     55  F   UNL A   1      39.284  26.289  29.500  1.00  0.00    -0.203 F 
ATOM     56  C   UNL A   1      40.294  25.940  27.400  1.00  0.00     0.198 A 
ATOM     57  C   UNL A   1      41.766  27.600  26.488  1.00  0.00     0.198 A 
ATOM     58  F   UNL A   1      42.240  29.550  27.713  1.00  0.00    -0.203 F 
ATOM     59  F   UNL A   1      39.694  24.744  27.312  1.00  0.00    -0.200 F 
ATOM     60  C   UNL A   1      41.123  26.376  26.379  1.00  0.00     0.200 A 
ATOM     61  F   UNL A   1      42.551  28.036  25.494  1.00  0.00    -0.200 F 
ATOM     62  F   UNL A   1      41.311  25.614  25.292  1.00  0.00    -0.200 F 
ENDBRANCH  28  52
BRANCH  40  63
ATOM     63  C   UNL A   1      43.974  28.366  34.823  1.00  0.00     0.064 A 
ATOM     64  C   UNL A   1      43.765  27.186  35.553  1.00  0.00     0.173 A 
ATOM     65  C   UNL A   1      45.294  28.812  34.660  1.00  0.00     0.173 A 
ATOM     66  F   UNL A   1      42.519  26.729  35.753  1.00  0.00    -0.203 F 
ATOM     67  C   UNL A   1      44.831  26.505  36.134  1.00  0.00     0.198 A 
ATOM     68  C   UNL A   1      46.361  28.109  35.213  1.00  0.00     0.198 A 
ATOM     69  F   UNL A   1      45.550  29.931  33.966  1.00  0.00    -0.203 F 
ATOM     70  F   UNL A   1      44.598  25.419  36.885  1.00  0.00    -0.200 F 
ATOM     71  C   UNL A   1      46.128  26.963  35.960  1.00  0.00     0.200 A 
ATOM     72  F   UNL A   1      47.615  28.547  35.035  1.00  0.00    -0.200 F 
ATOM     73  F   UNL A   1      47.152  26.309  36.524  1.00  0.00    -0.200 F 
ENDBRANCH  40  63
ENDBRANCH  14  15
ENDBRANCH   7   9
ENDBRANCH   4   5
ENDBRANCH   3   4
ENDBRANCH   2   3
ENDBRANCH   1   2
BRANCH   1  74
ATOM     74  C   UNL A   1      33.892  29.153  25.877  1.00  0.00     0.021 C 
BRANCH  74  75
ATOM     75  C   UNL A   1      33.071  28.657  24.694  1.00  0.00     0.116 C 
BRANCH  75  76
ATOM     76  N   UNL A   1      33.729  27.589  23.964  1.00  0.00    -0.354 N 
ATOM     77  C   UNL A   1      33.521  26.243  24.049  1.00  0.00     0.243 C 
ATOM     78  H   UNL A   1      34.418  27.875  23.321  1.00  0.00     0.163 HD
ATOM     79  O   UNL A   1      33.960  25.535  23.138  1.00  0.00    -0.273 OA
BRANCH  77  80
ATOM     80  C   UNL A   1      32.743  25.648  25.237  1.00  0.00     0.183 C 
ATOM     81  C   UNL A   1      33.725  24.886  26.126  1.00  0.00     0.046 C 
ATOM     82  N   UNL A   1      31.783  24.639  24.805  1.00  0.00    -0.266 N 
ATOM     83  C   UNL A   1      32.909  23.733  26.660  1.00  0.00     0.103 C 
ATOM     84  C   UNL A   1      31.964  23.446  25.524  1.00  0.00     0.230 C 
ATOM     85  O   UNL A   1      31.438  22.358  25.348  1.00  0.00    -0.274 OA
BRANCH  82  86
ATOM     86  C   UNL A   1      30.730  25.025  23.992  1.00  0.00     0.253 C 
ATOM     87  O   UNL A   1      30.266  24.297  23.114  1.00  0.00    -0.269 OA
BRANCH  86  88
ATOM     88  C   UNL A   1      30.092  26.351  24.141  1.00  0.00     0.072 C 
ATOM     89  C   UNL A   1      29.947  27.224  23.135  1.00  0.00     0.014 C 
BRANCH  89  90
ATOM     90  C   UNL A   1      29.195  28.491  23.213  1.00  0.00    -0.025 A 
ATOM     91  C   UNL A   1      29.908  29.674  23.461  1.00  0.00     0.008 A 
ATOM     92  C   UNL A   1      27.805  28.578  23.050  1.00  0.00     0.008 A 
ATOM     93  C   UNL A   1      29.250  30.905  23.544  1.00  0.00     0.001 A 
ATOM     94  C   UNL A   1      27.147  29.807  23.131  1.00  0.00     0.001 A 
ATOM     95  C   UNL A   1      27.870  30.971  23.378  1.00  0.00     0.000 A 
ENDBRANCH  89  90
ENDBRANCH  86  88
ENDBRANCH  82  86
ENDBRANCH  77  80
ENDBRANCH  75  76
ENDBRANCH  74  75
ENDBRANCH   1  74
TORSDOF 16
ENDMDL
