MODEL 1
REMARK VINA RESULT:     -11.6      0.000      0.000
REMARK SMILES CC(C)(C(=O)NCCCCCCNC(=O)c1ccc(-c2c3nc(c(-c4c(F)c(F)c(F)c(F)c4F)c4ccc([nH]4)c(-c4c(F)c(F)c(F)c(F)c4F)c4nc(c(-c5c(F)c(F)c(F)c(F)c5F)c5ccc2[nH]5)C=C4)C=C3)cc1)c1ccc(NS(=O)(=O)c2c(F)cc(F)cc2F)cc1
REMARK SMILES IDX 8 1 7 2 6 3 4 4 5 5 2 7 1 8 3 9 79 10 80 11 97 12 81 13
REMARK SMILES IDX 96 14 82 15 83 16 84 18 85 19 86 20 87 21 88 22 94 23 89 24
REMARK SMILES IDX 90 25 93 26 95 27 91 28 92 29 9 30 10 31 11 32 12 33 13 34
REMARK SMILES IDX 14 35 15 37 16 38 17 39 78 40 18 41 77 42 19 43 20 44 21 45
REMARK SMILES IDX 71 46 22 47 76 48 70 49 72 50 23 51 75 52 69 53 68 54 24 56
REMARK SMILES IDX 56 57 36 58 55 59 37 60 40 61 54 62 73 63 38 64 39 65 53 67
REMARK SMILES IDX 74 68 41 69 25 70 26 71 34 72 27 73 28 74 32 75 35 76 29 77
REMARK SMILES IDX 30 78 33 79 31 80 57 81 58 82 66 83 59 84 60 85 64 86 67 87
REMARK SMILES IDX 61 88 62 89 65 90 63 91 42 92 43 93 51 94 44 95 45 96 49 97
REMARK SMILES IDX 52 98 46 99 47 100 50 101 48 102
REMARK H PARENT 6 6 83 17 13 36 72 55 40 66
REMARK Flexibility Score: inf
ROOT
ATOM      1  C   UNL A   1      38.682  23.677  26.508  1.00  0.00     0.021 C 
ENDROOT
BRANCH   1   2
ATOM      2  C   UNL A   1      37.333  23.719  25.785  1.00  0.00     0.116 C 
BRANCH   2   3
ATOM      3  N   UNL A   1      36.321  22.985  26.525  1.00  0.00    -0.355 N 
ATOM      4  C   UNL A   1      35.165  22.350  26.167  1.00  0.00     0.230 C 
ATOM      5  O   UNL A   1      34.522  21.919  27.127  1.00  0.00    -0.274 OA
ATOM      6  H   UNL A   1      36.508  22.934  27.489  1.00  0.00     0.163 HD
BRANCH   4   7
ATOM      7  C   UNL A   1      34.749  22.153  24.677  1.00  0.00     0.068 C 
ATOM      8  C   UNL A   1      36.026  22.162  23.798  1.00  0.00     0.026 C 
ATOM      9  C   UNL A   1      33.981  20.809  24.602  1.00  0.00     0.026 C 
BRANCH   7  10
ATOM     10  C   UNL A   1      33.792  23.215  24.043  1.00  0.00    -0.033 A 
ATOM     11  C   UNL A   1      34.372  24.348  23.430  1.00  0.00     0.007 A 
ATOM     12  C   UNL A   1      32.391  23.143  24.012  1.00  0.00     0.007 A 
ATOM     13  C   UNL A   1      33.601  25.360  22.862  1.00  0.00     0.027 A 
ATOM     14  C   UNL A   1      31.614  24.128  23.372  1.00  0.00     0.027 A 
ATOM     15  C   UNL A   1      32.224  25.228  22.777  1.00  0.00     0.049 A 
BRANCH  15  16
ATOM     16  N   UNL A   1      31.468  26.232  22.087  1.00  0.00    -0.279 N 
ATOM     17  H   UNL A   1      31.457  26.264  21.103  1.00  0.00     0.180 HD
BRANCH  16  18
ATOM     18  S   UNL A   1      30.585  27.375  23.010  1.00  0.00     0.267 S 
ATOM     19  O   UNL A   1      30.427  28.553  22.192  1.00  0.00    -0.201 OA
ATOM     20  O   UNL A   1      29.396  26.674  23.464  1.00  0.00    -0.201 OA
BRANCH  18  21
ATOM     21  C   UNL A   1      31.565  27.780  24.408  1.00  0.00     0.159 A 
ATOM     22  C   UNL A   1      32.670  28.615  24.256  1.00  0.00     0.149 A 
ATOM     23  C   UNL A   1      31.272  27.268  25.669  1.00  0.00     0.149 A 
ATOM     24  F   UNL A   1      33.003  29.124  23.064  1.00  0.00    -0.205 F 
ATOM     25  C   UNL A   1      33.522  28.873  25.326  1.00  0.00     0.080 A 
ATOM     26  C   UNL A   1      32.107  27.536  26.754  1.00  0.00     0.080 A 
ATOM     27  F   UNL A   1      30.223  26.466  25.881  1.00  0.00    -0.205 F 
ATOM     28  C   UNL A   1      33.236  28.323  26.567  1.00  0.00     0.129 A 
ATOM     29  F   UNL A   1      34.069  28.540  27.592  1.00  0.00    -0.207 F 
ENDBRANCH  18  21
ENDBRANCH  16  18
ENDBRANCH  15  16
ENDBRANCH   7  10
ENDBRANCH   4   7
ENDBRANCH   2   3
ENDBRANCH   1   2
BRANCH   1  30
ATOM     30  C   UNL A   1      39.475  22.385  26.285  1.00  0.00     0.002 C 
BRANCH  30  31
ATOM     31  C   UNL A   1      40.393  21.982  27.442  1.00  0.00     0.002 C 
BRANCH  31  32
ATOM     32  C   UNL A   1      40.854  20.523  27.424  1.00  0.00     0.021 C 
BRANCH  32  33
ATOM     33  C   UNL A   1      40.691  19.825  26.078  1.00  0.00     0.116 C 
BRANCH  33  34
ATOM     34  N   UNL A   1      41.886  19.091  25.694  1.00  0.00    -0.352 N 
ATOM     35  C   UNL A   1      43.149  19.563  25.449  1.00  0.00     0.251 C 
ATOM     36  H   UNL A   1      41.771  18.119  25.596  1.00  0.00     0.163 HD
ATOM     37  O   UNL A   1      43.998  18.834  24.946  1.00  0.00    -0.269 OA
BRANCH  35  38
ATOM     38  C   UNL A   1      43.481  20.966  25.773  1.00  0.00     0.039 A 
ATOM     39  C   UNL A   1      43.225  21.956  24.821  1.00  0.00     0.014 A 
ATOM     40  C   UNL A   1      44.044  21.303  27.007  1.00  0.00     0.014 A 
ATOM     41  C   UNL A   1      43.483  23.292  25.129  1.00  0.00     0.010 A 
ATOM     42  C   UNL A   1      44.232  22.641  27.340  1.00  0.00     0.010 A 
ATOM     43  C   UNL A   1      43.959  23.648  26.402  1.00  0.00    -0.014 A 
BRANCH  43  44
ATOM     44  C   UNL A   1      44.176  25.070  26.768  1.00  0.00     0.031 A 
ATOM     45  C   UNL A   1      45.538  25.687  26.626  1.00  0.00     0.074 A 
ATOM     46  C   UNL A   1      43.157  25.786  27.282  1.00  0.00     0.049 A 
ATOM     47  N   UNL A   1      45.937  26.894  26.943  1.00  0.00    -0.248 NA
ATOM     48  C   UNL A   1      46.600  24.828  26.080  1.00  0.00     0.031 C 
ATOM     49  C   UNL A   1      41.803  25.282  27.512  1.00  0.00     0.029 A 
ATOM     50  N   UNL A   1      43.106  27.088  27.713  1.00  0.00    -0.354 N 
ATOM     51  C   UNL A   1      47.294  26.932  26.647  1.00  0.00     0.074 A 
ATOM     52  C   UNL A   1      47.662  25.614  26.178  1.00  0.00     0.031 C 
ATOM     53  C   UNL A   1      41.048  26.269  28.020  1.00  0.00     0.029 A 
ATOM     54  C   UNL A   1      41.871  27.463  28.185  1.00  0.00     0.049 A 
ATOM     55  H   UNL A   1      43.880  27.695  27.686  1.00  0.00     0.167 HD
ATOM     56  C   UNL A   1      48.148  27.980  26.736  1.00  0.00     0.037 A 
ATOM     57  C   UNL A   1      41.455  28.635  28.699  1.00  0.00     0.037 A 
ATOM     58  C   UNL A   1      47.770  29.295  27.181  1.00  0.00     0.049 A 
ATOM     59  C   UNL A   1      42.426  29.781  28.792  1.00  0.00     0.074 A 
ATOM     60  C   UNL A   1      48.547  30.439  27.250  1.00  0.00     0.029 A 
ATOM     61  N   UNL A   1      46.507  29.642  27.639  1.00  0.00    -0.354 N 
ATOM     62  N   UNL A   1      43.689  29.827  28.443  1.00  0.00    -0.248 NA
ATOM     63  C   UNL A   1      41.911  31.041  29.345  1.00  0.00     0.031 C 
ATOM     64  C   UNL A   1      47.766  31.465  27.794  1.00  0.00     0.029 A 
ATOM     65  C   UNL A   1      46.488  30.976  28.015  1.00  0.00     0.049 A 
ATOM     66  H   UNL A   1      45.737  29.030  27.690  1.00  0.00     0.167 HD
ATOM     67  C   UNL A   1      44.111  31.122  28.706  1.00  0.00     0.074 A 
ATOM     68  C   UNL A   1      42.965  31.836  29.230  1.00  0.00     0.031 C 
ATOM     69  C   UNL A   1      45.337  31.672  28.529  1.00  0.00     0.037 A 
BRANCH  56  70
ATOM     70  C   UNL A   1      49.577  27.746  26.341  1.00  0.00     0.064 A 
ATOM     71  C   UNL A   1      49.986  27.783  24.999  1.00  0.00     0.173 A 
ATOM     72  C   UNL A   1      50.558  27.517  27.317  1.00  0.00     0.173 A 
ATOM     73  F   UNL A   1      49.086  27.987  24.024  1.00  0.00    -0.203 F 
ATOM     74  C   UNL A   1      51.316  27.570  24.647  1.00  0.00     0.198 A 
ATOM     75  C   UNL A   1      51.893  27.334  26.964  1.00  0.00     0.198 A 
ATOM     76  F   UNL A   1      50.224  27.475  28.616  1.00  0.00    -0.203 F 
ATOM     77  F   UNL A   1      51.673  27.560  23.356  1.00  0.00    -0.200 F 
ATOM     78  C   UNL A   1      52.269  27.353  25.630  1.00  0.00     0.200 A 
ATOM     79  F   UNL A   1      52.816  27.139  27.917  1.00  0.00    -0.200 F 
ATOM     80  F   UNL A   1      53.551  27.156  25.291  1.00  0.00    -0.200 F 
ENDBRANCH  56  70
BRANCH  57  81
ATOM     81  C   UNL A   1      40.046  28.791  29.142  1.00  0.00     0.064 A 
ATOM     82  C   UNL A   1      39.051  29.201  28.244  1.00  0.00     0.173 A 
ATOM     83  C   UNL A   1      39.663  28.538  30.467  1.00  0.00     0.173 A 
ATOM     84  F   UNL A   1      39.371  29.474  26.970  1.00  0.00    -0.203 F 
ATOM     85  C   UNL A   1      37.731  29.370  28.658  1.00  0.00     0.198 A 
ATOM     86  C   UNL A   1      38.338  28.679  30.874  1.00  0.00     0.198 A 
ATOM     87  F   UNL A   1      40.575  28.137  31.365  1.00  0.00    -0.203 F 
ATOM     88  F   UNL A   1      36.809  29.807  27.789  1.00  0.00    -0.200 F 
ATOM     89  C   UNL A   1      37.374  29.104  29.972  1.00  0.00     0.200 A 
ATOM     90  F   UNL A   1      37.996  28.405  32.140  1.00  0.00    -0.200 F 
ATOM     91  F   UNL A   1      36.105  29.262  30.368  1.00  0.00    -0.200 F 
ENDBRANCH  57  81
BRANCH  69  92
ATOM     92  C   UNL A   1      45.497  33.124  28.875  1.00  0.00     0.064 A 
ATOM     93  C   UNL A   1      45.921  33.536  30.147  1.00  0.00     0.173 A 
ATOM     94  C   UNL A   1      45.256  34.114  27.910  1.00  0.00     0.173 A 
ATOM     95  F   UNL A   1      46.149  32.630  31.110  1.00  0.00    -0.203 F 
ATOM     96  C   UNL A   1      46.074  34.888  30.447  1.00  0.00     0.198 A 
ATOM     97  C   UNL A   1      45.440  35.462  28.203  1.00  0.00     0.198 A 
ATOM     98  F   UNL A   1      44.854  33.772  26.677  1.00  0.00    -0.203 F 
ATOM     99  F   UNL A   1      46.434  35.261  31.683  1.00  0.00    -0.200 F 
ATOM    100  C   UNL A   1      45.841  35.848  29.473  1.00  0.00     0.200 A 
ATOM    101  F   UNL A   1      45.228  36.387  27.258  1.00  0.00    -0.200 F 
ATOM    102  F   UNL A   1      45.996  37.147  29.762  1.00  0.00    -0.200 F 
ENDBRANCH  69  92
ENDBRANCH  43  44
ENDBRANCH  35  38
ENDBRANCH  33  34
ENDBRANCH  32  33
ENDBRANCH  31  32
ENDBRANCH  30  31
ENDBRANCH   1  30
TORSDOF 17
ENDMDL
MODEL 2
REMARK VINA RESULT:     -11.5      5.480     10.814
REMARK SMILES CC(C)(C(=O)NCCCCCCNC(=O)c1ccc(-c2c3nc(c(-c4c(F)c(F)c(F)c(F)c4F)c4ccc([nH]4)c(-c4c(F)c(F)c(F)c(F)c4F)c4nc(c(-c5c(F)c(F)c(F)c(F)c5F)c5ccc2[nH]5)C=C4)C=C3)cc1)c1ccc(NS(=O)(=O)c2c(F)cc(F)cc2F)cc1
REMARK SMILES IDX 8 1 7 2 6 3 4 4 5 5 2 7 1 8 3 9 79 10 80 11 97 12 81 13
REMARK SMILES IDX 96 14 82 15 83 16 84 18 85 19 86 20 87 21 88 22 94 23 89 24
REMARK SMILES IDX 90 25 93 26 95 27 91 28 92 29 9 30 10 31 11 32 12 33 13 34
REMARK SMILES IDX 14 35 15 37 16 38 17 39 78 40 18 41 77 42 19 43 20 44 21 45
REMARK SMILES IDX 71 46 22 47 76 48 70 49 72 50 23 51 75 52 69 53 68 54 24 56
REMARK SMILES IDX 56 57 36 58 55 59 37 60 40 61 54 62 73 63 38 64 39 65 53 67
REMARK SMILES IDX 74 68 41 69 25 70 26 71 34 72 27 73 28 74 32 75 35 76 29 77
REMARK SMILES IDX 30 78 33 79 31 80 57 81 58 82 66 83 59 84 60 85 64 86 67 87
REMARK SMILES IDX 61 88 62 89 65 90 63 91 42 92 43 93 51 94 44 95 45 96 49 97
REMARK SMILES IDX 52 98 46 99 47 100 50 101 48 102
REMARK H PARENT 6 6 83 17 13 36 72 55 40 66
REMARK Flexibility Score: inf
ROOT
ATOM      1  C   UNL A   1      32.166  29.460  26.470  1.00  0.00     0.021 C 
ENDROOT
BRANCH   1   2
ATOM      2  C   UNL A   1      31.833  29.630  24.986  1.00  0.00     0.116 C 
BRANCH   2   3
ATOM      3  N   UNL A   1      30.706  30.528  24.803  1.00  0.00    -0.355 N 
ATOM      4  C   UNL A   1      29.733  30.640  23.849  1.00  0.00     0.230 C 
ATOM      5  O   UNL A   1      28.998  31.617  24.007  1.00  0.00    -0.274 OA
ATOM      6  H   UNL A   1      30.626  31.199  25.518  1.00  0.00     0.163 HD
BRANCH   4   7
ATOM      7  C   UNL A   1      29.556  29.588  22.713  1.00  0.00     0.068 C 
ATOM      8  C   UNL A   1      28.145  29.757  22.092  1.00  0.00     0.026 C 
ATOM      9  C   UNL A   1      30.693  29.839  21.691  1.00  0.00     0.026 C 
BRANCH   7  10
ATOM     10  C   UNL A   1      29.670  28.075  23.098  1.00  0.00    -0.033 A 
ATOM     11  C   UNL A   1      30.846  27.384  22.732  1.00  0.00     0.007 A 
ATOM     12  C   UNL A   1      28.706  27.331  23.795  1.00  0.00     0.007 A 
ATOM     13  C   UNL A   1      31.028  26.031  23.007  1.00  0.00     0.027 A 
ATOM     14  C   UNL A   1      28.921  25.983  24.140  1.00  0.00     0.027 A 
ATOM     15  C   UNL A   1      30.095  25.339  23.763  1.00  0.00     0.049 A 
BRANCH  15  16
ATOM     16  N   UNL A   1      30.363  23.978  24.127  1.00  0.00    -0.279 N 
ATOM     17  H   UNL A   1      30.191  23.246  23.492  1.00  0.00     0.180 HD
BRANCH  16  18
ATOM     18  S   UNL A   1      30.986  23.653  25.690  1.00  0.00     0.267 S 
ATOM     19  O   UNL A   1      30.503  24.693  26.566  1.00  0.00    -0.201 OA
ATOM     20  O   UNL A   1      30.626  22.275  25.974  1.00  0.00    -0.201 OA
BRANCH  18  21
ATOM     21  C   UNL A   1      32.735  23.765  25.585  1.00  0.00     0.159 A 
ATOM     22  C   UNL A   1      33.352  25.012  25.679  1.00  0.00     0.149 A 
ATOM     23  C   UNL A   1      33.521  22.634  25.390  1.00  0.00     0.149 A 
ATOM     24  F   UNL A   1      32.641  26.132  25.854  1.00  0.00    -0.205 F 
ATOM     25  C   UNL A   1      34.726  25.142  25.500  1.00  0.00     0.080 A 
ATOM     26  C   UNL A   1      34.902  22.750  25.228  1.00  0.00     0.080 A 
ATOM     27  F   UNL A   1      32.990  21.410  25.297  1.00  0.00    -0.205 F 
ATOM     28  C   UNL A   1      35.489  24.008  25.268  1.00  0.00     0.129 A 
ATOM     29  F   UNL A   1      36.806  24.130  25.061  1.00  0.00    -0.207 F 
ENDBRANCH  18  21
ENDBRANCH  16  18
ENDBRANCH  15  16
ENDBRANCH   7  10
ENDBRANCH   4   7
ENDBRANCH   2   3
ENDBRANCH   1   2
BRANCH   1  30
ATOM     30  C   UNL A   1      33.623  29.771  26.828  1.00  0.00     0.002 C 
BRANCH  30  31
ATOM     31  C   UNL A   1      33.820  30.992  27.729  1.00  0.00     0.002 C 
BRANCH  31  32
ATOM     32  C   UNL A   1      32.694  32.027  27.671  1.00  0.00     0.021 C 
BRANCH  32  33
ATOM     33  C   UNL A   1      33.070  33.334  26.985  1.00  0.00     0.116 C 
BRANCH  33  34
ATOM     34  N   UNL A   1      32.649  34.496  27.751  1.00  0.00    -0.352 N 
ATOM     35  C   UNL A   1      33.074  34.919  28.983  1.00  0.00     0.251 C 
ATOM     36  H   UNL A   1      31.962  35.057  27.324  1.00  0.00     0.163 HD
ATOM     37  O   UNL A   1      32.477  35.814  29.573  1.00  0.00    -0.269 OA
BRANCH  35  38
ATOM     38  C   UNL A   1      34.247  34.277  29.612  1.00  0.00     0.039 A 
ATOM     39  C   UNL A   1      34.042  33.401  30.681  1.00  0.00     0.014 A 
ATOM     40  C   UNL A   1      35.541  34.539  29.152  1.00  0.00     0.014 A 
ATOM     41  C   UNL A   1      35.133  32.745  31.253  1.00  0.00     0.010 A 
ATOM     42  C   UNL A   1      36.618  33.830  29.675  1.00  0.00     0.010 A 
ATOM     43  C   UNL A   1      36.425  32.930  30.734  1.00  0.00    -0.014 A 
BRANCH  43  44
ATOM     44  C   UNL A   1      37.585  32.189  31.289  1.00  0.00     0.031 A 
ATOM     45  C   UNL A   1      38.117  32.529  32.653  1.00  0.00     0.074 A 
ATOM     46  C   UNL A   1      38.195  31.252  30.538  1.00  0.00     0.049 A 
ATOM     47  N   UNL A   1      39.151  32.034  33.285  1.00  0.00    -0.248 NA
ATOM     48  C   UNL A   1      37.408  33.582  33.395  1.00  0.00     0.031 C 
ATOM     49  C   UNL A   1      37.802  30.870  29.182  1.00  0.00     0.029 A 
ATOM     50  N   UNL A   1      39.281  30.457  30.806  1.00  0.00    -0.354 N 
ATOM     51  C   UNL A   1      39.223  32.722  34.489  1.00  0.00     0.074 A 
ATOM     52  C   UNL A   1      38.163  33.708  34.477  1.00  0.00     0.031 C 
ATOM     53  C   UNL A   1      38.619  29.898  28.745  1.00  0.00     0.029 A 
ATOM     54  C   UNL A   1      39.615  29.614  29.773  1.00  0.00     0.049 A 
ATOM     55  H   UNL A   1      39.774  30.488  31.658  1.00  0.00     0.167 HD
ATOM     56  C   UNL A   1      40.080  32.533  35.520  1.00  0.00     0.037 A 
ATOM     57  C   UNL A   1      40.615  28.720  29.668  1.00  0.00     0.037 A 
ATOM     58  C   UNL A   1      41.117  31.535  35.536  1.00  0.00     0.049 A 
ATOM     59  C   UNL A   1      41.557  28.533  30.826  1.00  0.00     0.074 A 
ATOM     60  C   UNL A   1      41.999  31.223  36.557  1.00  0.00     0.029 A 
ATOM     61  N   UNL A   1      41.417  30.690  34.478  1.00  0.00    -0.354 N 
ATOM     62  N   UNL A   1      41.571  29.140  31.988  1.00  0.00    -0.248 NA
ATOM     63  C   UNL A   1      42.618  27.530  30.661  1.00  0.00     0.031 C 
ATOM     64  C   UNL A   1      42.862  30.222  36.099  1.00  0.00     0.029 A 
ATOM     65  C   UNL A   1      42.485  29.873  34.811  1.00  0.00     0.049 A 
ATOM     66  H   UNL A   1      40.940  30.673  33.616  1.00  0.00     0.167 HD
ATOM     67  C   UNL A   1      42.620  28.576  32.701  1.00  0.00     0.074 A 
ATOM     68  C   UNL A   1      43.209  27.567  31.847  1.00  0.00     0.031 C 
ATOM     69  C   UNL A   1      43.056  28.868  33.951  1.00  0.00     0.037 A 
BRANCH  56  70
ATOM     70  C   UNL A   1      39.930  33.422  36.720  1.00  0.00     0.064 A 
ATOM     71  C   UNL A   1      39.095  33.076  37.794  1.00  0.00     0.173 A 
ATOM     72  C   UNL A   1      40.656  34.619  36.816  1.00  0.00     0.173 A 
ATOM     73  F   UNL A   1      38.370  31.948  37.749  1.00  0.00    -0.203 F 
ATOM     74  C   UNL A   1      38.970  33.908  38.904  1.00  0.00     0.198 A 
ATOM     75  C   UNL A   1      40.552  35.434  37.940  1.00  0.00     0.198 A 
ATOM     76  F   UNL A   1      41.472  34.997  35.820  1.00  0.00    -0.203 F 
ATOM     77  F   UNL A   1      38.128  33.581  39.893  1.00  0.00    -0.200 F 
ATOM     78  C   UNL A   1      39.704  35.082  38.979  1.00  0.00     0.200 A 
ATOM     79  F   UNL A   1      41.273  36.562  38.018  1.00  0.00    -0.200 F 
ATOM     80  F   UNL A   1      39.588  35.879  40.051  1.00  0.00    -0.200 F 
ENDBRANCH  56  70
BRANCH  57  81
ATOM     81  C   UNL A   1      40.761  27.915  28.428  1.00  0.00     0.064 A 
ATOM     82  C   UNL A   1      41.535  28.380  27.355  1.00  0.00     0.173 A 
ATOM     83  C   UNL A   1      40.134  26.668  28.287  1.00  0.00     0.173 A 
ATOM     84  F   UNL A   1      42.138  29.575  27.435  1.00  0.00    -0.203 F 
ATOM     85  C   UNL A   1      41.659  27.639  26.182  1.00  0.00     0.198 A 
ATOM     86  C   UNL A   1      40.282  25.915  27.124  1.00  0.00     0.198 A 
ATOM     87  F   UNL A   1      39.388  26.174  29.286  1.00  0.00    -0.203 F 
ATOM     88  F   UNL A   1      42.366  28.129  25.155  1.00  0.00    -0.200 F 
ATOM     89  C   UNL A   1      41.037  26.404  26.069  1.00  0.00     0.200 A 
ATOM     90  F   UNL A   1      39.693  24.716  27.027  1.00  0.00    -0.200 F 
ATOM     91  F   UNL A   1      41.160  25.691  24.942  1.00  0.00    -0.200 F 
ENDBRANCH  57  81
BRANCH  69  92
ATOM     92  C   UNL A   1      44.206  28.064  34.483  1.00  0.00     0.064 A 
ATOM     93  C   UNL A   1      45.534  28.496  34.345  1.00  0.00     0.173 A 
ATOM     94  C   UNL A   1      43.975  26.864  35.173  1.00  0.00     0.173 A 
ATOM     95  F   UNL A   1      45.810  29.629  33.680  1.00  0.00    -0.203 F 
ATOM     96  C   UNL A   1      46.588  27.743  34.855  1.00  0.00     0.198 A 
ATOM     97  C   UNL A   1      45.028  26.130  35.709  1.00  0.00     0.198 A 
ATOM     98  F   UNL A   1      42.723  26.411  35.338  1.00  0.00    -0.203 F 
ATOM     99  F   UNL A   1      47.851  28.150  34.668  1.00  0.00    -0.200 F 
ATOM    100  C   UNL A   1      46.334  26.566  35.542  1.00  0.00     0.200 A 
ATOM    101  F   UNL A   1      44.780  25.000  36.385  1.00  0.00    -0.200 F 
ATOM    102  F   UNL A   1      47.350  25.846  36.039  1.00  0.00    -0.200 F 
ENDBRANCH  69  92
ENDBRANCH  43  44
ENDBRANCH  35  38
ENDBRANCH  33  34
ENDBRANCH  32  33
ENDBRANCH  31  32
ENDBRANCH  30  31
ENDBRANCH   1  30
TORSDOF 17
ENDMDL
MODEL 3
REMARK VINA RESULT:     -11.5      7.153     15.095
REMARK SMILES CC(C)(C(=O)NCCCCCCNC(=O)c1ccc(-c2c3nc(c(-c4c(F)c(F)c(F)c(F)c4F)c4ccc([nH]4)c(-c4c(F)c(F)c(F)c(F)c4F)c4nc(c(-c5c(F)c(F)c(F)c(F)c5F)c5ccc2[nH]5)C=C4)C=C3)cc1)c1ccc(NS(=O)(=O)c2c(F)cc(F)cc2F)cc1
REMARK SMILES IDX 8 1 7 2 6 3 4 4 5 5 2 7 1 8 3 9 79 10 80 11 97 12 81 13
REMARK SMILES IDX 96 14 82 15 83 16 84 18 85 19 86 20 87 21 88 22 94 23 89 24
REMARK SMILES IDX 90 25 93 26 95 27 91 28 92 29 9 30 10 31 11 32 12 33 13 34
REMARK SMILES IDX 14 35 15 37 16 38 17 39 78 40 18 41 77 42 19 43 20 44 21 45
REMARK SMILES IDX 71 46 22 47 76 48 70 49 72 50 23 51 75 52 69 53 68 54 24 56
REMARK SMILES IDX 56 57 36 58 55 59 37 60 40 61 54 62 73 63 38 64 39 65 53 67
REMARK SMILES IDX 74 68 41 69 25 70 26 71 34 72 27 73 28 74 32 75 35 76 29 77
REMARK SMILES IDX 30 78 33 79 31 80 57 81 58 82 66 83 59 84 60 85 64 86 67 87
REMARK SMILES IDX 61 88 62 89 65 90 63 91 42 92 43 93 51 94 44 95 45 96 49 97
REMARK SMILES IDX 52 98 46 99 47 100 50 101 48 102
REMARK H PARENT 6 6 83 17 13 36 72 55 40 66
REMARK Flexibility Score: inf
ROOT
ATOM      1  C   UNL A   1      47.305  39.286  26.466  1.00  0.00     0.021 C 
ENDROOT
BRANCH   1   2
ATOM      2  C   UNL A   1      45.971  39.632  25.798  1.00  0.00     0.116 C 
BRANCH   2   3
ATOM      3  N   UNL A   1      44.909  38.759  26.267  1.00  0.00    -0.355 N 
ATOM      4  C   UNL A   1      43.717  38.978  26.899  1.00  0.00     0.230 C 
ATOM      5  O   UNL A   1      43.133  37.941  27.221  1.00  0.00    -0.274 OA
ATOM      6  H   UNL A   1      45.087  37.807  26.093  1.00  0.00     0.163 HD
BRANCH   4   7
ATOM      7  C   UNL A   1      43.146  40.410  27.127  1.00  0.00     0.068 C 
ATOM      8  C   UNL A   1      41.746  40.289  27.782  1.00  0.00     0.026 C 
ATOM      9  C   UNL A   1      44.163  41.158  28.024  1.00  0.00     0.026 C 
BRANCH   7  10
ATOM     10  C   UNL A   1      42.947  41.322  25.871  1.00  0.00    -0.033 A 
ATOM     11  C   UNL A   1      43.919  42.314  25.612  1.00  0.00     0.007 A 
ATOM     12  C   UNL A   1      41.887  41.239  24.956  1.00  0.00     0.007 A 
ATOM     13  C   UNL A   1      43.815  43.191  24.535  1.00  0.00     0.027 A 
ATOM     14  C   UNL A   1      41.821  42.075  23.824  1.00  0.00     0.027 A 
ATOM     15  C   UNL A   1      42.800  43.038  23.604  1.00  0.00     0.049 A 
BRANCH  15  16
ATOM     16  N   UNL A   1      42.784  43.883  22.445  1.00  0.00    -0.279 N 
ATOM     17  H   UNL A   1      42.156  44.638  22.384  1.00  0.00     0.180 HD
BRANCH  16  18
ATOM     18  S   UNL A   1      43.879  43.549  21.169  1.00  0.00     0.267 S 
ATOM     19  O   UNL A   1      45.064  44.337  21.408  1.00  0.00    -0.201 OA
ATOM     20  O   UNL A   1      43.998  42.102  21.127  1.00  0.00    -0.201 OA
BRANCH  18  21
ATOM     21  C   UNL A   1      43.125  44.094  19.681  1.00  0.00     0.159 A 
ATOM     22  C   UNL A   1      41.801  43.750  19.414  1.00  0.00     0.149 A 
ATOM     23  C   UNL A   1      43.829  44.849  18.749  1.00  0.00     0.149 A 
ATOM     24  F   UNL A   1      41.084  43.015  20.272  1.00  0.00    -0.205 F 
ATOM     25  C   UNL A   1      41.209  44.083  18.199  1.00  0.00     0.080 A 
ATOM     26  C   UNL A   1      43.241  45.206  17.535  1.00  0.00     0.080 A 
ATOM     27  F   UNL A   1      45.100  45.216  18.949  1.00  0.00    -0.205 F 
ATOM     28  C   UNL A   1      41.939  44.803  17.265  1.00  0.00     0.129 A 
ATOM     29  F   UNL A   1      41.388  45.097  16.081  1.00  0.00    -0.207 F 
ENDBRANCH  18  21
ENDBRANCH  16  18
ENDBRANCH  15  16
ENDBRANCH   7  10
ENDBRANCH   4   7
ENDBRANCH   2   3
ENDBRANCH   1   2
BRANCH   1  30
ATOM     30  C   UNL A   1      48.027  38.086  25.843  1.00  0.00     0.002 C 
BRANCH  30  31
ATOM     31  C   UNL A   1      49.266  37.611  26.606  1.00  0.00     0.002 C 
BRANCH  31  32
ATOM     32  C   UNL A   1      49.127  36.241  27.275  1.00  0.00     0.021 C 
BRANCH  32  33
ATOM     33  C   UNL A   1      49.068  36.284  28.797  1.00  0.00     0.116 C 
BRANCH  33  34
ATOM     34  N   UNL A   1      48.125  37.279  29.281  1.00  0.00    -0.352 N 
ATOM     35  C   UNL A   1      46.764  37.187  29.418  1.00  0.00     0.251 C 
ATOM     36  H   UNL A   1      48.520  38.140  29.547  1.00  0.00     0.163 HD
ATOM     37  O   UNL A   1      46.095  38.186  29.659  1.00  0.00    -0.269 OA
BRANCH  35  38
ATOM     38  C   UNL A   1      46.100  35.877  29.252  1.00  0.00     0.039 A 
ATOM     39  C   UNL A   1      45.507  35.573  28.024  1.00  0.00     0.014 A 
ATOM     40  C   UNL A   1      46.061  34.955  30.302  1.00  0.00     0.014 A 
ATOM     41  C   UNL A   1      44.921  34.322  27.833  1.00  0.00     0.010 A 
ATOM     42  C   UNL A   1      45.542  33.682  30.087  1.00  0.00     0.010 A 
ATOM     43  C   UNL A   1      44.962  33.355  28.852  1.00  0.00    -0.014 A 
BRANCH  43  44
ATOM     44  C   UNL A   1      44.402  31.997  28.640  1.00  0.00     0.031 A 
ATOM     45  C   UNL A   1      43.069  31.629  29.228  1.00  0.00     0.074 A 
ATOM     46  C   UNL A   1      45.123  31.079  27.969  1.00  0.00     0.049 A 
ATOM     47  N   UNL A   1      42.440  30.481  29.200  1.00  0.00    -0.248 NA
ATOM     48  C   UNL A   1      42.359  32.683  29.969  1.00  0.00     0.031 C 
ATOM     49  C   UNL A   1      46.450  31.303  27.394  1.00  0.00     0.029 A 
ATOM     50  N   UNL A   1      44.845  29.770  27.663  1.00  0.00    -0.354 N 
ATOM     51  C   UNL A   1      41.272  30.672  29.926  1.00  0.00     0.074 A 
ATOM     52  C   UNL A   1      41.304  32.028  30.430  1.00  0.00     0.031 C 
ATOM     53  C   UNL A   1      46.861  30.178  26.786  1.00  0.00     0.029 A 
ATOM     54  C   UNL A   1      45.845  29.145  26.959  1.00  0.00     0.049 A 
ATOM     55  H   UNL A   1      44.008  29.322  27.925  1.00  0.00     0.167 HD
ATOM     56  C   UNL A   1      40.254  29.802  30.133  1.00  0.00     0.037 A 
ATOM     57  C   UNL A   1      45.933  27.879  26.509  1.00  0.00     0.037 A 
ATOM     58  C   UNL A   1      40.217  28.462  29.609  1.00  0.00     0.049 A 
ATOM     59  C   UNL A   1      44.791  26.932  26.758  1.00  0.00     0.074 A 
ATOM     60  C   UNL A   1      39.205  27.523  29.712  1.00  0.00     0.029 A 
ATOM     61  N   UNL A   1      41.242  27.868  28.888  1.00  0.00    -0.354 N 
ATOM     62  N   UNL A   1      43.660  27.145  27.385  1.00  0.00    -0.248 NA
ATOM     63  C   UNL A   1      44.935  25.569  26.228  1.00  0.00     0.031 C 
ATOM     64  C   UNL A   1      39.637  26.345  29.093  1.00  0.00     0.029 A 
ATOM     65  C   UNL A   1      40.897  26.566  28.558  1.00  0.00     0.049 A 
ATOM     66  H   UNL A   1      42.090  28.306  28.644  1.00  0.00     0.167 HD
ATOM     67  C   UNL A   1      42.947  25.957  27.302  1.00  0.00     0.074 A 
ATOM     68  C   UNL A   1      43.768  25.030  26.550  1.00  0.00     0.031 C 
ATOM     69  C   UNL A   1      41.723  25.659  27.804  1.00  0.00     0.037 A 
BRANCH  56  70
ATOM     70  C   UNL A   1      39.094  30.275  30.960  1.00  0.00     0.064 A 
ATOM     71  C   UNL A   1      39.053  30.083  32.349  1.00  0.00     0.173 A 
ATOM     72  C   UNL A   1      38.026  30.961  30.362  1.00  0.00     0.173 A 
ATOM     73  F   UNL A   1      40.043  29.424  32.970  1.00  0.00    -0.203 F 
ATOM     74  C   UNL A   1      37.973  30.533  33.105  1.00  0.00     0.198 A 
ATOM     75  C   UNL A   1      36.962  31.437  31.125  1.00  0.00     0.198 A 
ATOM     76  F   UNL A   1      38.015  31.177  29.038  1.00  0.00    -0.203 F 
ATOM     77  F   UNL A   1      37.933  30.293  34.422  1.00  0.00    -0.200 F 
ATOM     78  C   UNL A   1      36.933  31.216  32.493  1.00  0.00     0.200 A 
ATOM     79  F   UNL A   1      35.963  32.109  30.534  1.00  0.00    -0.200 F 
ATOM     80  F   UNL A   1      35.897  31.655  33.223  1.00  0.00    -0.200 F 
ENDBRANCH  56  70
BRANCH  57  81
ATOM     81  C   UNL A   1      47.137  27.442  25.756  1.00  0.00     0.064 A 
ATOM     82  C   UNL A   1      47.224  27.626  24.369  1.00  0.00     0.173 A 
ATOM     83  C   UNL A   1      48.222  26.833  26.403  1.00  0.00     0.173 A 
ATOM     84  F   UNL A   1      46.203  28.186  23.704  1.00  0.00    -0.203 F 
ATOM     85  C   UNL A   1      48.341  27.198  23.655  1.00  0.00     0.198 A 
ATOM     86  C   UNL A   1      49.351  26.432  25.691  1.00  0.00     0.198 A 
ATOM     87  F   UNL A   1      48.192  26.640  27.730  1.00  0.00    -0.203 F 
ATOM     88  F   UNL A   1      48.378  27.345  22.323  1.00  0.00    -0.200 F 
ATOM     89  C   UNL A   1      49.407  26.607  24.317  1.00  0.00     0.200 A 
ATOM     90  F   UNL A   1      50.384  25.876  26.338  1.00  0.00    -0.200 F 
ATOM     91  F   UNL A   1      50.482  26.200  23.631  1.00  0.00    -0.200 F 
ENDBRANCH  57  81
BRANCH  69  92
ATOM     92  C   UNL A   1      41.183  24.286  27.529  1.00  0.00     0.064 A 
ATOM     93  C   UNL A   1      40.139  24.074  26.617  1.00  0.00     0.173 A 
ATOM     94  C   UNL A   1      41.742  23.164  28.161  1.00  0.00     0.173 A 
ATOM     95  F   UNL A   1      39.560  25.115  25.999  1.00  0.00    -0.203 F 
ATOM     96  C   UNL A   1      39.657  22.791  26.367  1.00  0.00     0.198 A 
ATOM     97  C   UNL A   1      41.279  21.881  27.885  1.00  0.00     0.198 A 
ATOM     98  F   UNL A   1      42.746  23.313  29.037  1.00  0.00    -0.203 F 
ATOM     99  F   UNL A   1      38.627  22.617  25.528  1.00  0.00    -0.200 F 
ATOM    100  C   UNL A   1      40.232  21.697  26.995  1.00  0.00     0.200 A 
ATOM    101  F   UNL A   1      41.845  20.823  28.481  1.00  0.00    -0.200 F 
ATOM    102  F   UNL A   1      39.772  20.463  26.746  1.00  0.00    -0.200 F 
ENDBRANCH  69  92
ENDBRANCH  43  44
ENDBRANCH  35  38
ENDBRANCH  33  34
ENDBRANCH  32  33
ENDBRANCH  31  32
ENDBRANCH  30  31
ENDBRANCH   1  30
TORSDOF 17
ENDMDL
