MODEL 1
REMARK VINA RESULT:     -13.0      0.000      0.000
REMARK SMILES COc1ccc2[nH]c(C(=O)c3cc(C)ccn3)c(CC(=O)NCCCCCCNC(=O)c3ccc(-c4c5nc(c(-c6c(F)c(F)c(F)c(F)c6F)c6ccc([nH]6)c(-c6c(F)c(F)c(F)c(F)c6F)c6nc(c(-c7c(F)c(F)c(F)c(F)c7F)c7ccc4[nH]7)C=C6)C=C5)cc3)c2c1
REMARK SMILES IDX 25 1 24 2 23 3 22 4 20 5 21 6 19 8 18 9 3 10 4 11 96 12 5 13
REMARK SMILES IDX 95 14 6 15 7 16 8 17 2 19 1 20 9 21 10 22 11 23 12 24 17 25
REMARK SMILES IDX 13 26 16 27 14 28 15 29 26 30 27 31 28 32 29 33 30 34 31 36
REMARK SMILES IDX 32 37 33 38 94 39 34 40 93 41 35 42 36 43 37 44 87 45 38 46
REMARK SMILES IDX 92 47 86 48 88 49 39 50 91 51 85 52 84 53 40 55 72 56 52 57
REMARK SMILES IDX 71 58 53 59 56 60 70 61 89 62 54 63 55 64 69 66 90 67 57 68
REMARK SMILES IDX 41 69 42 70 50 71 43 72 44 73 48 74 51 75 45 76 46 77 49 78
REMARK SMILES IDX 47 79 73 80 74 81 82 82 75 83 76 84 80 85 83 86 77 87 78 88
REMARK SMILES IDX 81 89 79 90 58 91 59 92 67 93 60 94 61 95 65 96 68 97 62 98
REMARK SMILES IDX 63 99 66 100 64 101
REMARK H PARENT 22 7 7 18 29 35 88 54 56 65
REMARK Flexibility Score: inf
ROOT
ATOM      1  C   UNL A   1      32.147  29.643  26.419  1.00  0.00     0.002 C 
ENDROOT
BRANCH   1   2
ATOM      2  C   UNL A   1      31.435  28.284  26.382  1.00  0.00     0.021 C 
BRANCH   2   3
ATOM      3  C   UNL A   1      32.374  27.079  26.389  1.00  0.00     0.116 C 
BRANCH   3   4
ATOM      4  N   UNL A   1      31.712  25.872  26.831  1.00  0.00    -0.356 N 
ATOM      5  C   UNL A   1      32.022  24.563  26.599  1.00  0.00     0.224 C 
ATOM      6  O   UNL A   1      31.395  23.721  27.249  1.00  0.00    -0.275 OA
ATOM      7  H   UNL A   1      30.912  26.017  27.386  1.00  0.00     0.163 HD
BRANCH   5   8
ATOM      8  C   UNL A   1      33.185  24.162  25.698  1.00  0.00     0.138 C 
BRANCH   8   9
ATOM      9  C   UNL A   1      32.814  23.453  24.421  1.00  0.00    -0.002 A 
ATOM     10  C   UNL A   1      32.430  19.647  24.738  1.00  0.00     0.119 A 
ATOM     11  C   UNL A   1      32.197  19.414  23.385  1.00  0.00     0.048 A 
ATOM     12  C   UNL A   1      32.602  20.957  25.201  1.00  0.00     0.057 A 
ATOM     13  C   UNL A   1      32.153  20.472  22.466  1.00  0.00     0.030 A 
ATOM     14  C   UNL A   1      32.591  22.039  24.295  1.00  0.00     0.008 A 
ATOM     15  C   UNL A   1      32.359  21.769  22.952  1.00  0.00     0.046 A 
ATOM     16  N   UNL A   1      32.383  22.972  22.292  1.00  0.00    -0.352 N 
ATOM     17  C   UNL A   1      32.579  24.021  23.168  1.00  0.00     0.093 A 
ATOM     18  H   UNL A   1      32.273  23.074  21.318  1.00  0.00     0.167 HD
BRANCH  10  19
ATOM     19  O   UNL A   1      32.492  18.687  25.712  1.00  0.00    -0.497 OA
ATOM     20  C   UNL A   1      32.531  17.339  25.261  1.00  0.00     0.278 C 
ENDBRANCH  10  19
BRANCH  17  21
ATOM     21  C   UNL A   1      32.555  25.434  22.803  1.00  0.00     0.227 C 
ATOM     22  O   UNL A   1      33.528  26.030  22.341  1.00  0.00    -0.285 OA
BRANCH  21  23
ATOM     23  C   UNL A   1      31.322  26.222  23.053  1.00  0.00     0.113 A 
ATOM     24  C   UNL A   1      31.239  27.534  22.594  1.00  0.00     0.036 A 
ATOM     25  N   UNL A   1      30.330  25.590  23.729  1.00  0.00    -0.253 NA
ATOM     26  C   UNL A   1      30.064  28.246  22.838  1.00  0.00    -0.047 A 
ATOM     27  C   UNL A   1      29.192  26.288  23.915  1.00  0.00     0.112 A 
ATOM     28  C   UNL A   1      29.902  29.665  22.380  1.00  0.00     0.044 C 
ATOM     29  C   UNL A   1      29.016  27.600  23.501  1.00  0.00     0.023 A 
ENDBRANCH  21  23
ENDBRANCH  17  21
ENDBRANCH   8   9
ENDBRANCH   5   8
ENDBRANCH   3   4
ENDBRANCH   2   3
ENDBRANCH   1   2
BRANCH   1  30
ATOM     30  C   UNL A   1      31.404  30.800  25.740  1.00  0.00     0.002 C 
BRANCH  30  31
ATOM     31  C   UNL A   1      31.217  32.057  26.595  1.00  0.00     0.021 C 
BRANCH  31  32
ATOM     32  C   UNL A   1      32.506  32.677  27.123  1.00  0.00     0.116 C 
BRANCH  32  33
ATOM     33  N   UNL A   1      32.331  34.064  27.518  1.00  0.00    -0.352 N 
ATOM     34  C   UNL A   1      32.951  34.778  28.510  1.00  0.00     0.251 C 
ATOM     35  H   UNL A   1      31.667  34.567  26.993  1.00  0.00     0.163 HD
ATOM     36  O   UNL A   1      32.549  35.903  28.798  1.00  0.00    -0.269 OA
BRANCH  34  37
ATOM     37  C   UNL A   1      34.099  34.205  29.251  1.00  0.00     0.039 A 
ATOM     38  C   UNL A   1      35.389  34.416  28.753  1.00  0.00     0.014 A 
ATOM     39  C   UNL A   1      33.913  33.413  30.387  1.00  0.00     0.014 A 
ATOM     40  C   UNL A   1      36.491  33.861  29.406  1.00  0.00     0.010 A 
ATOM     41  C   UNL A   1      35.016  32.906  31.073  1.00  0.00     0.010 A 
ATOM     42  C   UNL A   1      36.314  33.109  30.579  1.00  0.00    -0.014 A 
BRANCH  42  43
ATOM     43  C   UNL A   1      37.469  32.482  31.268  1.00  0.00     0.031 A 
ATOM     44  C   UNL A   1      38.229  31.373  30.593  1.00  0.00     0.074 A 
ATOM     45  C   UNL A   1      37.806  32.872  32.510  1.00  0.00     0.049 A 
ATOM     46  N   UNL A   1      39.218  30.646  31.049  1.00  0.00    -0.248 NA
ATOM     47  C   UNL A   1      37.803  31.017  29.230  1.00  0.00     0.031 C 
ATOM     48  C   UNL A   1      37.127  33.911  33.285  1.00  0.00     0.029 A 
ATOM     49  N   UNL A   1      38.804  32.432  33.345  1.00  0.00    -0.354 N 
ATOM     50  C   UNL A   1      39.515  29.736  30.043  1.00  0.00     0.074 A 
ATOM     51  C   UNL A   1      38.576  29.972  28.968  1.00  0.00     0.031 C 
ATOM     52  C   UNL A   1      37.737  34.040  34.474  1.00  0.00     0.029 A 
ATOM     53  C   UNL A   1      38.832  33.077  34.557  1.00  0.00     0.049 A 
ATOM     54  H   UNL A   1      39.439  31.722  33.097  1.00  0.00     0.167 HD
ATOM     55  C   UNL A   1      40.495  28.802  30.009  1.00  0.00     0.037 A 
ATOM     56  C   UNL A   1      39.649  32.908  35.613  1.00  0.00     0.037 A 
ATOM     57  C   UNL A   1      41.455  28.595  31.061  1.00  0.00     0.049 A 
ATOM     58  C   UNL A   1      40.750  31.884  35.537  1.00  0.00     0.074 A 
ATOM     59  C   UNL A   1      42.511  27.702  31.104  1.00  0.00     0.029 A 
ATOM     60  N   UNL A   1      41.478  29.302  32.254  1.00  0.00    -0.354 N 
ATOM     61  N   UNL A   1      41.048  31.060  34.563  1.00  0.00    -0.248 NA
ATOM     62  C   UNL A   1      41.638  31.778  36.705  1.00  0.00     0.031 C 
ATOM     63  C   UNL A   1      43.161  27.851  32.335  1.00  0.00     0.029 A 
ATOM     64  C   UNL A   1      42.530  28.862  33.042  1.00  0.00     0.049 A 
ATOM     65  H   UNL A   1      40.843  30.010  32.504  1.00  0.00     0.167 HD
ATOM     66  C   UNL A   1      42.172  30.362  34.983  1.00  0.00     0.074 A 
ATOM     67  C   UNL A   1      42.509  30.866  36.299  1.00  0.00     0.031 C 
ATOM     68  C   UNL A   1      42.864  29.393  34.338  1.00  0.00     0.037 A 
BRANCH  55  69
ATOM     69  C   UNL A   1      40.582  27.935  28.788  1.00  0.00     0.064 A 
ATOM     70  C   UNL A   1      39.878  26.725  28.696  1.00  0.00     0.173 A 
ATOM     71  C   UNL A   1      41.354  28.331  27.686  1.00  0.00     0.173 A 
ATOM     72  F   UNL A   1      39.137  26.295  29.729  1.00  0.00    -0.203 F 
ATOM     73  C   UNL A   1      39.966  25.930  27.557  1.00  0.00     0.198 A 
ATOM     74  C   UNL A   1      41.417  27.547  26.537  1.00  0.00     0.198 A 
ATOM     75  F   UNL A   1      42.043  29.481  27.722  1.00  0.00    -0.203 F 
ATOM     76  F   UNL A   1      39.323  24.754  27.509  1.00  0.00    -0.200 F 
ATOM     77  C   UNL A   1      40.730  26.345  26.476  1.00  0.00     0.200 A 
ATOM     78  F   UNL A   1      42.149  27.954  25.490  1.00  0.00    -0.200 F 
ATOM     79  F   UNL A   1      40.811  25.580  25.377  1.00  0.00    -0.200 F 
ENDBRANCH  55  69
BRANCH  56  80
ATOM     80  C   UNL A   1      39.484  33.754  36.822  1.00  0.00     0.064 A 
ATOM     81  C   UNL A   1      38.717  33.310  37.908  1.00  0.00     0.173 A 
ATOM     82  C   UNL A   1      40.081  35.019  36.915  1.00  0.00     0.173 A 
ATOM     83  F   UNL A   1      38.109  32.116  37.854  1.00  0.00    -0.203 F 
ATOM     84  C   UNL A   1      38.534  34.110  39.034  1.00  0.00     0.198 A 
ATOM     85  C   UNL A   1      39.917  35.807  38.052  1.00  0.00     0.198 A 
ATOM     86  F   UNL A   1      40.827  35.486  35.904  1.00  0.00    -0.203 F 
ATOM     87  F   UNL A   1      37.758  33.680  40.039  1.00  0.00    -0.200 F 
ATOM     88  C   UNL A   1      39.138  35.356  39.107  1.00  0.00     0.200 A 
ATOM     89  F   UNL A   1      40.510  37.007  38.124  1.00  0.00    -0.200 F 
ATOM     90  F   UNL A   1      38.962  36.124  40.191  1.00  0.00    -0.200 F 
ENDBRANCH  56  80
BRANCH  68  91
ATOM     91  C   UNL A   1      44.083  28.848  35.019  1.00  0.00     0.064 A 
ATOM     92  C   UNL A   1      45.346  29.430  34.842  1.00  0.00     0.173 A 
ATOM     93  C   UNL A   1      43.976  27.755  35.892  1.00  0.00     0.173 A 
ATOM     94  F   UNL A   1      45.501  30.467  34.007  1.00  0.00    -0.203 F 
ATOM     95  C   UNL A   1      46.464  28.921  35.498  1.00  0.00     0.198 A 
ATOM     96  C   UNL A   1      45.091  27.265  36.565  1.00  0.00     0.198 A 
ATOM     97  F   UNL A   1      42.787  27.168  36.098  1.00  0.00    -0.203 F 
ATOM     98  F   UNL A   1      47.670  29.465  35.285  1.00  0.00    -0.200 F 
ATOM     99  C   UNL A   1      46.335  27.844  36.363  1.00  0.00     0.200 A 
ATOM    100  F   UNL A   1      44.962  26.231  37.408  1.00  0.00    -0.200 F 
ATOM    101  F   UNL A   1      47.411  27.360  36.998  1.00  0.00    -0.200 F 
ENDBRANCH  68  91
ENDBRANCH  42  43
ENDBRANCH  34  37
ENDBRANCH  32  33
ENDBRANCH  31  32
ENDBRANCH  30  31
ENDBRANCH   1  30
TORSDOF 17
ENDMDL
MODEL 2
REMARK VINA RESULT:     -12.9      0.764      7.070
REMARK SMILES COc1ccc2[nH]c(C(=O)c3cc(C)ccn3)c(CC(=O)NCCCCCCNC(=O)c3ccc(-c4c5nc(c(-c6c(F)c(F)c(F)c(F)c6F)c6ccc([nH]6)c(-c6c(F)c(F)c(F)c(F)c6F)c6nc(c(-c7c(F)c(F)c(F)c(F)c7F)c7ccc4[nH]7)C=C6)C=C5)cc3)c2c1
REMARK SMILES IDX 25 1 24 2 23 3 22 4 20 5 21 6 19 8 18 9 3 10 4 11 96 12 5 13
REMARK SMILES IDX 95 14 6 15 7 16 8 17 2 19 1 20 9 21 10 22 11 23 12 24 17 25
REMARK SMILES IDX 13 26 16 27 14 28 15 29 26 30 27 31 28 32 29 33 30 34 31 36
REMARK SMILES IDX 32 37 33 38 94 39 34 40 93 41 35 42 36 43 37 44 87 45 38 46
REMARK SMILES IDX 92 47 86 48 88 49 39 50 91 51 85 52 84 53 40 55 72 56 52 57
REMARK SMILES IDX 71 58 53 59 56 60 70 61 89 62 54 63 55 64 69 66 90 67 57 68
REMARK SMILES IDX 41 69 42 70 50 71 43 72 44 73 48 74 51 75 45 76 46 77 49 78
REMARK SMILES IDX 47 79 73 80 74 81 82 82 75 83 76 84 80 85 83 86 77 87 78 88
REMARK SMILES IDX 81 89 79 90 58 91 59 92 67 93 60 94 61 95 65 96 68 97 62 98
REMARK SMILES IDX 63 99 66 100 64 101
REMARK H PARENT 22 7 7 18 29 35 88 54 56 65
REMARK Flexibility Score: inf
ROOT
ATOM      1  C   UNL A   1      31.886  29.594  26.615  1.00  0.00     0.002 C 
ENDROOT
BRANCH   1   2
ATOM      2  C   UNL A   1      31.375  28.213  26.184  1.00  0.00     0.021 C 
BRANCH   2   3
ATOM      3  C   UNL A   1      32.344  27.065  26.464  1.00  0.00     0.116 C 
BRANCH   3   4
ATOM      4  N   UNL A   1      31.659  25.854  26.856  1.00  0.00    -0.356 N 
ATOM      5  C   UNL A   1      31.961  24.548  26.594  1.00  0.00     0.224 C 
ATOM      6  O   UNL A   1      31.309  23.696  27.205  1.00  0.00    -0.275 OA
ATOM      7  H   UNL A   1      30.847  25.992  27.396  1.00  0.00     0.163 HD
BRANCH   5   8
ATOM      8  C   UNL A   1      33.141  24.160  25.710  1.00  0.00     0.138 C 
BRANCH   8   9
ATOM      9  C   UNL A   1      32.795  23.461  24.421  1.00  0.00    -0.002 A 
ATOM     10  C   UNL A   1      32.412  19.653  24.699  1.00  0.00     0.119 A 
ATOM     11  C   UNL A   1      32.204  19.431  23.339  1.00  0.00     0.048 A 
ATOM     12  C   UNL A   1      32.573  20.959  25.176  1.00  0.00     0.057 A 
ATOM     13  C   UNL A   1      32.177  20.497  22.429  1.00  0.00     0.030 A 
ATOM     14  C   UNL A   1      32.578  22.048  24.279  1.00  0.00     0.008 A 
ATOM     15  C   UNL A   1      32.371  21.789  22.930  1.00  0.00     0.046 A 
ATOM     16  N   UNL A   1      32.406  22.998  22.280  1.00  0.00    -0.352 N 
ATOM     17  C   UNL A   1      32.583  24.039  23.168  1.00  0.00     0.093 A 
ATOM     18  H   UNL A   1      32.315  23.108  21.305  1.00  0.00     0.167 HD
BRANCH  10  19
ATOM     19  O   UNL A   1      32.456  18.685  25.665  1.00  0.00    -0.497 OA
ATOM     20  C   UNL A   1      32.467  17.340  25.204  1.00  0.00     0.278 C 
ENDBRANCH  10  19
BRANCH  17  21
ATOM     21  C   UNL A   1      32.565  25.456  22.815  1.00  0.00     0.227 C 
ATOM     22  O   UNL A   1      33.550  26.061  22.395  1.00  0.00    -0.285 OA
BRANCH  21  23
ATOM     23  C   UNL A   1      31.319  26.235  23.027  1.00  0.00     0.113 A 
ATOM     24  C   UNL A   1      31.227  27.534  22.534  1.00  0.00     0.036 A 
ATOM     25  N   UNL A   1      30.323  25.607  23.701  1.00  0.00    -0.253 NA
ATOM     26  C   UNL A   1      30.040  28.238  22.742  1.00  0.00    -0.047 A 
ATOM     27  C   UNL A   1      29.174  26.295  23.853  1.00  0.00     0.112 A 
ATOM     28  C   UNL A   1      29.869  29.642  22.247  1.00  0.00     0.044 C 
ATOM     29  C   UNL A   1      28.989  27.595  23.404  1.00  0.00     0.023 A 
ENDBRANCH  21  23
ENDBRANCH  17  21
ENDBRANCH   8   9
ENDBRANCH   5   8
ENDBRANCH   3   4
ENDBRANCH   2   3
ENDBRANCH   1   2
BRANCH   1  30
ATOM     30  C   UNL A   1      31.405  30.775  25.762  1.00  0.00     0.002 C 
BRANCH  30  31
ATOM     31  C   UNL A   1      31.338  32.125  26.482  1.00  0.00     0.021 C 
BRANCH  31  32
ATOM     32  C   UNL A   1      32.608  32.525  27.224  1.00  0.00     0.116 C 
BRANCH  32  33
ATOM     33  N   UNL A   1      32.609  33.928  27.602  1.00  0.00    -0.352 N 
ATOM     34  C   UNL A   1      33.369  34.584  28.535  1.00  0.00     0.251 C 
ATOM     35  H   UNL A   1      31.967  34.493  27.114  1.00  0.00     0.163 HD
ATOM     36  O   UNL A   1      33.109  35.749  28.827  1.00  0.00    -0.269 OA
BRANCH  34  37
ATOM     37  C   UNL A   1      34.499  33.902  29.208  1.00  0.00     0.039 A 
ATOM     38  C   UNL A   1      35.803  34.240  28.832  1.00  0.00     0.014 A 
ATOM     39  C   UNL A   1      34.285  32.893  30.150  1.00  0.00     0.014 A 
ATOM     40  C   UNL A   1      36.891  33.591  29.420  1.00  0.00     0.010 A 
ATOM     41  C   UNL A   1      35.371  32.285  30.779  1.00  0.00     0.010 A 
ATOM     42  C   UNL A   1      36.683  32.614  30.407  1.00  0.00    -0.014 A 
BRANCH  42  43
ATOM     43  C   UNL A   1      37.825  31.889  31.018  1.00  0.00     0.031 A 
ATOM     44  C   UNL A   1      38.255  32.218  32.421  1.00  0.00     0.074 A 
ATOM     45  C   UNL A   1      38.501  30.972  30.303  1.00  0.00     0.049 A 
ATOM     46  N   UNL A   1      39.267  31.754  33.111  1.00  0.00    -0.248 NA
ATOM     47  C   UNL A   1      37.452  33.223  33.137  1.00  0.00     0.031 C 
ATOM     48  C   UNL A   1      38.206  30.588  28.922  1.00  0.00     0.029 A 
ATOM     49  N   UNL A   1      39.587  30.200  30.638  1.00  0.00    -0.354 N 
ATOM     50  C   UNL A   1      39.236  32.425  34.326  1.00  0.00     0.074 A 
ATOM     51  C   UNL A   1      38.131  33.358  34.267  1.00  0.00     0.031 C 
ATOM     52  C   UNL A   1      39.077  29.643  28.534  1.00  0.00     0.029 A 
ATOM     53  C   UNL A   1      40.007  29.373  29.626  1.00  0.00     0.049 A 
ATOM     54  H   UNL A   1      40.021  30.238  31.521  1.00  0.00     0.167 HD
ATOM     55  C   UNL A   1      40.042  32.263  35.403  1.00  0.00     0.037 A 
ATOM     56  C   UNL A   1      41.029  28.497  29.588  1.00  0.00     0.037 A 
ATOM     57  C   UNL A   1      41.114  31.307  35.477  1.00  0.00     0.049 A 
ATOM     58  C   UNL A   1      41.890  28.314  30.809  1.00  0.00     0.074 A 
ATOM     59  C   UNL A   1      41.961  31.038  36.537  1.00  0.00     0.029 A 
ATOM     60  N   UNL A   1      41.478  30.453  34.446  1.00  0.00    -0.354 N 
ATOM     61  N   UNL A   1      41.824  28.923  31.967  1.00  0.00    -0.248 NA
ATOM     62  C   UNL A   1      42.961  27.310  30.720  1.00  0.00     0.031 C 
ATOM     63  C   UNL A   1      42.855  30.037  36.141  1.00  0.00     0.029 A 
ATOM     64  C   UNL A   1      42.541  29.659  34.846  1.00  0.00     0.049 A 
ATOM     65  H   UNL A   1      41.047  30.417  33.562  1.00  0.00     0.167 HD
ATOM     66  C   UNL A   1      42.817  28.356  32.754  1.00  0.00     0.074 A 
ATOM     67  C   UNL A   1      43.468  27.348  31.943  1.00  0.00     0.031 C 
ATOM     68  C   UNL A   1      43.159  28.644  34.033  1.00  0.00     0.037 A 
BRANCH  55  69
ATOM     69  C   UNL A   1      39.788  33.139  36.594  1.00  0.00     0.064 A 
ATOM     70  C   UNL A   1      40.481  34.345  36.779  1.00  0.00     0.173 A 
ATOM     71  C   UNL A   1      38.822  32.785  37.547  1.00  0.00     0.173 A 
ATOM     72  F   UNL A   1      41.426  34.721  35.902  1.00  0.00    -0.203 F 
ATOM     73  C   UNL A   1      40.236  35.150  37.887  1.00  0.00     0.198 A 
ATOM     74  C   UNL A   1      38.560  33.606  38.640  1.00  0.00     0.198 A 
ATOM     75  F   UNL A   1      38.129  31.644  37.415  1.00  0.00    -0.203 F 
ATOM     76  F   UNL A   1      40.944  36.274  38.069  1.00  0.00    -0.200 F 
ATOM     77  C   UNL A   1      39.270  34.783  38.813  1.00  0.00     0.200 A 
ATOM     78  F   UNL A   1      37.620  33.254  39.529  1.00  0.00    -0.200 F 
ATOM     79  F   UNL A   1      39.032  35.561  39.879  1.00  0.00    -0.200 F 
ENDBRANCH  55  69
BRANCH  56  80
ATOM     80  C   UNL A   1      41.272  27.695  28.363  1.00  0.00     0.064 A 
ATOM     81  C   UNL A   1      40.613  26.474  28.163  1.00  0.00     0.173 A 
ATOM     82  C   UNL A   1      42.167  28.125  27.373  1.00  0.00     0.173 A 
ATOM     83  F   UNL A   1      39.764  26.012  29.092  1.00  0.00    -0.203 F 
ATOM     84  C   UNL A   1      40.856  25.702  27.029  1.00  0.00     0.198 A 
ATOM     85  C   UNL A   1      42.391  27.364  26.228  1.00  0.00     0.198 A 
ATOM     86  F   UNL A   1      42.819  29.287  27.517  1.00  0.00    -0.203 F 
ATOM     87  F   UNL A   1      40.246  24.517  26.883  1.00  0.00    -0.200 F 
ATOM     88  C   UNL A   1      41.741  26.150  26.059  1.00  0.00     0.200 A 
ATOM     89  F   UNL A   1      43.239  27.804  25.289  1.00  0.00    -0.200 F 
ATOM     90  F   UNL A   1      41.975  25.407  24.969  1.00  0.00    -0.200 F 
ENDBRANCH  56  80
BRANCH  68  91
ATOM     91  C   UNL A   1      44.251  27.826  34.653  1.00  0.00     0.064 A 
ATOM     92  C   UNL A   1      45.584  28.261  34.658  1.00  0.00     0.173 A 
ATOM     93  C   UNL A   1      43.951  26.611  35.288  1.00  0.00     0.173 A 
ATOM     94  F   UNL A   1      45.922  29.409  34.052  1.00  0.00    -0.203 F 
ATOM     95  C   UNL A   1      46.582  27.496  35.256  1.00  0.00     0.198 A 
ATOM     96  C   UNL A   1      44.948  25.861  35.905  1.00  0.00     0.198 A 
ATOM     97  F   UNL A   1      42.689  26.156  35.315  1.00  0.00    -0.203 F 
ATOM     98  F   UNL A   1      47.856  27.909  35.214  1.00  0.00    -0.200 F 
ATOM     99  C   UNL A   1      46.262  26.301  35.884  1.00  0.00     0.200 A 
ATOM    100  F   UNL A   1      44.635  24.712  36.521  1.00  0.00    -0.200 F 
ATOM    101  F   UNL A   1      47.224  25.569  36.463  1.00  0.00    -0.200 F 
ENDBRANCH  68  91
ENDBRANCH  42  43
ENDBRANCH  34  37
ENDBRANCH  32  33
ENDBRANCH  31  32
ENDBRANCH  30  31
ENDBRANCH   1  30
TORSDOF 17
ENDMDL
MODEL 3
REMARK VINA RESULT:     -12.8      0.577      2.036
REMARK SMILES COc1ccc2[nH]c(C(=O)c3cc(C)ccn3)c(CC(=O)NCCCCCCNC(=O)c3ccc(-c4c5nc(c(-c6c(F)c(F)c(F)c(F)c6F)c6ccc([nH]6)c(-c6c(F)c(F)c(F)c(F)c6F)c6nc(c(-c7c(F)c(F)c(F)c(F)c7F)c7ccc4[nH]7)C=C6)C=C5)cc3)c2c1
REMARK SMILES IDX 25 1 24 2 23 3 22 4 20 5 21 6 19 8 18 9 3 10 4 11 96 12 5 13
REMARK SMILES IDX 95 14 6 15 7 16 8 17 2 19 1 20 9 21 10 22 11 23 12 24 17 25
REMARK SMILES IDX 13 26 16 27 14 28 15 29 26 30 27 31 28 32 29 33 30 34 31 36
REMARK SMILES IDX 32 37 33 38 94 39 34 40 93 41 35 42 36 43 37 44 87 45 38 46
REMARK SMILES IDX 92 47 86 48 88 49 39 50 91 51 85 52 84 53 40 55 72 56 52 57
REMARK SMILES IDX 71 58 53 59 56 60 70 61 89 62 54 63 55 64 69 66 90 67 57 68
REMARK SMILES IDX 41 69 42 70 50 71 43 72 44 73 48 74 51 75 45 76 46 77 49 78
REMARK SMILES IDX 47 79 73 80 74 81 82 82 75 83 76 84 80 85 83 86 77 87 78 88
REMARK SMILES IDX 81 89 79 90 58 91 59 92 67 93 60 94 61 95 65 96 68 97 62 98
REMARK SMILES IDX 63 99 66 100 64 101
REMARK H PARENT 22 7 7 18 29 35 88 54 56 65
REMARK Flexibility Score: inf
ROOT
ATOM      1  C   UNL A   1      31.846  29.416  26.969  1.00  0.00     0.002 C 
ENDROOT
BRANCH   1   2
ATOM      2  C   UNL A   1      33.230  28.758  26.880  1.00  0.00     0.021 C 
BRANCH   2   3
ATOM      3  C   UNL A   1      33.298  27.555  25.939  1.00  0.00     0.116 C 
BRANCH   3   4
ATOM      4  N   UNL A   1      32.441  26.474  26.371  1.00  0.00    -0.356 N 
ATOM      5  C   UNL A   1      32.530  25.132  26.130  1.00  0.00     0.224 C 
ATOM      6  O   UNL A   1      31.767  24.404  26.772  1.00  0.00    -0.275 OA
ATOM      7  H   UNL A   1      31.674  26.747  26.924  1.00  0.00     0.163 HD
BRANCH   5   8
ATOM      8  C   UNL A   1      33.614  24.549  25.231  1.00  0.00     0.138 C 
BRANCH   8   9
ATOM      9  C   UNL A   1      33.128  23.796  24.019  1.00  0.00    -0.002 A 
ATOM     10  C   UNL A   1      32.463  20.061  24.595  1.00  0.00     0.119 A 
ATOM     11  C   UNL A   1      32.148  19.766  23.271  1.00  0.00     0.048 A 
ATOM     12  C   UNL A   1      32.758  21.378  24.965  1.00  0.00     0.057 A 
ATOM     13  C   UNL A   1      32.144  20.767  22.288  1.00  0.00     0.030 A 
ATOM     14  C   UNL A   1      32.790  22.400  23.993  1.00  0.00     0.008 A 
ATOM     15  C   UNL A   1      32.474  22.069  22.682  1.00  0.00     0.046 A 
ATOM     16  N   UNL A   1      32.560  23.225  21.945  1.00  0.00    -0.352 N 
ATOM     17  C   UNL A   1      32.879  24.305  22.743  1.00  0.00     0.093 A 
ATOM     18  H   UNL A   1      32.414  23.276  20.973  1.00  0.00     0.167 HD
BRANCH  10  19
ATOM     19  O   UNL A   1      32.495  19.159  25.625  1.00  0.00    -0.497 OA
ATOM     20  C   UNL A   1      32.556  17.788  25.254  1.00  0.00     0.278 C 
ENDBRANCH  10  19
BRANCH  17  21
ATOM     21  C   UNL A   1      32.949  25.690  22.290  1.00  0.00     0.227 C 
ATOM     22  O   UNL A   1      33.895  26.145  21.647  1.00  0.00    -0.285 OA
BRANCH  21  23
ATOM     23  C   UNL A   1      31.863  26.629  22.669  1.00  0.00     0.113 A 
ATOM     24  C   UNL A   1      30.653  26.126  23.141  1.00  0.00     0.036 A 
ATOM     25  N   UNL A   1      32.133  27.951  22.531  1.00  0.00    -0.253 NA
ATOM     26  C   UNL A   1      29.654  27.034  23.497  1.00  0.00    -0.047 A 
ATOM     27  C   UNL A   1      31.166  28.805  22.921  1.00  0.00     0.112 A 
ATOM     28  C   UNL A   1      28.323  26.568  24.007  1.00  0.00     0.044 C 
ATOM     29  C   UNL A   1      29.927  28.402  23.396  1.00  0.00     0.023 A 
ENDBRANCH  21  23
ENDBRANCH  17  21
ENDBRANCH   8   9
ENDBRANCH   5   8
ENDBRANCH   3   4
ENDBRANCH   2   3
ENDBRANCH   1   2
BRANCH   1  30
ATOM     30  C   UNL A   1      31.626  30.623  26.049  1.00  0.00     0.002 C 
BRANCH  30  31
ATOM     31  C   UNL A   1      31.448  31.969  26.758  1.00  0.00     0.021 C 
BRANCH  31  32
ATOM     32  C   UNL A   1      32.745  32.689  27.113  1.00  0.00     0.116 C 
BRANCH  32  33
ATOM     33  N   UNL A   1      32.515  34.055  27.553  1.00  0.00    -0.352 N 
ATOM     34  C   UNL A   1      33.080  34.746  28.593  1.00  0.00     0.251 C 
ATOM     35  H   UNL A   1      31.857  34.560  27.024  1.00  0.00     0.163 HD
ATOM     36  O   UNL A   1      32.635  35.848  28.909  1.00  0.00    -0.269 OA
BRANCH  34  37
ATOM     37  C   UNL A   1      34.217  34.177  29.354  1.00  0.00     0.039 A 
ATOM     38  C   UNL A   1      35.517  34.484  28.940  1.00  0.00     0.014 A 
ATOM     39  C   UNL A   1      34.014  33.299  30.421  1.00  0.00     0.014 A 
ATOM     40  C   UNL A   1      36.612  33.935  29.612  1.00  0.00     0.010 A 
ATOM     41  C   UNL A   1      35.106  32.797  31.128  1.00  0.00     0.010 A 
ATOM     42  C   UNL A   1      36.415  33.095  30.719  1.00  0.00    -0.014 A 
BRANCH  42  43
ATOM     43  C   UNL A   1      37.565  32.475  31.424  1.00  0.00     0.031 A 
ATOM     44  C   UNL A   1      38.316  31.344  30.778  1.00  0.00     0.074 A 
ATOM     45  C   UNL A   1      37.905  32.894  32.657  1.00  0.00     0.049 A 
ATOM     46  N   UNL A   1      39.299  30.620  31.252  1.00  0.00    -0.248 NA
ATOM     47  C   UNL A   1      37.887  30.957  29.423  1.00  0.00     0.031 C 
ATOM     48  C   UNL A   1      37.234  33.957  33.405  1.00  0.00     0.029 A 
ATOM     49  N   UNL A   1      38.899  32.466  33.502  1.00  0.00    -0.354 N 
ATOM     50  C   UNL A   1      39.588  29.684  30.269  1.00  0.00     0.074 A 
ATOM     51  C   UNL A   1      38.651  29.900  29.188  1.00  0.00     0.031 C 
ATOM     52  C   UNL A   1      37.845  34.110  34.591  1.00  0.00     0.029 A 
ATOM     53  C   UNL A   1      38.931  33.141  34.698  1.00  0.00     0.049 A 
ATOM     54  H   UNL A   1      39.527  31.744  33.273  1.00  0.00     0.167 HD
ATOM     55  C   UNL A   1      40.561  28.741  30.259  1.00  0.00     0.037 A 
ATOM     56  C   UNL A   1      39.747  32.991  35.759  1.00  0.00     0.037 A 
ATOM     57  C   UNL A   1      41.518  28.552  31.316  1.00  0.00     0.049 A 
ATOM     58  C   UNL A   1      40.839  31.957  35.709  1.00  0.00     0.074 A 
ATOM     59  C   UNL A   1      42.567  27.652  31.382  1.00  0.00     0.029 A 
ATOM     60  N   UNL A   1      41.547  29.288  32.491  1.00  0.00    -0.354 N 
ATOM     61  N   UNL A   1      41.130  31.106  34.756  1.00  0.00    -0.248 NA
ATOM     62  C   UNL A   1      41.726  31.872  36.879  1.00  0.00     0.031 C 
ATOM     63  C   UNL A   1      43.218  27.826  32.609  1.00  0.00     0.029 A 
ATOM     64  C   UNL A   1      42.595  28.859  33.290  1.00  0.00     0.049 A 
ATOM     65  H   UNL A   1      40.917  30.007  32.724  1.00  0.00     0.167 HD
ATOM     66  C   UNL A   1      42.249  30.410  35.194  1.00  0.00     0.074 A 
ATOM     67  C   UNL A   1      42.589  30.943  36.496  1.00  0.00     0.031 C 
ATOM     68  C   UNL A   1      42.933  29.419  34.573  1.00  0.00     0.037 A 
BRANCH  55  69
ATOM     69  C   UNL A   1      40.640  27.843  29.060  1.00  0.00     0.064 A 
ATOM     70  C   UNL A   1      41.531  28.102  28.007  1.00  0.00     0.173 A 
ATOM     71  C   UNL A   1      39.839  26.695  28.974  1.00  0.00     0.173 A 
ATOM     72  F   UNL A   1      42.308  29.195  28.035  1.00  0.00    -0.203 F 
ATOM     73  C   UNL A   1      41.596  27.260  26.900  1.00  0.00     0.198 A 
ATOM     74  C   UNL A   1      39.927  25.840  27.879  1.00  0.00     0.198 A 
ATOM     75  F   UNL A   1      38.974  26.400  29.956  1.00  0.00    -0.203 F 
ATOM     76  F   UNL A   1      42.420  27.553  25.884  1.00  0.00    -0.200 F 
ATOM     77  C   UNL A   1      40.799  26.126  26.840  1.00  0.00     0.200 A 
ATOM     78  F   UNL A   1      39.162  24.740  27.827  1.00  0.00    -0.200 F 
ATOM     79  F   UNL A   1      40.866  25.315  25.775  1.00  0.00    -0.200 F 
ENDBRANCH  55  69
BRANCH  56  80
ATOM     80  C   UNL A   1      39.588  33.868  36.946  1.00  0.00     0.064 A 
ATOM     81  C   UNL A   1      40.201  35.128  36.993  1.00  0.00     0.173 A 
ATOM     82  C   UNL A   1      38.830  33.468  38.055  1.00  0.00     0.173 A 
ATOM     83  F   UNL A   1      40.953  35.545  35.964  1.00  0.00    -0.203 F 
ATOM     84  C   UNL A   1      40.080  35.946  38.114  1.00  0.00     0.198 A 
ATOM     85  C   UNL A   1      38.690  34.296  39.165  1.00  0.00     0.198 A 
ATOM     86  F   UNL A   1      38.222  32.273  38.056  1.00  0.00    -0.203 F 
ATOM     87  F   UNL A   1      40.713  37.127  38.151  1.00  0.00    -0.200 F 
ATOM     88  C   UNL A   1      39.320  35.532  39.198  1.00  0.00     0.200 A 
ATOM     89  F   UNL A   1      37.947  33.897  40.207  1.00  0.00    -0.200 F 
ATOM     90  F   UNL A   1      39.204  36.318  40.276  1.00  0.00    -0.200 F 
ENDBRANCH  56  80
BRANCH  68  91
ATOM     91  C   UNL A   1      44.147  28.881  35.268  1.00  0.00     0.064 A 
ATOM     92  C   UNL A   1      44.077  27.766  36.114  1.00  0.00     0.173 A 
ATOM     93  C   UNL A   1      45.404  29.466  35.050  1.00  0.00     0.173 A 
ATOM     94  F   UNL A   1      42.896  27.181  36.364  1.00  0.00    -0.203 F 
ATOM     95  C   UNL A   1      45.219  27.269  36.737  1.00  0.00     0.198 A 
ATOM     96  C   UNL A   1      46.546  28.952  35.655  1.00  0.00     0.198 A 
ATOM     97  F   UNL A   1      45.522  30.532  34.244  1.00  0.00    -0.203 F 
ATOM     98  F   UNL A   1      45.124  26.228  37.575  1.00  0.00    -0.200 F 
ATOM     99  C   UNL A   1      46.452  27.858  36.502  1.00  0.00     0.200 A 
ATOM    100  F   UNL A   1      47.739  29.516  35.419  1.00  0.00    -0.200 F 
ATOM    101  F   UNL A   1      47.551  27.376  37.098  1.00  0.00    -0.200 F 
ENDBRANCH  68  91
ENDBRANCH  42  43
ENDBRANCH  34  37
ENDBRANCH  32  33
ENDBRANCH  31  32
ENDBRANCH  30  31
ENDBRANCH   1  30
TORSDOF 17
ENDMDL
