MODEL 1
REMARK VINA RESULT:     -10.5      0.000      0.000
REMARK SMILES CC1=C(CC(=O)NCCCCCCNC(=O)c2ccc(-c3c4nc(c(-c5c(F)c(F)c(F)c(F)c5F)c5ccc([nH]5)c(-c5c(F)c(F)c(F)c(F)c5F)c5nc(c(-c6c(F)c(F)c(F)c(F)c6F)c6ccc3[nH]6)C=C5)C=C4)cc2)c2cc(F)ccc2/C1=C\c1cccc(OCc2ccccc2)c1
REMARK SMILES IDX 9 1 8 2 7 3 5 4 6 5 4 7 3 8 1 9 2 10 87 11 80 12 86 13 88 14
REMARK SMILES IDX 81 15 85 16 82 17 84 18 83 19 89 20 90 21 102 22 91 23 93 24
REMARK SMILES IDX 92 25 94 26 95 27 96 28 97 29 101 30 98 31 100 32 99 33
REMARK SMILES IDX 10 34 11 35 12 36 13 37 14 38 15 39 16 41 17 42 18 43 79 44
REMARK SMILES IDX 19 45 78 46 20 47 21 48 22 49 72 50 23 51 77 52 71 53 73 54
REMARK SMILES IDX 24 55 76 56 70 57 69 58 25 60 57 61 37 62 56 63 38 64 41 65
REMARK SMILES IDX 55 66 74 67 39 68 40 69 54 71 75 72 42 73 26 74 27 75 35 76
REMARK SMILES IDX 28 77 29 78 33 79 36 80 30 81 31 82 34 83 32 84 58 85 59 86
REMARK SMILES IDX 67 87 60 88 61 89 65 90 68 91 62 92 63 93 66 94 64 95 43 96
REMARK SMILES IDX 44 97 52 98 45 99 46 100 50 101 53 102 47 103 48 104 51 105
REMARK SMILES IDX 49 106
REMARK H PARENT 7 6 14 40 73 59 41 70
REMARK Flexibility Score: inf
ROOT
ATOM      1  C   UNL A   1      44.269  21.825  24.610  1.00  0.00     0.021 C 
ENDROOT
BRANCH   1   2
ATOM      2  C   UNL A   1      43.960  20.779  25.680  1.00  0.00     0.116 C 
BRANCH   2   3
ATOM      3  N   UNL A   1      42.742  20.057  25.380  1.00  0.00    -0.356 N 
ATOM      4  C   UNL A   1      41.682  19.783  26.191  1.00  0.00     0.224 C 
ATOM      5  O   UNL A   1      40.777  19.071  25.748  1.00  0.00    -0.275 OA
ATOM      6  H   UNL A   1      42.670  19.715  24.459  1.00  0.00     0.163 HD
BRANCH   4   7
ATOM      7  C   UNL A   1      41.596  20.389  27.590  1.00  0.00     0.136 C 
BRANCH   7   8
ATOM      8  C   UNL A   1      41.303  21.854  27.601  1.00  0.00    -0.027 C 
ATOM      9  C   UNL A   1      43.386  22.797  28.760  1.00  0.00     0.045 C 
ATOM     10  C   UNL A   1      42.042  22.869  28.108  1.00  0.00    -0.039 C 
ATOM     11  C   UNL A   1      41.325  24.140  27.921  1.00  0.00    -0.014 C 
ATOM     12  C   UNL A   1      40.101  22.440  26.979  1.00  0.00    -0.011 A 
ATOM     13  C   UNL A   1      40.116  23.840  27.136  1.00  0.00    -0.010 A 
ATOM     14  C   UNL A   1      41.729  25.315  28.432  1.00  0.00     0.017 C 
ATOM     15  C   UNL A   1      39.065  21.818  26.296  1.00  0.00     0.048 A 
ATOM     16  C   UNL A   1      39.116  24.628  26.583  1.00  0.00     0.012 A 
ATOM     17  C   UNL A   1      38.049  22.614  25.773  1.00  0.00     0.123 A 
ATOM     18  C   UNL A   1      38.069  24.004  25.903  1.00  0.00     0.040 A 
ATOM     19  F   UNL A   1      37.033  22.037  25.119  1.00  0.00    -0.207 F 
BRANCH  14  20
ATOM     20  C   UNL A   1      41.060  26.602  28.254  1.00  0.00    -0.021 A 
ATOM     21  C   UNL A   1      40.980  27.224  27.006  1.00  0.00     0.008 A 
ATOM     22  C   UNL A   1      40.526  27.229  29.385  1.00  0.00     0.054 A 
ATOM     23  C   UNL A   1      40.397  28.487  26.902  1.00  0.00     0.004 A 
ATOM     24  C   UNL A   1      39.908  28.472  29.281  1.00  0.00     0.120 A 
ATOM     25  C   UNL A   1      39.868  29.108  28.037  1.00  0.00     0.046 A 
BRANCH  24  26
ATOM     26  O   UNL A   1      39.323  29.159  30.310  1.00  0.00    -0.489 OA
BRANCH  26  27
ATOM     27  C   UNL A   1      40.171  29.923  31.178  1.00  0.00     0.265 C 
BRANCH  27  28
ATOM     28  C   UNL A   1      39.744  31.371  31.295  1.00  0.00    -0.011 A 
ATOM     29  C   UNL A   1      39.924  32.248  30.215  1.00  0.00     0.007 A 
ATOM     30  C   UNL A   1      39.152  31.854  32.470  1.00  0.00     0.007 A 
ATOM     31  C   UNL A   1      39.496  33.573  30.301  1.00  0.00     0.000 A 
ATOM     32  C   UNL A   1      38.716  33.178  32.551  1.00  0.00     0.000 A 
ATOM     33  C   UNL A   1      38.886  34.035  31.465  1.00  0.00     0.000 A 
ENDBRANCH  27  28
ENDBRANCH  26  27
ENDBRANCH  24  26
ENDBRANCH  14  20
ENDBRANCH   7   8
ENDBRANCH   4   7
ENDBRANCH   2   3
ENDBRANCH   1   2
BRANCH   1  34
ATOM     34  C   UNL A   1      43.544  23.163  24.818  1.00  0.00     0.002 C 
BRANCH  34  35
ATOM     35  C   UNL A   1      44.385  24.272  25.460  1.00  0.00     0.002 C 
BRANCH  35  36
ATOM     36  C   UNL A   1      45.763  23.836  25.961  1.00  0.00     0.021 C 
BRANCH  36  37
ATOM     37  C   UNL A   1      46.739  24.982  26.208  1.00  0.00     0.116 C 
BRANCH  37  38
ATOM     38  N   UNL A   1      46.990  25.768  25.010  1.00  0.00    -0.352 N 
ATOM     39  C   UNL A   1      46.637  27.068  24.735  1.00  0.00     0.251 C 
ATOM     40  H   UNL A   1      47.480  25.303  24.295  1.00  0.00     0.163 HD
ATOM     41  O   UNL A   1      46.782  27.530  23.607  1.00  0.00    -0.269 OA
BRANCH  39  42
ATOM     42  C   UNL A   1      46.047  27.903  25.803  1.00  0.00     0.039 A 
ATOM     43  C   UNL A   1      46.867  28.647  26.654  1.00  0.00     0.014 A 
ATOM     44  C   UNL A   1      44.660  27.916  25.969  1.00  0.00     0.014 A 
ATOM     45  C   UNL A   1      46.315  29.272  27.766  1.00  0.00     0.010 A 
ATOM     46  C   UNL A   1      44.099  28.612  27.044  1.00  0.00     0.010 A 
ATOM     47  C   UNL A   1      44.926  29.257  27.977  1.00  0.00    -0.014 A 
BRANCH  47  48
ATOM     48  C   UNL A   1      44.362  29.917  29.181  1.00  0.00     0.031 A 
ATOM     49  C   UNL A   1      44.136  29.140  30.450  1.00  0.00     0.074 A 
ATOM     50  C   UNL A   1      44.103  31.237  29.145  1.00  0.00     0.049 A 
ATOM     51  N   UNL A   1      43.652  29.551  31.595  1.00  0.00    -0.248 NA
ATOM     52  C   UNL A   1      44.500  27.714  30.432  1.00  0.00     0.031 C 
ATOM     53  C   UNL A   1      44.301  32.100  27.980  1.00  0.00     0.029 A 
ATOM     54  N   UNL A   1      43.641  32.090  30.115  1.00  0.00    -0.354 N 
ATOM     55  C   UNL A   1      43.638  28.438  32.425  1.00  0.00     0.074 A 
ATOM     56  C   UNL A   1      44.137  27.325  31.647  1.00  0.00     0.031 C 
ATOM     57  C   UNL A   1      44.013  33.366  28.316  1.00  0.00     0.029 A 
ATOM     58  C   UNL A   1      43.549  33.395  29.699  1.00  0.00     0.049 A 
ATOM     59  H   UNL A   1      43.400  31.794  31.023  1.00  0.00     0.167 HD
ATOM     60  C   UNL A   1      43.254  28.358  33.722  1.00  0.00     0.037 A 
ATOM     61  C   UNL A   1      43.124  34.492  30.353  1.00  0.00     0.037 A 
ATOM     62  C   UNL A   1      42.777  29.472  34.499  1.00  0.00     0.049 A 
ATOM     63  C   UNL A   1      42.660  34.364  31.776  1.00  0.00     0.074 A 
ATOM     64  C   UNL A   1      42.372  29.490  35.823  1.00  0.00     0.029 A 
ATOM     65  N   UNL A   1      42.644  30.769  34.024  1.00  0.00    -0.354 N 
ATOM     66  N   UNL A   1      42.643  33.304  32.546  1.00  0.00    -0.248 NA
ATOM     67  C   UNL A   1      42.146  35.582  32.416  1.00  0.00     0.031 C 
ATOM     68  C   UNL A   1      41.958  30.788  36.138  1.00  0.00     0.029 A 
ATOM     69  C   UNL A   1      42.149  31.591  35.024  1.00  0.00     0.049 A 
ATOM     70  H   UNL A   1      42.867  31.062  33.111  1.00  0.00     0.167 HD
ATOM     71  C   UNL A   1      42.130  33.726  33.763  1.00  0.00     0.074 A 
ATOM     72  C   UNL A   1      41.867  35.145  33.637  1.00  0.00     0.031 C 
ATOM     73  C   UNL A   1      41.893  33.001  34.883  1.00  0.00     0.037 A 
BRANCH  60  74
ATOM     74  C   UNL A   1      43.327  27.017  34.394  1.00  0.00     0.064 A 
ATOM     75  C   UNL A   1      42.178  26.251  34.629  1.00  0.00     0.173 A 
ATOM     76  C   UNL A   1      44.569  26.461  34.737  1.00  0.00     0.173 A 
ATOM     77  F   UNL A   1      40.965  26.741  34.330  1.00  0.00    -0.203 F 
ATOM     78  C   UNL A   1      42.267  24.981  35.195  1.00  0.00     0.198 A 
ATOM     79  C   UNL A   1      44.658  25.182  35.279  1.00  0.00     0.198 A 
ATOM     80  F   UNL A   1      45.700  27.152  34.526  1.00  0.00    -0.203 F 
ATOM     81  F   UNL A   1      41.153  24.277  35.439  1.00  0.00    -0.200 F 
ATOM     82  C   UNL A   1      43.507  24.444  35.511  1.00  0.00     0.200 A 
ATOM     83  F   UNL A   1      45.856  24.660  35.572  1.00  0.00    -0.200 F 
ATOM     84  F   UNL A   1      43.591  23.216  36.040  1.00  0.00    -0.200 F 
ENDBRANCH  60  74
BRANCH  61  85
ATOM     85  C   UNL A   1      43.128  35.804  29.658  1.00  0.00     0.064 A 
ATOM     86  C   UNL A   1      42.144  36.121  28.714  1.00  0.00     0.173 A 
ATOM     87  C   UNL A   1      44.093  36.779  29.951  1.00  0.00     0.173 A 
ATOM     88  F   UNL A   1      41.212  35.213  28.387  1.00  0.00    -0.203 F 
ATOM     89  C   UNL A   1      42.125  37.365  28.086  1.00  0.00     0.198 A 
ATOM     90  C   UNL A   1      44.057  38.032  29.343  1.00  0.00     0.198 A 
ATOM     91  F   UNL A   1      45.055  36.525  30.850  1.00  0.00    -0.203 F 
ATOM     92  F   UNL A   1      41.188  37.634  27.167  1.00  0.00    -0.200 F 
ATOM     93  C   UNL A   1      43.074  38.322  28.409  1.00  0.00     0.200 A 
ATOM     94  F   UNL A   1      44.966  38.960  29.670  1.00  0.00    -0.200 F 
ATOM     95  F   UNL A   1      43.045  39.524  27.816  1.00  0.00    -0.200 F 
ENDBRANCH  61  85
BRANCH  73  96
ATOM     96  C   UNL A   1      41.338  33.730  36.070  1.00  0.00     0.064 A 
ATOM     97  C   UNL A   1      39.971  33.685  36.382  1.00  0.00     0.173 A 
ATOM     98  C   UNL A   1      42.190  34.432  36.936  1.00  0.00     0.173 A 
ATOM     99  F   UNL A   1      39.116  33.039  35.577  1.00  0.00    -0.203 F 
ATOM    100  C   UNL A   1      39.476  34.333  37.510  1.00  0.00     0.198 A 
ATOM    101  C   UNL A   1      41.695  35.055  38.077  1.00  0.00     0.198 A 
ATOM    102  F   UNL A   1      43.506  34.496  36.684  1.00  0.00    -0.203 F 
ATOM    103  F   UNL A   1      38.161  34.310  37.770  1.00  0.00    -0.200 F 
ATOM    104  C   UNL A   1      40.337  35.010  38.360  1.00  0.00     0.200 A 
ATOM    105  F   UNL A   1      42.530  35.698  38.904  1.00  0.00    -0.200 F 
ATOM    106  F   UNL A   1      39.860  35.624  39.451  1.00  0.00    -0.200 F 
ENDBRANCH  73  96
ENDBRANCH  47  48
ENDBRANCH  39  42
ENDBRANCH  37  38
ENDBRANCH  36  37
ENDBRANCH  35  36
ENDBRANCH  34  35
ENDBRANCH   1  34
TORSDOF 18
ENDMDL
MODEL 2
REMARK VINA RESULT:      -9.6      1.099      6.860
REMARK SMILES CC1=C(CC(=O)NCCCCCCNC(=O)c2ccc(-c3c4nc(c(-c5c(F)c(F)c(F)c(F)c5F)c5ccc([nH]5)c(-c5c(F)c(F)c(F)c(F)c5F)c5nc(c(-c6c(F)c(F)c(F)c(F)c6F)c6ccc3[nH]6)C=C5)C=C4)cc2)c2cc(F)ccc2/C1=C\c1cccc(OCc2ccccc2)c1
REMARK SMILES IDX 9 1 8 2 7 3 5 4 6 5 4 7 3 8 1 9 2 10 87 11 80 12 86 13 88 14
REMARK SMILES IDX 81 15 85 16 82 17 84 18 83 19 89 20 90 21 102 22 91 23 93 24
REMARK SMILES IDX 92 25 94 26 95 27 96 28 97 29 101 30 98 31 100 32 99 33
REMARK SMILES IDX 10 34 11 35 12 36 13 37 14 38 15 39 16 41 17 42 18 43 79 44
REMARK SMILES IDX 19 45 78 46 20 47 21 48 22 49 72 50 23 51 77 52 71 53 73 54
REMARK SMILES IDX 24 55 76 56 70 57 69 58 25 60 57 61 37 62 56 63 38 64 41 65
REMARK SMILES IDX 55 66 74 67 39 68 40 69 54 71 75 72 42 73 26 74 27 75 35 76
REMARK SMILES IDX 28 77 29 78 33 79 36 80 30 81 31 82 34 83 32 84 58 85 59 86
REMARK SMILES IDX 67 87 60 88 61 89 65 90 68 91 62 92 63 93 66 94 64 95 43 96
REMARK SMILES IDX 44 97 52 98 45 99 46 100 50 101 53 102 47 103 48 104 51 105
REMARK SMILES IDX 49 106
REMARK H PARENT 7 6 14 40 73 59 41 70
REMARK Flexibility Score: inf
ROOT
ATOM      1  C   UNL A   1      43.179  23.278  24.849  1.00  0.00     0.021 C 
ENDROOT
BRANCH   1   2
ATOM      2  C   UNL A   1      43.677  21.933  25.380  1.00  0.00     0.116 C 
BRANCH   2   3
ATOM      3  N   UNL A   1      42.612  20.953  25.422  1.00  0.00    -0.356 N 
ATOM      4  C   UNL A   1      41.959  20.438  26.501  1.00  0.00     0.224 C 
ATOM      5  O   UNL A   1      41.135  19.540  26.311  1.00  0.00    -0.275 OA
ATOM      6  H   UNL A   1      42.320  20.609  24.547  1.00  0.00     0.163 HD
BRANCH   4   7
ATOM      7  C   UNL A   1      42.204  21.000  27.900  1.00  0.00     0.136 C 
BRANCH   7   8
ATOM      8  C   UNL A   1      42.018  22.478  28.003  1.00  0.00    -0.027 C 
ATOM      9  C   UNL A   1      44.232  23.213  29.067  1.00  0.00     0.045 C 
ATOM     10  C   UNL A   1      42.858  23.411  28.510  1.00  0.00    -0.039 C 
ATOM     11  C   UNL A   1      42.224  24.736  28.434  1.00  0.00    -0.014 C 
ATOM     12  C   UNL A   1      40.825  23.178  27.492  1.00  0.00    -0.011 A 
ATOM     13  C   UNL A   1      40.949  24.562  27.717  1.00  0.00    -0.010 A 
ATOM     14  C   UNL A   1      42.742  25.852  28.975  1.00  0.00     0.017 C 
ATOM     15  C   UNL A   1      39.706  22.666  26.850  1.00  0.00     0.048 A 
ATOM     16  C   UNL A   1      39.975  25.446  27.272  1.00  0.00     0.012 A 
ATOM     17  C   UNL A   1      38.719  23.555  26.435  1.00  0.00     0.123 A 
ATOM     18  C   UNL A   1      38.846  24.932  26.632  1.00  0.00     0.040 A 
ATOM     19  F   UNL A   1      37.625  23.086  25.822  1.00  0.00    -0.207 F 
BRANCH  14  20
ATOM     20  C   UNL A   1      42.157  27.189  28.906  1.00  0.00    -0.021 A 
ATOM     21  C   UNL A   1      42.390  28.041  27.823  1.00  0.00     0.008 A 
ATOM     22  C   UNL A   1      41.376  27.623  29.983  1.00  0.00     0.054 A 
ATOM     23  C   UNL A   1      41.870  29.334  27.840  1.00  0.00     0.004 A 
ATOM     24  C   UNL A   1      40.821  28.901  29.987  1.00  0.00     0.120 A 
ATOM     25  C   UNL A   1      41.093  29.761  28.920  1.00  0.00     0.046 A 
BRANCH  24  26
ATOM     26  O   UNL A   1      40.016  29.416  30.966  1.00  0.00    -0.489 OA
BRANCH  26  27
ATOM     27  C   UNL A   1      40.267  30.757  31.408  1.00  0.00     0.265 C 
BRANCH  27  28
ATOM     28  C   UNL A   1      39.372  31.776  30.738  1.00  0.00    -0.011 A 
ATOM     29  C   UNL A   1      39.736  33.131  30.717  1.00  0.00     0.007 A 
ATOM     30  C   UNL A   1      38.177  31.386  30.115  1.00  0.00     0.007 A 
ATOM     31  C   UNL A   1      38.936  34.069  30.066  1.00  0.00     0.000 A 
ATOM     32  C   UNL A   1      37.382  32.326  29.456  1.00  0.00     0.000 A 
ATOM     33  C   UNL A   1      37.765  33.666  29.429  1.00  0.00     0.000 A 
ENDBRANCH  27  28
ENDBRANCH  26  27
ENDBRANCH  24  26
ENDBRANCH  14  20
ENDBRANCH   7   8
ENDBRANCH   4   7
ENDBRANCH   2   3
ENDBRANCH   1   2
BRANCH   1  34
ATOM     34  C   UNL A   1      44.057  24.471  25.253  1.00  0.00     0.002 C 
BRANCH  34  35
ATOM     35  C   UNL A   1      45.471  24.115  25.723  1.00  0.00     0.002 C 
BRANCH  35  36
ATOM     36  C   UNL A   1      46.554  24.191  24.646  1.00  0.00     0.021 C 
BRANCH  36  37
ATOM     37  C   UNL A   1      47.819  24.928  25.070  1.00  0.00     0.116 C 
BRANCH  37  38
ATOM     38  N   UNL A   1      48.161  26.014  24.163  1.00  0.00    -0.352 N 
ATOM     39  C   UNL A   1      47.868  27.353  24.263  1.00  0.00     0.251 C 
ATOM     40  H   UNL A   1      48.674  25.752  23.365  1.00  0.00     0.163 HD
ATOM     41  O   UNL A   1      48.090  28.113  23.325  1.00  0.00    -0.269 OA
BRANCH  39  42
ATOM     42  C   UNL A   1      47.250  27.872  25.502  1.00  0.00     0.039 A 
ATOM     43  C   UNL A   1      45.862  27.863  25.657  1.00  0.00     0.014 A 
ATOM     44  C   UNL A   1      48.069  28.397  26.504  1.00  0.00     0.014 A 
ATOM     45  C   UNL A   1      45.288  28.524  26.737  1.00  0.00     0.010 A 
ATOM     46  C   UNL A   1      47.490  28.991  27.629  1.00  0.00     0.010 A 
ATOM     47  C   UNL A   1      46.095  29.100  27.732  1.00  0.00    -0.014 A 
BRANCH  47  48
ATOM     48  C   UNL A   1      45.458  29.815  28.867  1.00  0.00     0.031 A 
ATOM     49  C   UNL A   1      45.063  31.262  28.739  1.00  0.00     0.074 A 
ATOM     50  C   UNL A   1      45.186  29.140  29.999  1.00  0.00     0.049 A 
ATOM     51  N   UNL A   1      44.499  32.045  29.625  1.00  0.00    -0.248 NA
ATOM     52  C   UNL A   1      45.336  31.917  27.451  1.00  0.00     0.031 C 
ATOM     53  C   UNL A   1      45.503  27.731  30.231  1.00  0.00     0.029 A 
ATOM     54  N   UNL A   1      44.564  29.536  31.155  1.00  0.00    -0.354 N 
ATOM     55  C   UNL A   1      44.365  33.283  29.010  1.00  0.00     0.074 A 
ATOM     56  C   UNL A   1      44.930  33.158  27.684  1.00  0.00     0.031 C 
ATOM     57  C   UNL A   1      45.029  27.366  31.432  1.00  0.00     0.029 A 
ATOM     58  C   UNL A   1      44.433  28.530  32.079  1.00  0.00     0.049 A 
ATOM     59  H   UNL A   1      44.243  30.455  31.307  1.00  0.00     0.167 HD
ATOM     60  C   UNL A   1      43.810  34.415  29.506  1.00  0.00     0.037 A 
ATOM     61  C   UNL A   1      43.905  28.544  33.317  1.00  0.00     0.037 A 
ATOM     62  C   UNL A   1      43.231  34.529  30.819  1.00  0.00     0.049 A 
ATOM     63  C   UNL A   1      43.339  29.827  33.857  1.00  0.00     0.074 A 
ATOM     64  C   UNL A   1      42.637  35.633  31.407  1.00  0.00     0.029 A 
ATOM     65  N   UNL A   1      43.168  33.500  31.748  1.00  0.00    -0.354 N 
ATOM     66  N   UNL A   1      43.227  30.992  33.270  1.00  0.00    -0.248 NA
ATOM     67  C   UNL A   1      42.836  29.797  35.238  1.00  0.00     0.031 C 
ATOM     68  C   UNL A   1      42.250  35.285  32.705  1.00  0.00     0.029 A 
ATOM     69  C   UNL A   1      42.560  33.949  32.910  1.00  0.00     0.049 A 
ATOM     70  H   UNL A   1      43.506  32.588  31.604  1.00  0.00     0.167 HD
ATOM     71  C   UNL A   1      42.632  31.832  34.199  1.00  0.00     0.074 A 
ATOM     72  C   UNL A   1      42.387  31.037  35.385  1.00  0.00     0.031 C 
ATOM     73  C   UNL A   1      42.323  33.146  34.081  1.00  0.00     0.037 A 
BRANCH  60  74
ATOM     74  C   UNL A   1      43.801  35.634  28.629  1.00  0.00     0.064 A 
ATOM     75  C   UNL A   1      42.643  36.044  27.955  1.00  0.00     0.173 A 
ATOM     76  C   UNL A   1      44.944  36.441  28.523  1.00  0.00     0.173 A 
ATOM     77  F   UNL A   1      41.527  35.302  28.015  1.00  0.00    -0.203 F 
ATOM     78  C   UNL A   1      42.632  37.213  27.196  1.00  0.00     0.198 A 
ATOM     79  C   UNL A   1      44.924  37.621  27.784  1.00  0.00     0.198 A 
ATOM     80  F   UNL A   1      46.077  36.095  29.153  1.00  0.00    -0.203 F 
ATOM     81  F   UNL A   1      41.522  37.571  26.536  1.00  0.00    -0.200 F 
ATOM     82  C   UNL A   1      43.768  38.005  27.119  1.00  0.00     0.200 A 
ATOM     83  F   UNL A   1      46.018  38.391  27.721  1.00  0.00    -0.200 F 
ATOM     84  F   UNL A   1      43.750  39.137  26.402  1.00  0.00    -0.200 F 
ENDBRANCH  60  74
BRANCH  61  85
ATOM     85  C   UNL A   1      43.886  27.295  34.118  1.00  0.00     0.064 A 
ATOM     86  C   UNL A   1      42.711  26.545  34.253  1.00  0.00     0.173 A 
ATOM     87  C   UNL A   1      45.048  26.807  34.734  1.00  0.00     0.173 A 
ATOM     88  F   UNL A   1      41.570  26.982  33.699  1.00  0.00    -0.203 F 
ATOM     89  C   UNL A   1      42.698  25.353  34.976  1.00  0.00     0.198 A 
ATOM     90  C   UNL A   1      45.041  25.603  35.433  1.00  0.00     0.198 A 
ATOM     91  F   UNL A   1      46.199  27.489  34.633  1.00  0.00    -0.203 F 
ATOM     92  F   UNL A   1      41.555  24.668  35.112  1.00  0.00    -0.200 F 
ATOM     93  C   UNL A   1      43.864  24.878  35.556  1.00  0.00     0.200 A 
ATOM     94  F   UNL A   1      46.174  25.139  35.977  1.00  0.00    -0.200 F 
ATOM     95  F   UNL A   1      43.855  23.725  36.236  1.00  0.00    -0.200 F 
ENDBRANCH  61  85
BRANCH  73  96
ATOM     96  C   UNL A   1      41.666  33.806  35.257  1.00  0.00     0.064 A 
ATOM     97  C   UNL A   1      40.280  33.731  35.459  1.00  0.00     0.173 A 
ATOM     98  C   UNL A   1      42.438  34.473  36.221  1.00  0.00     0.173 A 
ATOM     99  F   UNL A   1      39.500  33.116  34.558  1.00  0.00    -0.203 F 
ATOM    100  C   UNL A   1      39.689  34.314  36.575  1.00  0.00     0.198 A 
ATOM    101  C   UNL A   1      41.846  35.031  37.349  1.00  0.00     0.198 A 
ATOM    102  F   UNL A   1      43.768  34.565  36.076  1.00  0.00    -0.203 F 
ATOM    103  F   UNL A   1      38.359  34.263  36.731  1.00  0.00    -0.200 F 
ATOM    104  C   UNL A   1      40.472  34.956  37.523  1.00  0.00     0.200 A 
ATOM    105  F   UNL A   1      42.605  35.640  38.270  1.00  0.00    -0.200 F 
ATOM    106  F   UNL A   1      39.902  35.508  38.603  1.00  0.00    -0.200 F 
ENDBRANCH  73  96
ENDBRANCH  47  48
ENDBRANCH  39  42
ENDBRANCH  37  38
ENDBRANCH  36  37
ENDBRANCH  35  36
ENDBRANCH  34  35
ENDBRANCH   1  34
TORSDOF 18
ENDMDL
MODEL 3
REMARK VINA RESULT:      -9.5      3.986     11.974
REMARK SMILES CC1=C(CC(=O)NCCCCCCNC(=O)c2ccc(-c3c4nc(c(-c5c(F)c(F)c(F)c(F)c5F)c5ccc([nH]5)c(-c5c(F)c(F)c(F)c(F)c5F)c5nc(c(-c6c(F)c(F)c(F)c(F)c6F)c6ccc3[nH]6)C=C5)C=C4)cc2)c2cc(F)ccc2/C1=C\c1cccc(OCc2ccccc2)c1
REMARK SMILES IDX 9 1 8 2 7 3 5 4 6 5 4 7 3 8 1 9 2 10 87 11 80 12 86 13 88 14
REMARK SMILES IDX 81 15 85 16 82 17 84 18 83 19 89 20 90 21 102 22 91 23 93 24
REMARK SMILES IDX 92 25 94 26 95 27 96 28 97 29 101 30 98 31 100 32 99 33
REMARK SMILES IDX 10 34 11 35 12 36 13 37 14 38 15 39 16 41 17 42 18 43 79 44
REMARK SMILES IDX 19 45 78 46 20 47 21 48 22 49 72 50 23 51 77 52 71 53 73 54
REMARK SMILES IDX 24 55 76 56 70 57 69 58 25 60 57 61 37 62 56 63 38 64 41 65
REMARK SMILES IDX 55 66 74 67 39 68 40 69 54 71 75 72 42 73 26 74 27 75 35 76
REMARK SMILES IDX 28 77 29 78 33 79 36 80 30 81 31 82 34 83 32 84 58 85 59 86
REMARK SMILES IDX 67 87 60 88 61 89 65 90 68 91 62 92 63 93 66 94 64 95 43 96
REMARK SMILES IDX 44 97 52 98 45 99 46 100 50 101 53 102 47 103 48 104 51 105
REMARK SMILES IDX 49 106
REMARK H PARENT 7 6 14 40 73 59 41 70
REMARK Flexibility Score: inf
ROOT
ATOM      1  C   UNL A   1      33.150  36.060  31.590  1.00  0.00     0.021 C 
ENDROOT
BRANCH   1   2
ATOM      2  C   UNL A   1      33.890  35.302  30.487  1.00  0.00     0.116 C 
BRANCH   2   3
ATOM      3  N   UNL A   1      32.967  34.702  29.546  1.00  0.00    -0.356 N 
ATOM      4  C   UNL A   1      33.208  34.222  28.293  1.00  0.00     0.224 C 
ATOM      5  O   UNL A   1      32.248  33.829  27.625  1.00  0.00    -0.275 OA
ATOM      6  H   UNL A   1      32.035  34.632  29.854  1.00  0.00     0.163 HD
BRANCH   4   7
ATOM      7  C   UNL A   1      34.635  34.126  27.758  1.00  0.00     0.136 C 
BRANCH   7   8
ATOM      8  C   UNL A   1      35.440  33.026  28.368  1.00  0.00    -0.027 C 
ATOM      9  C   UNL A   1      34.197  30.943  27.539  1.00  0.00     0.045 C 
ATOM     10  C   UNL A   1      35.251  31.687  28.296  1.00  0.00    -0.039 C 
ATOM     11  C   UNL A   1      36.279  31.002  29.093  1.00  0.00    -0.014 C 
ATOM     12  C   UNL A   1      36.665  33.265  29.154  1.00  0.00    -0.011 A 
ATOM     13  C   UNL A   1      37.209  32.036  29.577  1.00  0.00    -0.010 A 
ATOM     14  C   UNL A   1      36.289  29.680  29.335  1.00  0.00     0.017 C 
ATOM     15  C   UNL A   1      37.294  34.461  29.471  1.00  0.00     0.048 A 
ATOM     16  C   UNL A   1      38.401  31.993  30.288  1.00  0.00     0.012 A 
ATOM     17  C   UNL A   1      38.471  34.410  30.211  1.00  0.00     0.123 A 
ATOM     18  C   UNL A   1      39.031  33.196  30.614  1.00  0.00     0.040 A 
ATOM     19  F   UNL A   1      39.092  35.550  30.539  1.00  0.00    -0.207 F 
BRANCH  14  20
ATOM     20  C   UNL A   1      37.299  28.957  30.103  1.00  0.00    -0.021 A 
ATOM     21  C   UNL A   1      37.126  28.665  31.458  1.00  0.00     0.008 A 
ATOM     22  C   UNL A   1      38.483  28.590  29.453  1.00  0.00     0.054 A 
ATOM     23  C   UNL A   1      38.153  28.039  32.165  1.00  0.00     0.004 A 
ATOM     24  C   UNL A   1      39.496  27.929  30.144  1.00  0.00     0.120 A 
ATOM     25  C   UNL A   1      39.333  27.678  31.509  1.00  0.00     0.046 A 
BRANCH  24  26
ATOM     26  O   UNL A   1      40.675  27.494  29.604  1.00  0.00    -0.489 OA
BRANCH  26  27
ATOM     27  C   UNL A   1      41.827  28.339  29.730  1.00  0.00     0.265 C 
BRANCH  27  28
ATOM     28  C   UNL A   1      42.818  28.159  28.601  1.00  0.00    -0.011 A 
ATOM     29  C   UNL A   1      43.018  29.186  27.666  1.00  0.00     0.007 A 
ATOM     30  C   UNL A   1      43.561  26.976  28.477  1.00  0.00     0.007 A 
ATOM     31  C   UNL A   1      43.959  29.042  26.647  1.00  0.00     0.000 A 
ATOM     32  C   UNL A   1      44.509  26.838  27.462  1.00  0.00     0.000 A 
ATOM     33  C   UNL A   1      44.709  27.873  26.550  1.00  0.00     0.000 A 
ENDBRANCH  27  28
ENDBRANCH  26  27
ENDBRANCH  24  26
ENDBRANCH  14  20
ENDBRANCH   7   8
ENDBRANCH   4   7
ENDBRANCH   2   3
ENDBRANCH   1   2
BRANCH   1  34
ATOM     34  C   UNL A   1      33.952  36.208  32.891  1.00  0.00     0.002 C 
BRANCH  34  35
ATOM     35  C   UNL A   1      35.266  35.421  32.944  1.00  0.00     0.002 C 
BRANCH  35  36
ATOM     36  C   UNL A   1      35.399  34.452  34.120  1.00  0.00     0.021 C 
BRANCH  36  37
ATOM     37  C   UNL A   1      36.834  34.096  34.488  1.00  0.00     0.116 C 
BRANCH  37  38
ATOM     38  N   UNL A   1      36.925  33.393  35.760  1.00  0.00    -0.352 N 
ATOM     39  C   UNL A   1      37.779  32.384  36.134  1.00  0.00     0.251 C 
ATOM     40  H   UNL A   1      36.284  33.681  36.448  1.00  0.00     0.163 HD
ATOM     41  O   UNL A   1      37.614  31.786  37.193  1.00  0.00    -0.269 OA
BRANCH  39  42
ATOM     42  C   UNL A   1      38.885  31.995  35.233  1.00  0.00     0.039 A 
ATOM     43  C   UNL A   1      38.665  31.096  34.188  1.00  0.00     0.014 A 
ATOM     44  C   UNL A   1      40.162  32.517  35.458  1.00  0.00     0.014 A 
ATOM     45  C   UNL A   1      39.747  30.595  33.473  1.00  0.00     0.010 A 
ATOM     46  C   UNL A   1      41.237  32.071  34.683  1.00  0.00     0.010 A 
ATOM     47  C   UNL A   1      41.045  31.073  33.715  1.00  0.00    -0.014 A 
BRANCH  47  48
ATOM     48  C   UNL A   1      42.186  30.511  32.950  1.00  0.00     0.031 A 
ATOM     49  C   UNL A   1      42.801  31.280  31.812  1.00  0.00     0.074 A 
ATOM     50  C   UNL A   1      42.704  29.325  33.318  1.00  0.00     0.049 A 
ATOM     51  N   UNL A   1      43.800  30.945  31.033  1.00  0.00    -0.248 NA
ATOM     52  C   UNL A   1      42.221  32.597  31.506  1.00  0.00     0.031 C 
ATOM     53  C   UNL A   1      42.206  28.497  34.418  1.00  0.00     0.029 A 
ATOM     54  N   UNL A   1      43.773  28.619  32.829  1.00  0.00    -0.354 N 
ATOM     55  C   UNL A   1      43.956  31.997  30.140  1.00  0.00     0.074 A 
ATOM     56  C   UNL A   1      42.935  32.972  30.452  1.00  0.00     0.031 C 
ATOM     57  C   UNL A   1      42.998  27.423  34.553  1.00  0.00     0.029 A 
ATOM     58  C   UNL A   1      44.018  27.453  33.511  1.00  0.00     0.049 A 
ATOM     59  H   UNL A   1      44.313  28.920  32.062  1.00  0.00     0.167 HD
ATOM     60  C   UNL A   1      44.878  32.137  29.157  1.00  0.00     0.037 A 
ATOM     61  C   UNL A   1      44.952  26.504  33.311  1.00  0.00     0.037 A 
ATOM     62  C   UNL A   1      45.907  31.174  28.862  1.00  0.00     0.049 A 
ATOM     63  C   UNL A   1      45.931  26.666  32.183  1.00  0.00     0.074 A 
ATOM     64  C   UNL A   1      46.891  31.233  27.890  1.00  0.00     0.029 A 
ATOM     65  N   UNL A   1      46.087  29.977  29.540  1.00  0.00    -0.354 N 
ATOM     66  N   UNL A   1      46.062  27.659  31.340  1.00  0.00    -0.248 NA
ATOM     67  C   UNL A   1      46.885  25.568  31.974  1.00  0.00     0.031 C 
ATOM     68  C   UNL A   1      47.642  30.055  27.954  1.00  0.00     0.029 A 
ATOM     69  C   UNL A   1      47.156  29.282  28.997  1.00  0.00     0.049 A 
ATOM     70  H   UNL A   1      45.536  29.666  30.294  1.00  0.00     0.167 HD
ATOM     71  C   UNL A   1      47.117  27.316  30.508  1.00  0.00     0.074 A 
ATOM     72  C   UNL A   1      47.606  26.029  30.961  1.00  0.00     0.031 C 
ATOM     73  C   UNL A   1      47.630  28.003  29.459  1.00  0.00     0.037 A 
BRANCH  60  74
ATOM     74  C   UNL A   1      44.822  33.380  28.315  1.00  0.00     0.064 A 
ATOM     75  C   UNL A   1      44.164  33.398  27.078  1.00  0.00     0.173 A 
ATOM     76  C   UNL A   1      45.367  34.584  28.788  1.00  0.00     0.173 A 
ATOM     77  F   UNL A   1      43.637  32.272  26.575  1.00  0.00    -0.203 F 
ATOM     78  C   UNL A   1      44.065  34.575  26.337  1.00  0.00     0.198 A 
ATOM     79  C   UNL A   1      45.244  35.763  28.058  1.00  0.00     0.198 A 
ATOM     80  F   UNL A   1      46.001  34.620  29.970  1.00  0.00    -0.203 F 
ATOM     81  F   UNL A   1      43.458  34.563  25.142  1.00  0.00    -0.200 F 
ATOM     82  C   UNL A   1      44.596  35.757  26.832  1.00  0.00     0.200 A 
ATOM     83  F   UNL A   1      45.746  36.906  28.543  1.00  0.00    -0.200 F 
ATOM     84  F   UNL A   1      44.485  36.890  26.125  1.00  0.00    -0.200 F 
ENDBRANCH  60  74
BRANCH  61  85
ATOM     85  C   UNL A   1      44.999  25.324  34.211  1.00  0.00     0.064 A 
ATOM     86  C   UNL A   1      44.427  24.105  33.827  1.00  0.00     0.173 A 
ATOM     87  C   UNL A   1      45.648  25.381  35.453  1.00  0.00     0.173 A 
ATOM     88  F   UNL A   1      43.778  24.008  32.657  1.00  0.00    -0.203 F 
ATOM     89  C   UNL A   1      44.500  22.986  34.654  1.00  0.00     0.198 A 
ATOM     90  C   UNL A   1      45.745  24.255  36.267  1.00  0.00     0.198 A 
ATOM     91  F   UNL A   1      46.214  26.526  35.864  1.00  0.00    -0.203 F 
ATOM     92  F   UNL A   1      43.921  21.838  34.277  1.00  0.00    -0.200 F 
ATOM     93  C   UNL A   1      45.167  23.059  35.867  1.00  0.00     0.200 A 
ATOM     94  F   UNL A   1      46.405  24.326  37.430  1.00  0.00    -0.200 F 
ATOM     95  F   UNL A   1      45.251  21.978  36.655  1.00  0.00    -0.200 F 
ENDBRANCH  61  85
BRANCH  73  96
ATOM     96  C   UNL A   1      48.793  27.390  28.737  1.00  0.00     0.064 A 
ATOM     97  C   UNL A   1      48.607  26.575  27.611  1.00  0.00     0.173 A 
ATOM     98  C   UNL A   1      50.108  27.666  29.142  1.00  0.00     0.173 A 
ATOM     99  F   UNL A   1      47.369  26.272  27.195  1.00  0.00    -0.203 F 
ATOM    100  C   UNL A   1      49.696  26.045  26.926  1.00  0.00     0.198 A 
ATOM    101  C   UNL A   1      51.195  27.156  28.438  1.00  0.00     0.198 A 
ATOM    102  F   UNL A   1      50.337  28.447  30.208  1.00  0.00    -0.203 F 
ATOM    103  F   UNL A   1      49.497  25.238  25.874  1.00  0.00    -0.200 F 
ATOM    104  C   UNL A   1      50.988  26.342  27.335  1.00  0.00     0.200 A 
ATOM    105  F   UNL A   1      52.442  27.454  28.826  1.00  0.00    -0.200 F 
ATOM    106  F   UNL A   1      52.036  25.839  26.668  1.00  0.00    -0.200 F 
ENDBRANCH  73  96
ENDBRANCH  47  48
ENDBRANCH  39  42
ENDBRANCH  37  38
ENDBRANCH  36  37
ENDBRANCH  35  36
ENDBRANCH  34  35
ENDBRANCH   1  34
TORSDOF 18
ENDMDL
