MODEL 1
REMARK VINA RESULT:     -11.9      0.000      0.000
REMARK SMILES O=C1C[N@@H+](Cc2ccc(C(=O)NCCCCCCNC(=O)c3ccc(-c4c5nc(c(-c6c(F)c(F)c(F)c(F)c6F)c6ccc([nH]6)c(-c6c(F)c(F)c(F)c(F)c6F)c6nc(c(-c7c(F)c(F)c(F)c(F)c7F)c7ccc4[nH]7)C=C6)C=C5)cc3)cc2)CCN1
REMARK SMILES IDX 15 1 14 2 13 3 12 4 10 5 11 6 9 8 6 9 7 10 86 11 8 12 85 13
REMARK SMILES IDX 5 14 4 15 1 16 2 17 3 18 89 19 88 20 87 22 16 24 17 25 18 26
REMARK SMILES IDX 19 27 20 28 21 30 22 31 23 32 84 33 24 34 83 35 25 36 26 37
REMARK SMILES IDX 27 38 77 39 28 40 82 41 76 42 78 43 29 44 81 45 75 46 74 47
REMARK SMILES IDX 30 49 62 50 42 51 61 52 43 53 46 54 60 55 79 56 44 57 45 58
REMARK SMILES IDX 59 60 80 61 47 62 31 63 32 64 40 65 33 66 34 67 38 68 41 69
REMARK SMILES IDX 35 70 36 71 39 72 37 73 63 74 64 75 72 76 65 77 66 78 70 79
REMARK SMILES IDX 73 80 67 81 68 82 71 83 69 84 48 85 49 86 57 87 50 88 51 89
REMARK SMILES IDX 55 90 58 91 52 92 53 93 56 94 54 95
REMARK H PARENT 12 7 89 21 4 23 19 29 78 48 46 59
REMARK Flexibility Score: inf
ROOT
ATOM      1  C   UNL A   1      33.073  30.142  26.430  1.00  0.00     0.002 C 
ENDROOT
BRANCH   1   2
ATOM      2  C   UNL A   1      33.208  29.007  27.454  1.00  0.00     0.021 C 
BRANCH   2   3
ATOM      3  C   UNL A   1      32.294  27.815  27.163  1.00  0.00     0.116 C 
BRANCH   3   4
ATOM      4  N   UNL A   1      33.041  26.763  26.496  1.00  0.00    -0.352 N 
ATOM      5  C   UNL A   1      33.069  26.374  25.181  1.00  0.00     0.251 C 
ATOM      6  O   UNL A   1      33.809  25.454  24.843  1.00  0.00    -0.269 OA
ATOM      7  H   UNL A   1      33.629  26.241  27.088  1.00  0.00     0.163 HD
BRANCH   5   8
ATOM      8  C   UNL A   1      32.294  27.105  24.154  1.00  0.00     0.039 A 
ATOM      9  C   UNL A   1      30.860  28.790  22.437  1.00  0.00     0.006 A 
ATOM     10  C   UNL A   1      32.243  28.952  22.593  1.00  0.00     0.010 A 
ATOM     11  C   UNL A   1      30.231  27.693  23.043  1.00  0.00     0.010 A 
ATOM     12  C   UNL A   1      32.957  28.114  23.449  1.00  0.00     0.014 A 
ATOM     13  C   UNL A   1      30.947  26.846  23.890  1.00  0.00     0.014 A 
BRANCH   9  14
ATOM     14  C   UNL A   1      30.052  29.805  21.665  1.00  0.00     0.299 C 
BRANCH  14  15
ATOM     15  N   UNL A   1      28.802  30.258  22.281  1.00  0.00    -0.322 N 
ATOM     16  O   UNL A   1      27.659  33.218  20.470  1.00  0.00    -0.269 OA
ATOM     17  C   UNL A   1      28.039  32.515  21.406  1.00  0.00     0.275 C 
ATOM     18  C   UNL A   1      27.885  30.992  21.393  1.00  0.00     0.363 C 
ATOM     19  N   UNL A   1      28.501  33.109  22.548  1.00  0.00    -0.346 N 
ATOM     20  C   UNL A   1      29.150  32.389  23.617  1.00  0.00     0.177 C 
ATOM     21  H   UNL A   1      28.384  34.082  22.646  1.00  0.00     0.163 HD
ATOM     22  C   UNL A   1      28.895  30.874  23.606  1.00  0.00     0.284 C 
ATOM     23  H   UNL A   1      28.365  29.353  22.458  1.00  0.00     0.348 HD
ENDBRANCH  14  15
ENDBRANCH   9  14
ENDBRANCH   5   8
ENDBRANCH   3   4
ENDBRANCH   2   3
ENDBRANCH   1   2
BRANCH   1  24
ATOM     24  C   UNL A   1      31.650  30.681  26.249  1.00  0.00     0.002 C 
BRANCH  24  25
ATOM     25  C   UNL A   1      31.455  32.142  26.661  1.00  0.00     0.021 C 
BRANCH  25  26
ATOM     26  C   UNL A   1      32.701  32.802  27.242  1.00  0.00     0.116 C 
BRANCH  26  27
ATOM     27  N   UNL A   1      32.457  34.184  27.626  1.00  0.00    -0.352 N 
ATOM     28  C   UNL A   1      33.002  34.911  28.655  1.00  0.00     0.251 C 
ATOM     29  H   UNL A   1      31.806  34.667  27.067  1.00  0.00     0.163 HD
ATOM     30  O   UNL A   1      32.527  35.996  28.966  1.00  0.00    -0.269 OA
BRANCH  28  31
ATOM     31  C   UNL A   1      34.160  34.372  29.399  1.00  0.00     0.039 A 
ATOM     32  C   UNL A   1      33.933  33.655  30.576  1.00  0.00     0.014 A 
ATOM     33  C   UNL A   1      35.464  34.582  28.943  1.00  0.00     0.014 A 
ATOM     34  C   UNL A   1      35.013  33.097  31.264  1.00  0.00     0.010 A 
ATOM     35  C   UNL A   1      36.530  33.962  29.586  1.00  0.00     0.010 A 
ATOM     36  C   UNL A   1      36.316  33.217  30.755  1.00  0.00    -0.014 A 
BRANCH  36  37
ATOM     37  C   UNL A   1      37.469  32.573  31.434  1.00  0.00     0.031 A 
ATOM     38  C   UNL A   1      38.180  31.418  30.785  1.00  0.00     0.074 A 
ATOM     39  C   UNL A   1      37.834  32.985  32.663  1.00  0.00     0.049 A 
ATOM     40  N   UNL A   1      39.157  30.679  31.248  1.00  0.00    -0.248 NA
ATOM     41  C   UNL A   1      37.709  31.020  29.448  1.00  0.00     0.031 C 
ATOM     42  C   UNL A   1      37.197  34.067  33.415  1.00  0.00     0.029 A 
ATOM     43  N   UNL A   1      38.824  32.537  33.501  1.00  0.00    -0.354 N 
ATOM     44  C   UNL A   1      39.409  29.730  30.266  1.00  0.00     0.074 A 
ATOM     45  C   UNL A   1      38.443  29.945  29.212  1.00  0.00     0.031 C 
ATOM     46  C   UNL A   1      37.826  34.217  34.590  1.00  0.00     0.029 A 
ATOM     47  C   UNL A   1      38.882  33.215  34.695  1.00  0.00     0.049 A 
ATOM     48  H   UNL A   1      39.435  31.801  33.269  1.00  0.00     0.167 HD
ATOM     49  C   UNL A   1      40.375  28.780  30.237  1.00  0.00     0.037 A 
ATOM     50  C   UNL A   1      39.691  33.040  35.757  1.00  0.00     0.037 A 
ATOM     51  C   UNL A   1      41.345  28.582  31.284  1.00  0.00     0.049 A 
ATOM     52  C   UNL A   1      40.741  31.962  35.711  1.00  0.00     0.074 A 
ATOM     53  C   UNL A   1      42.396  27.683  31.328  1.00  0.00     0.029 A 
ATOM     54  N   UNL A   1      41.376  29.291  32.476  1.00  0.00    -0.354 N 
ATOM     55  N   UNL A   1      41.014  31.113  34.751  1.00  0.00    -0.248 NA
ATOM     56  C   UNL A   1      41.598  31.823  36.896  1.00  0.00     0.031 C 
ATOM     57  C   UNL A   1      43.029  27.810  32.568  1.00  0.00     0.029 A 
ATOM     58  C   UNL A   1      42.412  28.831  33.274  1.00  0.00     0.049 A 
ATOM     59  H   UNL A   1      40.754  30.015  32.720  1.00  0.00     0.167 HD
ATOM     60  C   UNL A   1      42.091  30.361  35.200  1.00  0.00     0.074 A 
ATOM     61  C   UNL A   1      42.431  30.865  36.514  1.00  0.00     0.031 C 
ATOM     62  C   UNL A   1      42.742  29.346  34.578  1.00  0.00     0.037 A 
BRANCH  49  63
ATOM     63  C   UNL A   1      40.429  27.882  29.034  1.00  0.00     0.064 A 
ATOM     64  C   UNL A   1      41.239  28.178  27.926  1.00  0.00     0.173 A 
ATOM     65  C   UNL A   1      39.683  26.693  28.999  1.00  0.00     0.173 A 
ATOM     66  F   UNL A   1      41.965  29.306  27.904  1.00  0.00    -0.203 F 
ATOM     67  C   UNL A   1      41.271  27.340  26.815  1.00  0.00     0.198 A 
ATOM     68  C   UNL A   1      39.745  25.838  27.901  1.00  0.00     0.198 A 
ATOM     69  F   UNL A   1      38.897  26.356  30.033  1.00  0.00    -0.203 F 
ATOM     70  F   UNL A   1      42.006  27.675  25.746  1.00  0.00    -0.200 F 
ATOM     71  C   UNL A   1      40.530  26.167  26.806  1.00  0.00     0.200 A 
ATOM     72  F   UNL A   1      39.040  24.699  27.900  1.00  0.00    -0.200 F 
ATOM     73  F   UNL A   1      40.567  25.358  25.739  1.00  0.00    -0.200 F 
ENDBRANCH  49  63
BRANCH  50  74
ATOM     74  C   UNL A   1      39.556  33.923  36.946  1.00  0.00     0.064 A 
ATOM     75  C   UNL A   1      38.802  33.522  38.058  1.00  0.00     0.173 A 
ATOM     76  C   UNL A   1      40.170  35.182  36.996  1.00  0.00     0.173 A 
ATOM     77  F   UNL A   1      38.179  32.334  38.052  1.00  0.00    -0.203 F 
ATOM     78  C   UNL A   1      38.652  34.355  39.165  1.00  0.00     0.198 A 
ATOM     79  C   UNL A   1      40.045  36.002  38.116  1.00  0.00     0.198 A 
ATOM     80  F   UNL A   1      40.907  35.612  35.961  1.00  0.00    -0.203 F 
ATOM     81  F   UNL A   1      37.887  33.965  40.195  1.00  0.00    -0.200 F 
ATOM     82  C   UNL A   1      39.278  35.591  39.196  1.00  0.00     0.200 A 
ATOM     83  F   UNL A   1      40.666  37.189  38.148  1.00  0.00    -0.200 F 
ATOM     84  F   UNL A   1      39.138  36.389  40.263  1.00  0.00    -0.200 F 
ENDBRANCH  50  74
BRANCH  62  85
ATOM     85  C   UNL A   1      43.914  28.737  35.295  1.00  0.00     0.064 A 
ATOM     86  C   UNL A   1      43.763  27.646  36.163  1.00  0.00     0.173 A 
ATOM     87  C   UNL A   1      45.210  29.227  35.076  1.00  0.00     0.173 A 
ATOM     88  F   UNL A   1      42.543  27.149  36.419  1.00  0.00    -0.203 F 
ATOM     89  C   UNL A   1      44.864  27.086  36.807  1.00  0.00     0.198 A 
ATOM     90  C   UNL A   1      46.313  28.643  35.693  1.00  0.00     0.198 A 
ATOM     91  F   UNL A   1      45.411  30.265  34.249  1.00  0.00    -0.203 F 
ATOM     92  F   UNL A   1      44.690  26.077  37.671  1.00  0.00    -0.200 F 
ATOM     93  C   UNL A   1      46.137  27.579  36.565  1.00  0.00     0.200 A 
ATOM     94  F   UNL A   1      47.544  29.111  35.446  1.00  0.00    -0.200 F 
ATOM     95  F   UNL A   1      47.196  27.032  37.178  1.00  0.00    -0.200 F 
ENDBRANCH  62  85
ENDBRANCH  36  37
ENDBRANCH  28  31
ENDBRANCH  26  27
ENDBRANCH  25  26
ENDBRANCH  24  25
ENDBRANCH   1  24
TORSDOF 15
ENDMDL
MODEL 2
REMARK VINA RESULT:     -11.8      0.503      2.019
REMARK SMILES O=C1C[N@@H+](Cc2ccc(C(=O)NCCCCCCNC(=O)c3ccc(-c4c5nc(c(-c6c(F)c(F)c(F)c(F)c6F)c6ccc([nH]6)c(-c6c(F)c(F)c(F)c(F)c6F)c6nc(c(-c7c(F)c(F)c(F)c(F)c7F)c7ccc4[nH]7)C=C6)C=C5)cc3)cc2)CCN1
REMARK SMILES IDX 15 1 14 2 13 3 12 4 10 5 11 6 9 8 6 9 7 10 86 11 8 12 85 13
REMARK SMILES IDX 5 14 4 15 1 16 2 17 3 18 89 19 88 20 87 22 16 24 17 25 18 26
REMARK SMILES IDX 19 27 20 28 21 30 22 31 23 32 84 33 24 34 83 35 25 36 26 37
REMARK SMILES IDX 27 38 77 39 28 40 82 41 76 42 78 43 29 44 81 45 75 46 74 47
REMARK SMILES IDX 30 49 62 50 42 51 61 52 43 53 46 54 60 55 79 56 44 57 45 58
REMARK SMILES IDX 59 60 80 61 47 62 31 63 32 64 40 65 33 66 34 67 38 68 41 69
REMARK SMILES IDX 35 70 36 71 39 72 37 73 63 74 64 75 72 76 65 77 66 78 70 79
REMARK SMILES IDX 73 80 67 81 68 82 71 83 69 84 48 85 49 86 57 87 50 88 51 89
REMARK SMILES IDX 55 90 58 91 52 92 53 93 56 94 54 95
REMARK H PARENT 12 7 89 21 4 23 19 29 78 48 46 59
REMARK Flexibility Score: inf
ROOT
ATOM      1  C   UNL A   1      32.989  29.973  26.309  1.00  0.00     0.002 C 
ENDROOT
BRANCH   1   2
ATOM      2  C   UNL A   1      33.076  28.800  27.295  1.00  0.00     0.021 C 
BRANCH   2   3
ATOM      3  C   UNL A   1      31.763  28.028  27.439  1.00  0.00     0.116 C 
BRANCH   3   4
ATOM      4  N   UNL A   1      31.951  26.643  27.044  1.00  0.00    -0.352 N 
ATOM      5  C   UNL A   1      31.678  25.999  25.864  1.00  0.00     0.251 C 
ATOM      6  O   UNL A   1      31.947  24.806  25.756  1.00  0.00    -0.269 OA
ATOM      7  H   UNL A   1      32.342  26.069  27.741  1.00  0.00     0.163 HD
BRANCH   5   8
ATOM      8  C   UNL A   1      31.152  26.740  24.696  1.00  0.00     0.039 A 
ATOM      9  C   UNL A   1      30.231  28.457  22.684  1.00  0.00     0.006 A 
ATOM     10  C   UNL A   1      31.601  28.370  22.967  1.00  0.00     0.010 A 
ATOM     11  C   UNL A   1      29.348  27.576  23.325  1.00  0.00     0.010 A 
ATOM     12  C   UNL A   1      32.059  27.517  23.969  1.00  0.00     0.014 A 
ATOM     13  C   UNL A   1      29.807  26.713  24.320  1.00  0.00     0.014 A 
BRANCH   9  14
ATOM     14  C   UNL A   1      29.709  29.510  21.738  1.00  0.00     0.299 C 
BRANCH  14  15
ATOM     15  N   UNL A   1      28.433  30.139  22.091  1.00  0.00    -0.322 N 
ATOM     16  O   UNL A   1      28.068  33.162  20.071  1.00  0.00    -0.269 OA
ATOM     17  C   UNL A   1      28.161  32.447  21.068  1.00  0.00     0.275 C 
ATOM     18  C   UNL A   1      27.814  30.956  21.034  1.00  0.00     0.363 C 
ATOM     19  N   UNL A   1      28.464  33.012  22.276  1.00  0.00    -0.346 N 
ATOM     20  C   UNL A   1      28.791  32.249  23.457  1.00  0.00     0.177 C 
ATOM     21  H   UNL A   1      28.460  33.995  22.343  1.00  0.00     0.163 HD
ATOM     22  C   UNL A   1      28.345  30.780  23.404  1.00  0.00     0.284 C 
ATOM     23  H   UNL A   1      27.855  29.303  22.183  1.00  0.00     0.348 HD
ENDBRANCH  14  15
ENDBRANCH   9  14
ENDBRANCH   5   8
ENDBRANCH   3   4
ENDBRANCH   2   3
ENDBRANCH   1   2
BRANCH   1  24
ATOM     24  C   UNL A   1      31.578  30.533  26.098  1.00  0.00     0.002 C 
BRANCH  24  25
ATOM     25  C   UNL A   1      31.389  31.987  26.538  1.00  0.00     0.021 C 
BRANCH  25  26
ATOM     26  C   UNL A   1      32.603  32.597  27.230  1.00  0.00     0.116 C 
BRANCH  26  27
ATOM     27  N   UNL A   1      32.402  34.004  27.542  1.00  0.00    -0.352 N 
ATOM     28  C   UNL A   1      33.001  34.776  28.506  1.00  0.00     0.251 C 
ATOM     29  H   UNL A   1      31.739  34.469  26.981  1.00  0.00     0.163 HD
ATOM     30  O   UNL A   1      32.561  35.888  28.772  1.00  0.00    -0.269 OA
BRANCH  28  31
ATOM     31  C   UNL A   1      34.176  34.255  29.236  1.00  0.00     0.039 A 
ATOM     32  C   UNL A   1      33.973  33.488  30.386  1.00  0.00     0.014 A 
ATOM     33  C   UNL A   1      35.473  34.528  28.792  1.00  0.00     0.014 A 
ATOM     34  C   UNL A   1      35.070  32.947  31.059  1.00  0.00     0.010 A 
ATOM     35  C   UNL A   1      36.559  33.926  29.418  1.00  0.00     0.010 A 
ATOM     36  C   UNL A   1      36.370  33.133  30.560  1.00  0.00    -0.014 A 
BRANCH  36  37
ATOM     37  C   UNL A   1      37.544  32.508  31.220  1.00  0.00     0.031 A 
ATOM     38  C   UNL A   1      38.280  31.383  30.547  1.00  0.00     0.074 A 
ATOM     39  C   UNL A   1      37.906  32.910  32.453  1.00  0.00     0.049 A 
ATOM     40  N   UNL A   1      39.280  30.663  30.992  1.00  0.00    -0.248 NA
ATOM     41  C   UNL A   1      37.810  30.995  29.207  1.00  0.00     0.031 C 
ATOM     42  C   UNL A   1      37.246  33.962  33.227  1.00  0.00     0.029 A 
ATOM     43  N   UNL A   1      38.914  32.474  33.278  1.00  0.00    -0.354 N 
ATOM     44  C   UNL A   1      39.550  29.737  29.993  1.00  0.00     0.074 A 
ATOM     45  C   UNL A   1      38.572  29.943  28.948  1.00  0.00     0.031 C 
ATOM     46  C   UNL A   1      37.879  34.109  34.401  1.00  0.00     0.029 A 
ATOM     47  C   UNL A   1      38.962  33.133  34.482  1.00  0.00     0.049 A 
ATOM     48  H   UNL A   1      39.542  31.758  33.030  1.00  0.00     0.167 HD
ATOM     49  C   UNL A   1      40.541  28.814  29.942  1.00  0.00     0.037 A 
ATOM     50  C   UNL A   1      39.782  32.962  35.537  1.00  0.00     0.037 A 
ATOM     51  C   UNL A   1      41.522  28.624  30.979  1.00  0.00     0.049 A 
ATOM     52  C   UNL A   1      40.860  31.913  35.466  1.00  0.00     0.074 A 
ATOM     53  C   UNL A   1      42.597  27.752  31.001  1.00  0.00     0.029 A 
ATOM     54  N   UNL A   1      41.542  29.314  32.182  1.00  0.00    -0.354 N 
ATOM     55  N   UNL A   1      41.148  31.088  34.490  1.00  0.00    -0.248 NA
ATOM     56  C   UNL A   1      41.729  31.778  36.643  1.00  0.00     0.031 C 
ATOM     57  C   UNL A   1      43.234  27.875  32.239  1.00  0.00     0.029 A 
ATOM     58  C   UNL A   1      42.595  28.868  32.966  1.00  0.00     0.049 A 
ATOM     59  H   UNL A   1      40.904  30.017  32.442  1.00  0.00     0.167 HD
ATOM     60  C   UNL A   1      42.248  30.357  34.919  1.00  0.00     0.074 A 
ATOM     61  C   UNL A   1      42.583  30.849  36.239  1.00  0.00     0.031 C 
ATOM     62  C   UNL A   1      42.921  29.370  34.277  1.00  0.00     0.037 A 
BRANCH  49  63
ATOM     63  C   UNL A   1      40.610  27.937  28.724  1.00  0.00     0.064 A 
ATOM     64  C   UNL A   1      39.911  26.721  28.648  1.00  0.00     0.173 A 
ATOM     65  C   UNL A   1      41.363  28.328  27.606  1.00  0.00     0.173 A 
ATOM     66  F   UNL A   1      39.184  26.295  29.692  1.00  0.00    -0.203 F 
ATOM     67  C   UNL A   1      39.992  25.915  27.516  1.00  0.00     0.198 A 
ATOM     68  C   UNL A   1      41.413  27.536  26.461  1.00  0.00     0.198 A 
ATOM     69  F   UNL A   1      42.046  29.483  27.620  1.00  0.00    -0.203 F 
ATOM     70  F   UNL A   1      39.363  24.732  27.492  1.00  0.00    -0.200 F 
ATOM     71  C   UNL A   1      40.738  26.326  26.421  1.00  0.00     0.200 A 
ATOM     72  F   UNL A   1      42.121  27.943  25.398  1.00  0.00    -0.200 F 
ATOM     73  F   UNL A   1      40.810  25.553  25.329  1.00  0.00    -0.200 F 
ENDBRANCH  49  63
BRANCH  50  74
ATOM     74  C   UNL A   1      39.632  33.822  36.741  1.00  0.00     0.064 A 
ATOM     75  C   UNL A   1      40.258  35.074  36.814  1.00  0.00     0.173 A 
ATOM     76  C   UNL A   1      38.866  33.411  37.842  1.00  0.00     0.173 A 
ATOM     77  F   UNL A   1      41.017  35.504  35.795  1.00  0.00    -0.203 F 
ATOM     78  C   UNL A   1      40.140  35.873  37.949  1.00  0.00     0.198 A 
ATOM     79  C   UNL A   1      38.724  34.224  38.964  1.00  0.00     0.198 A 
ATOM     80  F   UNL A   1      38.242  32.223  37.821  1.00  0.00    -0.203 F 
ATOM     81  F   UNL A   1      40.788  37.045  38.011  1.00  0.00    -0.200 F 
ATOM     82  C   UNL A   1      39.369  35.450  39.021  1.00  0.00     0.200 A 
ATOM     83  F   UNL A   1      37.963  33.818  39.990  1.00  0.00    -0.200 F 
ATOM     84  F   UNL A   1      39.251  36.221  40.111  1.00  0.00    -0.200 F 
ENDBRANCH  50  74
BRANCH  62  85
ATOM     85  C   UNL A   1      44.113  28.781  34.976  1.00  0.00     0.064 A 
ATOM     86  C   UNL A   1      45.396  29.331  34.841  1.00  0.00     0.173 A 
ATOM     87  C   UNL A   1      43.960  27.675  35.825  1.00  0.00     0.173 A 
ATOM     88  F   UNL A   1      45.599  30.380  34.029  1.00  0.00    -0.203 F 
ATOM     89  C   UNL A   1      46.486  28.779  35.510  1.00  0.00     0.198 A 
ATOM     90  C   UNL A   1      45.044  27.146  36.519  1.00  0.00     0.198 A 
ATOM     91  F   UNL A   1      42.752  27.113  35.995  1.00  0.00    -0.203 F 
ATOM     92  F   UNL A   1      47.711  29.290  35.327  1.00  0.00    -0.200 F 
ATOM     93  C   UNL A   1      46.308  27.693  36.354  1.00  0.00     0.200 A 
ATOM     94  F   UNL A   1      44.868  26.106  37.346  1.00  0.00    -0.200 F 
ATOM     95  F   UNL A   1      47.356  27.170  37.004  1.00  0.00    -0.200 F 
ENDBRANCH  62  85
ENDBRANCH  36  37
ENDBRANCH  28  31
ENDBRANCH  26  27
ENDBRANCH  25  26
ENDBRANCH  24  25
ENDBRANCH   1  24
TORSDOF 15
ENDMDL
MODEL 3
REMARK VINA RESULT:     -11.7      1.449      3.382
REMARK SMILES O=C1C[N@@H+](Cc2ccc(C(=O)NCCCCCCNC(=O)c3ccc(-c4c5nc(c(-c6c(F)c(F)c(F)c(F)c6F)c6ccc([nH]6)c(-c6c(F)c(F)c(F)c(F)c6F)c6nc(c(-c7c(F)c(F)c(F)c(F)c7F)c7ccc4[nH]7)C=C6)C=C5)cc3)cc2)CCN1
REMARK SMILES IDX 15 1 14 2 13 3 12 4 10 5 11 6 9 8 6 9 7 10 86 11 8 12 85 13
REMARK SMILES IDX 5 14 4 15 1 16 2 17 3 18 89 19 88 20 87 22 16 24 17 25 18 26
REMARK SMILES IDX 19 27 20 28 21 30 22 31 23 32 84 33 24 34 83 35 25 36 26 37
REMARK SMILES IDX 27 38 77 39 28 40 82 41 76 42 78 43 29 44 81 45 75 46 74 47
REMARK SMILES IDX 30 49 62 50 42 51 61 52 43 53 46 54 60 55 79 56 44 57 45 58
REMARK SMILES IDX 59 60 80 61 47 62 31 63 32 64 40 65 33 66 34 67 38 68 41 69
REMARK SMILES IDX 35 70 36 71 39 72 37 73 63 74 64 75 72 76 65 77 66 78 70 79
REMARK SMILES IDX 73 80 67 81 68 82 71 83 69 84 48 85 49 86 57 87 50 88 51 89
REMARK SMILES IDX 55 90 58 91 52 92 53 93 56 94 54 95
REMARK H PARENT 12 7 89 21 4 23 19 29 78 48 46 59
REMARK Flexibility Score: inf
ROOT
ATOM      1  C   UNL A   1      32.790  30.127  26.158  1.00  0.00     0.002 C 
ENDROOT
BRANCH   1   2
ATOM      2  C   UNL A   1      32.747  28.838  25.325  1.00  0.00     0.021 C 
BRANCH   2   3
ATOM      3  C   UNL A   1      33.111  29.052  23.855  1.00  0.00     0.116 C 
BRANCH   3   4
ATOM      4  N   UNL A   1      31.930  29.424  23.096  1.00  0.00    -0.352 N 
ATOM      5  C   UNL A   1      30.983  28.654  22.470  1.00  0.00     0.251 C 
ATOM      6  O   UNL A   1      30.045  29.203  21.898  1.00  0.00    -0.269 OA
ATOM      7  H   UNL A   1      31.782  30.394  23.019  1.00  0.00     0.163 HD
BRANCH   5   8
ATOM      8  C   UNL A   1      31.026  27.177  22.553  1.00  0.00     0.039 A 
ATOM      9  C   UNL A   1      31.210  24.431  23.073  1.00  0.00     0.006 A 
ATOM     10  C   UNL A   1      30.168  25.187  23.627  1.00  0.00     0.010 A 
ATOM     11  C   UNL A   1      32.073  25.038  22.150  1.00  0.00     0.010 A 
ATOM     12  C   UNL A   1      30.077  26.554  23.370  1.00  0.00     0.014 A 
ATOM     13  C   UNL A   1      31.975  26.404  21.882  1.00  0.00     0.014 A 
BRANCH   9  14
ATOM     14  C   UNL A   1      31.426  22.998  23.495  1.00  0.00     0.299 C 
BRANCH  14  15
ATOM     15  N   UNL A   1      32.109  22.784  24.774  1.00  0.00    -0.322 N 
ATOM     16  O   UNL A   1      29.683  23.318  27.453  1.00  0.00    -0.269 OA
ATOM     17  C   UNL A   1      30.695  23.466  26.768  1.00  0.00     0.275 C 
ATOM     18  C   UNL A   1      31.251  22.345  25.886  1.00  0.00     0.363 C 
ATOM     19  N   UNL A   1      31.422  24.619  26.882  1.00  0.00    -0.346 N 
ATOM     20  C   UNL A   1      32.500  24.977  25.991  1.00  0.00     0.177 C 
ATOM     21  H   UNL A   1      31.197  25.240  27.613  1.00  0.00     0.163 HD
ATOM     22  C   UNL A   1      33.077  23.799  25.192  1.00  0.00     0.284 C 
ATOM     23  H   UNL A   1      32.685  21.980  24.521  1.00  0.00     0.348 HD
ENDBRANCH  14  15
ENDBRANCH   9  14
ENDBRANCH   5   8
ENDBRANCH   3   4
ENDBRANCH   2   3
ENDBRANCH   1   2
BRANCH   1  24
ATOM     24  C   UNL A   1      31.421  30.749  26.453  1.00  0.00     0.002 C 
BRANCH  24  25
ATOM     25  C   UNL A   1      31.415  32.276  26.559  1.00  0.00     0.021 C 
BRANCH  25  26
ATOM     26  C   UNL A   1      32.612  32.858  27.302  1.00  0.00     0.116 C 
BRANCH  26  27
ATOM     27  N   UNL A   1      32.411  34.258  27.646  1.00  0.00    -0.352 N 
ATOM     28  C   UNL A   1      33.006  35.007  28.630  1.00  0.00     0.251 C 
ATOM     29  H   UNL A   1      31.753  34.737  27.091  1.00  0.00     0.163 HD
ATOM     30  O   UNL A   1      32.566  36.113  28.919  1.00  0.00    -0.269 OA
BRANCH  28  31
ATOM     31  C   UNL A   1      34.176  34.467  29.355  1.00  0.00     0.039 A 
ATOM     32  C   UNL A   1      33.973  33.810  30.571  1.00  0.00     0.014 A 
ATOM     33  C   UNL A   1      35.467  34.617  28.842  1.00  0.00     0.014 A 
ATOM     34  C   UNL A   1      35.062  33.251  31.244  1.00  0.00     0.010 A 
ATOM     35  C   UNL A   1      36.538  33.995  29.473  1.00  0.00     0.010 A 
ATOM     36  C   UNL A   1      36.348  33.309  30.683  1.00  0.00    -0.014 A 
BRANCH  36  37
ATOM     37  C   UNL A   1      37.507  32.661  31.347  1.00  0.00     0.031 A 
ATOM     38  C   UNL A   1      38.223  31.522  30.677  1.00  0.00     0.074 A 
ATOM     39  C   UNL A   1      37.872  33.055  32.582  1.00  0.00     0.049 A 
ATOM     40  N   UNL A   1      39.207  30.783  31.124  1.00  0.00    -0.248 NA
ATOM     41  C   UNL A   1      37.751  31.144  29.335  1.00  0.00     0.031 C 
ATOM     42  C   UNL A   1      37.230  34.120  33.354  1.00  0.00     0.029 A 
ATOM     43  N   UNL A   1      38.868  32.600  33.410  1.00  0.00    -0.354 N 
ATOM     44  C   UNL A   1      39.463  29.852  30.126  1.00  0.00     0.074 A 
ATOM     45  C   UNL A   1      38.493  30.078  29.078  1.00  0.00     0.031 C 
ATOM     46  C   UNL A   1      37.862  34.254  34.530  1.00  0.00     0.029 A 
ATOM     47  C   UNL A   1      38.925  33.257  34.614  1.00  0.00     0.049 A 
ATOM     48  H   UNL A   1      39.483  31.872  33.164  1.00  0.00     0.167 HD
ATOM     49  C   UNL A   1      40.435  28.909  30.078  1.00  0.00     0.037 A 
ATOM     50  C   UNL A   1      39.738  33.070  35.672  1.00  0.00     0.037 A 
ATOM     51  C   UNL A   1      41.409  28.700  31.119  1.00  0.00     0.049 A 
ATOM     52  C   UNL A   1      40.795  32.000  35.605  1.00  0.00     0.074 A 
ATOM     53  C   UNL A   1      42.466  27.807  31.145  1.00  0.00     0.029 A 
ATOM     54  N   UNL A   1      41.438  29.389  32.323  1.00  0.00    -0.354 N 
ATOM     55  N   UNL A   1      41.071  31.170  34.630  1.00  0.00    -0.248 NA
ATOM     56  C   UNL A   1      41.656  31.847  36.785  1.00  0.00     0.031 C 
ATOM     57  C   UNL A   1      43.101  27.917  32.385  1.00  0.00     0.029 A 
ATOM     58  C   UNL A   1      42.479  28.922  33.111  1.00  0.00     0.049 A 
ATOM     59  H   UNL A   1      40.812  30.104  32.581  1.00  0.00     0.167 HD
ATOM     60  C   UNL A   1      42.154  30.417  35.062  1.00  0.00     0.074 A 
ATOM     61  C   UNL A   1      42.494  30.901  36.384  1.00  0.00     0.031 C 
ATOM     62  C   UNL A   1      42.810  29.417  34.422  1.00  0.00     0.037 A 
BRANCH  49  63
ATOM     63  C   UNL A   1      40.492  28.031  28.860  1.00  0.00     0.064 A 
ATOM     64  C   UNL A   1      41.252  28.381  27.733  1.00  0.00     0.173 A 
ATOM     65  C   UNL A   1      39.799  26.811  28.829  1.00  0.00     0.173 A 
ATOM     66  F   UNL A   1      41.925  29.540  27.706  1.00  0.00    -0.203 F 
ATOM     67  C   UNL A   1      41.287  27.561  26.608  1.00  0.00     0.198 A 
ATOM     68  C   UNL A   1      39.865  25.976  27.716  1.00  0.00     0.198 A 
ATOM     69  F   UNL A   1      39.062  26.423  29.881  1.00  0.00    -0.203 F 
ATOM     70  F   UNL A   1      41.973  27.945  25.523  1.00  0.00    -0.200 F 
ATOM     71  C   UNL A   1      40.600  26.356  26.603  1.00  0.00     0.200 A 
ATOM     72  F   UNL A   1      39.213  24.805  27.719  1.00  0.00    -0.200 F 
ATOM     73  F   UNL A   1      40.639  25.564  25.523  1.00  0.00    -0.200 F 
ENDBRANCH  49  63
BRANCH  50  74
ATOM     74  C   UNL A   1      39.600  33.932  36.876  1.00  0.00     0.064 A 
ATOM     75  C   UNL A   1      38.827  33.519  37.971  1.00  0.00     0.173 A 
ATOM     76  C   UNL A   1      40.230  35.182  36.957  1.00  0.00     0.173 A 
ATOM     77  F   UNL A   1      38.188  32.341  37.934  1.00  0.00    -0.203 F 
ATOM     78  C   UNL A   1      38.675  34.333  39.092  1.00  0.00     0.198 A 
ATOM     79  C   UNL A   1      40.103  35.981  38.092  1.00  0.00     0.198 A 
ATOM     80  F   UNL A   1      40.985  35.621  35.939  1.00  0.00    -0.203 F 
ATOM     81  F   UNL A   1      37.892  33.935  40.104  1.00  0.00    -0.200 F 
ATOM     82  C   UNL A   1      39.317  35.560  39.154  1.00  0.00     0.200 A 
ATOM     83  F   UNL A   1      40.739  37.159  38.154  1.00  0.00    -0.200 F 
ATOM     84  F   UNL A   1      39.175  36.340  40.234  1.00  0.00    -0.200 F 
ENDBRANCH  50  74
BRANCH  62  85
ATOM     85  C   UNL A   1      43.988  28.804  35.125  1.00  0.00     0.064 A 
ATOM     86  C   UNL A   1      45.283  29.325  34.990  1.00  0.00     0.173 A 
ATOM     87  C   UNL A   1      43.808  27.706  35.980  1.00  0.00     0.173 A 
ATOM     88  F   UNL A   1      45.511  30.365  34.173  1.00  0.00    -0.203 F 
ATOM     89  C   UNL A   1      46.359  28.751  35.662  1.00  0.00     0.198 A 
ATOM     90  C   UNL A   1      44.880  27.156  36.678  1.00  0.00     0.198 A 
ATOM     91  F   UNL A   1      42.588  27.173  36.151  1.00  0.00    -0.203 F 
ATOM     92  F   UNL A   1      47.596  29.234  35.478  1.00  0.00    -0.200 F 
ATOM     93  C   UNL A   1      46.156  27.674  36.511  1.00  0.00     0.200 A 
ATOM     94  F   UNL A   1      44.679  26.125  37.509  1.00  0.00    -0.200 F 
ATOM     95  F   UNL A   1      47.191  27.130  37.165  1.00  0.00    -0.200 F 
ENDBRANCH  62  85
ENDBRANCH  36  37
ENDBRANCH  28  31
ENDBRANCH  26  27
ENDBRANCH  25  26
ENDBRANCH  24  25
ENDBRANCH   1  24
TORSDOF 15
ENDMDL
