MODEL 1
REMARK VINA RESULT:     -11.6      0.000      0.000
REMARK SMILES COc1ccc(N2CC[C@H](C(=O)NCCCCCCNC(=O)c3ccc(-c4c5nc(c(-c6c(F)c(F)c(F)c(F)c6F)c6ccc([nH]6)c(-c6c(F)c(F)c(F)c(F)c6F)c6nc(c(-c7c(F)c(F)c(F)c(F)c7F)c7ccc4[nH]7)C=C6)C=C5)cc3)C2=O)cc1
REMARK SMILES IDX 16 1 15 2 14 3 13 4 11 5 12 6 10 8 7 9 8 10 86 11 9 12 87 13
REMARK SMILES IDX 6 14 3 15 4 16 89 17 5 18 88 19 2 20 1 21 17 22 18 23 19 24
REMARK SMILES IDX 20 25 21 26 22 28 23 29 24 30 85 31 25 32 84 33 26 34 27 35
REMARK SMILES IDX 28 36 78 37 29 38 83 39 77 40 79 41 30 42 82 43 76 44 75 45
REMARK SMILES IDX 31 47 63 48 43 49 62 50 44 51 47 52 61 53 80 54 45 55 46 56
REMARK SMILES IDX 60 58 81 59 48 60 32 61 33 62 41 63 34 64 35 65 39 66 42 67
REMARK SMILES IDX 36 68 37 69 40 70 38 71 64 72 65 73 73 74 66 75 67 76 71 77
REMARK SMILES IDX 74 78 68 79 69 80 72 81 70 82 49 83 50 84 58 85 51 86 52 87
REMARK SMILES IDX 56 88 59 89 53 90 54 91 57 92 55 93
REMARK H PARENT 13 7 20 27 79 46 47 57
REMARK Flexibility Score: inf
ROOT
ATOM      1  C   UNL A   1      40.487  22.341  26.221  1.00  0.00     0.002 C 
ENDROOT
BRANCH   1   2
ATOM      2  C   UNL A   1      38.965  22.200  26.352  1.00  0.00     0.021 C 
BRANCH   2   3
ATOM      3  C   UNL A   1      38.153  23.445  25.991  1.00  0.00     0.116 C 
BRANCH   3   4
ATOM      4  N   UNL A   1      37.775  23.451  24.593  1.00  0.00    -0.355 N 
ATOM      5  C   UNL A   1      36.668  22.955  23.979  1.00  0.00     0.232 C 
ATOM      6  O   UNL A   1      36.631  23.014  22.748  1.00  0.00    -0.274 OA
ATOM      7  H   UNL A   1      38.423  23.881  23.990  1.00  0.00     0.163 HD
BRANCH   5   8
ATOM      8  C   UNL A   1      35.519  22.398  24.792  1.00  0.00     0.169 C 
ATOM      9  N   UNL A   1      34.371  20.338  24.625  1.00  0.00    -0.312 N 
ATOM     10  C   UNL A   1      33.395  21.360  24.341  1.00  0.00     0.127 C 
ATOM     11  C   UNL A   1      35.608  20.899  24.971  1.00  0.00     0.239 C 
ATOM     12  C   UNL A   1      34.201  22.600  24.042  1.00  0.00     0.045 C 
ATOM     13  O   UNL A   1      36.612  20.327  25.381  1.00  0.00    -0.274 OA
BRANCH   9  14
ATOM     14  C   UNL A   1      34.022  18.963  24.677  1.00  0.00     0.044 A 
ATOM     15  C   UNL A   1      33.311  16.238  24.858  1.00  0.00     0.119 A 
ATOM     16  C   UNL A   1      32.405  17.221  25.236  1.00  0.00     0.048 A 
ATOM     17  C   UNL A   1      34.554  16.604  24.350  1.00  0.00     0.048 A 
ATOM     18  C   UNL A   1      32.767  18.569  25.169  1.00  0.00     0.030 A 
ATOM     19  C   UNL A   1      34.901  17.960  24.249  1.00  0.00     0.030 A 
BRANCH  15  20
ATOM     20  O   UNL A   1      32.886  14.942  24.942  1.00  0.00    -0.497 OA
ATOM     21  C   UNL A   1      32.153  14.687  26.138  1.00  0.00     0.278 C 
ENDBRANCH  15  20
ENDBRANCH   9  14
ENDBRANCH   5   8
ENDBRANCH   3   4
ENDBRANCH   2   3
ENDBRANCH   1   2
BRANCH   1  22
ATOM     22  C   UNL A   1      41.321  21.271  26.930  1.00  0.00     0.002 C 
BRANCH  22  23
ATOM     23  C   UNL A   1      41.394  19.915  26.223  1.00  0.00     0.021 C 
BRANCH  23  24
ATOM     24  C   UNL A   1      42.621  19.071  26.553  1.00  0.00     0.116 C 
BRANCH  24  25
ATOM     25  N   UNL A   1      43.387  18.699  25.376  1.00  0.00    -0.352 N 
ATOM     26  C   UNL A   1      44.200  19.474  24.586  1.00  0.00     0.251 C 
ATOM     27  H   UNL A   1      43.313  17.755  25.106  1.00  0.00     0.163 HD
ATOM     28  O   UNL A   1      44.671  19.015  23.548  1.00  0.00    -0.269 OA
BRANCH  26  29
ATOM     29  C   UNL A   1      44.490  20.875  24.961  1.00  0.00     0.039 A 
ATOM     30  C   UNL A   1      44.053  21.900  24.117  1.00  0.00     0.014 A 
ATOM     31  C   UNL A   1      45.200  21.184  26.126  1.00  0.00     0.014 A 
ATOM     32  C   UNL A   1      44.272  23.234  24.470  1.00  0.00     0.010 A 
ATOM     33  C   UNL A   1      45.363  22.513  26.508  1.00  0.00     0.010 A 
ATOM     34  C   UNL A   1      44.903  23.552  25.683  1.00  0.00    -0.014 A 
BRANCH  34  35
ATOM     35  C   UNL A   1      45.092  24.963  26.104  1.00  0.00     0.031 A 
ATOM     36  C   UNL A   1      46.445  25.608  25.998  1.00  0.00     0.074 A 
ATOM     37  C   UNL A   1      44.060  25.645  26.636  1.00  0.00     0.049 A 
ATOM     38  N   UNL A   1      46.823  26.806  26.370  1.00  0.00    -0.248 NA
ATOM     39  C   UNL A   1      47.520  24.790  25.419  1.00  0.00     0.031 C 
ATOM     40  C   UNL A   1      42.708  25.119  26.826  1.00  0.00     0.029 A 
ATOM     41  N   UNL A   1      43.990  26.927  27.118  1.00  0.00    -0.354 N 
ATOM     42  C   UNL A   1      48.180  26.878  26.085  1.00  0.00     0.074 A 
ATOM     43  C   UNL A   1      48.569  25.589  25.553  1.00  0.00     0.031 C 
ATOM     44  C   UNL A   1      41.936  26.078  27.362  1.00  0.00     0.029 A 
ATOM     45  C   UNL A   1      42.746  27.272  27.583  1.00  0.00     0.049 A 
ATOM     46  H   UNL A   1      44.760  27.541  27.132  1.00  0.00     0.167 HD
ATOM     47  C   UNL A   1      49.020  27.930  26.232  1.00  0.00     0.037 A 
ATOM     48  C   UNL A   1      42.307  28.425  28.125  1.00  0.00     0.037 A 
ATOM     49  C   UNL A   1      48.628  29.220  26.736  1.00  0.00     0.049 A 
ATOM     50  C   UNL A   1      43.260  29.577  28.283  1.00  0.00     0.074 A 
ATOM     51  C   UNL A   1      49.393  30.365  26.873  1.00  0.00     0.029 A 
ATOM     52  N   UNL A   1      47.354  29.535  27.188  1.00  0.00    -0.354 N 
ATOM     53  N   UNL A   1      44.528  29.651  27.959  1.00  0.00    -0.248 NA
ATOM     54  C   UNL A   1      42.718  30.806  28.877  1.00  0.00     0.031 C 
ATOM     55  C   UNL A   1      48.592  31.363  27.441  1.00  0.00     0.029 A 
ATOM     56  C   UNL A   1      47.317  30.851  27.620  1.00  0.00     0.049 A 
ATOM     57  H   UNL A   1      46.590  28.914  27.200  1.00  0.00     0.167 HD
ATOM     58  C   UNL A   1      44.929  30.940  28.284  1.00  0.00     0.074 A 
ATOM     59  C   UNL A   1      43.766  31.616  28.823  1.00  0.00     0.031 C 
ATOM     60  C   UNL A   1      46.150  31.511  28.147  1.00  0.00     0.037 A 
BRANCH  47  61
ATOM     61  C   UNL A   1      50.453  27.724  25.835  1.00  0.00     0.064 A 
ATOM     62  C   UNL A   1      51.439  27.411  26.783  1.00  0.00     0.173 A 
ATOM     63  C   UNL A   1      50.842  27.825  24.491  1.00  0.00     0.173 A 
ATOM     64  F   UNL A   1      51.119  27.316  28.083  1.00  0.00    -0.203 F 
ATOM     65  C   UNL A   1      52.768  27.244  26.406  1.00  0.00     0.198 A 
ATOM     66  C   UNL A   1      52.168  27.629  24.113  1.00  0.00     0.198 A 
ATOM     67  F   UNL A   1      49.937  28.116  23.545  1.00  0.00    -0.203 F 
ATOM     68  F   UNL A   1      53.702  27.000  27.335  1.00  0.00    -0.200 F 
ATOM     69  C   UNL A   1      53.131  27.348  25.071  1.00  0.00     0.200 A 
ATOM     70  F   UNL A   1      52.515  27.719  22.822  1.00  0.00    -0.200 F 
ATOM     71  F   UNL A   1      54.411  27.186  24.709  1.00  0.00    -0.200 F 
ENDBRANCH  47  61
BRANCH  48  72
ATOM     72  C   UNL A   1      40.882  28.558  28.519  1.00  0.00     0.064 A 
ATOM     73  C   UNL A   1      40.469  28.243  29.821  1.00  0.00     0.173 A 
ATOM     74  C   UNL A   1      39.911  29.010  27.615  1.00  0.00     0.173 A 
ATOM     75  F   UNL A   1      41.361  27.786  30.713  1.00  0.00    -0.203 F 
ATOM     76  C   UNL A   1      39.135  28.364  30.201  1.00  0.00     0.198 A 
ATOM     77  C   UNL A   1      38.580  29.152  28.003  1.00  0.00     0.198 A 
ATOM     78  F   UNL A   1      40.257  29.326  26.360  1.00  0.00    -0.203 F 
ATOM     79  F   UNL A   1      38.762  28.025  31.443  1.00  0.00    -0.200 F 
ATOM     80  C   UNL A   1      38.192  28.825  29.295  1.00  0.00     0.200 A 
ATOM     81  F   UNL A   1      37.674  29.608  27.128  1.00  0.00    -0.200 F 
ATOM     82  F   UNL A   1      36.910  28.947  29.663  1.00  0.00    -0.200 F 
ENDBRANCH  48  72
BRANCH  60  83
ATOM     83  C   UNL A   1      46.284  32.949  28.554  1.00  0.00     0.064 A 
ATOM     84  C   UNL A   1      46.664  33.311  29.854  1.00  0.00     0.173 A 
ATOM     85  C   UNL A   1      46.063  33.973  27.622  1.00  0.00     0.173 A 
ATOM     86  F   UNL A   1      46.870  32.367  30.786  1.00  0.00    -0.203 F 
ATOM     87  C   UNL A   1      46.796  34.650  30.213  1.00  0.00     0.198 A 
ATOM     88  C   UNL A   1      46.220  35.310  27.977  1.00  0.00     0.198 A 
ATOM     89  F   UNL A   1      45.701  33.677  26.365  1.00  0.00    -0.203 F 
ATOM     90  F   UNL A   1      47.119  34.975  31.472  1.00  0.00    -0.200 F 
ATOM     91  C   UNL A   1      46.580  35.648  29.273  1.00  0.00     0.200 A 
ATOM     92  F   UNL A   1      46.020  36.273  27.066  1.00  0.00    -0.200 F 
ATOM     93  F   UNL A   1      46.713  36.935  29.619  1.00  0.00    -0.200 F 
ENDBRANCH  60  83
ENDBRANCH  34  35
ENDBRANCH  26  29
ENDBRANCH  24  25
ENDBRANCH  23  24
ENDBRANCH  22  23
ENDBRANCH   1  22
TORSDOF 15
ENDMDL
MODEL 2
REMARK VINA RESULT:     -11.5      4.796      7.296
REMARK SMILES COc1ccc(N2CC[C@H](C(=O)NCCCCCCNC(=O)c3ccc(-c4c5nc(c(-c6c(F)c(F)c(F)c(F)c6F)c6ccc([nH]6)c(-c6c(F)c(F)c(F)c(F)c6F)c6nc(c(-c7c(F)c(F)c(F)c(F)c7F)c7ccc4[nH]7)C=C6)C=C5)cc3)C2=O)cc1
REMARK SMILES IDX 16 1 15 2 14 3 13 4 11 5 12 6 10 8 7 9 8 10 86 11 9 12 87 13
REMARK SMILES IDX 6 14 3 15 4 16 89 17 5 18 88 19 2 20 1 21 17 22 18 23 19 24
REMARK SMILES IDX 20 25 21 26 22 28 23 29 24 30 85 31 25 32 84 33 26 34 27 35
REMARK SMILES IDX 28 36 78 37 29 38 83 39 77 40 79 41 30 42 82 43 76 44 75 45
REMARK SMILES IDX 31 47 63 48 43 49 62 50 44 51 47 52 61 53 80 54 45 55 46 56
REMARK SMILES IDX 60 58 81 59 48 60 32 61 33 62 41 63 34 64 35 65 39 66 42 67
REMARK SMILES IDX 36 68 37 69 40 70 38 71 64 72 65 73 73 74 66 75 67 76 71 77
REMARK SMILES IDX 74 78 68 79 69 80 72 81 70 82 49 83 50 84 58 85 51 86 52 87
REMARK SMILES IDX 56 88 59 89 53 90 54 91 57 92 55 93
REMARK H PARENT 13 7 20 27 79 46 47 57
REMARK Flexibility Score: inf
ROOT
ATOM      1  C   UNL A   1      34.725  21.404  25.123  1.00  0.00     0.002 C 
ENDROOT
BRANCH   1   2
ATOM      2  C   UNL A   1      33.945  21.226  26.433  1.00  0.00     0.021 C 
BRANCH   2   3
ATOM      3  C   UNL A   1      33.573  22.519  27.160  1.00  0.00     0.116 C 
BRANCH   3   4
ATOM      4  N   UNL A   1      32.149  22.603  27.409  1.00  0.00    -0.355 N 
ATOM      5  C   UNL A   1      31.195  23.366  26.813  1.00  0.00     0.232 C 
ATOM      6  O   UNL A   1      30.054  23.309  27.280  1.00  0.00    -0.274 OA
ATOM      7  H   UNL A   1      31.819  22.013  28.125  1.00  0.00     0.163 HD
BRANCH   5   8
ATOM      8  C   UNL A   1      31.526  24.209  25.602  1.00  0.00     0.169 C 
ATOM      9  N   UNL A   1      30.175  25.673  24.328  1.00  0.00    -0.312 N 
ATOM     10  C   UNL A   1      30.566  24.614  23.432  1.00  0.00     0.127 C 
ATOM     11  C   UNL A   1      30.775  25.522  25.585  1.00  0.00     0.239 C 
ATOM     12  C   UNL A   1      31.058  23.504  24.328  1.00  0.00     0.045 C 
ATOM     13  O   UNL A   1      30.753  26.299  26.534  1.00  0.00    -0.274 OA
BRANCH   9  14
ATOM     14  C   UNL A   1      29.401  26.778  23.887  1.00  0.00     0.044 A 
ATOM     15  C   UNL A   1      27.902  29.022  23.061  1.00  0.00     0.119 A 
ATOM     16  C   UNL A   1      29.287  29.040  22.975  1.00  0.00     0.048 A 
ATOM     17  C   UNL A   1      27.254  27.876  23.516  1.00  0.00     0.048 A 
ATOM     18  C   UNL A   1      30.030  27.938  23.408  1.00  0.00     0.030 A 
ATOM     19  C   UNL A   1      28.001  26.757  23.914  1.00  0.00     0.030 A 
BRANCH  15  20
ATOM     20  O   UNL A   1      27.241  30.131  22.613  1.00  0.00    -0.497 OA
ATOM     21  C   UNL A   1      28.023  30.897  21.700  1.00  0.00     0.278 C 
ENDBRANCH  15  20
ENDBRANCH   9  14
ENDBRANCH   5   8
ENDBRANCH   3   4
ENDBRANCH   2   3
ENDBRANCH   1   2
BRANCH   1  22
ATOM     22  C   UNL A   1      34.766  22.826  24.557  1.00  0.00     0.002 C 
BRANCH  22  23
ATOM     23  C   UNL A   1      36.160  23.369  24.237  1.00  0.00     0.021 C 
BRANCH  23  24
ATOM     24  C   UNL A   1      37.023  23.710  25.449  1.00  0.00     0.116 C 
BRANCH  24  25
ATOM     25  N   UNL A   1      38.134  22.790  25.631  1.00  0.00    -0.352 N 
ATOM     26  C   UNL A   1      39.361  23.010  26.206  1.00  0.00     0.251 C 
ATOM     27  H   UNL A   1      37.983  21.877  25.294  1.00  0.00     0.163 HD
ATOM     28  O   UNL A   1      40.229  22.142  26.157  1.00  0.00    -0.269 OA
BRANCH  26  29
ATOM     29  C   UNL A   1      39.657  24.303  26.861  1.00  0.00     0.039 A 
ATOM     30  C   UNL A   1      39.253  24.492  28.186  1.00  0.00     0.014 A 
ATOM     31  C   UNL A   1      40.314  25.330  26.177  1.00  0.00     0.014 A 
ATOM     32  C   UNL A   1      39.561  25.685  28.844  1.00  0.00     0.010 A 
ATOM     33  C   UNL A   1      40.675  26.494  26.852  1.00  0.00     0.010 A 
ATOM     34  C   UNL A   1      40.300  26.684  28.192  1.00  0.00    -0.014 A 
BRANCH  34  35
ATOM     35  C   UNL A   1      40.687  27.934  28.893  1.00  0.00     0.031 A 
ATOM     36  C   UNL A   1      42.087  28.109  29.409  1.00  0.00     0.074 A 
ATOM     37  C   UNL A   1      39.763  28.888  29.115  1.00  0.00     0.049 A 
ATOM     38  N   UNL A   1      42.599  29.099  30.098  1.00  0.00    -0.248 NA
ATOM     39  C   UNL A   1      43.030  27.016  29.135  1.00  0.00     0.031 C 
ATOM     40  C   UNL A   1      38.363  28.822  28.697  1.00  0.00     0.029 A 
ATOM     41  N   UNL A   1      39.863  30.098  29.755  1.00  0.00    -0.354 N 
ATOM     42  C   UNL A   1      43.915  28.740  30.352  1.00  0.00     0.074 A 
ATOM     43  C   UNL A   1      44.111  27.422  29.785  1.00  0.00     0.031 C 
ATOM     44  C   UNL A   1      37.740  29.952  29.069  1.00  0.00     0.029 A 
ATOM     45  C   UNL A   1      38.687  30.806  29.779  1.00  0.00     0.049 A 
ATOM     46  H   UNL A   1      40.699  30.426  30.159  1.00  0.00     0.167 HD
ATOM     47  C   UNL A   1      44.880  29.453  30.981  1.00  0.00     0.037 A 
ATOM     48  C   UNL A   1      38.406  32.010  30.313  1.00  0.00     0.037 A 
ATOM     49  C   UNL A   1      44.694  30.773  31.522  1.00  0.00     0.049 A 
ATOM     50  C   UNL A   1      39.492  32.780  31.011  1.00  0.00     0.074 A 
ATOM     51  C   UNL A   1      45.623  31.599  32.131  1.00  0.00     0.029 A 
ATOM     52  N   UNL A   1      43.489  31.463  31.519  1.00  0.00    -0.354 N 
ATOM     53  N   UNL A   1      40.748  32.454  31.198  1.00  0.00    -0.248 NA
ATOM     54  C   UNL A   1      39.122  34.088  31.568  1.00  0.00     0.031 C 
ATOM     55  C   UNL A   1      44.973  32.774  32.527  1.00  0.00     0.029 A 
ATOM     56  C   UNL A   1      43.648  32.696  32.129  1.00  0.00     0.049 A 
ATOM     57  H   UNL A   1      42.646  31.124  31.139  1.00  0.00     0.167 HD
ATOM     58  C   UNL A   1      41.325  33.524  31.868  1.00  0.00     0.074 A 
ATOM     59  C   UNL A   1      40.282  34.514  32.048  1.00  0.00     0.031 C 
ATOM     60  C   UNL A   1      42.602  33.673  32.295  1.00  0.00     0.037 A 
BRANCH  47  61
ATOM     61  C   UNL A   1      46.231  28.812  31.113  1.00  0.00     0.064 A 
ATOM     62  C   UNL A   1      46.574  28.047  32.239  1.00  0.00     0.173 A 
ATOM     63  C   UNL A   1      47.188  28.950  30.097  1.00  0.00     0.173 A 
ATOM     64  F   UNL A   1      45.697  27.895  33.243  1.00  0.00    -0.203 F 
ATOM     65  C   UNL A   1      47.837  27.475  32.359  1.00  0.00     0.198 A 
ATOM     66  C   UNL A   1      48.441  28.354  30.208  1.00  0.00     0.198 A 
ATOM     67  F   UNL A   1      46.909  29.666  28.998  1.00  0.00    -0.203 F 
ATOM     68  F   UNL A   1      48.161  26.795  33.467  1.00  0.00    -0.200 F 
ATOM     69  C   UNL A   1      48.768  27.625  31.342  1.00  0.00     0.200 A 
ATOM     70  F   UNL A   1      49.336  28.489  29.220  1.00  0.00    -0.200 F 
ATOM     71  F   UNL A   1      49.984  27.074  31.459  1.00  0.00    -0.200 F 
ENDBRANCH  47  61
BRANCH  48  72
ATOM     72  C   UNL A   1      37.043  32.579  30.169  1.00  0.00     0.064 A 
ATOM     73  C   UNL A   1      36.086  32.403  31.177  1.00  0.00     0.173 A 
ATOM     74  C   UNL A   1      36.673  33.316  29.036  1.00  0.00     0.173 A 
ATOM     75  F   UNL A   1      36.390  31.687  32.270  1.00  0.00    -0.203 F 
ATOM     76  C   UNL A   1      34.804  32.933  31.052  1.00  0.00     0.198 A 
ATOM     77  C   UNL A   1      35.398  33.865  28.922  1.00  0.00     0.198 A 
ATOM     78  F   UNL A   1      37.554  33.515  28.046  1.00  0.00    -0.203 F 
ATOM     79  F   UNL A   1      33.898  32.722  32.016  1.00  0.00    -0.200 F 
ATOM     80  C   UNL A   1      34.462  33.669  29.928  1.00  0.00     0.200 A 
ATOM     81  F   UNL A   1      35.074  34.586  27.840  1.00  0.00    -0.200 F 
ATOM     82  F   UNL A   1      33.231  34.185  29.812  1.00  0.00    -0.200 F 
ENDBRANCH  48  72
BRANCH  60  83
ATOM     83  C   UNL A   1      42.953  34.967  32.967  1.00  0.00     0.064 A 
ATOM     84  C   UNL A   1      43.427  36.068  32.239  1.00  0.00     0.173 A 
ATOM     85  C   UNL A   1      42.779  35.117  34.351  1.00  0.00     0.173 A 
ATOM     86  F   UNL A   1      43.626  35.967  30.916  1.00  0.00    -0.203 F 
ATOM     87  C   UNL A   1      43.735  37.267  32.876  1.00  0.00     0.198 A 
ATOM     88  C   UNL A   1      43.065  36.325  34.981  1.00  0.00     0.198 A 
ATOM     89  F   UNL A   1      42.324  34.095  35.090  1.00  0.00    -0.203 F 
ATOM     90  F   UNL A   1      44.227  38.292  32.168  1.00  0.00    -0.200 F 
ATOM     91  C   UNL A   1      43.548  37.396  34.245  1.00  0.00     0.200 A 
ATOM     92  F   UNL A   1      42.875  36.452  36.302  1.00  0.00    -0.200 F 
ATOM     93  F   UNL A   1      43.841  38.553  34.856  1.00  0.00    -0.200 F 
ENDBRANCH  60  83
ENDBRANCH  34  35
ENDBRANCH  26  29
ENDBRANCH  24  25
ENDBRANCH  23  24
ENDBRANCH  22  23
ENDBRANCH   1  22
TORSDOF 15
ENDMDL
MODEL 3
REMARK VINA RESULT:     -11.4      7.842     13.178
REMARK SMILES COc1ccc(N2CC[C@H](C(=O)NCCCCCCNC(=O)c3ccc(-c4c5nc(c(-c6c(F)c(F)c(F)c(F)c6F)c6ccc([nH]6)c(-c6c(F)c(F)c(F)c(F)c6F)c6nc(c(-c7c(F)c(F)c(F)c(F)c7F)c7ccc4[nH]7)C=C6)C=C5)cc3)C2=O)cc1
REMARK SMILES IDX 16 1 15 2 14 3 13 4 11 5 12 6 10 8 7 9 8 10 86 11 9 12 87 13
REMARK SMILES IDX 6 14 3 15 4 16 89 17 5 18 88 19 2 20 1 21 17 22 18 23 19 24
REMARK SMILES IDX 20 25 21 26 22 28 23 29 24 30 85 31 25 32 84 33 26 34 27 35
REMARK SMILES IDX 28 36 78 37 29 38 83 39 77 40 79 41 30 42 82 43 76 44 75 45
REMARK SMILES IDX 31 47 63 48 43 49 62 50 44 51 47 52 61 53 80 54 45 55 46 56
REMARK SMILES IDX 60 58 81 59 48 60 32 61 33 62 41 63 34 64 35 65 39 66 42 67
REMARK SMILES IDX 36 68 37 69 40 70 38 71 64 72 65 73 73 74 66 75 67 76 71 77
REMARK SMILES IDX 74 78 68 79 69 80 72 81 70 82 49 83 50 84 58 85 51 86 52 87
REMARK SMILES IDX 56 88 59 89 53 90 54 91 57 92 55 93
REMARK H PARENT 13 7 20 27 79 46 47 57
REMARK Flexibility Score: inf
ROOT
ATOM      1  C   UNL A   1      34.488  31.950  28.910  1.00  0.00     0.002 C 
ENDROOT
BRANCH   1   2
ATOM      2  C   UNL A   1      34.045  31.254  27.616  1.00  0.00     0.021 C 
BRANCH   2   3
ATOM      3  C   UNL A   1      34.308  29.748  27.555  1.00  0.00     0.116 C 
BRANCH   3   4
ATOM      4  N   UNL A   1      33.160  28.986  28.000  1.00  0.00    -0.355 N 
ATOM      5  C   UNL A   1      32.142  28.432  27.289  1.00  0.00     0.232 C 
ATOM      6  O   UNL A   1      31.231  27.902  27.928  1.00  0.00    -0.274 OA
ATOM      7  H   UNL A   1      33.107  28.848  28.973  1.00  0.00     0.163 HD
BRANCH   5   8
ATOM      8  C   UNL A   1      32.166  28.436  25.776  1.00  0.00     0.169 C 
ATOM      9  N   UNL A   1      30.605  29.280  24.213  1.00  0.00    -0.312 N 
ATOM     10  C   UNL A   1      30.652  27.856  23.998  1.00  0.00     0.127 C 
ATOM     11  C   UNL A   1      31.530  29.676  25.189  1.00  0.00     0.239 C 
ATOM     12  C   UNL A   1      31.305  27.293  25.235  1.00  0.00     0.045 C 
ATOM     13  O   UNL A   1      31.833  30.815  25.529  1.00  0.00    -0.274 OA
BRANCH   9  14
ATOM     14  C   UNL A   1      29.811  30.135  23.404  1.00  0.00     0.044 A 
ATOM     15  C   UNL A   1      28.174  31.822  21.845  1.00  0.00     0.119 A 
ATOM     16  C   UNL A   1      28.361  32.088  23.195  1.00  0.00     0.048 A 
ATOM     17  C   UNL A   1      28.831  30.746  21.255  1.00  0.00     0.048 A 
ATOM     18  C   UNL A   1      29.152  31.237  23.972  1.00  0.00     0.030 A 
ATOM     19  C   UNL A   1      29.655  29.916  22.030  1.00  0.00     0.030 A 
BRANCH  15  20
ATOM     20  O   UNL A   1      27.394  32.701  21.145  1.00  0.00    -0.497 OA
ATOM     21  C   UNL A   1      27.735  32.746  19.762  1.00  0.00     0.278 C 
ENDBRANCH  15  20
ENDBRANCH   9  14
ENDBRANCH   5   8
ENDBRANCH   3   4
ENDBRANCH   2   3
ENDBRANCH   1   2
BRANCH   1  22
ATOM     22  C   UNL A   1      34.632  33.473  28.834  1.00  0.00     0.002 C 
BRANCH  22  23
ATOM     23  C   UNL A   1      33.319  34.259  28.800  1.00  0.00     0.021 C 
BRANCH  23  24
ATOM     24  C   UNL A   1      33.422  35.723  29.218  1.00  0.00     0.116 C 
BRANCH  24  25
ATOM     25  N   UNL A   1      32.565  36.054  30.343  1.00  0.00    -0.352 N 
ATOM     26  C   UNL A   1      32.696  35.717  31.668  1.00  0.00     0.251 C 
ATOM     27  H   UNL A   1      31.775  36.600  30.123  1.00  0.00     0.163 HD
ATOM     28  O   UNL A   1      31.798  35.980  32.464  1.00  0.00    -0.269 OA
BRANCH  26  29
ATOM     29  C   UNL A   1      33.906  35.007  32.140  1.00  0.00     0.039 A 
ATOM     30  C   UNL A   1      33.798  33.659  32.492  1.00  0.00     0.014 A 
ATOM     31  C   UNL A   1      35.135  35.663  32.253  1.00  0.00     0.014 A 
ATOM     32  C   UNL A   1      34.932  32.952  32.897  1.00  0.00     0.010 A 
ATOM     33  C   UNL A   1      36.277  34.943  32.597  1.00  0.00     0.010 A 
ATOM     34  C   UNL A   1      36.187  33.580  32.924  1.00  0.00    -0.014 A 
BRANCH  34  35
ATOM     35  C   UNL A   1      37.414  32.831  33.295  1.00  0.00     0.031 A 
ATOM     36  C   UNL A   1      38.115  33.123  34.591  1.00  0.00     0.074 A 
ATOM     37  C   UNL A   1      37.929  31.929  32.439  1.00  0.00     0.049 A 
ATOM     38  N   UNL A   1      39.229  32.620  35.062  1.00  0.00    -0.248 NA
ATOM     39  C   UNL A   1      37.494  34.131  35.462  1.00  0.00     0.031 C 
ATOM     40  C   UNL A   1      37.363  31.582  31.135  1.00  0.00     0.029 A 
ATOM     41  N   UNL A   1      39.049  31.142  32.536  1.00  0.00    -0.354 N 
ATOM     42  C   UNL A   1      39.449  33.262  36.274  1.00  0.00     0.074 A 
ATOM     43  C   UNL A   1      38.380  34.223  36.443  1.00  0.00     0.031 C 
ATOM     44  C   UNL A   1      38.125  30.635  30.564  1.00  0.00     0.029 A 
ATOM     45  C   UNL A   1      39.248  30.333  31.446  1.00  0.00     0.049 A 
ATOM     46  H   UNL A   1      39.653  31.158  33.313  1.00  0.00     0.167 HD
ATOM     47  C   UNL A   1      40.440  33.053  37.173  1.00  0.00     0.037 A 
ATOM     48  C   UNL A   1      40.228  29.445  31.187  1.00  0.00     0.037 A 
ATOM     49  C   UNL A   1      41.489  32.080  37.017  1.00  0.00     0.049 A 
ATOM     50  C   UNL A   1      41.319  29.234  32.199  1.00  0.00     0.074 A 
ATOM     51  C   UNL A   1      42.508  31.756  37.896  1.00  0.00     0.029 A 
ATOM     52  N   UNL A   1      41.652  31.270  35.902  1.00  0.00    -0.354 N 
ATOM     53  N   UNL A   1      41.487  29.807  33.366  1.00  0.00    -0.248 NA
ATOM     54  C   UNL A   1      42.356  28.249  31.859  1.00  0.00     0.031 C 
ATOM     55  C   UNL A   1      43.308  30.775  37.298  1.00  0.00     0.029 A 
ATOM     56  C   UNL A   1      42.765  30.460  36.064  1.00  0.00     0.049 A 
ATOM     57  H   UNL A   1      41.064  31.272  35.112  1.00  0.00     0.167 HD
ATOM     58  C   UNL A   1      42.629  29.235  33.911  1.00  0.00     0.074 A 
ATOM     59  C   UNL A   1      43.108  28.263  32.949  1.00  0.00     0.031 C 
ATOM     60  C   UNL A   1      43.225  29.493  35.100  1.00  0.00     0.037 A 
BRANCH  47  61
ATOM     61  C   UNL A   1      40.430  33.898  38.414  1.00  0.00     0.064 A 
ATOM     62  C   UNL A   1      39.725  33.507  39.563  1.00  0.00     0.173 A 
ATOM     63  C   UNL A   1      41.143  35.105  38.460  1.00  0.00     0.173 A 
ATOM     64  F   UNL A   1      39.017  32.367  39.564  1.00  0.00    -0.203 F 
ATOM     65  C   UNL A   1      39.705  34.310  40.699  1.00  0.00     0.198 A 
ATOM     66  C   UNL A   1      41.144  35.892  39.609  1.00  0.00     0.198 A 
ATOM     67  F   UNL A   1      41.838  35.522  37.391  1.00  0.00    -0.203 F 
ATOM     68  F   UNL A   1      38.981  33.942  41.765  1.00  0.00    -0.200 F 
ATOM     69  C   UNL A   1      40.418  35.499  40.723  1.00  0.00     0.200 A 
ATOM     70  F   UNL A   1      41.843  37.035  39.635  1.00  0.00    -0.200 F 
ATOM     71  F   UNL A   1      40.399  36.271  41.818  1.00  0.00    -0.200 F 
ENDBRANCH  47  61
BRANCH  48  72
ATOM     72  C   UNL A   1      40.194  28.656  29.930  1.00  0.00     0.064 A 
ATOM     73  C   UNL A   1      39.535  27.420  29.881  1.00  0.00     0.173 A 
ATOM     74  C   UNL A   1      40.805  29.121  28.758  1.00  0.00     0.173 A 
ATOM     75  F   UNL A   1      38.956  26.927  30.985  1.00  0.00    -0.203 F 
ATOM     76  C   UNL A   1      39.498  26.672  28.706  1.00  0.00     0.198 A 
ATOM     77  C   UNL A   1      40.747  28.382  27.577  1.00  0.00     0.198 A 
ATOM     78  F   UNL A   1      41.444  30.299  28.754  1.00  0.00    -0.203 F 
ATOM     79  F   UNL A   1      38.890  25.478  28.695  1.00  0.00    -0.200 F 
ATOM     80  C   UNL A   1      40.098  27.156  27.554  1.00  0.00     0.200 A 
ATOM     81  F   UNL A   1      41.318  28.858  26.463  1.00  0.00    -0.200 F 
ATOM     82  F   UNL A   1      40.056  26.439  26.423  1.00  0.00    -0.200 F 
ENDBRANCH  48  72
BRANCH  60  83
ATOM     83  C   UNL A   1      44.442  28.686  35.445  1.00  0.00     0.064 A 
ATOM     84  C   UNL A   1      44.343  27.456  36.111  1.00  0.00     0.173 A 
ATOM     85  C   UNL A   1      45.718  29.134  35.072  1.00  0.00     0.173 A 
ATOM     86  F   UNL A   1      43.145  26.995  36.502  1.00  0.00    -0.203 F 
ATOM     87  C   UNL A   1      45.481  26.713  36.412  1.00  0.00     0.198 A 
ATOM     88  C   UNL A   1      46.852  28.376  35.353  1.00  0.00     0.198 A 
ATOM     89  F   UNL A   1      45.864  30.301  34.430  1.00  0.00    -0.203 F 
ATOM     90  F   UNL A   1      45.367  25.561  37.086  1.00  0.00    -0.200 F 
ATOM     91  C   UNL A   1      46.734  27.170  36.027  1.00  0.00     0.200 A 
ATOM     92  F   UNL A   1      48.060  28.814  34.973  1.00  0.00    -0.200 F 
ATOM     93  F   UNL A   1      47.827  26.451  36.313  1.00  0.00    -0.200 F 
ENDBRANCH  60  83
ENDBRANCH  34  35
ENDBRANCH  26  29
ENDBRANCH  24  25
ENDBRANCH  23  24
ENDBRANCH  22  23
ENDBRANCH   1  22
TORSDOF 15
ENDMDL
