MODEL 1
REMARK VINA RESULT:     -10.5      0.000      0.000
REMARK SMILES CC(C)[NH2+][C@@]1(C(=O)NCCCCCCNC(=O)c2ccc(-c3c4nc(c(-c5c(F)c(F)c(F)c(F)c5F)c5ccc([nH]5)c(-c5c(F)c(F)c(F)c(F)c5F)c5nc(c(-c6c(F)c(F)c(F)c(F)c6F)c6ccc3[nH]6)C=C5)C=C4)cc2)CC[C@@H](Sc2cccc(Br)c2)C1
REMARK SMILES IDX 11 1 10 2 9 3 8 4 6 5 7 6 5 8 81 9 92 10 82 11 83 12 4 13
REMARK SMILES IDX 2 16 1 17 3 18 84 19 85 20 86 21 91 22 87 23 89 24 88 25
REMARK SMILES IDX 90 26 12 27 13 28 14 29 15 30 16 31 17 33 18 34 19 35 80 36
REMARK SMILES IDX 20 37 79 38 21 39 22 40 23 41 73 42 24 43 78 44 72 45 74 46
REMARK SMILES IDX 25 47 77 48 71 49 70 50 26 52 58 53 38 54 57 55 39 56 42 57
REMARK SMILES IDX 56 58 75 59 40 60 41 61 55 63 76 64 43 65 27 66 28 67 36 68
REMARK SMILES IDX 29 69 30 70 34 71 37 72 31 73 32 74 35 75 33 76 59 77 60 78
REMARK SMILES IDX 68 79 61 80 62 81 66 82 69 83 63 84 64 85 67 86 65 87 44 88
REMARK SMILES IDX 45 89 53 90 46 91 47 92 51 93 54 94 48 95 49 96 52 97 50 98
REMARK H PARENT 8 7 4 14 4 15 15 32 74 51 42 62
REMARK Flexibility Score: inf
ROOT
ATOM      1  C   UNL A   1      31.610  29.866  26.582  1.00  0.00     0.002 C 
ENDROOT
BRANCH   1   2
ATOM      2  C   UNL A   1      31.653  28.492  27.260  1.00  0.00     0.021 C 
BRANCH   2   3
ATOM      3  C   UNL A   1      32.913  27.693  26.937  1.00  0.00     0.116 C 
BRANCH   3   4
ATOM      4  N   UNL A   1      33.363  27.920  25.587  1.00  0.00    -0.351 N 
ATOM      5  C   UNL A   1      33.476  27.106  24.510  1.00  0.00     0.281 C 
ATOM      6  O   UNL A   1      33.748  27.693  23.451  1.00  0.00    -0.268 OA
ATOM      7  H   UNL A   1      33.643  28.847  25.413  1.00  0.00     0.163 HD
BRANCH   5   8
ATOM      8  C   UNL A   1      33.222  25.543  24.510  1.00  0.00     0.176 C 
ATOM      9  C   UNL A   1      31.725  25.247  24.273  1.00  0.00     0.080 C 
ATOM     10  C   UNL A   1      33.590  24.796  25.805  1.00  0.00     0.094 C 
ATOM     11  C   UNL A   1      31.156  24.548  25.507  1.00  0.00     0.022 C 
ATOM     12  C   UNL A   1      32.294  24.396  26.507  1.00  0.00     0.058 C 
BRANCH   8  13
ATOM     13  N   UNL A   1      33.916  25.022  23.290  1.00  0.00    -0.332 N 
ATOM     14  H   UNL A   1      33.351  25.305  22.488  1.00  0.00     0.347 HD
ATOM     15  H   UNL A   1      34.853  25.415  23.371  1.00  0.00     0.347 HD
BRANCH  13  16
ATOM     16  C   UNL A   1      34.171  23.584  23.138  1.00  0.00     0.176 C 
ATOM     17  C   UNL A   1      33.353  23.107  21.930  1.00  0.00     0.075 C 
ATOM     18  C   UNL A   1      35.631  23.171  22.940  1.00  0.00     0.075 C 
ENDBRANCH  13  16
ENDBRANCH   8  13
BRANCH  12  19
ATOM     19  S   UNL A   1      32.373  22.802  27.422  1.00  0.00    -0.122 SA
BRANCH  19  20
ATOM     20  C   UNL A   1      32.952  21.668  26.175  1.00  0.00     0.009 A 
ATOM     21  C   UNL A   1      32.028  21.081  25.302  1.00  0.00     0.015 A 
ATOM     22  C   UNL A   1      34.303  21.328  26.074  1.00  0.00     0.030 A 
ATOM     23  C   UNL A   1      32.456  20.201  24.306  1.00  0.00     0.002 A 
ATOM     24  C   UNL A   1      34.726  20.455  25.072  1.00  0.00     0.019 A 
ATOM     25  C   UNL A   1      33.810  19.894  24.184  1.00  0.00     0.016 A 
ATOM     26  Br  UNL A   1      36.563  20.035  24.919  1.00  0.00    -0.051 Br
ENDBRANCH  19  20
ENDBRANCH  12  19
ENDBRANCH   5   8
ENDBRANCH   3   4
ENDBRANCH   2   3
ENDBRANCH   1   2
BRANCH   1  27
ATOM     27  C   UNL A   1      32.491  30.939  27.234  1.00  0.00     0.002 C 
BRANCH  27  28
ATOM     28  C   UNL A   1      31.928  32.363  27.191  1.00  0.00     0.021 C 
BRANCH  28  29
ATOM     29  C   UNL A   1      32.979  33.453  27.002  1.00  0.00     0.116 C 
BRANCH  29  30
ATOM     30  N   UNL A   1      32.721  34.601  27.855  1.00  0.00    -0.352 N 
ATOM     31  C   UNL A   1      33.205  34.890  29.105  1.00  0.00     0.251 C 
ATOM     32  H   UNL A   1      32.104  35.271  27.480  1.00  0.00     0.163 HD
ATOM     33  O   UNL A   1      32.690  35.778  29.776  1.00  0.00    -0.269 OA
BRANCH  31  34
ATOM     34  C   UNL A   1      34.352  34.131  29.648  1.00  0.00     0.039 A 
ATOM     35  C   UNL A   1      35.647  34.515  29.291  1.00  0.00     0.014 A 
ATOM     36  C   UNL A   1      34.147  33.020  30.470  1.00  0.00     0.014 A 
ATOM     37  C   UNL A   1      36.742  33.813  29.797  1.00  0.00     0.010 A 
ATOM     38  C   UNL A   1      35.239  32.359  31.025  1.00  0.00     0.010 A 
ATOM     39  C   UNL A   1      36.546  32.744  30.688  1.00  0.00    -0.014 A 
BRANCH  39  40
ATOM     40  C   UNL A   1      37.696  32.008  31.266  1.00  0.00     0.031 A 
ATOM     41  C   UNL A   1      38.171  32.326  32.656  1.00  0.00     0.074 A 
ATOM     42  C   UNL A   1      38.349  31.100  30.517  1.00  0.00     0.049 A 
ATOM     43  N   UNL A   1      39.199  31.846  33.310  1.00  0.00    -0.248 NA
ATOM     44  C   UNL A   1      37.402  33.336  33.401  1.00  0.00     0.031 C 
ATOM     45  C   UNL A   1      38.005  30.737  29.141  1.00  0.00     0.029 A 
ATOM     46  N   UNL A   1      39.445  30.327  30.802  1.00  0.00    -0.354 N 
ATOM     47  C   UNL A   1      39.207  32.505  34.532  1.00  0.00     0.074 A 
ATOM     48  C   UNL A   1      38.115  33.454  34.511  1.00  0.00     0.031 C 
ATOM     49  C   UNL A   1      38.862  29.797  28.709  1.00  0.00     0.029 A 
ATOM     50  C   UNL A   1      39.833  29.518  29.762  1.00  0.00     0.049 A 
ATOM     51  H   UNL A   1      39.910  30.350  31.670  1.00  0.00     0.167 HD
ATOM     52  C   UNL A   1      40.039  32.320  35.585  1.00  0.00     0.037 A 
ATOM     53  C   UNL A   1      40.860  28.653  29.671  1.00  0.00     0.037 A 
ATOM     54  C   UNL A   1      41.110  31.359  35.611  1.00  0.00     0.049 A 
ATOM     55  C   UNL A   1      41.773  28.470  30.852  1.00  0.00     0.074 A 
ATOM     56  C   UNL A   1      41.975  31.054  36.647  1.00  0.00     0.029 A 
ATOM     57  N   UNL A   1      41.465  30.546  34.543  1.00  0.00    -0.354 N 
ATOM     58  N   UNL A   1      41.737  29.054  32.024  1.00  0.00    -0.248 NA
ATOM     59  C   UNL A   1      42.869  27.503  30.696  1.00  0.00     0.031 C 
ATOM     60  C   UNL A   1      42.878  30.085  36.193  1.00  0.00     0.029 A 
ATOM     61  C   UNL A   1      42.547  29.754  34.890  1.00  0.00     0.049 A 
ATOM     62  H   UNL A   1      41.013  30.534  33.668  1.00  0.00     0.167 HD
ATOM     63  C   UNL A   1      42.782  28.509  32.756  1.00  0.00     0.074 A 
ATOM     64  C   UNL A   1      43.428  27.537  31.897  1.00  0.00     0.031 C 
ATOM     65  C   UNL A   1      43.173  28.786  34.024  1.00  0.00     0.037 A 
BRANCH  52  66
ATOM     66  C   UNL A   1      39.818  33.174  36.799  1.00  0.00     0.064 A 
ATOM     67  C   UNL A   1      38.901  32.811  37.797  1.00  0.00     0.173 A 
ATOM     68  C   UNL A   1      40.549  34.359  36.982  1.00  0.00     0.173 A 
ATOM     69  F   UNL A   1      38.168  31.694  37.666  1.00  0.00    -0.203 F 
ATOM     70  C   UNL A   1      38.699  33.617  38.915  1.00  0.00     0.198 A 
ATOM     71  C   UNL A   1      40.366  35.147  38.115  1.00  0.00     0.198 A 
ATOM     72  F   UNL A   1      41.443  34.750  36.062  1.00  0.00    -0.203 F 
ATOM     73  F   UNL A   1      37.778  33.275  39.828  1.00  0.00    -0.200 F 
ATOM     74  C   UNL A   1      39.434  34.780  39.076  1.00  0.00     0.200 A 
ATOM     75  F   UNL A   1      41.087  36.264  38.276  1.00  0.00    -0.200 F 
ATOM     76  F   UNL A   1      39.242  35.553  40.154  1.00  0.00    -0.200 F 
ENDBRANCH  52  66
BRANCH  53  77
ATOM     77  C   UNL A   1      41.057  27.870  28.424  1.00  0.00     0.064 A 
ATOM     78  C   UNL A   1      41.867  28.362  27.391  1.00  0.00     0.173 A 
ATOM     79  C   UNL A   1      40.453  26.618  28.241  1.00  0.00     0.173 A 
ATOM     80  F   UNL A   1      42.450  29.564  27.513  1.00  0.00    -0.203 F 
ATOM     81  C   UNL A   1      42.051  27.639  26.215  1.00  0.00     0.198 A 
ATOM     82  C   UNL A   1      40.659  25.884  27.074  1.00  0.00     0.198 A 
ATOM     83  F   UNL A   1      39.675  26.101  29.202  1.00  0.00    -0.203 F 
ATOM     84  F   UNL A   1      42.799  28.151  25.227  1.00  0.00    -0.200 F 
ATOM     85  C   UNL A   1      41.452  26.399  26.060  1.00  0.00     0.200 A 
ATOM     86  F   UNL A   1      40.090  24.679  26.934  1.00  0.00    -0.200 F 
ATOM     87  F   UNL A   1      41.635  25.700  24.931  1.00  0.00    -0.200 F 
ENDBRANCH  53  77
BRANCH  65  88
ATOM     88  C   UNL A   1      44.332  28.007  34.570  1.00  0.00     0.064 A 
ATOM     89  C   UNL A   1      44.152  26.768  35.202  1.00  0.00     0.173 A 
ATOM     90  C   UNL A   1      45.641  28.490  34.426  1.00  0.00     0.173 A 
ATOM     91  F   UNL A   1      42.917  26.273  35.377  1.00  0.00    -0.203 F 
ATOM     92  C   UNL A   1      45.240  26.051  35.691  1.00  0.00     0.198 A 
ATOM     93  C   UNL A   1      46.730  27.757  34.891  1.00  0.00     0.198 A 
ATOM     94  F   UNL A   1      45.866  29.667  33.824  1.00  0.00    -0.203 F 
ATOM     95  F   UNL A   1      45.042  24.891  36.332  1.00  0.00    -0.200 F 
ATOM     96  C   UNL A   1      46.528  26.542  35.529  1.00  0.00     0.200 A 
ATOM     97  F   UNL A   1      47.973  28.227  34.723  1.00  0.00    -0.200 F 
ATOM     98  F   UNL A   1      47.575  25.847  35.994  1.00  0.00    -0.200 F 
ENDBRANCH  65  88
ENDBRANCH  39  40
ENDBRANCH  31  34
ENDBRANCH  29  30
ENDBRANCH  28  29
ENDBRANCH  27  28
ENDBRANCH   1  27
TORSDOF 17
ENDMDL
MODEL 2
REMARK VINA RESULT:     -10.3      1.702      7.539
REMARK SMILES CC(C)[NH2+][C@@]1(C(=O)NCCCCCCNC(=O)c2ccc(-c3c4nc(c(-c5c(F)c(F)c(F)c(F)c5F)c5ccc([nH]5)c(-c5c(F)c(F)c(F)c(F)c5F)c5nc(c(-c6c(F)c(F)c(F)c(F)c6F)c6ccc3[nH]6)C=C5)C=C4)cc2)CC[C@@H](Sc2cccc(Br)c2)C1
REMARK SMILES IDX 11 1 10 2 9 3 8 4 6 5 7 6 5 8 81 9 92 10 82 11 83 12 4 13
REMARK SMILES IDX 2 16 1 17 3 18 84 19 85 20 86 21 91 22 87 23 89 24 88 25
REMARK SMILES IDX 90 26 12 27 13 28 14 29 15 30 16 31 17 33 18 34 19 35 80 36
REMARK SMILES IDX 20 37 79 38 21 39 22 40 23 41 73 42 24 43 78 44 72 45 74 46
REMARK SMILES IDX 25 47 77 48 71 49 70 50 26 52 58 53 38 54 57 55 39 56 42 57
REMARK SMILES IDX 56 58 75 59 40 60 41 61 55 63 76 64 43 65 27 66 28 67 36 68
REMARK SMILES IDX 29 69 30 70 34 71 37 72 31 73 32 74 35 75 33 76 59 77 60 78
REMARK SMILES IDX 68 79 61 80 62 81 66 82 69 83 63 84 64 85 67 86 65 87 44 88
REMARK SMILES IDX 45 89 53 90 46 91 47 92 51 93 54 94 48 95 49 96 52 97 50 98
REMARK H PARENT 8 7 4 14 4 15 15 32 74 51 42 62
REMARK Flexibility Score: inf
ROOT
ATOM      1  C   UNL A   1      33.871  31.315  27.611  1.00  0.00     0.002 C 
ENDROOT
BRANCH   1   2
ATOM      2  C   UNL A   1      32.503  31.253  26.923  1.00  0.00     0.021 C 
BRANCH   2   3
ATOM      3  C   UNL A   1      32.358  30.077  25.961  1.00  0.00     0.116 C 
BRANCH   3   4
ATOM      4  N   UNL A   1      31.288  30.283  25.019  1.00  0.00    -0.351 N 
ATOM      5  C   UNL A   1      30.610  29.439  24.204  1.00  0.00     0.281 C 
ATOM      6  O   UNL A   1      29.627  29.949  23.643  1.00  0.00    -0.268 OA
ATOM      7  H   UNL A   1      30.992  31.219  24.953  1.00  0.00     0.163 HD
BRANCH   5   8
ATOM      8  C   UNL A   1      30.937  27.904  23.994  1.00  0.00     0.176 C 
ATOM      9  C   UNL A   1      29.640  27.119  23.700  1.00  0.00     0.080 C 
ATOM     10  C   UNL A   1      31.596  27.182  25.183  1.00  0.00     0.094 C 
ATOM     11  C   UNL A   1      29.406  26.109  24.823  1.00  0.00     0.022 C 
ATOM     12  C   UNL A   1      30.558  26.253  25.808  1.00  0.00     0.058 C 
BRANCH   8  13
ATOM     13  N   UNL A   1      31.727  27.831  22.724  1.00  0.00    -0.332 N 
ATOM     14  H   UNL A   1      31.052  27.835  21.958  1.00  0.00     0.347 HD
ATOM     15  H   UNL A   1      32.362  28.625  22.800  1.00  0.00     0.347 HD
BRANCH  13  16
ATOM     16  C   UNL A   1      32.635  26.703  22.479  1.00  0.00     0.176 C 
ATOM     17  C   UNL A   1      32.109  25.962  21.241  1.00  0.00     0.075 C 
ATOM     18  C   UNL A   1      34.107  27.054  22.256  1.00  0.00     0.075 C 
ENDBRANCH  13  16
ENDBRANCH   8  13
BRANCH  12  19
ATOM     19  S   UNL A   1      31.239  24.693  26.506  1.00  0.00    -0.122 SA
BRANCH  19  20
ATOM     20  C   UNL A   1      32.010  23.939  25.086  1.00  0.00     0.009 A 
ATOM     21  C   UNL A   1      31.206  23.337  24.111  1.00  0.00     0.015 A 
ATOM     22  C   UNL A   1      33.399  23.906  24.946  1.00  0.00     0.030 A 
ATOM     23  C   UNL A   1      31.781  22.753  22.981  1.00  0.00     0.002 A 
ATOM     24  C   UNL A   1      33.968  23.329  23.812  1.00  0.00     0.019 A 
ATOM     25  C   UNL A   1      33.167  22.757  22.826  1.00  0.00     0.016 A 
ATOM     26  Br  UNL A   1      35.849  23.328  23.613  1.00  0.00    -0.051 Br
ENDBRANCH  19  20
ENDBRANCH  12  19
ENDBRANCH   5   8
ENDBRANCH   3   4
ENDBRANCH   2   3
ENDBRANCH   1   2
BRANCH   1  27
ATOM     27  C   UNL A   1      34.212  32.664  28.258  1.00  0.00     0.002 C 
BRANCH  27  28
ATOM     28  C   UNL A   1      33.154  33.757  28.087  1.00  0.00     0.021 C 
BRANCH  28  29
ATOM     29  C   UNL A   1      33.580  35.135  28.588  1.00  0.00     0.116 C 
BRANCH  29  30
ATOM     30  N   UNL A   1      32.830  35.534  29.766  1.00  0.00    -0.352 N 
ATOM     31  C   UNL A   1      32.996  35.166  31.077  1.00  0.00     0.251 C 
ATOM     32  H   UNL A   1      32.090  36.162  29.599  1.00  0.00     0.163 HD
ATOM     33  O   UNL A   1      32.120  35.406  31.901  1.00  0.00    -0.269 OA
BRANCH  31  34
ATOM     34  C   UNL A   1      34.233  34.478  31.501  1.00  0.00     0.039 A 
ATOM     35  C   UNL A   1      35.462  35.117  31.311  1.00  0.00     0.014 A 
ATOM     36  C   UNL A   1      34.185  33.190  32.042  1.00  0.00     0.014 A 
ATOM     37  C   UNL A   1      36.640  34.483  31.709  1.00  0.00     0.010 A 
ATOM     38  C   UNL A   1      35.353  32.585  32.496  1.00  0.00     0.010 A 
ATOM     39  C   UNL A   1      36.592  33.222  32.326  1.00  0.00    -0.014 A 
BRANCH  39  40
ATOM     40  C   UNL A   1      37.828  32.547  32.790  1.00  0.00     0.031 A 
ATOM     41  C   UNL A   1      38.454  31.465  31.956  1.00  0.00     0.074 A 
ATOM     42  C   UNL A   1      38.348  32.865  33.991  1.00  0.00     0.049 A 
ATOM     43  N   UNL A   1      39.489  30.710  32.221  1.00  0.00    -0.248 NA
ATOM     44  C   UNL A   1      37.815  31.178  30.662  1.00  0.00     0.031 C 
ATOM     45  C   UNL A   1      37.805  33.869  34.906  1.00  0.00     0.029 A 
ATOM     46  N   UNL A   1      39.443  32.368  34.652  1.00  0.00    -0.354 N 
ATOM     47  C   UNL A   1      39.615  29.851  31.137  1.00  0.00     0.074 A 
ATOM     48  C   UNL A   1      38.523  30.144  30.234  1.00  0.00     0.031 C 
ATOM     49  C   UNL A   1      38.580  33.928  36.002  1.00  0.00     0.029 A 
ATOM     50  C   UNL A   1      39.651  32.944  35.880  1.00  0.00     0.049 A 
ATOM     51  H   UNL A   1      40.023  31.664  34.280  1.00  0.00     0.167 HD
ATOM     52  C   UNL A   1      40.570  28.918  30.906  1.00  0.00     0.037 A 
ATOM     53  C   UNL A   1      40.598  32.699  36.805  1.00  0.00     0.037 A 
ATOM     54  C   UNL A   1      41.668  28.646  31.795  1.00  0.00     0.049 A 
ATOM     55  C   UNL A   1      41.642  31.653  36.527  1.00  0.00     0.074 A 
ATOM     56  C   UNL A   1      42.718  27.761  31.629  1.00  0.00     0.029 A 
ATOM     57  N   UNL A   1      41.855  29.260  33.026  1.00  0.00    -0.354 N 
ATOM     58  N   UNL A   1      41.788  30.889  35.473  1.00  0.00    -0.248 NA
ATOM     59  C   UNL A   1      42.657  31.439  37.569  1.00  0.00     0.031 C 
ATOM     60  C   UNL A   1      43.518  27.810  32.776  1.00  0.00     0.029 A 
ATOM     61  C   UNL A   1      42.992  28.759  33.637  1.00  0.00     0.049 A 
ATOM     62  H   UNL A   1      41.266  29.950  33.408  1.00  0.00     0.167 HD
ATOM     63  C   UNL A   1      42.922  30.124  35.708  1.00  0.00     0.074 A 
ATOM     64  C   UNL A   1      43.434  30.527  37.002  1.00  0.00     0.031 C 
ATOM     65  C   UNL A   1      43.490  29.176  34.924  1.00  0.00     0.037 A 
BRANCH  52  66
ATOM     66  C   UNL A   1      40.468  28.125  29.635  1.00  0.00     0.064 A 
ATOM     67  C   UNL A   1      41.186  28.484  28.484  1.00  0.00     0.173 A 
ATOM     68  C   UNL A   1      39.661  26.977  29.572  1.00  0.00     0.173 A 
ATOM     69  F   UNL A   1      41.962  29.579  28.487  1.00  0.00    -0.203 F 
ATOM     70  C   UNL A   1      41.076  27.745  27.310  1.00  0.00     0.198 A 
ATOM     71  C   UNL A   1      39.577  26.224  28.405  1.00  0.00     0.198 A 
ATOM     72  F   UNL A   1      38.958  26.587  30.645  1.00  0.00    -0.203 F 
ATOM     73  F   UNL A   1      41.731  28.139  26.208  1.00  0.00    -0.200 F 
ATOM     74  C   UNL A   1      40.277  26.613  27.272  1.00  0.00     0.200 A 
ATOM     75  F   UNL A   1      38.814  25.123  28.373  1.00  0.00    -0.200 F 
ATOM     76  F   UNL A   1      40.174  25.900  26.142  1.00  0.00    -0.200 F 
ENDBRANCH  52  66
BRANCH  53  77
ATOM     77  C   UNL A   1      40.619  33.483  38.066  1.00  0.00     0.064 A 
ATOM     78  C   UNL A   1      41.536  34.529  38.244  1.00  0.00     0.173 A 
ATOM     79  C   UNL A   1      39.724  33.214  39.112  1.00  0.00     0.173 A 
ATOM     80  F   UNL A   1      42.423  34.811  37.278  1.00  0.00    -0.203 F 
ATOM     81  C   UNL A   1      41.568  35.265  39.426  1.00  0.00     0.198 A 
ATOM     82  C   UNL A   1      39.740  33.967  40.284  1.00  0.00     0.198 A 
ATOM     83  F   UNL A   1      38.824  32.228  38.988  1.00  0.00    -0.203 F 
ATOM     84  F   UNL A   1      42.480  36.233  39.585  1.00  0.00    -0.200 F 
ATOM     85  C   UNL A   1      40.667  34.987  40.442  1.00  0.00     0.200 A 
ATOM     86  F   UNL A   1      38.859  33.706  41.258  1.00  0.00    -0.200 F 
ATOM     87  F   UNL A   1      40.694  35.700  41.577  1.00  0.00    -0.200 F 
ENDBRANCH  53  77
BRANCH  65  88
ATOM     88  C   UNL A   1      44.746  28.531  35.429  1.00  0.00     0.064 A 
ATOM     89  C   UNL A   1      46.012  29.070  35.155  1.00  0.00     0.173 A 
ATOM     90  C   UNL A   1      44.679  27.380  36.229  1.00  0.00     0.173 A 
ATOM     91  F   UNL A   1      46.127  30.160  34.382  1.00  0.00    -0.203 F 
ATOM     92  C   UNL A   1      47.167  28.466  35.644  1.00  0.00     0.198 A 
ATOM     93  C   UNL A   1      45.835  26.795  36.740  1.00  0.00     0.198 A 
ATOM     94  F   UNL A   1      43.493  26.829  36.524  1.00  0.00    -0.203 F 
ATOM     95  F   UNL A   1      48.368  28.972  35.331  1.00  0.00    -0.200 F 
ATOM     96  C   UNL A   1      47.077  27.334  36.441  1.00  0.00     0.200 A 
ATOM     97  F   UNL A   1      45.746  25.709  37.519  1.00  0.00    -0.200 F 
ATOM     98  F   UNL A   1      48.190  26.759  36.916  1.00  0.00    -0.200 F 
ENDBRANCH  65  88
ENDBRANCH  39  40
ENDBRANCH  31  34
ENDBRANCH  29  30
ENDBRANCH  28  29
ENDBRANCH  27  28
ENDBRANCH   1  27
TORSDOF 17
ENDMDL
MODEL 3
REMARK VINA RESULT:     -10.2      5.262      9.312
REMARK SMILES CC(C)[NH2+][C@@]1(C(=O)NCCCCCCNC(=O)c2ccc(-c3c4nc(c(-c5c(F)c(F)c(F)c(F)c5F)c5ccc([nH]5)c(-c5c(F)c(F)c(F)c(F)c5F)c5nc(c(-c6c(F)c(F)c(F)c(F)c6F)c6ccc3[nH]6)C=C5)C=C4)cc2)CC[C@@H](Sc2cccc(Br)c2)C1
REMARK SMILES IDX 11 1 10 2 9 3 8 4 6 5 7 6 5 8 81 9 92 10 82 11 83 12 4 13
REMARK SMILES IDX 2 16 1 17 3 18 84 19 85 20 86 21 91 22 87 23 89 24 88 25
REMARK SMILES IDX 90 26 12 27 13 28 14 29 15 30 16 31 17 33 18 34 19 35 80 36
REMARK SMILES IDX 20 37 79 38 21 39 22 40 23 41 73 42 24 43 78 44 72 45 74 46
REMARK SMILES IDX 25 47 77 48 71 49 70 50 26 52 58 53 38 54 57 55 39 56 42 57
REMARK SMILES IDX 56 58 75 59 40 60 41 61 55 63 76 64 43 65 27 66 28 67 36 68
REMARK SMILES IDX 29 69 30 70 34 71 37 72 31 73 32 74 35 75 33 76 59 77 60 78
REMARK SMILES IDX 68 79 61 80 62 81 66 82 69 83 63 84 64 85 67 86 65 87 44 88
REMARK SMILES IDX 45 89 53 90 46 91 47 92 51 93 54 94 48 95 49 96 52 97 50 98
REMARK H PARENT 8 7 4 14 4 15 15 32 74 51 42 62
REMARK Flexibility Score: inf
ROOT
ATOM      1  C   UNL A   1      37.432  33.070  29.180  1.00  0.00     0.002 C 
ENDROOT
BRANCH   1   2
ATOM      2  C   UNL A   1      38.048  34.101  30.132  1.00  0.00     0.021 C 
BRANCH   2   3
ATOM      3  C   UNL A   1      37.634  33.910  31.589  1.00  0.00     0.116 C 
BRANCH   3   4
ATOM      4  N   UNL A   1      37.225  32.555  31.857  1.00  0.00    -0.351 N 
ATOM      5  C   UNL A   1      37.461  31.715  32.893  1.00  0.00     0.281 C 
ATOM      6  O   UNL A   1      36.802  30.664  32.861  1.00  0.00    -0.268 OA
ATOM      7  H   UNL A   1      36.665  32.163  31.150  1.00  0.00     0.163 HD
BRANCH   5   8
ATOM      8  C   UNL A   1      38.423  32.012  34.115  1.00  0.00     0.176 C 
ATOM      9  C   UNL A   1      37.607  32.527  35.322  1.00  0.00     0.080 C 
ATOM     10  C   UNL A   1      39.516  33.069  33.877  1.00  0.00     0.094 C 
ATOM     11  C   UNL A   1      38.043  33.956  35.643  1.00  0.00     0.022 C 
ATOM     12  C   UNL A   1      39.136  34.330  34.650  1.00  0.00     0.058 C 
BRANCH   8  13
ATOM     13  N   UNL A   1      38.950  30.679  34.548  1.00  0.00    -0.332 N 
ATOM     14  H   UNL A   1      38.748  30.594  35.545  1.00  0.00     0.347 HD
ATOM     15  H   UNL A   1      38.486  30.030  33.913  1.00  0.00     0.347 HD
BRANCH  13  16
ATOM     16  C   UNL A   1      40.371  30.352  34.377  1.00  0.00     0.176 C 
ATOM     17  C   UNL A   1      40.989  30.285  35.781  1.00  0.00     0.075 C 
ATOM     18  C   UNL A   1      40.683  29.049  33.638  1.00  0.00     0.075 C 
ENDBRANCH  13  16
ENDBRANCH   8  13
BRANCH  12  19
ATOM     19  S   UNL A   1      40.560  35.283  35.319  1.00  0.00    -0.122 SA
BRANCH  19  20
ATOM     20  C   UNL A   1      40.248  35.263  37.074  1.00  0.00     0.009 A 
ATOM     21  C   UNL A   1      40.501  34.092  37.800  1.00  0.00     0.015 A 
ATOM     22  C   UNL A   1      39.725  36.378  37.732  1.00  0.00     0.030 A 
ATOM     23  C   UNL A   1      40.281  34.053  39.178  1.00  0.00     0.002 A 
ATOM     24  C   UNL A   1      39.515  36.336  39.109  1.00  0.00     0.019 A 
ATOM     25  C   UNL A   1      39.795  35.181  39.837  1.00  0.00     0.016 A 
ATOM     26  Br  UNL A   1      38.846  37.867  39.995  1.00  0.00    -0.051 Br
ENDBRANCH  19  20
ENDBRANCH  12  19
ENDBRANCH   5   8
ENDBRANCH   3   4
ENDBRANCH   2   3
ENDBRANCH   1   2
BRANCH   1  27
ATOM     27  C   UNL A   1      36.639  33.661  28.008  1.00  0.00     0.002 C 
BRANCH  27  28
ATOM     28  C   UNL A   1      35.130  33.404  28.044  1.00  0.00     0.021 C 
BRANCH  28  29
ATOM     29  C   UNL A   1      34.683  32.401  29.104  1.00  0.00     0.116 C 
BRANCH  29  30
ATOM     30  N   UNL A   1      34.058  31.232  28.507  1.00  0.00    -0.352 N 
ATOM     31  C   UNL A   1      34.630  30.086  28.018  1.00  0.00     0.251 C 
ATOM     32  H   UNL A   1      33.076  31.269  28.443  1.00  0.00     0.163 HD
ATOM     33  O   UNL A   1      33.973  29.314  27.329  1.00  0.00    -0.269 OA
BRANCH  31  34
ATOM     34  C   UNL A   1      36.043  29.777  28.321  1.00  0.00     0.039 A 
ATOM     35  C   UNL A   1      36.378  29.322  29.599  1.00  0.00     0.014 A 
ATOM     36  C   UNL A   1      37.040  29.977  27.361  1.00  0.00     0.014 A 
ATOM     37  C   UNL A   1      37.707  29.022  29.902  1.00  0.00     0.010 A 
ATOM     38  C   UNL A   1      38.355  29.619  27.642  1.00  0.00     0.010 A 
ATOM     39  C   UNL A   1      38.702  29.146  28.917  1.00  0.00    -0.014 A 
BRANCH  39  40
ATOM     40  C   UNL A   1      40.114  28.797  29.206  1.00  0.00     0.031 A 
ATOM     41  C   UNL A   1      40.989  29.760  29.958  1.00  0.00     0.074 A 
ATOM     42  C   UNL A   1      40.623  27.643  28.735  1.00  0.00     0.049 A 
ATOM     43  N   UNL A   1      42.263  29.671  30.244  1.00  0.00    -0.248 NA
ATOM     44  C   UNL A   1      40.351  31.000  30.428  1.00  0.00     0.031 C 
ATOM     45  C   UNL A   1      39.882  26.649  27.958  1.00  0.00     0.029 A 
ATOM     46  N   UNL A   1      41.886  27.118  28.832  1.00  0.00    -0.354 N 
ATOM     47  C   UNL A   1      42.580  30.846  30.914  1.00  0.00     0.074 A 
ATOM     48  C   UNL A   1      41.381  31.654  30.946  1.00  0.00     0.031 C 
ATOM     49  C   UNL A   1      40.699  25.624  27.666  1.00  0.00     0.029 A 
ATOM     50  C   UNL A   1      42.026  25.905  28.203  1.00  0.00     0.049 A 
ATOM     51  H   UNL A   1      42.622  27.568  29.306  1.00  0.00     0.167 HD
ATOM     52  C   UNL A   1      43.762  31.208  31.469  1.00  0.00     0.037 A 
ATOM     53  C   UNL A   1      43.108  25.114  28.073  1.00  0.00     0.037 A 
ATOM     54  C   UNL A   1      44.947  30.391  31.454  1.00  0.00     0.049 A 
ATOM     55  C   UNL A   1      44.409  25.542  28.693  1.00  0.00     0.074 A 
ATOM     56  C   UNL A   1      46.177  30.641  32.035  1.00  0.00     0.029 A 
ATOM     57  N   UNL A   1      45.048  29.161  30.819  1.00  0.00    -0.354 N 
ATOM     58  N   UNL A   1      44.684  26.626  29.376  1.00  0.00    -0.248 NA
ATOM     59  C   UNL A   1      45.551  24.631  28.528  1.00  0.00     0.031 C 
ATOM     60  C   UNL A   1      47.034  29.581  31.718  1.00  0.00     0.029 A 
ATOM     61  C   UNL A   1      46.325  28.650  30.979  1.00  0.00     0.049 A 
ATOM     62  H   UNL A   1      44.318  28.718  30.328  1.00  0.00     0.167 HD
ATOM     63  C   UNL A   1      46.017  26.518  29.745  1.00  0.00     0.074 A 
ATOM     64  C   UNL A   1      46.493  25.254  29.220  1.00  0.00     0.031 C 
ATOM     65  C   UNL A   1      46.779  27.386  30.454  1.00  0.00     0.037 A 
BRANCH  52  66
ATOM     66  C   UNL A   1      43.826  32.547  32.144  1.00  0.00     0.064 A 
ATOM     67  C   UNL A   1      43.969  33.735  31.411  1.00  0.00     0.173 A 
ATOM     68  C   UNL A   1      43.718  32.649  33.541  1.00  0.00     0.173 A 
ATOM     69  F   UNL A   1      44.088  33.692  30.075  1.00  0.00    -0.203 F 
ATOM     70  C   UNL A   1      44.036  34.970  32.050  1.00  0.00     0.198 A 
ATOM     71  C   UNL A   1      43.756  33.887  34.174  1.00  0.00     0.198 A 
ATOM     72  F   UNL A   1      43.575  31.545  34.289  1.00  0.00    -0.203 F 
ATOM     73  F   UNL A   1      44.227  36.085  31.331  1.00  0.00    -0.200 F 
ATOM     74  C   UNL A   1      43.924  35.046  33.429  1.00  0.00     0.200 A 
ATOM     75  F   UNL A   1      43.635  33.962  35.506  1.00  0.00    -0.200 F 
ATOM     76  F   UNL A   1      43.985  36.236  34.043  1.00  0.00    -0.200 F 
ENDBRANCH  52  66
BRANCH  53  77
ATOM     77  C   UNL A   1      42.994  23.821  27.350  1.00  0.00     0.064 A 
ATOM     78  C   UNL A   1      43.326  23.729  25.991  1.00  0.00     0.173 A 
ATOM     79  C   UNL A   1      42.562  22.655  27.998  1.00  0.00     0.173 A 
ATOM     80  F   UNL A   1      43.725  24.823  25.325  1.00  0.00    -0.203 F 
ATOM     81  C   UNL A   1      43.215  22.523  25.303  1.00  0.00     0.198 A 
ATOM     82  C   UNL A   1      42.476  21.443  27.315  1.00  0.00     0.198 A 
ATOM     83  F   UNL A   1      42.239  22.690  29.299  1.00  0.00    -0.203 F 
ATOM     84  F   UNL A   1      43.501  22.472  23.995  1.00  0.00    -0.200 F 
ATOM     85  C   UNL A   1      42.795  21.381  25.967  1.00  0.00     0.200 A 
ATOM     86  F   UNL A   1      42.085  20.338  27.963  1.00  0.00    -0.200 F 
ATOM     87  F   UNL A   1      42.695  20.219  25.307  1.00  0.00    -0.200 F 
ENDBRANCH  53  77
BRANCH  65  88
ATOM     88  C   UNL A   1      48.197  26.984  30.733  1.00  0.00     0.064 A 
ATOM     89  C   UNL A   1      48.530  26.168  31.823  1.00  0.00     0.173 A 
ATOM     90  C   UNL A   1      49.230  27.391  29.875  1.00  0.00     0.173 A 
ATOM     91  F   UNL A   1      47.578  25.767  32.681  1.00  0.00    -0.203 F 
ATOM     92  C   UNL A   1      49.849  25.792  32.059  1.00  0.00     0.198 A 
ATOM     93  C   UNL A   1      50.545  26.990  30.097  1.00  0.00     0.198 A 
ATOM     94  F   UNL A   1      48.963  28.167  28.814  1.00  0.00    -0.203 F 
ATOM     95  F   UNL A   1      50.151  25.050  33.134  1.00  0.00    -0.200 F 
ATOM     96  C   UNL A   1      50.854  26.198  31.192  1.00  0.00     0.200 A 
ATOM     97  F   UNL A   1      51.512  27.373  29.253  1.00  0.00    -0.200 F 
ATOM     98  F   UNL A   1      52.122  25.830  31.417  1.00  0.00    -0.200 F 
ENDBRANCH  65  88
ENDBRANCH  39  40
ENDBRANCH  31  34
ENDBRANCH  29  30
ENDBRANCH  28  29
ENDBRANCH  27  28
ENDBRANCH   1  27
TORSDOF 17
ENDMDL
