MODEL 1
REMARK VINA RESULT:     -13.2      0.000      0.000
REMARK SMILES C[NH+]1CCC(C(=O)N2C[C@@H](C(=O)NCCCCCCNC(=O)c3ccc(-c4c5nc(c(-c6c(F)c(F)c(F)c(F)c6F)c6ccc([nH]6)c(-c6c(F)c(F)c(F)c(F)c6F)c6nc(c(-c7c(F)c(F)c(F)c(F)c7F)c7ccc4[nH]7)C=C6)C=C5)cc3)[C@H](c3ccc4c(c3)OCO4)C2)CC1
REMARK SMILES IDX 16 1 15 2 14 3 13 4 11 5 12 6 10 8 8 9 9 10 96 11 86 12 6 13
REMARK SMILES IDX 7 14 5 15 1 16 2 17 3 18 98 19 4 21 97 22 87 23 88 24 92 25
REMARK SMILES IDX 89 26 91 27 90 28 93 29 95 30 94 31 17 32 18 33 19 34 20 35
REMARK SMILES IDX 21 36 22 38 23 39 24 40 85 41 25 42 84 43 26 44 27 45 28 46
REMARK SMILES IDX 78 47 29 48 83 49 77 50 79 51 30 52 82 53 76 54 75 55 31 57
REMARK SMILES IDX 63 58 43 59 62 60 44 61 47 62 61 63 80 64 45 65 46 66 60 68
REMARK SMILES IDX 81 69 48 70 32 71 33 72 41 73 34 74 35 75 39 76 42 77 36 78
REMARK SMILES IDX 37 79 40 80 38 81 64 82 65 83 73 84 66 85 67 86 71 87 74 88
REMARK SMILES IDX 68 89 69 90 72 91 70 92 49 93 50 94 58 95 51 96 52 97 56 98
REMARK SMILES IDX 59 99 53 100 54 101 57 102 55 103
REMARK H PARENT 13 7 2 20 20 37 79 56 47 67
REMARK Flexibility Score: inf
ROOT
ATOM      1  C   UNL A   1      34.139  32.052  28.316  1.00  0.00     0.002 C 
ENDROOT
BRANCH   1   2
ATOM      2  C   UNL A   1      33.057  31.809  27.256  1.00  0.00     0.021 C 
BRANCH   2   3
ATOM      3  C   UNL A   1      32.860  30.351  26.847  1.00  0.00     0.116 C 
BRANCH   3   4
ATOM      4  N   UNL A   1      33.331  30.071  25.501  1.00  0.00    -0.356 N 
ATOM      5  C   UNL A   1      32.768  29.317  24.514  1.00  0.00     0.225 C 
ATOM      6  O   UNL A   1      33.295  29.329  23.400  1.00  0.00    -0.275 OA
ATOM      7  H   UNL A   1      34.189  30.491  25.264  1.00  0.00     0.163 HD
BRANCH   5   8
ATOM      8  C   UNL A   1      31.531  28.495  24.801  1.00  0.00     0.107 C 
ATOM      9  N   UNL A   1      30.624  26.384  25.010  1.00  0.00    -0.341 N 
ATOM     10  C   UNL A   1      31.903  27.056  25.103  1.00  0.00     0.133 C 
ATOM     11  C   UNL A   1      29.853  26.980  23.921  1.00  0.00     0.128 C 
ATOM     12  C   UNL A   1      30.588  28.303  23.588  1.00  0.00     0.053 C 
BRANCH   9  13
ATOM     13  C   UNL A   1      30.102  25.351  25.743  1.00  0.00     0.226 C 
ATOM     14  O   UNL A   1      29.227  25.581  26.588  1.00  0.00    -0.275 OA
BRANCH  13  15
ATOM     15  C   UNL A   1      30.796  23.983  25.774  1.00  0.00     0.090 C 
ATOM     16  C   UNL A   1      33.825  20.943  26.009  1.00  0.00     0.332 C 
ATOM     17  N   UNL A   1      33.091  22.189  25.804  1.00  0.00    -0.337 N 
ATOM     18  C   UNL A   1      32.538  22.679  27.071  1.00  0.00     0.262 C 
ATOM     19  C   UNL A   1      32.025  22.011  24.803  1.00  0.00     0.262 C 
ATOM     20  H   UNL A   1      33.742  22.888  25.448  1.00  0.00     0.347 HD
ATOM     21  C   UNL A   1      31.867  24.035  26.875  1.00  0.00     0.075 C 
ATOM     22  C   UNL A   1      31.378  23.367  24.506  1.00  0.00     0.075 C 
ENDBRANCH  13  15
ENDBRANCH   9  13
BRANCH  12  23
ATOM     23  C   UNL A   1      29.764  29.550  23.345  1.00  0.00    -0.038 A 
ATOM     24  C   UNL A   1      29.751  30.649  24.235  1.00  0.00     0.008 A 
ATOM     25  C   UNL A   1      29.121  29.673  22.097  1.00  0.00     0.054 A 
ATOM     26  C   UNL A   1      29.152  31.864  23.876  1.00  0.00     0.051 A 
ATOM     27  C   UNL A   1      28.581  30.893  21.755  1.00  0.00     0.166 A 
ATOM     28  C   UNL A   1      28.606  31.963  22.616  1.00  0.00     0.165 A 
ATOM     29  O   UNL A   1      28.067  31.215  20.538  1.00  0.00    -0.454 OA
ATOM     30  O   UNL A   1      28.105  33.092  22.046  1.00  0.00    -0.454 OA
ATOM     31  C   UNL A   1      27.926  32.641  20.688  1.00  0.00     0.468 C 
ENDBRANCH  12  23
ENDBRANCH   5   8
ENDBRANCH   3   4
ENDBRANCH   2   3
ENDBRANCH   1   2
BRANCH   1  32
ATOM     32  C   UNL A   1      34.338  33.506  28.755  1.00  0.00     0.002 C 
BRANCH  32  33
ATOM     33  C   UNL A   1      33.066  34.349  28.847  1.00  0.00     0.021 C 
BRANCH  33  34
ATOM     34  C   UNL A   1      33.278  35.823  29.171  1.00  0.00     0.116 C 
BRANCH  34  35
ATOM     35  N   UNL A   1      32.525  36.248  30.340  1.00  0.00    -0.352 N 
ATOM     36  C   UNL A   1      32.682  35.914  31.661  1.00  0.00     0.251 C 
ATOM     37  H   UNL A   1      31.787  36.872  30.154  1.00  0.00     0.163 HD
ATOM     38  O   UNL A   1      31.819  36.242  32.478  1.00  0.00    -0.269 OA
BRANCH  36  39
ATOM     39  C   UNL A   1      33.861  35.144  32.123  1.00  0.00     0.039 A 
ATOM     40  C   UNL A   1      33.675  33.836  32.582  1.00  0.00     0.014 A 
ATOM     41  C   UNL A   1      35.141  35.704  32.138  1.00  0.00     0.014 A 
ATOM     42  C   UNL A   1      34.773  33.077  32.999  1.00  0.00     0.010 A 
ATOM     43  C   UNL A   1      36.244  34.919  32.468  1.00  0.00     0.010 A 
ATOM     44  C   UNL A   1      36.074  33.599  32.913  1.00  0.00    -0.014 A 
BRANCH  44  45
ATOM     45  C   UNL A   1      37.261  32.790  33.298  1.00  0.00     0.031 A 
ATOM     46  C   UNL A   1      37.988  33.080  34.585  1.00  0.00     0.074 A 
ATOM     47  C   UNL A   1      37.728  31.842  32.461  1.00  0.00     0.049 A 
ATOM     48  N   UNL A   1      39.089  32.546  35.054  1.00  0.00    -0.248 NA
ATOM     49  C   UNL A   1      37.420  34.129  35.448  1.00  0.00     0.031 C 
ATOM     50  C   UNL A   1      37.148  31.501  31.161  1.00  0.00     0.029 A 
ATOM     51  N   UNL A   1      38.809  31.001  32.570  1.00  0.00    -0.354 N 
ATOM     52  C   UNL A   1      39.356  33.211  36.244  1.00  0.00     0.074 A 
ATOM     53  C   UNL A   1      38.330  34.215  36.409  1.00  0.00     0.031 C 
ATOM     54  C   UNL A   1      37.870  30.518  30.600  1.00  0.00     0.029 A 
ATOM     55  C   UNL A   1      38.987  30.185  31.479  1.00  0.00     0.049 A 
ATOM     56  H   UNL A   1      39.401  30.985  33.357  1.00  0.00     0.167 HD
ATOM     57  C   UNL A   1      40.357  32.989  37.129  1.00  0.00     0.037 A 
ATOM     58  C   UNL A   1      39.948  29.280  31.211  1.00  0.00     0.037 A 
ATOM     59  C   UNL A   1      41.348  31.955  36.989  1.00  0.00     0.049 A 
ATOM     60  C   UNL A   1      41.035  29.041  32.227  1.00  0.00     0.074 A 
ATOM     61  C   UNL A   1      42.345  31.592  37.879  1.00  0.00     0.029 A 
ATOM     62  N   UNL A   1      41.469  31.120  35.889  1.00  0.00    -0.354 N 
ATOM     63  N   UNL A   1      41.224  29.616  33.389  1.00  0.00    -0.248 NA
ATOM     64  C   UNL A   1      42.039  28.019  31.896  1.00  0.00     0.031 C 
ATOM     65  C   UNL A   1      43.103  30.573  37.294  1.00  0.00     0.029 A 
ATOM     66  C   UNL A   1      42.542  30.262  36.066  1.00  0.00     0.049 A 
ATOM     67  H   UNL A   1      40.880  31.134  35.100  1.00  0.00     0.167 HD
ATOM     68  C   UNL A   1      42.343  29.006  33.939  1.00  0.00     0.074 A 
ATOM     69  C   UNL A   1      42.782  28.004  32.994  1.00  0.00     0.031 C 
ATOM     70  C   UNL A   1      42.956  29.257  35.122  1.00  0.00     0.037 A 
BRANCH  57  71
ATOM     71  C   UNL A   1      40.438  33.871  38.342  1.00  0.00     0.064 A 
ATOM     72  C   UNL A   1      41.198  35.049  38.349  1.00  0.00     0.173 A 
ATOM     73  C   UNL A   1      39.676  33.575  39.483  1.00  0.00     0.173 A 
ATOM     74  F   UNL A   1      41.951  35.374  37.287  1.00  0.00    -0.203 F 
ATOM     75  C   UNL A   1      41.203  35.892  39.458  1.00  0.00     0.198 A 
ATOM     76  C   UNL A   1      39.661  34.433  40.579  1.00  0.00     0.198 A 
ATOM     77  F   UNL A   1      38.927  32.462  39.526  1.00  0.00    -0.203 F 
ATOM     78  F   UNL A   1      41.962  36.996  39.454  1.00  0.00    -0.200 F 
ATOM     79  C   UNL A   1      40.427  35.589  40.567  1.00  0.00     0.200 A 
ATOM     80  F   UNL A   1      38.899  34.146  41.642  1.00  0.00    -0.200 F 
ATOM     81  F   UNL A   1      40.418  36.411  41.625  1.00  0.00    -0.200 F 
ENDBRANCH  57  71
BRANCH  58  82
ATOM     82  C   UNL A   1      39.938  28.529  29.926  1.00  0.00     0.064 A 
ATOM     83  C   UNL A   1      39.352  27.258  29.835  1.00  0.00     0.173 A 
ATOM     84  C   UNL A   1      40.546  29.048  28.775  1.00  0.00     0.173 A 
ATOM     85  F   UNL A   1      38.774  26.709  30.914  1.00  0.00    -0.203 F 
ATOM     86  C   UNL A   1      39.409  26.521  28.653  1.00  0.00     0.198 A 
ATOM     87  C   UNL A   1      40.572  28.325  27.584  1.00  0.00     0.198 A 
ATOM     88  F   UNL A   1      41.116  30.262  28.804  1.00  0.00    -0.203 F 
ATOM     89  F   UNL A   1      38.900  25.282  28.614  1.00  0.00    -0.200 F 
ATOM     90  C   UNL A   1      40.016  27.056  27.527  1.00  0.00     0.200 A 
ATOM     91  F   UNL A   1      41.147  28.853  26.494  1.00  0.00    -0.200 F 
ATOM     92  F   UNL A   1      40.076  26.345  26.394  1.00  0.00    -0.200 F 
ENDBRANCH  58  82
BRANCH  70  93
ATOM     93  C   UNL A   1      44.139  28.406  35.483  1.00  0.00     0.064 A 
ATOM     94  C   UNL A   1      45.448  28.780  35.144  1.00  0.00     0.173 A 
ATOM     95  C   UNL A   1      43.963  27.222  36.214  1.00  0.00     0.173 A 
ATOM     96  F   UNL A   1      45.667  29.896  34.431  1.00  0.00    -0.203 F 
ATOM     97  C   UNL A   1      46.534  27.986  35.501  1.00  0.00     0.198 A 
ATOM     98  C   UNL A   1      45.054  26.448  36.599  1.00  0.00     0.198 A 
ATOM     99  F   UNL A   1      42.732  26.824  36.572  1.00  0.00    -0.203 F 
ATOM    100  F   UNL A   1      47.771  28.338  35.124  1.00  0.00    -0.200 F 
ATOM    101  C   UNL A   1      46.337  26.826  36.236  1.00  0.00     0.200 A 
ATOM    102  F   UNL A   1      44.864  25.336  37.323  1.00  0.00    -0.200 F 
ATOM    103  F   UNL A   1      47.386  26.068  36.587  1.00  0.00    -0.200 F 
ENDBRANCH  70  93
ENDBRANCH  44  45
ENDBRANCH  36  39
ENDBRANCH  34  35
ENDBRANCH  33  34
ENDBRANCH  32  33
ENDBRANCH   1  32
TORSDOF 16
ENDMDL
MODEL 2
REMARK VINA RESULT:     -13.0      1.681      7.280
REMARK SMILES C[NH+]1CCC(C(=O)N2C[C@@H](C(=O)NCCCCCCNC(=O)c3ccc(-c4c5nc(c(-c6c(F)c(F)c(F)c(F)c6F)c6ccc([nH]6)c(-c6c(F)c(F)c(F)c(F)c6F)c6nc(c(-c7c(F)c(F)c(F)c(F)c7F)c7ccc4[nH]7)C=C6)C=C5)cc3)[C@H](c3ccc4c(c3)OCO4)C2)CC1
REMARK SMILES IDX 16 1 15 2 14 3 13 4 11 5 12 6 10 8 8 9 9 10 96 11 86 12 6 13
REMARK SMILES IDX 7 14 5 15 1 16 2 17 3 18 98 19 4 21 97 22 87 23 88 24 92 25
REMARK SMILES IDX 89 26 91 27 90 28 93 29 95 30 94 31 17 32 18 33 19 34 20 35
REMARK SMILES IDX 21 36 22 38 23 39 24 40 85 41 25 42 84 43 26 44 27 45 28 46
REMARK SMILES IDX 78 47 29 48 83 49 77 50 79 51 30 52 82 53 76 54 75 55 31 57
REMARK SMILES IDX 63 58 43 59 62 60 44 61 47 62 61 63 80 64 45 65 46 66 60 68
REMARK SMILES IDX 81 69 48 70 32 71 33 72 41 73 34 74 35 75 39 76 42 77 36 78
REMARK SMILES IDX 37 79 40 80 38 81 64 82 65 83 73 84 66 85 67 86 71 87 74 88
REMARK SMILES IDX 68 89 69 90 72 91 70 92 49 93 50 94 58 95 51 96 52 97 56 98
REMARK SMILES IDX 59 99 53 100 54 101 57 102 55 103
REMARK H PARENT 13 7 2 20 20 37 79 56 47 67
REMARK Flexibility Score: inf
ROOT
ATOM      1  C   UNL A   1      33.817  29.559  27.241  1.00  0.00     0.002 C 
ENDROOT
BRANCH   1   2
ATOM      2  C   UNL A   1      32.332  29.332  26.935  1.00  0.00     0.021 C 
BRANCH   2   3
ATOM      3  C   UNL A   1      31.885  29.732  25.531  1.00  0.00     0.116 C 
BRANCH   3   4
ATOM      4  N   UNL A   1      32.967  29.703  24.562  1.00  0.00    -0.356 N 
ATOM      5  C   UNL A   1      33.314  28.737  23.664  1.00  0.00     0.225 C 
ATOM      6  O   UNL A   1      34.203  28.993  22.849  1.00  0.00    -0.275 OA
ATOM      7  H   UNL A   1      33.538  30.505  24.551  1.00  0.00     0.163 HD
BRANCH   5   8
ATOM      8  C   UNL A   1      32.615  27.397  23.685  1.00  0.00     0.107 C 
ATOM      9  N   UNL A   1      32.774  25.132  23.275  1.00  0.00    -0.341 N 
ATOM     10  C   UNL A   1      33.620  26.267  23.577  1.00  0.00     0.133 C 
ATOM     11  C   UNL A   1      31.699  25.565  22.384  1.00  0.00     0.128 C 
ATOM     12  C   UNL A   1      31.725  27.113  22.450  1.00  0.00     0.053 C 
BRANCH   9  13
ATOM     13  C   UNL A   1      32.853  23.825  23.679  1.00  0.00     0.226 C 
ATOM     14  O   UNL A   1      31.820  23.152  23.782  1.00  0.00    -0.275 OA
BRANCH  13  15
ATOM     15  C   UNL A   1      34.140  23.278  24.312  1.00  0.00     0.090 C 
ATOM     16  C   UNL A   1      37.671  20.931  25.011  1.00  0.00     0.332 C 
ATOM     17  N   UNL A   1      36.361  21.413  24.584  1.00  0.00    -0.337 N 
ATOM     18  C   UNL A   1      36.499  22.581  23.707  1.00  0.00     0.262 C 
ATOM     19  C   UNL A   1      35.513  21.729  25.745  1.00  0.00     0.262 C 
ATOM     20  H   UNL A   1      35.905  20.670  24.055  1.00  0.00     0.347 HD
ATOM     21  C   UNL A   1      35.137  23.015  23.173  1.00  0.00     0.075 C 
ATOM     22  C   UNL A   1      34.104  22.087  25.263  1.00  0.00     0.075 C 
ENDBRANCH  13  15
ENDBRANCH   9  13
BRANCH  12  23
ATOM     23  C   UNL A   1      30.409  27.856  22.552  1.00  0.00    -0.038 A 
ATOM     24  C   UNL A   1      29.288  27.343  23.245  1.00  0.00     0.008 A 
ATOM     25  C   UNL A   1      30.370  29.182  22.077  1.00  0.00     0.054 A 
ATOM     26  C   UNL A   1      28.168  28.144  23.502  1.00  0.00     0.051 A 
ATOM     27  C   UNL A   1      29.275  29.958  22.384  1.00  0.00     0.166 A 
ATOM     28  C   UNL A   1      28.207  29.457  23.088  1.00  0.00     0.165 A 
ATOM     29  O   UNL A   1      29.154  31.289  22.133  1.00  0.00    -0.454 OA
ATOM     30  O   UNL A   1      27.279  30.412  23.362  1.00  0.00    -0.454 OA
ATOM     31  C   UNL A   1      27.972  31.589  22.899  1.00  0.00     0.468 C 
ENDBRANCH  12  23
ENDBRANCH   5   8
ENDBRANCH   3   4
ENDBRANCH   2   3
ENDBRANCH   1   2
BRANCH   1  32
ATOM     32  C   UNL A   1      34.204  30.969  27.700  1.00  0.00     0.002 C 
BRANCH  32  33
ATOM     33  C   UNL A   1      33.037  31.915  27.984  1.00  0.00     0.021 C 
BRANCH  33  34
ATOM     34  C   UNL A   1      32.853  33.048  26.982  1.00  0.00     0.116 C 
BRANCH  34  35
ATOM     35  N   UNL A   1      32.527  34.311  27.626  1.00  0.00    -0.352 N 
ATOM     36  C   UNL A   1      33.039  34.878  28.766  1.00  0.00     0.251 C 
ATOM     37  H   UNL A   1      31.831  34.840  27.175  1.00  0.00     0.163 HD
ATOM     38  O   UNL A   1      32.494  35.875  29.246  1.00  0.00    -0.269 OA
BRANCH  36  39
ATOM     39  C   UNL A   1      34.222  34.301  29.447  1.00  0.00     0.039 A 
ATOM     40  C   UNL A   1      34.036  33.589  30.636  1.00  0.00     0.014 A 
ATOM     41  C   UNL A   1      35.513  34.480  28.945  1.00  0.00     0.014 A 
ATOM     42  C   UNL A   1      35.131  33.011  31.285  1.00  0.00     0.010 A 
ATOM     43  C   UNL A   1      36.592  33.830  29.543  1.00  0.00     0.010 A 
ATOM     44  C   UNL A   1      36.416  33.096  30.726  1.00  0.00    -0.014 A 
BRANCH  44  45
ATOM     45  C   UNL A   1      37.586  32.441  31.370  1.00  0.00     0.031 A 
ATOM     46  C   UNL A   1      38.287  31.298  30.683  1.00  0.00     0.074 A 
ATOM     47  C   UNL A   1      37.978  32.827  32.601  1.00  0.00     0.049 A 
ATOM     48  N   UNL A   1      39.267  30.545  31.117  1.00  0.00    -0.248 NA
ATOM     49  C   UNL A   1      37.805  30.933  29.341  1.00  0.00     0.031 C 
ATOM     50  C   UNL A   1      37.349  33.883  33.397  1.00  0.00     0.029 A 
ATOM     51  N   UNL A   1      38.988  32.363  33.409  1.00  0.00    -0.354 N 
ATOM     52  C   UNL A   1      39.496  29.607  30.118  1.00  0.00     0.074 A 
ATOM     53  C   UNL A   1      38.529  29.855  29.073  1.00  0.00     0.031 C 
ATOM     54  C   UNL A   1      37.993  33.994  34.569  1.00  0.00     0.029 A 
ATOM     55  C   UNL A   1      39.054  32.993  34.629  1.00  0.00     0.049 A 
ATOM     56  H   UNL A   1      39.606  31.646  33.139  1.00  0.00     0.167 HD
ATOM     57  C   UNL A   1      40.442  28.639  30.071  1.00  0.00     0.037 A 
ATOM     58  C   UNL A   1      39.867  32.779  35.681  1.00  0.00     0.037 A 
ATOM     59  C   UNL A   1      41.436  28.427  31.088  1.00  0.00     0.049 A 
ATOM     60  C   UNL A   1      40.924  31.708  35.586  1.00  0.00     0.074 A 
ATOM     61  C   UNL A   1      42.494  27.532  31.085  1.00  0.00     0.029 A 
ATOM     62  N   UNL A   1      41.497  29.114  32.291  1.00  0.00    -0.354 N 
ATOM     63  N   UNL A   1      41.185  30.888  34.599  1.00  0.00    -0.248 NA
ATOM     64  C   UNL A   1      41.805  31.541  36.751  1.00  0.00     0.031 C 
ATOM     65  C   UNL A   1      43.161  27.641  32.308  1.00  0.00     0.029 A 
ATOM     66  C   UNL A   1      42.557  28.643  33.048  1.00  0.00     0.049 A 
ATOM     67  H   UNL A   1      40.879  29.830  32.564  1.00  0.00     0.167 HD
ATOM     68  C   UNL A   1      42.276  30.133  35.008  1.00  0.00     0.074 A 
ATOM     69  C   UNL A   1      42.640  30.604  36.326  1.00  0.00     0.031 C 
ATOM     70  C   UNL A   1      42.917  29.134  34.353  1.00  0.00     0.037 A 
BRANCH  57  71
ATOM     71  C   UNL A   1      40.464  27.730  28.875  1.00  0.00     0.064 A 
ATOM     72  C   UNL A   1      39.658  26.585  28.803  1.00  0.00     0.173 A 
ATOM     73  C   UNL A   1      41.240  28.059  27.752  1.00  0.00     0.173 A 
ATOM     74  F   UNL A   1      38.904  26.222  29.851  1.00  0.00    -0.203 F 
ATOM     75  C   UNL A   1      39.638  25.794  27.656  1.00  0.00     0.198 A 
ATOM     76  C   UNL A   1      41.197  27.282  26.597  1.00  0.00     0.198 A 
ATOM     77  F   UNL A   1      42.025  29.147  27.768  1.00  0.00    -0.203 F 
ATOM     78  F   UNL A   1      38.885  24.687  27.621  1.00  0.00    -0.200 F 
ATOM     79  C   UNL A   1      40.399  26.149  26.552  1.00  0.00     0.200 A 
ATOM     80  F   UNL A   1      41.920  27.635  25.527  1.00  0.00    -0.200 F 
ATOM     81  F   UNL A   1      40.363  25.398  25.443  1.00  0.00    -0.200 F 
ENDBRANCH  57  71
BRANCH  58  82
ATOM     82  C   UNL A   1      39.722  33.588  36.921  1.00  0.00     0.064 A 
ATOM     83  C   UNL A   1      38.857  33.187  37.950  1.00  0.00     0.173 A 
ATOM     84  C   UNL A   1      40.412  34.797  37.087  1.00  0.00     0.173 A 
ATOM     85  F   UNL A   1      38.158  32.048  37.831  1.00  0.00    -0.203 F 
ATOM     86  C   UNL A   1      38.662  33.981  39.079  1.00  0.00     0.198 A 
ATOM     87  C   UNL A   1      40.243  35.574  38.232  1.00  0.00     0.198 A 
ATOM     88  F   UNL A   1      41.257  35.225  36.137  1.00  0.00    -0.203 F 
ATOM     89  F   UNL A   1      37.779  33.606  40.015  1.00  0.00    -0.200 F 
ATOM     90  C   UNL A   1      39.357  35.173  39.220  1.00  0.00     0.200 A 
ATOM     91  F   UNL A   1      40.928  36.717  38.371  1.00  0.00    -0.200 F 
ATOM     92  F   UNL A   1      39.164  35.939  40.302  1.00  0.00    -0.200 F 
ENDBRANCH  58  82
BRANCH  70  93
ATOM     93  C   UNL A   1      44.104  28.514  35.029  1.00  0.00     0.064 A 
ATOM     94  C   UNL A   1      45.394  29.050  34.894  1.00  0.00     0.173 A 
ATOM     95  C   UNL A   1      43.943  27.392  35.856  1.00  0.00     0.173 A 
ATOM     96  F   UNL A   1      45.603  30.113  34.102  1.00  0.00    -0.203 F 
ATOM     97  C   UNL A   1      46.481  28.470  35.542  1.00  0.00     0.198 A 
ATOM     98  C   UNL A   1      45.027  26.835  36.529  1.00  0.00     0.198 A 
ATOM     99  F   UNL A   1      42.729  26.846  36.026  1.00  0.00    -0.203 F 
ATOM    100  F   UNL A   1      47.711  28.969  35.360  1.00  0.00    -0.200 F 
ATOM    101  C   UNL A   1      46.295  27.368  36.365  1.00  0.00     0.200 A 
ATOM    102  F   UNL A   1      44.843  25.782  37.337  1.00  0.00    -0.200 F 
ATOM    103  F   UNL A   1      47.342  26.818  36.995  1.00  0.00    -0.200 F 
ENDBRANCH  70  93
ENDBRANCH  44  45
ENDBRANCH  36  39
ENDBRANCH  34  35
ENDBRANCH  33  34
ENDBRANCH  32  33
ENDBRANCH   1  32
TORSDOF 16
ENDMDL
MODEL 3
REMARK VINA RESULT:     -12.8      1.745      2.950
REMARK SMILES C[NH+]1CCC(C(=O)N2C[C@@H](C(=O)NCCCCCCNC(=O)c3ccc(-c4c5nc(c(-c6c(F)c(F)c(F)c(F)c6F)c6ccc([nH]6)c(-c6c(F)c(F)c(F)c(F)c6F)c6nc(c(-c7c(F)c(F)c(F)c(F)c7F)c7ccc4[nH]7)C=C6)C=C5)cc3)[C@H](c3ccc4c(c3)OCO4)C2)CC1
REMARK SMILES IDX 16 1 15 2 14 3 13 4 11 5 12 6 10 8 8 9 9 10 96 11 86 12 6 13
REMARK SMILES IDX 7 14 5 15 1 16 2 17 3 18 98 19 4 21 97 22 87 23 88 24 92 25
REMARK SMILES IDX 89 26 91 27 90 28 93 29 95 30 94 31 17 32 18 33 19 34 20 35
REMARK SMILES IDX 21 36 22 38 23 39 24 40 85 41 25 42 84 43 26 44 27 45 28 46
REMARK SMILES IDX 78 47 29 48 83 49 77 50 79 51 30 52 82 53 76 54 75 55 31 57
REMARK SMILES IDX 63 58 43 59 62 60 44 61 47 62 61 63 80 64 45 65 46 66 60 68
REMARK SMILES IDX 81 69 48 70 32 71 33 72 41 73 34 74 35 75 39 76 42 77 36 78
REMARK SMILES IDX 37 79 40 80 38 81 64 82 65 83 73 84 66 85 67 86 71 87 74 88
REMARK SMILES IDX 68 89 69 90 72 91 70 92 49 93 50 94 58 95 51 96 52 97 56 98
REMARK SMILES IDX 59 99 53 100 54 101 57 102 55 103
REMARK H PARENT 13 7 2 20 20 37 79 56 47 67
REMARK Flexibility Score: inf
ROOT
ATOM      1  C   UNL A   1      33.684  29.872  27.210  1.00  0.00     0.002 C 
ENDROOT
BRANCH   1   2
ATOM      2  C   UNL A   1      32.201  29.601  26.925  1.00  0.00     0.021 C 
BRANCH   2   3
ATOM      3  C   UNL A   1      31.785  29.713  25.460  1.00  0.00     0.116 C 
BRANCH   3   4
ATOM      4  N   UNL A   1      32.916  29.702  24.548  1.00  0.00    -0.356 N 
ATOM      5  C   UNL A   1      33.319  28.747  23.662  1.00  0.00     0.225 C 
ATOM      6  O   UNL A   1      34.245  29.018  22.896  1.00  0.00    -0.275 OA
ATOM      7  H   UNL A   1      33.479  30.510  24.572  1.00  0.00     0.163 HD
BRANCH   5   8
ATOM      8  C   UNL A   1      32.633  27.399  23.637  1.00  0.00     0.107 C 
ATOM      9  N   UNL A   1      32.818  25.150  23.159  1.00  0.00    -0.341 N 
ATOM     10  C   UNL A   1      33.651  26.283  23.502  1.00  0.00     0.133 C 
ATOM     11  C   UNL A   1      31.745  25.599  22.274  1.00  0.00     0.128 C 
ATOM     12  C   UNL A   1      31.754  27.145  22.389  1.00  0.00     0.053 C 
BRANCH   9  13
ATOM     13  C   UNL A   1      32.909  23.832  23.523  1.00  0.00     0.226 C 
ATOM     14  O   UNL A   1      31.888  23.132  23.547  1.00  0.00    -0.275 OA
BRANCH  13  15
ATOM     15  C   UNL A   1      34.172  23.294  24.208  1.00  0.00     0.090 C 
ATOM     16  C   UNL A   1      37.744  21.039  25.002  1.00  0.00     0.332 C 
ATOM     17  N   UNL A   1      36.445  21.499  24.516  1.00  0.00    -0.337 N 
ATOM     18  C   UNL A   1      36.593  22.726  23.724  1.00  0.00     0.262 C 
ATOM     19  C   UNL A   1      35.511  21.708  25.634  1.00  0.00     0.262 C 
ATOM     20  H   UNL A   1      36.057  20.775  23.912  1.00  0.00     0.347 HD
ATOM     21  C   UNL A   1      35.252  23.142  23.126  1.00  0.00     0.075 C 
ATOM     22  C   UNL A   1      34.123  22.043  25.079  1.00  0.00     0.075 C 
ENDBRANCH  13  15
ENDBRANCH   9  13
BRANCH  12  23
ATOM     23  C   UNL A   1      30.430  27.871  22.504  1.00  0.00    -0.038 A 
ATOM     24  C   UNL A   1      29.333  27.357  23.234  1.00  0.00     0.008 A 
ATOM     25  C   UNL A   1      30.361  29.186  22.002  1.00  0.00     0.054 A 
ATOM     26  C   UNL A   1      28.207  28.148  23.499  1.00  0.00     0.051 A 
ATOM     27  C   UNL A   1      29.262  29.952  22.317  1.00  0.00     0.166 A 
ATOM     28  C   UNL A   1      28.218  29.451  23.056  1.00  0.00     0.165 A 
ATOM     29  O   UNL A   1      29.116  31.275  22.040  1.00  0.00    -0.454 OA
ATOM     30  O   UNL A   1      27.282  30.399  23.331  1.00  0.00    -0.454 OA
ATOM     31  C   UNL A   1      27.947  31.576  22.827  1.00  0.00     0.468 C 
ENDBRANCH  12  23
ENDBRANCH   5   8
ENDBRANCH   3   4
ENDBRANCH   2   3
ENDBRANCH   1   2
BRANCH   1  32
ATOM     32  C   UNL A   1      34.006  31.201  27.901  1.00  0.00     0.002 C 
BRANCH  32  33
ATOM     33  C   UNL A   1      33.563  32.459  27.155  1.00  0.00     0.021 C 
BRANCH  33  34
ATOM     34  C   UNL A   1      32.268  33.092  27.648  1.00  0.00     0.116 C 
BRANCH  34  35
ATOM     35  N   UNL A   1      32.412  34.514  27.918  1.00  0.00    -0.352 N 
ATOM     36  C   UNL A   1      33.281  35.171  28.752  1.00  0.00     0.251 C 
ATOM     37  H   UNL A   1      31.789  35.095  27.426  1.00  0.00     0.163 HD
ATOM     38  O   UNL A   1      33.117  36.372  28.976  1.00  0.00    -0.269 OA
BRANCH  36  39
ATOM     39  C   UNL A   1      34.402  34.458  29.408  1.00  0.00     0.039 A 
ATOM     40  C   UNL A   1      34.135  33.674  30.535  1.00  0.00     0.014 A 
ATOM     41  C   UNL A   1      35.715  34.578  28.947  1.00  0.00     0.014 A 
ATOM     42  C   UNL A   1      35.169  32.969  31.159  1.00  0.00     0.010 A 
ATOM     43  C   UNL A   1      36.728  33.806  29.513  1.00  0.00     0.010 A 
ATOM     44  C   UNL A   1      36.471  33.000  30.632  1.00  0.00    -0.014 A 
BRANCH  44  45
ATOM     45  C   UNL A   1      37.574  32.214  31.246  1.00  0.00     0.031 A 
ATOM     46  C   UNL A   1      38.067  32.554  32.629  1.00  0.00     0.074 A 
ATOM     47  C   UNL A   1      38.181  31.241  30.538  1.00  0.00     0.049 A 
ATOM     48  N   UNL A   1      39.070  32.046  33.300  1.00  0.00    -0.248 NA
ATOM     49  C   UNL A   1      37.356  33.628  33.343  1.00  0.00     0.031 C 
ATOM     50  C   UNL A   1      37.836  30.850  29.169  1.00  0.00     0.029 A 
ATOM     51  N   UNL A   1      39.228  30.413  30.862  1.00  0.00    -0.354 N 
ATOM     52  C   UNL A   1      39.126  32.754  34.495  1.00  0.00     0.074 A 
ATOM     53  C   UNL A   1      38.084  33.755  34.443  1.00  0.00     0.031 C 
ATOM     54  C   UNL A   1      38.646  29.854  28.778  1.00  0.00     0.029 A 
ATOM     55  C   UNL A   1      39.593  29.560  29.848  1.00  0.00     0.049 A 
ATOM     56  H   UNL A   1      39.675  30.428  31.740  1.00  0.00     0.167 HD
ATOM     57  C   UNL A   1      39.958  32.570  35.547  1.00  0.00     0.037 A 
ATOM     58  C   UNL A   1      40.588  28.654  29.784  1.00  0.00     0.037 A 
ATOM     59  C   UNL A   1      40.959  31.539  35.617  1.00  0.00     0.049 A 
ATOM     60  C   UNL A   1      41.483  28.459  30.980  1.00  0.00     0.074 A 
ATOM     61  C   UNL A   1      41.787  31.215  36.679  1.00  0.00     0.029 A 
ATOM     62  N   UNL A   1      41.271  30.667  34.586  1.00  0.00    -0.354 N 
ATOM     63  N   UNL A   1      41.466  29.075  32.136  1.00  0.00    -0.248 NA
ATOM     64  C   UNL A   1      42.530  27.433  30.865  1.00  0.00     0.031 C 
ATOM     65  C   UNL A   1      42.637  30.183  36.272  1.00  0.00     0.029 A 
ATOM     66  C   UNL A   1      42.298  29.824  34.977  1.00  0.00     0.049 A 
ATOM     67  H   UNL A   1      40.827  30.649  33.707  1.00  0.00     0.167 HD
ATOM     68  C   UNL A   1      42.473  28.493  32.894  1.00  0.00     0.074 A 
ATOM     69  C   UNL A   1      43.071  27.462  32.075  1.00  0.00     0.031 C 
ATOM     70  C   UNL A   1      42.871  28.790  34.155  1.00  0.00     0.037 A 
BRANCH  57  71
ATOM     71  C   UNL A   1      39.826  33.494  36.723  1.00  0.00     0.064 A 
ATOM     72  C   UNL A   1      38.959  33.213  37.789  1.00  0.00     0.173 A 
ATOM     73  C   UNL A   1      40.640  34.633  36.822  1.00  0.00     0.173 A 
ATOM     74  F   UNL A   1      38.153  32.142  37.741  1.00  0.00    -0.203 F 
ATOM     75  C   UNL A   1      38.903  34.045  38.905  1.00  0.00     0.198 A 
ATOM     76  C   UNL A   1      40.602  35.446  37.952  1.00  0.00     0.198 A 
ATOM     77  F   UNL A   1      41.490  34.944  35.832  1.00  0.00    -0.203 F 
ATOM     78  F   UNL A   1      38.044  33.773  39.898  1.00  0.00    -0.200 F 
ATOM     79  C   UNL A   1      39.732  35.154  38.990  1.00  0.00     0.200 A 
ATOM     80  F   UNL A   1      41.415  36.508  38.038  1.00  0.00    -0.200 F 
ATOM     81  F   UNL A   1      39.690  35.941  40.073  1.00  0.00    -0.200 F 
ENDBRANCH  57  71
BRANCH  58  82
ATOM     82  C   UNL A   1      40.802  27.858  28.544  1.00  0.00     0.064 A 
ATOM     83  C   UNL A   1      41.613  28.339  27.506  1.00  0.00     0.173 A 
ATOM     84  C   UNL A   1      40.170  26.621  28.355  1.00  0.00     0.173 A 
ATOM     85  F   UNL A   1      42.224  29.527  27.629  1.00  0.00    -0.203 F 
ATOM     86  C   UNL A   1      41.753  27.631  26.313  1.00  0.00     0.198 A 
ATOM     87  C   UNL A   1      40.338  25.897  27.176  1.00  0.00     0.198 A 
ATOM     88  F   UNL A   1      39.388  26.112  29.319  1.00  0.00    -0.203 F 
ATOM     89  F   UNL A   1      42.480  28.146  25.312  1.00  0.00    -0.200 F 
ATOM     90  C   UNL A   1      41.118  26.409  26.151  1.00  0.00     0.200 A 
ATOM     91  F   UNL A   1      39.734  24.710  27.030  1.00  0.00    -0.200 F 
ATOM     92  F   UNL A   1      41.248  25.732  25.002  1.00  0.00    -0.200 F 
ENDBRANCH  58  82
BRANCH  70  93
ATOM     93  C   UNL A   1      43.975  27.961  34.746  1.00  0.00     0.064 A 
ATOM     94  C   UNL A   1      43.715  26.758  35.418  1.00  0.00     0.173 A 
ATOM     95  C   UNL A   1      45.313  28.356  34.599  1.00  0.00     0.173 A 
ATOM     96  F   UNL A   1      42.451  26.345  35.598  1.00  0.00    -0.203 F 
ATOM     97  C   UNL A   1      44.753  25.994  35.945  1.00  0.00     0.198 A 
ATOM     98  C   UNL A   1      46.350  27.573  35.098  1.00  0.00     0.198 A 
ATOM     99  F   UNL A   1      45.617  29.494  33.956  1.00  0.00    -0.203 F 
ATOM    100  F   UNL A   1      44.478  24.874  36.627  1.00  0.00    -0.200 F 
ATOM    101  C   UNL A   1      46.070  26.398  35.777  1.00  0.00     0.200 A 
ATOM    102  F   UNL A   1      47.622  27.955  34.920  1.00  0.00    -0.200 F 
ATOM    103  F   UNL A   1      47.067  25.656  36.277  1.00  0.00    -0.200 F 
ENDBRANCH  70  93
ENDBRANCH  44  45
ENDBRANCH  36  39
ENDBRANCH  34  35
ENDBRANCH  33  34
ENDBRANCH  32  33
ENDBRANCH   1  32
TORSDOF 16
ENDMDL
