MODEL 1
REMARK VINA RESULT:     -11.2      0.000      0.000
REMARK SMILES COc1cccc([C@@]([NH3+])(C(=O)NCCCCCCNC(=O)c2ccc(-c3c4nc(c(-c5c(F)c(F)c(F)c(F)c5F)c5ccc([nH]5)c(-c5c(F)c(F)c(F)c(F)c5F)c5nc(c(-c6c(F)c(F)c(F)c(F)c6F)c6ccc3[nH]6)C=C5)C=C4)cc2)C(F)(F)F)c1
REMARK SMILES IDX 15 1 14 2 13 3 12 4 10 5 11 6 8 8 7 9 3 10 4 11 89 12 5 13
REMARK SMILES IDX 6 14 2 15 1 16 9 17 85 21 86 22 87 23 88 24 16 25 17 26
REMARK SMILES IDX 18 27 19 28 20 29 21 31 22 32 23 33 84 34 24 35 83 36 25 37
REMARK SMILES IDX 26 38 27 39 77 40 28 41 82 42 76 43 78 44 29 45 81 46 75 47
REMARK SMILES IDX 74 48 30 50 62 51 42 52 61 53 43 54 46 55 60 56 79 57 44 58
REMARK SMILES IDX 45 59 59 61 80 62 47 63 31 64 32 65 40 66 33 67 34 68 38 69
REMARK SMILES IDX 41 70 35 71 36 72 39 73 37 74 63 75 64 76 72 77 65 78 66 79
REMARK SMILES IDX 70 80 73 81 67 82 68 83 71 84 69 85 48 86 49 87 57 88 50 89
REMARK SMILES IDX 51 90 55 91 58 92 52 93 53 94 56 95 54 96
REMARK H PARENT 12 7 9 18 9 19 9 20 19 30 78 49 46 60
REMARK Flexibility Score: inf
ROOT
ATOM      1  C   UNL A   1      35.053  33.011  28.189  1.00  0.00     0.002 C 
ENDROOT
BRANCH   1   2
ATOM      2  C   UNL A   1      34.773  31.510  28.056  1.00  0.00     0.021 C 
BRANCH   2   3
ATOM      3  C   UNL A   1      33.636  31.187  27.084  1.00  0.00     0.116 C 
BRANCH   3   4
ATOM      4  N   UNL A   1      32.818  30.111  27.608  1.00  0.00    -0.350 N 
ATOM      5  C   UNL A   1      32.227  29.034  27.009  1.00  0.00     0.296 C 
ATOM      6  O   UNL A   1      31.403  28.449  27.721  1.00  0.00    -0.267 OA
ATOM      7  H   UNL A   1      32.660  30.167  28.577  1.00  0.00     0.163 HD
BRANCH   5   8
ATOM      8  C   UNL A   1      32.541  28.559  25.554  1.00  0.00     0.295 C 
BRANCH   8   9
ATOM      9  C   UNL A   1      31.266  28.077  24.812  1.00  0.00     0.035 A 
ATOM     10  C   UNL A   1      29.393  28.444  23.262  1.00  0.00     0.119 A 
ATOM     11  C   UNL A   1      28.930  27.153  23.500  1.00  0.00     0.046 A 
ATOM     12  C   UNL A   1      30.564  28.889  23.894  1.00  0.00     0.057 A 
ATOM     13  C   UNL A   1      29.601  26.324  24.387  1.00  0.00     0.004 A 
ATOM     14  C   UNL A   1      30.737  26.793  25.049  1.00  0.00     0.011 A 
BRANCH  10  15
ATOM     15  O   UNL A   1      28.607  29.170  22.411  1.00  0.00    -0.497 OA
ATOM     16  C   UNL A   1      29.193  30.300  21.779  1.00  0.00     0.278 C 
ENDBRANCH  10  15
ENDBRANCH   8   9
BRANCH   8  17
ATOM     17  N   UNL A   1      33.182  29.695  24.767  1.00  0.00    -0.333 N 
ATOM     18  H   UNL A   1      32.598  30.528  24.835  1.00  0.00     0.345 HD
ATOM     19  H   UNL A   1      33.274  29.423  23.788  1.00  0.00     0.345 HD
ATOM     20  H   UNL A   1      34.105  29.896  25.152  1.00  0.00     0.345 HD
ENDBRANCH   8  17
BRANCH   8  21
ATOM     21  C   UNL A   1      33.618  27.428  25.757  1.00  0.00     0.458 C 
ATOM     22  F   UNL A   1      33.230  26.372  26.497  1.00  0.00    -0.164 F 
ATOM     23  F   UNL A   1      34.004  26.936  24.545  1.00  0.00    -0.164 F 
ATOM     24  F   UNL A   1      34.750  27.937  26.316  1.00  0.00    -0.164 F 
ENDBRANCH   8  21
ENDBRANCH   5   8
ENDBRANCH   3   4
ENDBRANCH   2   3
ENDBRANCH   1   2
BRANCH   1  25
ATOM     25  C   UNL A   1      34.370  33.690  29.383  1.00  0.00     0.002 C 
BRANCH  25  26
ATOM     26  C   UNL A   1      33.204  34.616  29.026  1.00  0.00     0.021 C 
BRANCH  26  27
ATOM     27  C   UNL A   1      33.363  36.051  29.518  1.00  0.00     0.116 C 
BRANCH  27  28
ATOM     28  N   UNL A   1      32.516  36.322  30.669  1.00  0.00    -0.352 N 
ATOM     29  C   UNL A   1      32.592  35.822  31.945  1.00  0.00     0.251 C 
ATOM     30  H   UNL A   1      31.781  36.957  30.510  1.00  0.00     0.163 HD
ATOM     31  O   UNL A   1      31.659  35.976  32.725  1.00  0.00    -0.269 OA
BRANCH  29  32
ATOM     32  C   UNL A   1      33.798  35.087  32.377  1.00  0.00     0.039 A 
ATOM     33  C   UNL A   1      33.659  33.789  32.874  1.00  0.00     0.014 A 
ATOM     34  C   UNL A   1      35.060  35.688  32.323  1.00  0.00     0.014 A 
ATOM     35  C   UNL A   1      34.791  33.072  33.266  1.00  0.00     0.010 A 
ATOM     36  C   UNL A   1      36.193  34.950  32.651  1.00  0.00     0.010 A 
ATOM     37  C   UNL A   1      36.070  33.638  33.132  1.00  0.00    -0.014 A 
BRANCH  37  38
ATOM     38  C   UNL A   1      37.290  32.875  33.497  1.00  0.00     0.031 A 
ATOM     39  C   UNL A   1      38.004  33.164  34.788  1.00  0.00     0.074 A 
ATOM     40  C   UNL A   1      37.790  31.968  32.635  1.00  0.00     0.049 A 
ATOM     41  N   UNL A   1      39.121  32.661  35.248  1.00  0.00    -0.248 NA
ATOM     42  C   UNL A   1      37.395  34.176  35.665  1.00  0.00     0.031 C 
ATOM     43  C   UNL A   1      37.211  31.632  31.334  1.00  0.00     0.029 A 
ATOM     44  N   UNL A   1      38.904  31.173  32.721  1.00  0.00    -0.354 N 
ATOM     45  C   UNL A   1      39.354  33.302  36.457  1.00  0.00     0.074 A 
ATOM     46  C   UNL A   1      38.292  34.268  36.636  1.00  0.00     0.031 C 
ATOM     47  C   UNL A   1      37.965  30.686  30.750  1.00  0.00     0.029 A 
ATOM     48  C   UNL A   1      39.097  30.377  31.618  1.00  0.00     0.049 A 
ATOM     49  H   UNL A   1      39.508  31.172  33.498  1.00  0.00     0.167 HD
ATOM     50  C   UNL A   1      40.352  33.088  37.348  1.00  0.00     0.037 A 
ATOM     51  C   UNL A   1      40.081  29.501  31.337  1.00  0.00     0.037 A 
ATOM     52  C   UNL A   1      41.392  32.107  37.178  1.00  0.00     0.049 A 
ATOM     53  C   UNL A   1      41.180  29.284  32.343  1.00  0.00     0.074 A 
ATOM     54  C   UNL A   1      42.413  31.771  38.049  1.00  0.00     0.029 A 
ATOM     55  N   UNL A   1      41.543  31.304  36.056  1.00  0.00    -0.354 N 
ATOM     56  N   UNL A   1      41.353  29.848  33.514  1.00  0.00    -0.248 NA
ATOM     57  C   UNL A   1      42.215  28.303  31.990  1.00  0.00     0.031 C 
ATOM     58  C   UNL A   1      43.208  30.796  37.437  1.00  0.00     0.029 A 
ATOM     59  C   UNL A   1      42.653  30.488  36.206  1.00  0.00     0.049 A 
ATOM     60  H   UNL A   1      40.948  31.312  35.271  1.00  0.00     0.167 HD
ATOM     61  C   UNL A   1      42.497  29.271  34.049  1.00  0.00     0.074 A 
ATOM     62  C   UNL A   1      42.968  28.303  33.081  1.00  0.00     0.031 C 
ATOM     63  C   UNL A   1      43.102  29.523  35.235  1.00  0.00     0.037 A 
BRANCH  50  64
ATOM     64  C   UNL A   1      40.365  33.928  38.592  1.00  0.00     0.064 A 
ATOM     65  C   UNL A   1      41.087  35.130  38.660  1.00  0.00     0.173 A 
ATOM     66  C   UNL A   1      39.619  33.547  39.717  1.00  0.00     0.173 A 
ATOM     67  F   UNL A   1      41.825  35.533  37.617  1.00  0.00    -0.203 F 
ATOM     68  C   UNL A   1      41.082  35.903  39.818  1.00  0.00     0.198 A 
ATOM     69  C   UNL A   1      39.592  34.339  40.863  1.00  0.00     0.198 A 
ATOM     70  F   UNL A   1      38.906  32.410  39.704  1.00  0.00    -0.203 F 
ATOM     71  F   UNL A   1      41.817  37.023  39.876  1.00  0.00    -0.200 F 
ATOM     72  C   UNL A   1      40.330  35.512  40.914  1.00  0.00     0.200 A 
ATOM     73  F   UNL A   1      38.853  33.966  41.917  1.00  0.00    -0.200 F 
ATOM     74  F   UNL A   1      40.320  36.262  42.025  1.00  0.00    -0.200 F 
ENDBRANCH  50  64
BRANCH  51  75
ATOM     75  C   UNL A   1      40.059  28.746  30.058  1.00  0.00     0.064 A 
ATOM     76  C   UNL A   1      39.452  27.485  29.978  1.00  0.00     0.173 A 
ATOM     77  C   UNL A   1      40.647  29.262  28.894  1.00  0.00     0.173 A 
ATOM     78  F   UNL A   1      38.894  26.941  31.069  1.00  0.00    -0.203 F 
ATOM     79  C   UNL A   1      39.451  26.761  28.788  1.00  0.00     0.198 A 
ATOM     80  C   UNL A   1      40.620  28.549  27.697  1.00  0.00     0.198 A 
ATOM     81  F   UNL A   1      41.237  30.466  28.916  1.00  0.00    -0.203 F 
ATOM     82  F   UNL A   1      38.902  25.538  28.751  1.00  0.00    -0.200 F 
ATOM     83  C   UNL A   1      40.030  27.295  27.647  1.00  0.00     0.200 A 
ATOM     84  F   UNL A   1      41.169  29.075  26.594  1.00  0.00    -0.200 F 
ATOM     85  F   UNL A   1      40.025  26.600  26.502  1.00  0.00    -0.200 F 
ENDBRANCH  51  75
BRANCH  63  86
ATOM     86  C   UNL A   1      44.322  28.713  35.570  1.00  0.00     0.064 A 
ATOM     87  C   UNL A   1      45.611  29.151  35.239  1.00  0.00     0.173 A 
ATOM     88  C   UNL A   1      44.197  27.500  36.265  1.00  0.00     0.173 A 
ATOM     89  F   UNL A   1      45.781  30.297  34.560  1.00  0.00    -0.203 F 
ATOM     90  C   UNL A   1      46.731  28.394  35.570  1.00  0.00     0.198 A 
ATOM     91  C   UNL A   1      45.321  26.759  36.621  1.00  0.00     0.198 A 
ATOM     92  F   UNL A   1      42.986  27.039  36.610  1.00  0.00    -0.203 F 
ATOM     93  F   UNL A   1      47.951  28.809  35.203  1.00  0.00    -0.200 F 
ATOM     94  C   UNL A   1      46.586  27.203  36.268  1.00  0.00     0.200 A 
ATOM     95  F   UNL A   1      45.179  25.617  37.306  1.00  0.00    -0.200 F 
ATOM     96  F   UNL A   1      47.665  26.479  36.592  1.00  0.00    -0.200 F 
ENDBRANCH  63  86
ENDBRANCH  37  38
ENDBRANCH  29  32
ENDBRANCH  27  28
ENDBRANCH  26  27
ENDBRANCH  25  26
ENDBRANCH   1  25
TORSDOF 17
ENDMDL
MODEL 2
REMARK VINA RESULT:     -11.1      5.647     11.244
REMARK SMILES COc1cccc([C@@]([NH3+])(C(=O)NCCCCCCNC(=O)c2ccc(-c3c4nc(c(-c5c(F)c(F)c(F)c(F)c5F)c5ccc([nH]5)c(-c5c(F)c(F)c(F)c(F)c5F)c5nc(c(-c6c(F)c(F)c(F)c(F)c6F)c6ccc3[nH]6)C=C5)C=C4)cc2)C(F)(F)F)c1
REMARK SMILES IDX 15 1 14 2 13 3 12 4 10 5 11 6 8 8 7 9 3 10 4 11 89 12 5 13
REMARK SMILES IDX 6 14 2 15 1 16 9 17 85 21 86 22 87 23 88 24 16 25 17 26
REMARK SMILES IDX 18 27 19 28 20 29 21 31 22 32 23 33 84 34 24 35 83 36 25 37
REMARK SMILES IDX 26 38 27 39 77 40 28 41 82 42 76 43 78 44 29 45 81 46 75 47
REMARK SMILES IDX 74 48 30 50 62 51 42 52 61 53 43 54 46 55 60 56 79 57 44 58
REMARK SMILES IDX 45 59 59 61 80 62 47 63 31 64 32 65 40 66 33 67 34 68 38 69
REMARK SMILES IDX 41 70 35 71 36 72 39 73 37 74 63 75 64 76 72 77 65 78 66 79
REMARK SMILES IDX 70 80 73 81 67 82 68 83 71 84 69 85 48 86 49 87 57 88 50 89
REMARK SMILES IDX 51 90 55 91 58 92 52 93 53 94 56 95 54 96
REMARK H PARENT 12 7 9 18 9 19 9 20 19 30 78 49 46 60
REMARK Flexibility Score: inf
ROOT
ATOM      1  C   UNL A   1      42.363  23.439  28.563  1.00  0.00     0.002 C 
ENDROOT
BRANCH   1   2
ATOM      2  C   UNL A   1      43.581  23.653  29.467  1.00  0.00     0.021 C 
BRANCH   2   3
ATOM      3  C   UNL A   1      44.916  23.516  28.732  1.00  0.00     0.116 C 
BRANCH   3   4
ATOM      4  N   UNL A   1      44.803  22.540  27.665  1.00  0.00    -0.350 N 
ATOM      5  C   UNL A   1      45.092  22.604  26.331  1.00  0.00     0.296 C 
ATOM      6  O   UNL A   1      44.648  21.657  25.671  1.00  0.00    -0.267 OA
ATOM      7  H   UNL A   1      44.453  21.669  27.958  1.00  0.00     0.163 HD
BRANCH   5   8
ATOM      8  C   UNL A   1      45.907  23.760  25.665  1.00  0.00     0.295 C 
BRANCH   8   9
ATOM      9  C   UNL A   1      45.080  25.069  25.561  1.00  0.00     0.035 A 
ATOM     10  C   UNL A   1      44.848  27.507  25.781  1.00  0.00     0.119 A 
ATOM     11  C   UNL A   1      43.518  27.427  25.376  1.00  0.00     0.046 A 
ATOM     12  C   UNL A   1      45.625  26.340  25.848  1.00  0.00     0.057 A 
ATOM     13  C   UNL A   1      42.954  26.196  25.076  1.00  0.00     0.004 A 
ATOM     14  C   UNL A   1      43.721  25.036  25.193  1.00  0.00     0.011 A 
BRANCH  10  15
ATOM     15  O   UNL A   1      45.259  28.772  26.099  1.00  0.00    -0.497 OA
ATOM     16  C   UNL A   1      44.297  29.652  26.664  1.00  0.00     0.278 C 
ENDBRANCH  10  15
ENDBRANCH   8   9
BRANCH   8  17
ATOM     17  N   UNL A   1      47.174  24.026  26.467  1.00  0.00    -0.333 N 
ATOM     18  H   UNL A   1      47.979  23.648  25.968  1.00  0.00     0.345 HD
ATOM     19  H   UNL A   1      47.099  23.578  27.381  1.00  0.00     0.345 HD
ATOM     20  H   UNL A   1      47.292  25.032  26.591  1.00  0.00     0.345 HD
ENDBRANCH   8  17
BRANCH   8  21
ATOM     21  C   UNL A   1      46.322  23.164  24.268  1.00  0.00     0.458 C 
ATOM     22  F   UNL A   1      45.335  23.059  23.357  1.00  0.00    -0.164 F 
ATOM     23  F   UNL A   1      47.293  23.938  23.706  1.00  0.00    -0.164 F 
ATOM     24  F   UNL A   1      46.883  21.933  24.417  1.00  0.00    -0.164 F 
ENDBRANCH   8  21
ENDBRANCH   5   8
ENDBRANCH   3   4
ENDBRANCH   2   3
ENDBRANCH   1   2
BRANCH   1  25
ATOM     25  C   UNL A   1      41.659  22.087  28.741  1.00  0.00     0.002 C 
BRANCH  25  26
ATOM     26  C   UNL A   1      41.387  21.319  27.444  1.00  0.00     0.021 C 
BRANCH  26  27
ATOM     27  C   UNL A   1      41.176  22.203  26.218  1.00  0.00     0.116 C 
BRANCH  27  28
ATOM     28  N   UNL A   1      39.773  22.277  25.844  1.00  0.00    -0.352 N 
ATOM     29  C   UNL A   1      38.819  23.193  26.211  1.00  0.00     0.251 C 
ATOM     30  H   UNL A   1      39.461  21.567  25.238  1.00  0.00     0.163 HD
ATOM     31  O   UNL A   1      37.633  22.972  25.992  1.00  0.00    -0.269 OA
BRANCH  29  32
ATOM     32  C   UNL A   1      39.222  24.446  26.882  1.00  0.00     0.039 A 
ATOM     33  C   UNL A   1      38.950  24.603  28.244  1.00  0.00     0.014 A 
ATOM     34  C   UNL A   1      39.837  25.476  26.164  1.00  0.00     0.014 A 
ATOM     35  C   UNL A   1      39.344  25.772  28.898  1.00  0.00     0.010 A 
ATOM     36  C   UNL A   1      40.288  26.612  26.830  1.00  0.00     0.010 A 
ATOM     37  C   UNL A   1      40.040  26.774  28.202  1.00  0.00    -0.014 A 
BRANCH  37  38
ATOM     38  C   UNL A   1      40.511  28.003  28.890  1.00  0.00     0.031 A 
ATOM     39  C   UNL A   1      41.942  28.119  29.333  1.00  0.00     0.074 A 
ATOM     40  C   UNL A   1      39.633  28.985  29.171  1.00  0.00     0.049 A 
ATOM     41  N   UNL A   1      42.525  29.075  30.012  1.00  0.00    -0.248 NA
ATOM     42  C   UNL A   1      42.831  26.997  28.994  1.00  0.00     0.031 C 
ATOM     43  C   UNL A   1      38.210  28.968  28.831  1.00  0.00     0.029 A 
ATOM     44  N   UNL A   1      39.807  30.182  29.818  1.00  0.00    -0.354 N 
ATOM     45  C   UNL A   1      43.839  28.664  30.191  1.00  0.00     0.074 A 
ATOM     46  C   UNL A   1      43.957  27.351  29.596  1.00  0.00     0.031 C 
ATOM     47  C   UNL A   1      37.643  30.109  29.256  1.00  0.00     0.029 A 
ATOM     48  C   UNL A   1      38.654  30.920  29.929  1.00  0.00     0.049 A 
ATOM     49  H   UNL A   1      40.676  30.484  30.169  1.00  0.00     0.167 HD
ATOM     50  C   UNL A   1      44.861  29.333  30.777  1.00  0.00     0.037 A 
ATOM     51  C   UNL A   1      38.436  32.112  30.515  1.00  0.00     0.037 A 
ATOM     52  C   UNL A   1      44.745  30.651  31.344  1.00  0.00     0.049 A 
ATOM     53  C   UNL A   1      39.588  32.833  31.163  1.00  0.00     0.074 A 
ATOM     54  C   UNL A   1      45.733  31.439  31.908  1.00  0.00     0.029 A 
ATOM     55  N   UNL A   1      43.564  31.377  31.420  1.00  0.00    -0.354 N 
ATOM     56  N   UNL A   1      40.841  32.465  31.267  1.00  0.00    -0.248 NA
ATOM     57  C   UNL A   1      39.294  34.140  31.769  1.00  0.00     0.031 C 
ATOM     58  C   UNL A   1      45.143  32.622  32.365  1.00  0.00     0.029 A 
ATOM     59  C   UNL A   1      43.796  32.594  32.040  1.00  0.00     0.049 A 
ATOM     60  H   UNL A   1      42.691  31.071  31.082  1.00  0.00     0.167 HD
ATOM     61  C   UNL A   1      41.491  33.503  31.922  1.00  0.00     0.074 A 
ATOM     62  C   UNL A   1      40.494  34.522  32.178  1.00  0.00     0.031 C 
ATOM     63  C   UNL A   1      42.794  33.601  32.279  1.00  0.00     0.037 A 
BRANCH  50  64
ATOM     64  C   UNL A   1      46.197  28.651  30.833  1.00  0.00     0.064 A 
ATOM     65  C   UNL A   1      46.539  27.788  31.885  1.00  0.00     0.173 A 
ATOM     66  C   UNL A   1      47.133  28.833  29.804  1.00  0.00     0.173 A 
ATOM     67  F   UNL A   1      45.684  27.588  32.899  1.00  0.00    -0.203 F 
ATOM     68  C   UNL A   1      47.779  27.155  31.919  1.00  0.00     0.198 A 
ATOM     69  C   UNL A   1      48.361  28.175  29.826  1.00  0.00     0.198 A 
ATOM     70  F   UNL A   1      46.855  29.644  28.771  1.00  0.00    -0.203 F 
ATOM     71  F   UNL A   1      48.102  26.373  32.958  1.00  0.00    -0.200 F 
ATOM     72  C   UNL A   1      48.685  27.343  30.887  1.00  0.00     0.200 A 
ATOM     73  F   UNL A   1      49.229  28.347  28.821  1.00  0.00    -0.200 F 
ATOM     74  F   UNL A   1      49.874  26.726  30.917  1.00  0.00    -0.200 F 
ENDBRANCH  50  64
BRANCH  51  75
ATOM     75  C   UNL A   1      37.077  32.712  30.494  1.00  0.00     0.064 A 
ATOM     76  C   UNL A   1      36.665  33.523  29.428  1.00  0.00     0.173 A 
ATOM     77  C   UNL A   1      36.165  32.493  31.537  1.00  0.00     0.173 A 
ATOM     78  F   UNL A   1      37.509  33.778  28.417  1.00  0.00    -0.203 F 
ATOM     79  C   UNL A   1      35.402  34.109  29.415  1.00  0.00     0.198 A 
ATOM     80  C   UNL A   1      34.891  33.056  31.509  1.00  0.00     0.198 A 
ATOM     81  F   UNL A   1      36.508  31.721  32.579  1.00  0.00    -0.203 F 
ATOM     82  F   UNL A   1      35.050  34.917  28.404  1.00  0.00    -0.200 F 
ATOM     83  C   UNL A   1      34.513  33.871  30.452  1.00  0.00     0.200 A 
ATOM     84  F   UNL A   1      34.031  32.812  32.507  1.00  0.00    -0.200 F 
ATOM     85  F   UNL A   1      33.297  34.432  30.437  1.00  0.00    -0.200 F 
ENDBRANCH  51  75
BRANCH  63  86
ATOM     86  C   UNL A   1      43.228  34.870  32.954  1.00  0.00     0.064 A 
ATOM     87  C   UNL A   1      43.271  34.984  34.351  1.00  0.00     0.173 A 
ATOM     88  C   UNL A   1      43.642  35.972  32.190  1.00  0.00     0.173 A 
ATOM     89  F   UNL A   1      42.870  33.963  35.124  1.00  0.00    -0.203 F 
ATOM     90  C   UNL A   1      43.690  36.164  34.959  1.00  0.00     0.198 A 
ATOM     91  C   UNL A   1      44.089  37.141  32.802  1.00  0.00     0.198 A 
ATOM     92  F   UNL A   1      43.625  35.913  30.851  1.00  0.00    -0.203 F 
ATOM     93  F   UNL A   1      43.679  36.267  36.295  1.00  0.00    -0.200 F 
ATOM     94  C   UNL A   1      44.106  37.238  34.185  1.00  0.00     0.200 A 
ATOM     95  F   UNL A   1      44.502  38.172  32.053  1.00  0.00    -0.200 F 
ATOM     96  F   UNL A   1      44.515  38.370  34.772  1.00  0.00    -0.200 F 
ENDBRANCH  63  86
ENDBRANCH  37  38
ENDBRANCH  29  32
ENDBRANCH  27  28
ENDBRANCH  26  27
ENDBRANCH  25  26
ENDBRANCH   1  25
TORSDOF 17
ENDMDL
MODEL 3
REMARK VINA RESULT:     -11.1      1.881      7.781
REMARK SMILES COc1cccc([C@@]([NH3+])(C(=O)NCCCCCCNC(=O)c2ccc(-c3c4nc(c(-c5c(F)c(F)c(F)c(F)c5F)c5ccc([nH]5)c(-c5c(F)c(F)c(F)c(F)c5F)c5nc(c(-c6c(F)c(F)c(F)c(F)c6F)c6ccc3[nH]6)C=C5)C=C4)cc2)C(F)(F)F)c1
REMARK SMILES IDX 15 1 14 2 13 3 12 4 10 5 11 6 8 8 7 9 3 10 4 11 89 12 5 13
REMARK SMILES IDX 6 14 2 15 1 16 9 17 85 21 86 22 87 23 88 24 16 25 17 26
REMARK SMILES IDX 18 27 19 28 20 29 21 31 22 32 23 33 84 34 24 35 83 36 25 37
REMARK SMILES IDX 26 38 27 39 77 40 28 41 82 42 76 43 78 44 29 45 81 46 75 47
REMARK SMILES IDX 74 48 30 50 62 51 42 52 61 53 43 54 46 55 60 56 79 57 44 58
REMARK SMILES IDX 45 59 59 61 80 62 47 63 31 64 32 65 40 66 33 67 34 68 38 69
REMARK SMILES IDX 41 70 35 71 36 72 39 73 37 74 63 75 64 76 72 77 65 78 66 79
REMARK SMILES IDX 70 80 73 81 67 82 68 83 71 84 69 85 48 86 49 87 57 88 50 89
REMARK SMILES IDX 51 90 55 91 58 92 52 93 53 94 56 95 54 96
REMARK H PARENT 12 7 9 18 9 19 9 20 19 30 78 49 46 60
REMARK Flexibility Score: inf
ROOT
ATOM      1  C   UNL A   1      32.291  30.001  26.910  1.00  0.00     0.002 C 
ENDROOT
BRANCH   1   2
ATOM      2  C   UNL A   1      31.616  28.720  27.411  1.00  0.00     0.021 C 
BRANCH   2   3
ATOM      3  C   UNL A   1      32.357  27.444  27.006  1.00  0.00     0.116 C 
BRANCH   3   4
ATOM      4  N   UNL A   1      31.443  26.318  26.985  1.00  0.00    -0.350 N 
ATOM      5  C   UNL A   1      30.929  25.575  25.961  1.00  0.00     0.296 C 
ATOM      6  O   UNL A   1      29.990  24.840  26.291  1.00  0.00    -0.267 OA
ATOM      7  H   UNL A   1      31.137  26.038  27.877  1.00  0.00     0.163 HD
BRANCH   5   8
ATOM      8  C   UNL A   1      31.454  25.626  24.490  1.00  0.00     0.295 C 
BRANCH   8   9
ATOM      9  C   UNL A   1      31.018  26.925  23.762  1.00  0.00     0.035 A 
ATOM     10  C   UNL A   1      29.295  28.494  22.977  1.00  0.00     0.119 A 
ATOM     11  C   UNL A   1      30.275  29.297  22.400  1.00  0.00     0.046 A 
ATOM     12  C   UNL A   1      29.669  27.333  23.671  1.00  0.00     0.057 A 
ATOM     13  C   UNL A   1      31.611  28.933  22.479  1.00  0.00     0.004 A 
ATOM     14  C   UNL A   1      31.968  27.751  23.130  1.00  0.00     0.011 A 
BRANCH  10  15
ATOM     15  O   UNL A   1      28.018  28.940  22.777  1.00  0.00    -0.497 OA
ATOM     16  C   UNL A   1      27.855  30.176  22.093  1.00  0.00     0.278 C 
ENDBRANCH  10  15
ENDBRANCH   8   9
BRANCH   8  17
ATOM     17  N   UNL A   1      32.975  25.531  24.482  1.00  0.00    -0.333 N 
ATOM     18  H   UNL A   1      33.362  26.309  23.949  1.00  0.00     0.345 HD
ATOM     19  H   UNL A   1      33.258  24.649  24.053  1.00  0.00     0.345 HD
ATOM     20  H   UNL A   1      33.322  25.569  25.440  1.00  0.00     0.345 HD
ENDBRANCH   8  17
BRANCH   8  21
ATOM     21  C   UNL A   1      30.873  24.314  23.842  1.00  0.00     0.458 C 
ATOM     22  F   UNL A   1      30.668  23.283  24.684  1.00  0.00    -0.164 F 
ATOM     23  F   UNL A   1      29.672  24.583  23.254  1.00  0.00    -0.164 F 
ATOM     24  F   UNL A   1      31.678  23.877  22.836  1.00  0.00    -0.164 F 
ENDBRANCH   8  21
ENDBRANCH   5   8
ENDBRANCH   3   4
ENDBRANCH   2   3
ENDBRANCH   1   2
BRANCH   1  25
ATOM     25  C   UNL A   1      31.416  30.881  26.009  1.00  0.00     0.002 C 
BRANCH  25  26
ATOM     26  C   UNL A   1      31.315  32.350  26.431  1.00  0.00     0.021 C 
BRANCH  26  27
ATOM     27  C   UNL A   1      32.485  32.846  27.274  1.00  0.00     0.116 C 
BRANCH  27  28
ATOM     28  N   UNL A   1      32.344  34.253  27.616  1.00  0.00    -0.352 N 
ATOM     29  C   UNL A   1      32.968  34.979  28.598  1.00  0.00     0.251 C 
ATOM     30  H   UNL A   1      31.706  34.758  27.061  1.00  0.00     0.163 HD
ATOM     31  O   UNL A   1      32.558  36.095  28.897  1.00  0.00    -0.269 OA
BRANCH  29  32
ATOM     32  C   UNL A   1      34.135  34.411  29.304  1.00  0.00     0.039 A 
ATOM     33  C   UNL A   1      33.941  33.783  30.536  1.00  0.00     0.014 A 
ATOM     34  C   UNL A   1      35.422  34.527  28.768  1.00  0.00     0.014 A 
ATOM     35  C   UNL A   1      35.029  33.221  31.206  1.00  0.00     0.010 A 
ATOM     36  C   UNL A   1      36.494  33.909  29.404  1.00  0.00     0.010 A 
ATOM     37  C   UNL A   1      36.310  33.256  30.632  1.00  0.00    -0.014 A 
BRANCH  37  38
ATOM     38  C   UNL A   1      37.472  32.622  31.305  1.00  0.00     0.031 A 
ATOM     39  C   UNL A   1      38.207  31.493  30.639  1.00  0.00     0.074 A 
ATOM     40  C   UNL A   1      37.824  33.022  32.542  1.00  0.00     0.049 A 
ATOM     41  N   UNL A   1      39.195  30.763  31.094  1.00  0.00    -0.248 NA
ATOM     42  C   UNL A   1      37.752  31.114  29.292  1.00  0.00     0.031 C 
ATOM     43  C   UNL A   1      37.160  34.077  33.309  1.00  0.00     0.029 A 
ATOM     44  N   UNL A   1      38.818  32.579  33.377  1.00  0.00    -0.354 N 
ATOM     45  C   UNL A   1      39.468  29.835  30.099  1.00  0.00     0.074 A 
ATOM     46  C   UNL A   1      38.510  30.057  29.037  1.00  0.00     0.031 C 
ATOM     47  C   UNL A   1      37.777  34.213  34.494  1.00  0.00     0.029 A 
ATOM     48  C   UNL A   1      38.853  33.232  34.585  1.00  0.00     0.049 A 
ATOM     49  H   UNL A   1      39.447  31.862  33.133  1.00  0.00     0.167 HD
ATOM     50  C   UNL A   1      40.444  28.897  30.064  1.00  0.00     0.037 A 
ATOM     51  C   UNL A   1      39.660  33.053  35.648  1.00  0.00     0.037 A 
ATOM     52  C   UNL A   1      41.412  28.697  31.111  1.00  0.00     0.049 A 
ATOM     53  C   UNL A   1      40.735  32.001  35.585  1.00  0.00     0.074 A 
ATOM     54  C   UNL A   1      42.476  27.814  31.147  1.00  0.00     0.029 A 
ATOM     55  N   UNL A   1      41.429  29.392  32.313  1.00  0.00    -0.354 N 
ATOM     56  N   UNL A   1      41.028  31.173  34.612  1.00  0.00    -0.248 NA
ATOM     57  C   UNL A   1      41.597  31.864  36.768  1.00  0.00     0.031 C 
ATOM     58  C   UNL A   1      43.112  27.943  32.387  1.00  0.00     0.029 A 
ATOM     59  C   UNL A   1      42.474  28.942  33.104  1.00  0.00     0.049 A 
ATOM     60  H   UNL A   1      40.792  30.100  32.565  1.00  0.00     0.167 HD
ATOM     61  C   UNL A   1      42.121  30.439  35.050  1.00  0.00     0.074 A 
ATOM     62  C   UNL A   1      42.450  30.930  36.373  1.00  0.00     0.031 C 
ATOM     63  C   UNL A   1      42.792  29.448  34.415  1.00  0.00     0.037 A 
BRANCH  50  64
ATOM     64  C   UNL A   1      40.519  28.015  28.852  1.00  0.00     0.064 A 
ATOM     65  C   UNL A   1      39.822  26.799  28.782  1.00  0.00     0.173 A 
ATOM     66  C   UNL A   1      41.266  28.408  27.731  1.00  0.00     0.173 A 
ATOM     67  F   UNL A   1      39.103  26.373  29.830  1.00  0.00    -0.203 F 
ATOM     68  C   UNL A   1      39.894  25.996  27.646  1.00  0.00     0.198 A 
ATOM     69  C   UNL A   1      41.310  27.616  26.585  1.00  0.00     0.198 A 
ATOM     70  F   UNL A   1      41.947  29.564  27.741  1.00  0.00    -0.203 F 
ATOM     71  F   UNL A   1      39.258  24.816  27.621  1.00  0.00    -0.200 F 
ATOM     72  C   UNL A   1      40.630  26.408  26.547  1.00  0.00     0.200 A 
ATOM     73  F   UNL A   1      42.012  28.023  25.518  1.00  0.00    -0.200 F 
ATOM     74  F   UNL A   1      40.691  25.638  25.452  1.00  0.00    -0.200 F 
ENDBRANCH  50  64
BRANCH  51  75
ATOM     75  C   UNL A   1      39.498  33.905  36.855  1.00  0.00     0.064 A 
ATOM     76  C   UNL A   1      40.113  35.162  36.934  1.00  0.00     0.173 A 
ATOM     77  C   UNL A   1      38.733  33.482  37.951  1.00  0.00     0.173 A 
ATOM     78  F   UNL A   1      40.871  35.601  35.918  1.00  0.00    -0.203 F 
ATOM     79  C   UNL A   1      39.986  35.955  38.072  1.00  0.00     0.198 A 
ATOM     80  C   UNL A   1      38.583  34.289  39.078  1.00  0.00     0.198 A 
ATOM     81  F   UNL A   1      38.120  32.290  37.923  1.00  0.00    -0.203 F 
ATOM     82  F   UNL A   1      40.622  37.134  38.139  1.00  0.00    -0.200 F 
ATOM     83  C   UNL A   1      39.217  35.521  39.141  1.00  0.00     0.200 A 
ATOM     84  F   UNL A   1      37.828  33.871  40.102  1.00  0.00    -0.200 F 
ATOM     85  F   UNL A   1      39.092  36.285  40.234  1.00  0.00    -0.200 F 
ENDBRANCH  51  75
BRANCH  63  86
ATOM     86  C   UNL A   1      43.972  28.851  35.125  1.00  0.00     0.064 A 
ATOM     87  C   UNL A   1      45.267  29.361  34.959  1.00  0.00     0.173 A 
ATOM     88  C   UNL A   1      43.795  27.780  36.015  1.00  0.00     0.173 A 
ATOM     89  F   UNL A   1      45.490  30.375  34.107  1.00  0.00    -0.203 F 
ATOM     90  C   UNL A   1      46.348  28.804  35.637  1.00  0.00     0.198 A 
ATOM     91  C   UNL A   1      44.873  27.245  36.715  1.00  0.00     0.198 A 
ATOM     92  F   UNL A   1      42.576  27.260  36.214  1.00  0.00    -0.203 F 
ATOM     93  F   UNL A   1      47.584  29.276  35.427  1.00  0.00    -0.200 F 
ATOM     94  C   UNL A   1      46.149  27.753  36.520  1.00  0.00     0.200 A 
ATOM     95  F   UNL A   1      44.678  26.238  37.576  1.00  0.00    -0.200 F 
ATOM     96  F   UNL A   1      47.189  27.222  37.178  1.00  0.00    -0.200 F 
ENDBRANCH  63  86
ENDBRANCH  37  38
ENDBRANCH  29  32
ENDBRANCH  27  28
ENDBRANCH  26  27
ENDBRANCH  25  26
ENDBRANCH   1  25
TORSDOF 17
ENDMDL
