MODEL 1
REMARK VINA RESULT:      -9.7      0.000      0.000
REMARK SMILES CCN(Cc1ccc(Br)s1)C(=O)C[N@@H+](C)CC(=O)NCCCCCCNC(=O)c1ccc(-c2c3nc(c(-c4c(F)c(F)c(F)c(F)c4F)c4ccc([nH]4)c(-c4c(F)c(F)c(F)c(F)c4F)c4nc(c(-c5c(F)c(F)c(F)c(F)c5F)c5ccc2[nH]5)C=C4)C=C3)cc1
REMARK SMILES IDX 20 1 19 2 17 3 18 4 16 6 14 7 15 8 13 10 11 11 12 12 3 13
REMARK SMILES IDX 2 14 1 15 4 16 5 17 6 18 10 19 7 20 8 21 9 22 21 23 22 24
REMARK SMILES IDX 23 25 24 26 25 27 26 28 27 29 28 31 29 32 30 33 91 34 31 35
REMARK SMILES IDX 90 36 32 37 33 38 34 39 84 40 35 41 89 42 83 43 85 44 36 45
REMARK SMILES IDX 88 46 82 47 81 48 37 50 69 51 49 52 68 53 50 54 53 55 67 56
REMARK SMILES IDX 86 57 51 58 52 59 66 61 87 62 54 63 38 64 39 65 47 66 40 67
REMARK SMILES IDX 41 68 45 69 48 70 42 71 43 72 46 73 44 74 70 75 71 76 79 77
REMARK SMILES IDX 72 78 73 79 77 80 80 81 74 82 75 83 78 84 76 85 55 86 56 87
REMARK SMILES IDX 64 88 57 89 58 90 62 91 65 92 59 93 60 94 63 95 61 96
REMARK H PARENT 19 5 14 9 26 30 85 49 53 60
REMARK Flexibility Score: inf
ROOT
ATOM      1  C   UNL A   1      39.593  22.429  26.460  1.00  0.00     0.116 C 
ENDROOT
BRANCH   1   2
ATOM      2  N   UNL A   1      38.725  21.465  25.825  1.00  0.00    -0.351 N 
ATOM      3  C   UNL A   1      37.534  21.642  25.189  1.00  0.00     0.275 C 
ATOM      4  O   UNL A   1      36.920  20.626  24.857  1.00  0.00    -0.269 OA
ATOM      5  H   UNL A   1      39.044  20.534  25.858  1.00  0.00     0.163 HD
BRANCH   3   6
ATOM      6  C   UNL A   1      37.011  23.040  24.836  1.00  0.00     0.363 C 
BRANCH   6   7
ATOM      7  N   UNL A   1      35.627  23.357  25.238  1.00  0.00    -0.322 N 
ATOM      8  C   UNL A   1      35.248  22.903  26.560  1.00  0.00     0.333 C 
ATOM      9  H   UNL A   1      35.661  24.375  25.296  1.00  0.00     0.348 HD
BRANCH   7  10
ATOM     10  C   UNL A   1      34.594  23.052  24.232  1.00  0.00     0.363 C 
BRANCH  10  11
ATOM     11  C   UNL A   1      33.907  24.315  23.698  1.00  0.00     0.278 C 
ATOM     12  O   UNL A   1      34.362  24.877  22.696  1.00  0.00    -0.268 OA
BRANCH  11  13
ATOM     13  N   UNL A   1      32.743  24.779  24.316  1.00  0.00    -0.333 N 
BRANCH  13  14
ATOM     14  C   UNL A   1      32.861  25.271  25.685  1.00  0.00     0.116 C 
ATOM     15  C   UNL A   1      33.660  26.567  25.752  1.00  0.00     0.027 C 
ENDBRANCH  13  14
BRANCH  13  16
ATOM     16  C   UNL A   1      31.404  24.755  23.717  1.00  0.00     0.166 C 
BRANCH  16  17
ATOM     17  C   UNL A   1      30.951  26.146  23.365  1.00  0.00     0.025 A 
ATOM     18  C   UNL A   1      31.606  27.134  22.649  1.00  0.00     0.018 A 
ATOM     19  S   UNL A   1      29.400  26.691  23.873  1.00  0.00    -0.131 S 
ATOM     20  C   UNL A   1      30.771  28.263  22.387  1.00  0.00     0.028 A 
ATOM     21  C   UNL A   1      29.534  28.105  22.956  1.00  0.00     0.070 A 
ATOM     22  Br  UNL A   1      28.131  29.327  22.747  1.00  0.00    -0.039 Br
ENDBRANCH  16  17
ENDBRANCH  13  16
ENDBRANCH  11  13
ENDBRANCH  10  11
ENDBRANCH   7  10
ENDBRANCH   6   7
ENDBRANCH   3   6
ENDBRANCH   1   2
BRANCH   1  23
ATOM     23  C   UNL A   1      41.058  22.086  26.174  1.00  0.00     0.021 C 
BRANCH  23  24
ATOM     24  C   UNL A   1      41.813  21.506  27.372  1.00  0.00     0.002 C 
BRANCH  24  25
ATOM     25  C   UNL A   1      41.572  20.016  27.626  1.00  0.00     0.002 C 
BRANCH  25  26
ATOM     26  C   UNL A   1      42.531  19.067  26.901  1.00  0.00     0.021 C 
BRANCH  26  27
ATOM     27  C   UNL A   1      42.474  19.138  25.376  1.00  0.00     0.116 C 
BRANCH  27  28
ATOM     28  N   UNL A   1      43.727  18.729  24.764  1.00  0.00    -0.352 N 
ATOM     29  C   UNL A   1      44.803  19.489  24.383  1.00  0.00     0.251 C 
ATOM     30  H   UNL A   1      43.818  17.762  24.599  1.00  0.00     0.163 HD
ATOM     31  O   UNL A   1      45.689  19.004  23.689  1.00  0.00    -0.269 OA
BRANCH  29  32
ATOM     32  C   UNL A   1      44.891  20.903  24.802  1.00  0.00     0.039 A 
ATOM     33  C   UNL A   1      45.298  21.197  26.108  1.00  0.00     0.014 A 
ATOM     34  C   UNL A   1      44.548  21.935  23.925  1.00  0.00     0.014 A 
ATOM     35  C   UNL A   1      45.410  22.528  26.515  1.00  0.00     0.010 A 
ATOM     36  C   UNL A   1      44.720  23.261  24.311  1.00  0.00     0.010 A 
ATOM     37  C   UNL A   1      45.149  23.571  25.612  1.00  0.00    -0.014 A 
BRANCH  37  38
ATOM     38  C   UNL A   1      45.310  24.992  26.010  1.00  0.00     0.031 A 
ATOM     39  C   UNL A   1      46.662  25.645  25.938  1.00  0.00     0.074 A 
ATOM     40  C   UNL A   1      44.255  25.668  26.502  1.00  0.00     0.049 A 
ATOM     41  N   UNL A   1      47.022  26.846  26.314  1.00  0.00    -0.248 NA
ATOM     42  C   UNL A   1      47.762  24.832  25.396  1.00  0.00     0.031 C 
ATOM     43  C   UNL A   1      42.904  25.129  26.665  1.00  0.00     0.029 A 
ATOM     44  N   UNL A   1      44.157  26.955  26.972  1.00  0.00    -0.354 N 
ATOM     45  C   UNL A   1      48.388  26.923  26.079  1.00  0.00     0.074 A 
ATOM     46  C   UNL A   1      48.803  25.637  25.563  1.00  0.00     0.031 C 
ATOM     47  C   UNL A   1      42.110  26.079  27.183  1.00  0.00     0.029 A 
ATOM     48  C   UNL A   1      42.901  27.282  27.421  1.00  0.00     0.049 A 
ATOM     49  H   UNL A   1      44.915  27.583  26.986  1.00  0.00     0.167 HD
ATOM     50  C   UNL A   1      49.217  27.978  26.260  1.00  0.00     0.037 A 
ATOM     51  C   UNL A   1      42.443  28.424  27.971  1.00  0.00     0.037 A 
ATOM     52  C   UNL A   1      48.792  29.271  26.730  1.00  0.00     0.049 A 
ATOM     53  C   UNL A   1      43.386  29.584  28.148  1.00  0.00     0.074 A 
ATOM     54  C   UNL A   1      49.538  30.429  26.860  1.00  0.00     0.029 A 
ATOM     55  N   UNL A   1      47.505  29.575  27.148  1.00  0.00    -0.354 N 
ATOM     56  N   UNL A   1      44.657  29.671  27.843  1.00  0.00    -0.248 NA
ATOM     57  C   UNL A   1      42.826  30.807  28.741  1.00  0.00     0.031 C 
ATOM     58  C   UNL A   1      48.714  31.422  27.399  1.00  0.00     0.029 A 
ATOM     59  C   UNL A   1      47.443  30.895  27.562  1.00  0.00     0.049 A 
ATOM     60  H   UNL A   1      46.749  28.945  27.150  1.00  0.00     0.167 HD
ATOM     61  C   UNL A   1      45.042  30.962  28.175  1.00  0.00     0.074 A 
ATOM     62  C   UNL A   1      43.866  31.628  28.695  1.00  0.00     0.031 C 
ATOM     63  C   UNL A   1      46.260  31.546  28.061  1.00  0.00     0.037 A 
BRANCH  50  64
ATOM     64  C   UNL A   1      50.672  27.787  25.948  1.00  0.00     0.064 A 
ATOM     65  C   UNL A   1      51.174  27.942  24.647  1.00  0.00     0.173 A 
ATOM     66  C   UNL A   1      51.585  27.502  26.975  1.00  0.00     0.173 A 
ATOM     67  F   UNL A   1      50.341  28.206  23.629  1.00  0.00    -0.203 F 
ATOM     68  C   UNL A   1      52.533  27.797  24.382  1.00  0.00     0.198 A 
ATOM     69  C   UNL A   1      52.948  27.385  26.710  1.00  0.00     0.198 A 
ATOM     70  F   UNL A   1      51.158  27.350  28.237  1.00  0.00    -0.203 F 
ATOM     71  F   UNL A   1      52.985  27.911  23.126  1.00  0.00    -0.200 F 
ATOM     72  C   UNL A   1      53.420  27.527  25.414  1.00  0.00     0.200 A 
ATOM     73  F   UNL A   1      53.803  27.137  27.711  1.00  0.00    -0.200 F 
ATOM     74  F   UNL A   1      54.729  27.400  25.159  1.00  0.00    -0.200 F 
ENDBRANCH  50  64
BRANCH  51  75
ATOM     75  C   UNL A   1      41.018  28.537  28.379  1.00  0.00     0.064 A 
ATOM     76  C   UNL A   1      40.046  28.987  27.475  1.00  0.00     0.173 A 
ATOM     77  C   UNL A   1      40.603  28.220  29.680  1.00  0.00     0.173 A 
ATOM     78  F   UNL A   1      40.399  29.322  26.225  1.00  0.00    -0.203 F 
ATOM     79  C   UNL A   1      38.717  29.141  27.864  1.00  0.00     0.198 A 
ATOM     80  C   UNL A   1      39.269  28.348  30.060  1.00  0.00     0.198 A 
ATOM     81  F   UNL A   1      41.494  27.781  30.582  1.00  0.00    -0.203 F 
ATOM     82  F   UNL A   1      37.819  29.622  26.994  1.00  0.00    -0.200 F 
ATOM     83  C   UNL A   1      38.329  28.818  29.155  1.00  0.00     0.200 A 
ATOM     84  F   UNL A   1      38.894  28.022  31.305  1.00  0.00    -0.200 F 
ATOM     85  F   UNL A   1      37.051  28.967  29.529  1.00  0.00    -0.200 F 
ENDBRANCH  51  75
BRANCH  63  86
ATOM     86  C   UNL A   1      46.374  32.986  28.467  1.00  0.00     0.064 A 
ATOM     87  C   UNL A   1      46.675  33.356  29.785  1.00  0.00     0.173 A 
ATOM     88  C   UNL A   1      46.221  34.005  27.514  1.00  0.00     0.173 A 
ATOM     89  F   UNL A   1      46.814  32.419  30.735  1.00  0.00    -0.203 F 
ATOM     90  C   UNL A   1      46.796  34.697  30.140  1.00  0.00     0.198 A 
ATOM     91  C   UNL A   1      46.371  35.343  27.867  1.00  0.00     0.198 A 
ATOM     92  F   UNL A   1      45.939  33.701  26.239  1.00  0.00    -0.203 F 
ATOM     93  F   UNL A   1      47.039  35.031  31.415  1.00  0.00    -0.200 F 
ATOM     94  C   UNL A   1      46.652  35.687  29.180  1.00  0.00     0.200 A 
ATOM     95  F   UNL A   1      46.243  36.298  26.936  1.00  0.00    -0.200 F 
ATOM     96  F   UNL A   1      46.776  36.977  29.522  1.00  0.00    -0.200 F 
ENDBRANCH  63  86
ENDBRANCH  37  38
ENDBRANCH  29  32
ENDBRANCH  27  28
ENDBRANCH  26  27
ENDBRANCH  25  26
ENDBRANCH  24  25
ENDBRANCH  23  24
ENDBRANCH   1  23
TORSDOF 20
ENDMDL
MODEL 2
REMARK VINA RESULT:      -9.7      1.145      2.292
REMARK SMILES CCN(Cc1ccc(Br)s1)C(=O)C[N@@H+](C)CC(=O)NCCCCCCNC(=O)c1ccc(-c2c3nc(c(-c4c(F)c(F)c(F)c(F)c4F)c4ccc([nH]4)c(-c4c(F)c(F)c(F)c(F)c4F)c4nc(c(-c5c(F)c(F)c(F)c(F)c5F)c5ccc2[nH]5)C=C4)C=C3)cc1
REMARK SMILES IDX 20 1 19 2 17 3 18 4 16 6 14 7 15 8 13 10 11 11 12 12 3 13
REMARK SMILES IDX 2 14 1 15 4 16 5 17 6 18 10 19 7 20 8 21 9 22 21 23 22 24
REMARK SMILES IDX 23 25 24 26 25 27 26 28 27 29 28 31 29 32 30 33 91 34 31 35
REMARK SMILES IDX 90 36 32 37 33 38 34 39 84 40 35 41 89 42 83 43 85 44 36 45
REMARK SMILES IDX 88 46 82 47 81 48 37 50 69 51 49 52 68 53 50 54 53 55 67 56
REMARK SMILES IDX 86 57 51 58 52 59 66 61 87 62 54 63 38 64 39 65 47 66 40 67
REMARK SMILES IDX 41 68 45 69 48 70 42 71 43 72 46 73 44 74 70 75 71 76 79 77
REMARK SMILES IDX 72 78 73 79 77 80 80 81 74 82 75 83 78 84 76 85 55 86 56 87
REMARK SMILES IDX 64 88 57 89 58 90 62 91 65 92 59 93 60 94 63 95 61 96
REMARK H PARENT 19 5 14 9 26 30 85 49 53 60
REMARK Flexibility Score: inf
ROOT
ATOM      1  C   UNL A   1      38.592  21.877  26.160  1.00  0.00     0.116 C 
ENDROOT
BRANCH   1   2
ATOM      2  N   UNL A   1      38.033  22.404  24.937  1.00  0.00    -0.351 N 
ATOM      3  C   UNL A   1      36.736  22.642  24.596  1.00  0.00     0.275 C 
ATOM      4  O   UNL A   1      36.514  22.963  23.426  1.00  0.00    -0.269 OA
ATOM      5  H   UNL A   1      38.693  22.627  24.240  1.00  0.00     0.163 HD
BRANCH   3   6
ATOM      6  C   UNL A   1      35.607  22.582  25.632  1.00  0.00     0.363 C 
BRANCH   6   7
ATOM      7  N   UNL A   1      35.131  21.242  26.027  1.00  0.00    -0.322 N 
ATOM      8  C   UNL A   1      35.222  20.226  24.998  1.00  0.00     0.333 C 
ATOM      9  H   UNL A   1      35.820  20.981  26.733  1.00  0.00     0.348 HD
BRANCH   7  10
ATOM     10  C   UNL A   1      33.828  21.215  26.715  1.00  0.00     0.363 C 
BRANCH  10  11
ATOM     11  C   UNL A   1      32.650  21.355  25.742  1.00  0.00     0.278 C 
ATOM     12  O   UNL A   1      32.204  20.348  25.181  1.00  0.00    -0.268 OA
BRANCH  11  13
ATOM     13  N   UNL A   1      32.062  22.606  25.549  1.00  0.00    -0.333 N 
BRANCH  13  14
ATOM     14  C   UNL A   1      31.688  22.967  24.184  1.00  0.00     0.116 C 
ATOM     15  C   UNL A   1      32.856  22.809  23.219  1.00  0.00     0.027 C 
ENDBRANCH  13  14
BRANCH  13  16
ATOM     16  C   UNL A   1      31.845  23.607  26.599  1.00  0.00     0.166 C 
BRANCH  16  17
ATOM     17  C   UNL A   1      32.255  24.975  26.124  1.00  0.00     0.025 A 
ATOM     18  C   UNL A   1      33.509  25.454  25.783  1.00  0.00     0.018 A 
ATOM     19  S   UNL A   1      31.064  26.203  25.936  1.00  0.00    -0.131 S 
ATOM     20  C   UNL A   1      33.458  26.766  25.219  1.00  0.00     0.028 A 
ATOM     21  C   UNL A   1      32.175  27.246  25.202  1.00  0.00     0.070 A 
ATOM     22  Br  UNL A   1      31.691  28.890  24.446  1.00  0.00    -0.039 Br
ENDBRANCH  16  17
ENDBRANCH  13  16
ENDBRANCH  11  13
ENDBRANCH  10  11
ENDBRANCH   7  10
ENDBRANCH   6   7
ENDBRANCH   3   6
ENDBRANCH   1   2
BRANCH   1  23
ATOM     23  C   UNL A   1      39.760  22.751  26.624  1.00  0.00     0.021 C 
BRANCH  23  24
ATOM     24  C   UNL A   1      41.112  22.035  26.639  1.00  0.00     0.002 C 
BRANCH  24  25
ATOM     25  C   UNL A   1      41.236  20.912  27.672  1.00  0.00     0.002 C 
BRANCH  25  26
ATOM     26  C   UNL A   1      41.916  19.635  27.171  1.00  0.00     0.021 C 
BRANCH  26  27
ATOM     27  C   UNL A   1      41.864  19.430  25.658  1.00  0.00     0.116 C 
BRANCH  27  28
ATOM     28  N   UNL A   1      43.090  18.843  25.145  1.00  0.00    -0.352 N 
ATOM     29  C   UNL A   1      44.266  19.451  24.786  1.00  0.00     0.251 C 
ATOM     30  H   UNL A   1      43.076  17.864  25.040  1.00  0.00     0.163 HD
ATOM     31  O   UNL A   1      45.124  18.826  24.173  1.00  0.00    -0.269 OA
BRANCH  29  32
ATOM     32  C   UNL A   1      44.497  20.869  25.130  1.00  0.00     0.039 A 
ATOM     33  C   UNL A   1      44.060  21.859  24.245  1.00  0.00     0.014 A 
ATOM     34  C   UNL A   1      45.168  21.223  26.304  1.00  0.00     0.014 A 
ATOM     35  C   UNL A   1      44.249  23.206  24.563  1.00  0.00     0.010 A 
ATOM     36  C   UNL A   1      45.300  22.565  26.650  1.00  0.00     0.010 A 
ATOM     37  C   UNL A   1      44.846  23.570  25.781  1.00  0.00    -0.014 A 
BRANCH  37  38
ATOM     38  C   UNL A   1      45.011  24.995  26.161  1.00  0.00     0.031 A 
ATOM     39  C   UNL A   1      46.359  25.651  26.055  1.00  0.00     0.074 A 
ATOM     40  C   UNL A   1      43.964  25.674  26.667  1.00  0.00     0.049 A 
ATOM     41  N   UNL A   1      46.723  26.858  26.410  1.00  0.00    -0.248 NA
ATOM     42  C   UNL A   1      47.451  24.836  25.499  1.00  0.00     0.031 C 
ATOM     43  C   UNL A   1      42.618  25.132  26.862  1.00  0.00     0.029 A 
ATOM     44  N   UNL A   1      43.871  26.965  27.125  1.00  0.00    -0.354 N 
ATOM     45  C   UNL A   1      48.084  26.936  26.147  1.00  0.00     0.074 A 
ATOM     46  C   UNL A   1      48.492  25.645  25.637  1.00  0.00     0.031 C 
ATOM     47  C   UNL A   1      41.832  26.086  27.386  1.00  0.00     0.029 A 
ATOM     48  C   UNL A   1      42.623  27.294  27.595  1.00  0.00     0.049 A 
ATOM     49  H   UNL A   1      44.628  27.595  27.117  1.00  0.00     0.167 HD
ATOM     50  C   UNL A   1      48.913  27.995  26.300  1.00  0.00     0.037 A 
ATOM     51  C   UNL A   1      42.173  28.440  28.143  1.00  0.00     0.037 A 
ATOM     52  C   UNL A   1      48.493  29.291  26.766  1.00  0.00     0.049 A 
ATOM     53  C   UNL A   1      43.116  29.605  28.288  1.00  0.00     0.074 A 
ATOM     54  C   UNL A   1      49.239  30.453  26.868  1.00  0.00     0.029 A 
ATOM     55  N   UNL A   1      47.214  29.596  27.205  1.00  0.00    -0.354 N 
ATOM     56  N   UNL A   1      44.381  29.692  27.957  1.00  0.00    -0.248 NA
ATOM     57  C   UNL A   1      42.565  30.833  28.879  1.00  0.00     0.031 C 
ATOM     58  C   UNL A   1      48.422  31.450  27.413  1.00  0.00     0.029 A 
ATOM     59  C   UNL A   1      47.156  30.921  27.606  1.00  0.00     0.049 A 
ATOM     60  H   UNL A   1      46.460  28.964  27.229  1.00  0.00     0.167 HD
ATOM     61  C   UNL A   1      44.768  30.988  28.267  1.00  0.00     0.074 A 
ATOM     62  C   UNL A   1      43.601  31.656  28.803  1.00  0.00     0.031 C 
ATOM     63  C   UNL A   1      45.982  31.574  28.123  1.00  0.00     0.037 A 
BRANCH  50  64
ATOM     64  C   UNL A   1      50.362  27.805  25.961  1.00  0.00     0.064 A 
ATOM     65  C   UNL A   1      51.320  27.528  26.948  1.00  0.00     0.173 A 
ATOM     66  C   UNL A   1      50.788  27.843  24.625  1.00  0.00     0.173 A 
ATOM     67  F   UNL A   1      50.965  27.489  28.241  1.00  0.00    -0.203 F 
ATOM     68  C   UNL A   1      52.655  27.318  26.611  1.00  0.00     0.198 A 
ATOM     69  C   UNL A   1      52.119  27.607  24.290  1.00  0.00     0.198 A 
ATOM     70  F   UNL A   1      49.911  28.098  23.642  1.00  0.00    -0.203 F 
ATOM     71  F   UNL A   1      53.560  27.093  27.574  1.00  0.00    -0.200 F 
ATOM     72  C   UNL A   1      53.052  27.349  25.283  1.00  0.00     0.200 A 
ATOM     73  F   UNL A   1      52.497  27.624  23.004  1.00  0.00    -0.200 F 
ATOM     74  F   UNL A   1      54.334  27.135  24.959  1.00  0.00    -0.200 F 
ENDBRANCH  50  64
BRANCH  51  75
ATOM     75  C   UNL A   1      40.757  28.554  28.578  1.00  0.00     0.064 A 
ATOM     76  C   UNL A   1      39.768  29.003  27.692  1.00  0.00     0.173 A 
ATOM     77  C   UNL A   1      40.367  28.237  29.887  1.00  0.00     0.173 A 
ATOM     78  F   UNL A   1      40.096  29.338  26.436  1.00  0.00    -0.203 F 
ATOM     79  C   UNL A   1      38.446  29.158  28.107  1.00  0.00     0.198 A 
ATOM     80  C   UNL A   1      39.040  28.365  30.292  1.00  0.00     0.198 A 
ATOM     81  F   UNL A   1      41.275  27.798  30.771  1.00  0.00    -0.203 F 
ATOM     82  F   UNL A   1      37.531  29.639  27.255  1.00  0.00    -0.200 F 
ATOM     83  C   UNL A   1      38.083  28.835  29.405  1.00  0.00     0.200 A 
ATOM     84  F   UNL A   1      38.689  28.040  31.544  1.00  0.00    -0.200 F 
ATOM     85  F   UNL A   1      36.813  28.985  29.804  1.00  0.00    -0.200 F 
ENDBRANCH  51  75
BRANCH  63  86
ATOM     86  C   UNL A   1      46.099  33.018  28.511  1.00  0.00     0.064 A 
ATOM     87  C   UNL A   1      45.843  34.048  27.596  1.00  0.00     0.173 A 
ATOM     88  C   UNL A   1      46.431  33.372  29.828  1.00  0.00     0.173 A 
ATOM     89  F   UNL A   1      45.538  33.759  26.322  1.00  0.00    -0.203 F 
ATOM     90  C   UNL A   1      45.937  35.383  27.980  1.00  0.00     0.198 A 
ATOM     91  C   UNL A   1      46.496  34.708  30.214  1.00  0.00     0.198 A 
ATOM     92  F   UNL A   1      46.679  32.423  30.742  1.00  0.00    -0.203 F 
ATOM     93  F   UNL A   1      45.733  36.353  27.078  1.00  0.00    -0.200 F 
ATOM     94  C   UNL A   1      46.256  35.711  29.289  1.00  0.00     0.200 A 
ATOM     95  F   UNL A   1      46.793  35.023  31.483  1.00  0.00    -0.200 F 
ATOM     96  F   UNL A   1      46.339  36.997  29.657  1.00  0.00    -0.200 F 
ENDBRANCH  63  86
ENDBRANCH  37  38
ENDBRANCH  29  32
ENDBRANCH  27  28
ENDBRANCH  26  27
ENDBRANCH  25  26
ENDBRANCH  24  25
ENDBRANCH  23  24
ENDBRANCH   1  23
TORSDOF 20
ENDMDL
MODEL 3
REMARK VINA RESULT:      -9.4      7.046     12.498
REMARK SMILES CCN(Cc1ccc(Br)s1)C(=O)C[N@@H+](C)CC(=O)NCCCCCCNC(=O)c1ccc(-c2c3nc(c(-c4c(F)c(F)c(F)c(F)c4F)c4ccc([nH]4)c(-c4c(F)c(F)c(F)c(F)c4F)c4nc(c(-c5c(F)c(F)c(F)c(F)c5F)c5ccc2[nH]5)C=C4)C=C3)cc1
REMARK SMILES IDX 20 1 19 2 17 3 18 4 16 6 14 7 15 8 13 10 11 11 12 12 3 13
REMARK SMILES IDX 2 14 1 15 4 16 5 17 6 18 10 19 7 20 8 21 9 22 21 23 22 24
REMARK SMILES IDX 23 25 24 26 25 27 26 28 27 29 28 31 29 32 30 33 91 34 31 35
REMARK SMILES IDX 90 36 32 37 33 38 34 39 84 40 35 41 89 42 83 43 85 44 36 45
REMARK SMILES IDX 88 46 82 47 81 48 37 50 69 51 49 52 68 53 50 54 53 55 67 56
REMARK SMILES IDX 86 57 51 58 52 59 66 61 87 62 54 63 38 64 39 65 47 66 40 67
REMARK SMILES IDX 41 68 45 69 48 70 42 71 43 72 46 73 44 74 70 75 71 76 79 77
REMARK SMILES IDX 72 78 73 79 77 80 80 81 74 82 75 83 78 84 76 85 55 86 56 87
REMARK SMILES IDX 64 88 57 89 58 90 62 91 65 92 59 93 60 94 63 95 61 96
REMARK H PARENT 19 5 14 9 26 30 85 49 53 60
REMARK Flexibility Score: inf
ROOT
ATOM      1  C   UNL A   1      34.774  31.602  27.626  1.00  0.00     0.116 C 
ENDROOT
BRANCH   1   2
ATOM      2  N   UNL A   1      34.659  30.164  27.712  1.00  0.00    -0.351 N 
ATOM      3  C   UNL A   1      34.020  29.285  26.892  1.00  0.00     0.275 C 
ATOM      4  O   UNL A   1      33.952  28.113  27.272  1.00  0.00    -0.269 OA
ATOM      5  H   UNL A   1      35.113  29.757  28.485  1.00  0.00     0.163 HD
BRANCH   3   6
ATOM      6  C   UNL A   1      33.471  29.712  25.526  1.00  0.00     0.363 C 
BRANCH   6   7
ATOM      7  N   UNL A   1      32.014  29.596  25.324  1.00  0.00    -0.322 N 
ATOM      8  C   UNL A   1      31.246  30.773  25.676  1.00  0.00     0.333 C 
ATOM      9  H   UNL A   1      31.954  29.523  24.308  1.00  0.00     0.348 HD
BRANCH   7  10
ATOM     10  C   UNL A   1      31.402  28.361  25.847  1.00  0.00     0.363 C 
BRANCH  10  11
ATOM     11  C   UNL A   1      30.823  27.479  24.733  1.00  0.00     0.278 C 
ATOM     12  O   UNL A   1      30.078  26.538  25.029  1.00  0.00    -0.268 OA
BRANCH  11  13
ATOM     13  N   UNL A   1      31.098  27.786  23.399  1.00  0.00    -0.333 N 
BRANCH  13  14
ATOM     14  C   UNL A   1      29.997  28.299  22.589  1.00  0.00     0.116 C 
ATOM     15  C   UNL A   1      30.284  29.703  22.073  1.00  0.00     0.027 C 
ENDBRANCH  13  14
BRANCH  13  16
ATOM     16  C   UNL A   1      32.389  27.577  22.735  1.00  0.00     0.166 C 
BRANCH  16  17
ATOM     17  C   UNL A   1      33.046  26.316  23.229  1.00  0.00     0.025 A 
ATOM     18  C   UNL A   1      34.027  26.150  24.192  1.00  0.00     0.018 A 
ATOM     19  S   UNL A   1      32.577  24.797  22.571  1.00  0.00    -0.131 S 
ATOM     20  C   UNL A   1      34.269  24.775  24.495  1.00  0.00     0.028 A 
ATOM     21  C   UNL A   1      33.495  23.955  23.714  1.00  0.00     0.070 A 
ATOM     22  Br  UNL A   1      33.455  22.091  23.888  1.00  0.00    -0.039 Br
ENDBRANCH  16  17
ENDBRANCH  13  16
ENDBRANCH  11  13
ENDBRANCH  10  11
ENDBRANCH   7  10
ENDBRANCH   6   7
ENDBRANCH   3   6
ENDBRANCH   1   2
BRANCH   1  23
ATOM     23  C   UNL A   1      34.569  32.229  29.007  1.00  0.00     0.021 C 
BRANCH  23  24
ATOM     24  C   UNL A   1      35.246  33.590  29.186  1.00  0.00     0.002 C 
BRANCH  24  25
ATOM     25  C   UNL A   1      34.763  34.680  28.226  1.00  0.00     0.002 C 
BRANCH  25  26
ATOM     26  C   UNL A   1      33.840  35.734  28.846  1.00  0.00     0.021 C 
BRANCH  26  27
ATOM     27  C   UNL A   1      32.683  35.171  29.669  1.00  0.00     0.116 C 
BRANCH  27  28
ATOM     28  N   UNL A   1      32.359  36.018  30.804  1.00  0.00    -0.352 N 
ATOM     29  C   UNL A   1      32.853  35.992  32.083  1.00  0.00     0.251 C 
ATOM     30  H   UNL A   1      31.685  36.715  30.629  1.00  0.00     0.163 HD
ATOM     31  O   UNL A   1      32.312  36.644  32.970  1.00  0.00    -0.269 OA
BRANCH  29  32
ATOM     32  C   UNL A   1      34.038  35.167  32.399  1.00  0.00     0.039 A 
ATOM     33  C   UNL A   1      35.311  35.704  32.187  1.00  0.00     0.014 A 
ATOM     34  C   UNL A   1      33.896  33.860  32.874  1.00  0.00     0.014 A 
ATOM     35  C   UNL A   1      36.442  34.949  32.502  1.00  0.00     0.010 A 
ATOM     36  C   UNL A   1      35.022  33.132  33.246  1.00  0.00     0.010 A 
ATOM     37  C   UNL A   1      36.307  33.667  33.059  1.00  0.00    -0.014 A 
BRANCH  37  38
ATOM     38  C   UNL A   1      37.496  32.867  33.447  1.00  0.00     0.031 A 
ATOM     39  C   UNL A   1      38.209  33.156  34.738  1.00  0.00     0.074 A 
ATOM     40  C   UNL A   1      37.972  31.933  32.603  1.00  0.00     0.049 A 
ATOM     41  N   UNL A   1      39.306  32.624  35.214  1.00  0.00    -0.248 NA
ATOM     42  C   UNL A   1      37.627  34.198  35.598  1.00  0.00     0.031 C 
ATOM     43  C   UNL A   1      37.395  31.594  31.301  1.00  0.00     0.029 A 
ATOM     44  N   UNL A   1      39.063  31.104  32.708  1.00  0.00    -0.354 N 
ATOM     45  C   UNL A   1      39.559  33.283  36.410  1.00  0.00     0.074 A 
ATOM     46  C   UNL A   1      38.523  34.279  36.572  1.00  0.00     0.031 C 
ATOM     47  C   UNL A   1      38.127  30.621  30.735  1.00  0.00     0.029 A 
ATOM     48  C   UNL A   1      39.243  30.291  31.616  1.00  0.00     0.049 A 
ATOM     49  H   UNL A   1      39.659  31.095  33.491  1.00  0.00     0.167 HD
ATOM     50  C   UNL A   1      40.554  33.063  37.301  1.00  0.00     0.037 A 
ATOM     51  C   UNL A   1      40.207  29.387  31.353  1.00  0.00     0.037 A 
ATOM     52  C   UNL A   1      41.557  32.039  37.158  1.00  0.00     0.049 A 
ATOM     53  C   UNL A   1      41.293  29.155  32.369  1.00  0.00     0.074 A 
ATOM     54  C   UNL A   1      42.552  31.677  38.050  1.00  0.00     0.029 A 
ATOM     55  N   UNL A   1      41.690  31.214  36.052  1.00  0.00    -0.354 N 
ATOM     56  N   UNL A   1      41.472  29.727  33.534  1.00  0.00    -0.248 NA
ATOM     57  C   UNL A   1      42.309  28.147  32.032  1.00  0.00     0.031 C 
ATOM     58  C   UNL A   1      43.316  30.663  37.463  1.00  0.00     0.029 A 
ATOM     59  C   UNL A   1      42.769  30.363  36.227  1.00  0.00     0.049 A 
ATOM     60  H   UNL A   1      41.106  31.232  35.261  1.00  0.00     0.167 HD
ATOM     61  C   UNL A   1      42.597  29.128  34.084  1.00  0.00     0.074 A 
ATOM     62  C   UNL A   1      43.054  28.140  33.129  1.00  0.00     0.031 C 
ATOM     63  C   UNL A   1      43.200  29.374  35.273  1.00  0.00     0.037 A 
BRANCH  50  64
ATOM     64  C   UNL A   1      40.614  33.942  38.515  1.00  0.00     0.064 A 
ATOM     65  C   UNL A   1      41.374  35.121  38.536  1.00  0.00     0.173 A 
ATOM     66  C   UNL A   1      39.856  33.630  39.654  1.00  0.00     0.173 A 
ATOM     67  F   UNL A   1      42.124  35.458  37.475  1.00  0.00    -0.203 F 
ATOM     68  C   UNL A   1      41.389  35.944  39.659  1.00  0.00     0.198 A 
ATOM     69  C   UNL A   1      39.853  34.469  40.766  1.00  0.00     0.198 A 
ATOM     70  F   UNL A   1      39.107  32.517  39.684  1.00  0.00    -0.203 F 
ATOM     71  F   UNL A   1      42.153  37.045  39.670  1.00  0.00    -0.200 F 
ATOM     72  C   UNL A   1      40.623  35.622  40.769  1.00  0.00     0.200 A 
ATOM     73  F   UNL A   1      39.101  34.163  41.832  1.00  0.00    -0.200 F 
ATOM     74  F   UNL A   1      40.629  36.421  41.844  1.00  0.00    -0.200 F 
ENDBRANCH  50  64
BRANCH  51  75
ATOM     75  C   UNL A   1      40.181  28.617  30.082  1.00  0.00     0.064 A 
ATOM     76  C   UNL A   1      40.801  29.114  28.928  1.00  0.00     0.173 A 
ATOM     77  C   UNL A   1      39.523  27.382  29.989  1.00  0.00     0.173 A 
ATOM     78  F   UNL A   1      41.426  30.301  28.962  1.00  0.00    -0.203 F 
ATOM     79  C   UNL A   1      40.741  28.420  27.721  1.00  0.00     0.198 A 
ATOM     80  C   UNL A   1      39.487  26.675  28.789  1.00  0.00     0.198 A 
ATOM     81  F   UNL A   1      38.918  26.860  31.067  1.00  0.00    -0.203 F 
ATOM     82  F   UNL A   1      41.298  28.943  26.621  1.00  0.00    -0.200 F 
ATOM     83  C   UNL A   1      40.088  27.198  27.654  1.00  0.00     0.200 A 
ATOM     84  F   UNL A   1      38.866  25.489  28.731  1.00  0.00    -0.200 F 
ATOM     85  F   UNL A   1      40.029  26.532  26.494  1.00  0.00    -0.200 F 
ENDBRANCH  51  75
BRANCH  63  86
ATOM     86  C   UNL A   1      44.393  28.536  35.626  1.00  0.00     0.064 A 
ATOM     87  C   UNL A   1      45.695  28.934  35.295  1.00  0.00     0.173 A 
ATOM     88  C   UNL A   1      44.230  27.340  36.343  1.00  0.00     0.173 A 
ATOM     89  F   UNL A   1      45.900  30.061  34.597  1.00  0.00    -0.203 F 
ATOM     90  C   UNL A   1      46.792  28.153  35.649  1.00  0.00     0.198 A 
ATOM     91  C   UNL A   1      45.332  26.576  36.719  1.00  0.00     0.198 A 
ATOM     92  F   UNL A   1      43.005  26.920  36.688  1.00  0.00    -0.203 F 
ATOM     93  F   UNL A   1      48.025  28.528  35.282  1.00  0.00    -0.200 F 
ATOM     94  C   UNL A   1      46.610  26.980  36.366  1.00  0.00     0.200 A 
ATOM     95  F   UNL A   1      45.155  25.450  37.422  1.00  0.00    -0.200 F 
ATOM     96  F   UNL A   1      47.668  26.233  36.711  1.00  0.00    -0.200 F 
ENDBRANCH  63  86
ENDBRANCH  37  38
ENDBRANCH  29  32
ENDBRANCH  27  28
ENDBRANCH  26  27
ENDBRANCH  25  26
ENDBRANCH  24  25
ENDBRANCH  23  24
ENDBRANCH   1  23
TORSDOF 20
ENDMDL
