MODEL 1
REMARK VINA RESULT:     -11.3      0.000      0.000
REMARK SMILES CCC[N@@H+]1CCO[C@H](c2nc(CC(=O)NCCCCCCNC(=O)c3ccc(-c4c5nc(c(-c6c(F)c(F)c(F)c(F)c6F)c6ccc([nH]6)c(-c6c(F)c(F)c(F)c(F)c6F)c6nc(c(-c7c(F)c(F)c(F)c(F)c7F)c7ccc4[nH]7)C=C6)C=C5)cc3)cs2)C1
REMARK SMILES IDX 17 1 16 2 15 3 13 4 14 5 12 7 11 8 9 9 10 10 89 11 88 12
REMARK SMILES IDX 8 13 4 14 5 15 90 16 6 18 7 19 3 20 2 21 1 22 18 23 19 24
REMARK SMILES IDX 20 25 21 26 22 27 23 28 24 30 25 31 26 32 87 33 27 34 86 35
REMARK SMILES IDX 28 36 29 37 30 38 80 39 31 40 85 41 79 42 81 43 32 44 84 45
REMARK SMILES IDX 78 46 77 47 33 49 65 50 45 51 64 52 46 53 49 54 63 55 82 56
REMARK SMILES IDX 47 57 48 58 62 60 83 61 50 62 34 63 35 64 43 65 36 66 37 67
REMARK SMILES IDX 41 68 44 69 38 70 39 71 42 72 40 73 66 74 67 75 75 76 68 77
REMARK SMILES IDX 69 78 73 79 76 80 70 81 71 82 74 83 72 84 51 85 52 86 60 87
REMARK SMILES IDX 53 88 54 89 58 90 61 91 55 92 56 93 59 94 57 95
REMARK H PARENT 15 6 4 17 22 29 81 48 49 59
REMARK Flexibility Score: inf
ROOT
ATOM      1  C   UNL A   1      31.773  28.656  27.553  1.00  0.00     0.021 C 
ENDROOT
BRANCH   1   2
ATOM      2  C   UNL A   1      32.214  27.415  26.777  1.00  0.00     0.116 C 
BRANCH   2   3
ATOM      3  N   UNL A   1      31.061  26.637  26.370  1.00  0.00    -0.356 N 
ATOM      4  C   UNL A   1      30.665  26.328  25.101  1.00  0.00     0.226 C 
ATOM      5  O   UNL A   1      29.550  25.832  24.932  1.00  0.00    -0.275 OA
ATOM      6  H   UNL A   1      30.496  26.288  27.096  1.00  0.00     0.163 HD
BRANCH   4   7
ATOM      7  C   UNL A   1      31.618  26.554  23.949  1.00  0.00     0.157 C 
BRANCH   7   8
ATOM      8  C   UNL A   1      32.453  25.358  23.649  1.00  0.00     0.061 A 
ATOM      9  C   UNL A   1      33.967  23.800  24.194  1.00  0.00     0.128 A 
ATOM     10  N   UNL A   1      33.408  24.938  24.571  1.00  0.00    -0.243 NA
ATOM     11  S   UNL A   1      33.307  23.173  22.734  1.00  0.00    -0.124 S 
ATOM     12  C   UNL A   1      32.344  24.556  22.535  1.00  0.00     0.091 A 
BRANCH   9  13
ATOM     13  C   UNL A   1      35.053  23.103  24.999  1.00  0.00     0.232 C 
ATOM     14  N   UNL A   1      34.331  20.732  25.763  1.00  0.00    -0.331 N 
ATOM     15  C   UNL A   1      34.318  21.303  27.127  1.00  0.00     0.291 C 
ATOM     16  C   UNL A   1      35.167  21.568  24.885  1.00  0.00     0.302 C 
ATOM     17  H   UNL A   1      34.794  19.823  25.754  1.00  0.00     0.348 HD
ATOM     18  C   UNL A   1      34.186  22.836  27.220  1.00  0.00     0.222 C 
ATOM     19  O   UNL A   1      35.070  23.558  26.362  1.00  0.00    -0.359 OA
BRANCH  14  20
ATOM     20  C   UNL A   1      32.995  20.348  25.295  1.00  0.00     0.262 C 
BRANCH  20  21
ATOM     21  C   UNL A   1      32.704  18.846  25.115  1.00  0.00     0.058 C 
ATOM     22  C   UNL A   1      33.701  18.129  24.222  1.00  0.00     0.010 C 
ENDBRANCH  20  21
ENDBRANCH  14  20
ENDBRANCH   9  13
ENDBRANCH   7   8
ENDBRANCH   4   7
ENDBRANCH   2   3
ENDBRANCH   1   2
BRANCH   1  23
ATOM     23  C   UNL A   1      32.405  29.955  27.035  1.00  0.00     0.002 C 
BRANCH  23  24
ATOM     24  C   UNL A   1      31.501  30.785  26.117  1.00  0.00     0.002 C 
BRANCH  24  25
ATOM     25  C   UNL A   1      31.363  32.257  26.516  1.00  0.00     0.021 C 
BRANCH  25  26
ATOM     26  C   UNL A   1      32.576  32.816  27.251  1.00  0.00     0.116 C 
BRANCH  26  27
ATOM     27  N   UNL A   1      32.394  34.218  27.599  1.00  0.00    -0.352 N 
ATOM     28  C   UNL A   1      32.988  34.945  28.593  1.00  0.00     0.251 C 
ATOM     29  H   UNL A   1      31.751  34.712  27.040  1.00  0.00     0.163 HD
ATOM     30  O   UNL A   1      32.550  36.057  28.897  1.00  0.00    -0.269 OA
BRANCH  28  31
ATOM     31  C   UNL A   1      34.151  34.393  29.314  1.00  0.00     0.039 A 
ATOM     32  C   UNL A   1      33.943  33.697  30.507  1.00  0.00     0.014 A 
ATOM     33  C   UNL A   1      35.446  34.574  28.818  1.00  0.00     0.014 A 
ATOM     34  C   UNL A   1      35.032  33.137  31.178  1.00  0.00     0.010 A 
ATOM     35  C   UNL A   1      36.520  33.954  29.448  1.00  0.00     0.010 A 
ATOM     36  C   UNL A   1      36.324  33.236  30.636  1.00  0.00    -0.014 A 
BRANCH  36  37
ATOM     37  C   UNL A   1      37.486  32.600  31.305  1.00  0.00     0.031 A 
ATOM     38  C   UNL A   1      38.223  31.478  30.630  1.00  0.00     0.074 A 
ATOM     39  C   UNL A   1      37.837  32.994  32.544  1.00  0.00     0.049 A 
ATOM     40  N   UNL A   1      39.216  30.751  31.077  1.00  0.00    -0.248 NA
ATOM     41  C   UNL A   1      37.766  31.103  29.282  1.00  0.00     0.031 C 
ATOM     42  C   UNL A   1      37.171  34.042  33.318  1.00  0.00     0.029 A 
ATOM     43  N   UNL A   1      38.836  32.550  33.374  1.00  0.00    -0.354 N 
ATOM     44  C   UNL A   1      39.491  29.831  30.075  1.00  0.00     0.074 A 
ATOM     45  C   UNL A   1      38.527  30.052  29.020  1.00  0.00     0.031 C 
ATOM     46  C   UNL A   1      37.793  34.178  34.499  1.00  0.00     0.029 A 
ATOM     47  C   UNL A   1      38.874  33.202  34.583  1.00  0.00     0.049 A 
ATOM     48  H   UNL A   1      39.464  31.835  33.128  1.00  0.00     0.167 HD
ATOM     49  C   UNL A   1      40.476  28.902  30.029  1.00  0.00     0.037 A 
ATOM     50  C   UNL A   1      39.687  33.023  35.641  1.00  0.00     0.037 A 
ATOM     51  C   UNL A   1      41.447  28.701  31.073  1.00  0.00     0.049 A 
ATOM     52  C   UNL A   1      40.764  31.975  35.570  1.00  0.00     0.074 A 
ATOM     53  C   UNL A   1      42.516  27.823  31.101  1.00  0.00     0.029 A 
ATOM     54  N   UNL A   1      41.462  29.388  32.278  1.00  0.00    -0.354 N 
ATOM     55  N   UNL A   1      41.057  31.154  34.591  1.00  0.00    -0.248 NA
ATOM     56  C   UNL A   1      41.627  31.833  36.751  1.00  0.00     0.031 C 
ATOM     57  C   UNL A   1      43.150  27.945  32.341  1.00  0.00     0.029 A 
ATOM     58  C   UNL A   1      42.510  28.937  33.066  1.00  0.00     0.049 A 
ATOM     59  H   UNL A   1      40.823  30.091  32.537  1.00  0.00     0.167 HD
ATOM     60  C   UNL A   1      42.155  30.422  35.022  1.00  0.00     0.074 A 
ATOM     61  C   UNL A   1      42.484  30.906  36.347  1.00  0.00     0.031 C 
ATOM     62  C   UNL A   1      42.830  29.437  34.379  1.00  0.00     0.037 A 
BRANCH  49  63
ATOM     63  C   UNL A   1      40.555  28.034  28.806  1.00  0.00     0.064 A 
ATOM     64  C   UNL A   1      39.855  26.820  28.718  1.00  0.00     0.173 A 
ATOM     65  C   UNL A   1      41.312  28.435  27.695  1.00  0.00     0.173 A 
ATOM     66  F   UNL A   1      39.127  26.384  29.757  1.00  0.00    -0.203 F 
ATOM     67  C   UNL A   1      39.935  26.028  27.577  1.00  0.00     0.198 A 
ATOM     68  C   UNL A   1      41.362  27.655  26.542  1.00  0.00     0.198 A 
ATOM     69  F   UNL A   1      41.996  29.589  27.722  1.00  0.00    -0.203 F 
ATOM     70  F   UNL A   1      39.297  24.849  27.536  1.00  0.00    -0.200 F 
ATOM     71  C   UNL A   1      40.680  26.449  26.487  1.00  0.00     0.200 A 
ATOM     72  F   UNL A   1      42.073  28.070  25.485  1.00  0.00    -0.200 F 
ATOM     73  F   UNL A   1      40.750  25.689  25.386  1.00  0.00    -0.200 F 
ENDBRANCH  49  63
BRANCH  50  74
ATOM     74  C   UNL A   1      39.531  33.875  36.850  1.00  0.00     0.064 A 
ATOM     75  C   UNL A   1      40.131  35.140  36.919  1.00  0.00     0.173 A 
ATOM     76  C   UNL A   1      38.787  33.444  37.957  1.00  0.00     0.173 A 
ATOM     77  F   UNL A   1      40.869  35.587  35.892  1.00  0.00    -0.203 F 
ATOM     78  C   UNL A   1      40.011  35.933  38.059  1.00  0.00     0.198 A 
ATOM     79  C   UNL A   1      38.643  34.249  39.085  1.00  0.00     0.198 A 
ATOM     80  F   UNL A   1      38.188  32.244  37.939  1.00  0.00    -0.203 F 
ATOM     81  F   UNL A   1      40.634  37.117  38.117  1.00  0.00    -0.200 F 
ATOM     82  C   UNL A   1      39.263  35.489  39.138  1.00  0.00     0.200 A 
ATOM     83  F   UNL A   1      37.905  33.824  40.121  1.00  0.00    -0.200 F 
ATOM     84  F   UNL A   1      39.145  36.253  40.233  1.00  0.00    -0.200 F 
ENDBRANCH  50  74
BRANCH  62  85
ATOM     85  C   UNL A   1      44.015  28.843  35.083  1.00  0.00     0.064 A 
ATOM     86  C   UNL A   1      43.894  27.719  35.913  1.00  0.00     0.173 A 
ATOM     87  C   UNL A   1      45.296  29.385  34.891  1.00  0.00     0.173 A 
ATOM     88  F   UNL A   1      42.689  27.175  36.140  1.00  0.00    -0.203 F 
ATOM     89  C   UNL A   1      45.008  27.175  36.546  1.00  0.00     0.198 A 
ATOM     90  C   UNL A   1      46.411  28.817  35.500  1.00  0.00     0.198 A 
ATOM     91  F   UNL A   1      45.467  30.455  34.101  1.00  0.00    -0.203 F 
ATOM     92  F   UNL A   1      44.862  26.132  37.374  1.00  0.00    -0.200 F 
ATOM     93  C   UNL A   1      46.266  27.719  36.333  1.00  0.00     0.200 A 
ATOM     94  F   UNL A   1      47.628  29.336  35.282  1.00  0.00    -0.200 F 
ATOM     95  F   UNL A   1      47.338  27.188  36.938  1.00  0.00    -0.200 F 
ENDBRANCH  62  85
ENDBRANCH  36  37
ENDBRANCH  28  31
ENDBRANCH  26  27
ENDBRANCH  25  26
ENDBRANCH  24  25
ENDBRANCH  23  24
ENDBRANCH   1  23
TORSDOF 17
ENDMDL
MODEL 2
REMARK VINA RESULT:     -11.3      1.113      7.495
REMARK SMILES CCC[N@@H+]1CCO[C@H](c2nc(CC(=O)NCCCCCCNC(=O)c3ccc(-c4c5nc(c(-c6c(F)c(F)c(F)c(F)c6F)c6ccc([nH]6)c(-c6c(F)c(F)c(F)c(F)c6F)c6nc(c(-c7c(F)c(F)c(F)c(F)c7F)c7ccc4[nH]7)C=C6)C=C5)cc3)cs2)C1
REMARK SMILES IDX 17 1 16 2 15 3 13 4 14 5 12 7 11 8 9 9 10 10 89 11 88 12
REMARK SMILES IDX 8 13 4 14 5 15 90 16 6 18 7 19 3 20 2 21 1 22 18 23 19 24
REMARK SMILES IDX 20 25 21 26 22 27 23 28 24 30 25 31 26 32 87 33 27 34 86 35
REMARK SMILES IDX 28 36 29 37 30 38 80 39 31 40 85 41 79 42 81 43 32 44 84 45
REMARK SMILES IDX 78 46 77 47 33 49 65 50 45 51 64 52 46 53 49 54 63 55 82 56
REMARK SMILES IDX 47 57 48 58 62 60 83 61 50 62 34 63 35 64 43 65 36 66 37 67
REMARK SMILES IDX 41 68 44 69 38 70 39 71 42 72 40 73 66 74 67 75 75 76 68 77
REMARK SMILES IDX 69 78 73 79 76 80 70 81 71 82 74 83 72 84 51 85 52 86 60 87
REMARK SMILES IDX 53 88 54 89 58 90 61 91 55 92 56 93 59 94 57 95
REMARK H PARENT 15 6 4 17 22 29 81 48 49 59
REMARK Flexibility Score: inf
ROOT
ATOM      1  C   UNL A   1      31.910  28.692  27.329  1.00  0.00     0.021 C 
ENDROOT
BRANCH   1   2
ATOM      2  C   UNL A   1      32.141  27.579  26.306  1.00  0.00     0.116 C 
BRANCH   2   3
ATOM      3  N   UNL A   1      31.318  26.427  26.616  1.00  0.00    -0.356 N 
ATOM      4  C   UNL A   1      30.225  25.972  25.938  1.00  0.00     0.226 C 
ATOM      5  O   UNL A   1      29.525  25.100  26.458  1.00  0.00    -0.275 OA
ATOM      6  H   UNL A   1      31.579  25.910  27.412  1.00  0.00     0.163 HD
BRANCH   4   7
ATOM      7  C   UNL A   1      29.931  26.508  24.556  1.00  0.00     0.157 C 
BRANCH   7   8
ATOM      8  C   UNL A   1      30.945  26.089  23.548  1.00  0.00     0.061 A 
ATOM      9  C   UNL A   1      32.229  24.560  22.535  1.00  0.00     0.128 A 
ATOM     10  N   UNL A   1      31.434  24.786  23.567  1.00  0.00    -0.243 NA
ATOM     11  S   UNL A   1      32.362  25.909  21.474  1.00  0.00    -0.124 S 
ATOM     12  C   UNL A   1      31.434  26.868  22.523  1.00  0.00     0.091 A 
BRANCH   9  13
ATOM     13  C   UNL A   1      32.919  23.226  22.296  1.00  0.00     0.232 C 
ATOM     14  N   UNL A   1      33.420  21.975  24.513  1.00  0.00    -0.331 N 
ATOM     15  C   UNL A   1      34.841  22.251  24.211  1.00  0.00     0.291 C 
ATOM     16  C   UNL A   1      32.624  22.071  23.277  1.00  0.00     0.302 C 
ATOM     17  H   UNL A   1      33.293  21.009  24.814  1.00  0.00     0.348 HD
ATOM     18  C   UNL A   1      35.116  23.420  23.243  1.00  0.00     0.222 C 
ATOM     19  O   UNL A   1      34.326  23.398  22.053  1.00  0.00    -0.359 OA
BRANCH  14  20
ATOM     20  C   UNL A   1      32.945  22.685  25.704  1.00  0.00     0.262 C 
BRANCH  20  21
ATOM     21  C   UNL A   1      33.953  22.921  26.846  1.00  0.00     0.058 C 
ATOM     22  C   UNL A   1      34.072  21.755  27.812  1.00  0.00     0.010 C 
ENDBRANCH  20  21
ENDBRANCH  14  20
ENDBRANCH   9  13
ENDBRANCH   7   8
ENDBRANCH   4   7
ENDBRANCH   2   3
ENDBRANCH   1   2
BRANCH   1  23
ATOM     23  C   UNL A   1      32.396  30.067  26.853  1.00  0.00     0.002 C 
BRANCH  23  24
ATOM     24  C   UNL A   1      31.345  30.895  26.105  1.00  0.00     0.002 C 
BRANCH  24  25
ATOM     25  C   UNL A   1      31.331  32.383  26.463  1.00  0.00     0.021 C 
BRANCH  25  26
ATOM     26  C   UNL A   1      32.578  32.856  27.200  1.00  0.00     0.116 C 
BRANCH  26  27
ATOM     27  N   UNL A   1      32.448  34.235  27.646  1.00  0.00    -0.352 N 
ATOM     28  C   UNL A   1      33.080  34.872  28.679  1.00  0.00     0.251 C 
ATOM     29  H   UNL A   1      31.815  34.788  27.133  1.00  0.00     0.163 HD
ATOM     30  O   UNL A   1      32.684  35.974  29.065  1.00  0.00    -0.269 OA
BRANCH  28  31
ATOM     31  C   UNL A   1      34.234  34.234  29.341  1.00  0.00     0.039 A 
ATOM     32  C   UNL A   1      34.006  33.343  30.392  1.00  0.00     0.014 A 
ATOM     33  C   UNL A   1      35.539  34.526  28.932  1.00  0.00     0.014 A 
ATOM     34  C   UNL A   1      35.087  32.703  31.001  1.00  0.00     0.010 A 
ATOM     35  C   UNL A   1      36.609  33.835  29.490  1.00  0.00     0.010 A 
ATOM     36  C   UNL A   1      36.394  32.922  30.533  1.00  0.00    -0.014 A 
BRANCH  36  37
ATOM     37  C   UNL A   1      37.551  32.210  31.130  1.00  0.00     0.031 A 
ATOM     38  C   UNL A   1      38.043  32.586  32.499  1.00  0.00     0.074 A 
ATOM     39  C   UNL A   1      38.194  31.270  30.412  1.00  0.00     0.049 A 
ATOM     40  N   UNL A   1      39.077  32.131  33.163  1.00  0.00    -0.248 NA
ATOM     41  C   UNL A   1      37.289  33.632  33.208  1.00  0.00     0.031 C 
ATOM     42  C   UNL A   1      37.837  30.850  29.057  1.00  0.00     0.029 A 
ATOM     43  N   UNL A   1      39.290  30.503  30.720  1.00  0.00    -0.354 N 
ATOM     44  C   UNL A   1      39.102  32.841  34.355  1.00  0.00     0.074 A 
ATOM     45  C   UNL A   1      38.017  33.797  34.303  1.00  0.00     0.031 C 
ATOM     46  C   UNL A   1      38.682  29.887  28.658  1.00  0.00     0.029 A 
ATOM     47  C   UNL A   1      39.663  29.648  29.712  1.00  0.00     0.049 A 
ATOM     48  H   UNL A   1      39.764  30.560  31.581  1.00  0.00     0.167 HD
ATOM     49  C   UNL A   1      39.941  32.693  35.408  1.00  0.00     0.037 A 
ATOM     50  C   UNL A   1      40.686  28.776  29.646  1.00  0.00     0.037 A 
ATOM     51  C   UNL A   1      41.005  31.725  35.464  1.00  0.00     0.049 A 
ATOM     52  C   UNL A   1      41.612  28.640  30.824  1.00  0.00     0.074 A 
ATOM     53  C   UNL A   1      41.877  31.459  36.505  1.00  0.00     0.029 A 
ATOM     54  N   UNL A   1      41.345  30.867  34.428  1.00  0.00    -0.354 N 
ATOM     55  N   UNL A   1      41.587  29.271  31.973  1.00  0.00    -0.248 NA
ATOM     56  C   UNL A   1      42.704  27.665  30.699  1.00  0.00     0.031 C 
ATOM     57  C   UNL A   1      42.773  30.472  36.083  1.00  0.00     0.029 A 
ATOM     58  C   UNL A   1      42.428  30.085  34.798  1.00  0.00     0.049 A 
ATOM     59  H   UNL A   1      40.886  30.820  33.558  1.00  0.00     0.167 HD
ATOM     60  C   UNL A   1      42.636  28.749  32.718  1.00  0.00     0.074 A 
ATOM     61  C   UNL A   1      43.270  27.740  31.895  1.00  0.00     0.031 C 
ATOM     62  C   UNL A   1      43.040  29.077  33.970  1.00  0.00     0.037 A 
BRANCH  49  63
ATOM     63  C   UNL A   1      39.736  33.595  36.591  1.00  0.00     0.064 A 
ATOM     64  C   UNL A   1      40.413  34.820  36.708  1.00  0.00     0.173 A 
ATOM     65  C   UNL A   1      38.827  33.250  37.603  1.00  0.00     0.173 A 
ATOM     66  F   UNL A   1      41.303  35.191  35.775  1.00  0.00    -0.203 F 
ATOM     67  C   UNL A   1      40.211  35.648  37.808  1.00  0.00     0.198 A 
ATOM     68  C   UNL A   1      38.603  34.098  38.685  1.00  0.00     0.198 A 
ATOM     69  F   UNL A   1      38.148  32.095  37.538  1.00  0.00    -0.203 F 
ATOM     70  F   UNL A   1      40.907  36.788  37.923  1.00  0.00    -0.200 F 
ATOM     71  C   UNL A   1      39.300  35.292  38.791  1.00  0.00     0.200 A 
ATOM     72  F   UNL A   1      37.713  33.757  39.627  1.00  0.00    -0.200 F 
ATOM     73  F   UNL A   1      39.101  36.094  39.845  1.00  0.00    -0.200 F 
ENDBRANCH  49  63
BRANCH  50  74
ATOM     74  C   UNL A   1      40.875  27.944  28.428  1.00  0.00     0.064 A 
ATOM     75  C   UNL A   1      40.275  26.682  28.321  1.00  0.00     0.173 A 
ATOM     76  C   UNL A   1      41.659  28.387  27.354  1.00  0.00     0.173 A 
ATOM     77  F   UNL A   1      39.532  26.206  29.332  1.00  0.00    -0.203 F 
ATOM     78  C   UNL A   1      40.469  25.885  27.195  1.00  0.00     0.198 A 
ATOM     79  C   UNL A   1      41.829  27.602  26.215  1.00  0.00     0.198 A 
ATOM     80  F   UNL A   1      42.251  29.590  27.404  1.00  0.00    -0.203 F 
ATOM     81  F   UNL A   1      39.922  24.663  27.139  1.00  0.00    -0.200 F 
ATOM     82  C   UNL A   1      41.241  26.347  26.141  1.00  0.00     0.200 A 
ATOM     83  F   UNL A   1      42.563  28.059  25.191  1.00  0.00    -0.200 F 
ATOM     84  F   UNL A   1      41.425  25.582  25.056  1.00  0.00    -0.200 F 
ENDBRANCH  50  74
BRANCH  62  85
ATOM     85  C   UNL A   1      44.197  28.311  34.543  1.00  0.00     0.064 A 
ATOM     86  C   UNL A   1      44.014  27.100  35.226  1.00  0.00     0.173 A 
ATOM     87  C   UNL A   1      45.510  28.776  34.368  1.00  0.00     0.173 A 
ATOM     88  F   UNL A   1      42.777  26.622  35.432  1.00  0.00    -0.203 F 
ATOM     89  C   UNL A   1      45.100  26.396  35.739  1.00  0.00     0.198 A 
ATOM     90  C   UNL A   1      46.595  28.053  34.854  1.00  0.00     0.198 A 
ATOM     91  F   UNL A   1      45.740  29.924  33.716  1.00  0.00    -0.203 F 
ATOM     92  F   UNL A   1      44.898  25.268  36.432  1.00  0.00    -0.200 F 
ATOM     93  C   UNL A   1      46.390  26.869  35.545  1.00  0.00     0.200 A 
ATOM     94  F   UNL A   1      47.842  28.504  34.654  1.00  0.00    -0.200 F 
ATOM     95  F   UNL A   1      47.435  26.185  36.033  1.00  0.00    -0.200 F 
ENDBRANCH  62  85
ENDBRANCH  36  37
ENDBRANCH  28  31
ENDBRANCH  26  27
ENDBRANCH  25  26
ENDBRANCH  24  25
ENDBRANCH  23  24
ENDBRANCH   1  23
TORSDOF 17
ENDMDL
MODEL 3
REMARK VINA RESULT:     -11.3      3.021      8.370
REMARK SMILES CCC[N@@H+]1CCO[C@H](c2nc(CC(=O)NCCCCCCNC(=O)c3ccc(-c4c5nc(c(-c6c(F)c(F)c(F)c(F)c6F)c6ccc([nH]6)c(-c6c(F)c(F)c(F)c(F)c6F)c6nc(c(-c7c(F)c(F)c(F)c(F)c7F)c7ccc4[nH]7)C=C6)C=C5)cc3)cs2)C1
REMARK SMILES IDX 17 1 16 2 15 3 13 4 14 5 12 7 11 8 9 9 10 10 89 11 88 12
REMARK SMILES IDX 8 13 4 14 5 15 90 16 6 18 7 19 3 20 2 21 1 22 18 23 19 24
REMARK SMILES IDX 20 25 21 26 22 27 23 28 24 30 25 31 26 32 87 33 27 34 86 35
REMARK SMILES IDX 28 36 29 37 30 38 80 39 31 40 85 41 79 42 81 43 32 44 84 45
REMARK SMILES IDX 78 46 77 47 33 49 65 50 45 51 64 52 46 53 49 54 63 55 82 56
REMARK SMILES IDX 47 57 48 58 62 60 83 61 50 62 34 63 35 64 43 65 36 66 37 67
REMARK SMILES IDX 41 68 44 69 38 70 39 71 42 72 40 73 66 74 67 75 75 76 68 77
REMARK SMILES IDX 69 78 73 79 76 80 70 81 71 82 74 83 72 84 51 85 52 86 60 87
REMARK SMILES IDX 53 88 54 89 58 90 61 91 55 92 56 93 59 94 57 95
REMARK H PARENT 15 6 4 17 22 29 81 48 49 59
REMARK Flexibility Score: inf
ROOT
ATOM      1  C   UNL A   1      35.741  32.252  28.149  1.00  0.00     0.021 C 
ENDROOT
BRANCH   1   2
ATOM      2  C   UNL A   1      34.746  31.189  27.679  1.00  0.00     0.116 C 
BRANCH   2   3
ATOM      3  N   UNL A   1      33.456  31.790  27.405  1.00  0.00    -0.356 N 
ATOM      4  C   UNL A   1      32.301  31.162  27.037  1.00  0.00     0.226 C 
ATOM      5  O   UNL A   1      31.353  31.846  26.646  1.00  0.00    -0.275 OA
ATOM      6  H   UNL A   1      33.406  32.769  27.496  1.00  0.00     0.163 HD
BRANCH   4   7
ATOM      7  C   UNL A   1      32.199  29.660  27.165  1.00  0.00     0.157 C 
BRANCH   7   8
ATOM      8  C   UNL A   1      32.415  28.955  25.871  1.00  0.00     0.061 A 
ATOM      9  C   UNL A   1      31.798  28.361  23.802  1.00  0.00     0.128 A 
ATOM     10  N   UNL A   1      31.392  28.922  24.928  1.00  0.00    -0.243 NA
ATOM     11  S   UNL A   1      33.459  27.909  23.832  1.00  0.00    -0.124 S 
ATOM     12  C   UNL A   1      33.585  28.352  25.466  1.00  0.00     0.091 A 
BRANCH   9  13
ATOM     13  C   UNL A   1      30.894  28.177  22.593  1.00  0.00     0.232 C 
ATOM     14  N   UNL A   1      29.010  29.958  22.504  1.00  0.00    -0.331 N 
ATOM     15  C   UNL A   1      28.095  28.834  22.792  1.00  0.00     0.291 C 
ATOM     16  C   UNL A   1      30.273  29.438  21.953  1.00  0.00     0.302 C 
ATOM     17  H   UNL A   1      28.639  30.547  21.758  1.00  0.00     0.348 HD
ATOM     18  C   UNL A   1      28.730  27.591  23.447  1.00  0.00     0.222 C 
ATOM     19  O   UNL A   1      29.927  27.138  22.814  1.00  0.00    -0.359 OA
BRANCH  14  20
ATOM     20  C   UNL A   1      29.075  30.933  23.597  1.00  0.00     0.262 C 
BRANCH  20  21
ATOM     21  C   UNL A   1      28.600  32.369  23.304  1.00  0.00     0.058 C 
ATOM     22  C   UNL A   1      28.319  32.637  21.836  1.00  0.00     0.010 C 
ENDBRANCH  20  21
ENDBRANCH  14  20
ENDBRANCH   9  13
ENDBRANCH   7   8
ENDBRANCH   4   7
ENDBRANCH   2   3
ENDBRANCH   1   2
BRANCH   1  23
ATOM     23  C   UNL A   1      35.134  33.261  29.133  1.00  0.00     0.002 C 
BRANCH  23  24
ATOM     24  C   UNL A   1      35.325  34.731  28.742  1.00  0.00     0.002 C 
BRANCH  24  25
ATOM     25  C   UNL A   1      34.059  35.587  28.835  1.00  0.00     0.021 C 
BRANCH  25  26
ATOM     26  C   UNL A   1      32.913  34.918  29.582  1.00  0.00     0.116 C 
BRANCH  26  27
ATOM     27  N   UNL A   1      32.409  35.760  30.658  1.00  0.00    -0.352 N 
ATOM     28  C   UNL A   1      32.763  35.777  31.980  1.00  0.00     0.251 C 
ATOM     29  H   UNL A   1      31.715  36.408  30.398  1.00  0.00     0.163 HD
ATOM     30  O   UNL A   1      32.076  36.390  32.800  1.00  0.00    -0.269 OA
BRANCH  28  31
ATOM     31  C   UNL A   1      33.966  35.050  32.429  1.00  0.00     0.039 A 
ATOM     32  C   UNL A   1      33.828  33.752  32.926  1.00  0.00     0.014 A 
ATOM     33  C   UNL A   1      35.225  35.655  32.369  1.00  0.00     0.014 A 
ATOM     34  C   UNL A   1      34.963  33.040  33.318  1.00  0.00     0.010 A 
ATOM     35  C   UNL A   1      36.361  34.919  32.691  1.00  0.00     0.010 A 
ATOM     36  C   UNL A   1      36.240  33.608  33.174  1.00  0.00    -0.014 A 
BRANCH  36  37
ATOM     37  C   UNL A   1      37.463  32.847  33.533  1.00  0.00     0.031 A 
ATOM     38  C   UNL A   1      38.191  33.149  34.812  1.00  0.00     0.074 A 
ATOM     39  C   UNL A   1      37.949  31.929  32.675  1.00  0.00     0.049 A 
ATOM     40  N   UNL A   1      39.310  32.644  35.268  1.00  0.00    -0.248 NA
ATOM     41  C   UNL A   1      37.598  34.175  35.684  1.00  0.00     0.031 C 
ATOM     42  C   UNL A   1      37.355  31.580  31.385  1.00  0.00     0.029 A 
ATOM     43  N   UNL A   1      39.060  31.128  32.758  1.00  0.00    -0.354 N 
ATOM     44  C   UNL A   1      39.557  33.298  36.467  1.00  0.00     0.074 A 
ATOM     45  C   UNL A   1      38.505  34.275  36.643  1.00  0.00     0.031 C 
ATOM     46  C   UNL A   1      38.093  30.621  30.806  1.00  0.00     0.029 A 
ATOM     47  C   UNL A   1      39.232  30.314  31.665  1.00  0.00     0.049 A 
ATOM     48  H   UNL A   1      39.675  31.136  33.526  1.00  0.00     0.167 HD
ATOM     49  C   UNL A   1      40.559  33.084  37.354  1.00  0.00     0.037 A 
ATOM     50  C   UNL A   1      40.206  29.427  31.386  1.00  0.00     0.037 A 
ATOM     51  C   UNL A   1      41.592  32.095  37.184  1.00  0.00     0.049 A 
ATOM     52  C   UNL A   1      41.315  29.219  32.382  1.00  0.00     0.074 A 
ATOM     53  C   UNL A   1      42.620  31.764  38.048  1.00  0.00     0.029 A 
ATOM     54  N   UNL A   1      41.727  31.280  36.070  1.00  0.00    -0.354 N 
ATOM     55  N   UNL A   1      41.504  29.796  33.544  1.00  0.00    -0.248 NA
ATOM     56  C   UNL A   1      42.343  28.230  32.029  1.00  0.00     0.031 C 
ATOM     57  C   UNL A   1      43.405  30.781  37.437  1.00  0.00     0.029 A 
ATOM     58  C   UNL A   1      42.836  30.461  36.215  1.00  0.00     0.049 A 
ATOM     59  H   UNL A   1      41.125  31.283  35.291  1.00  0.00     0.167 HD
ATOM     60  C   UNL A   1      42.650  29.220  34.074  1.00  0.00     0.074 A 
ATOM     61  C   UNL A   1      43.106  28.238  33.112  1.00  0.00     0.031 C 
ATOM     62  C   UNL A   1      43.270  29.481  35.252  1.00  0.00     0.037 A 
BRANCH  49  63
ATOM     63  C   UNL A   1      40.584  33.934  38.591  1.00  0.00     0.064 A 
ATOM     64  C   UNL A   1      39.912  33.549  39.762  1.00  0.00     0.173 A 
ATOM     65  C   UNL A   1      41.317  35.130  38.620  1.00  0.00     0.173 A 
ATOM     66  F   UNL A   1      39.186  32.421  39.784  1.00  0.00    -0.203 F 
ATOM     67  C   UNL A   1      39.947  34.346  40.903  1.00  0.00     0.198 A 
ATOM     68  C   UNL A   1      41.377  35.907  39.775  1.00  0.00     0.198 A 
ATOM     69  F   UNL A   1      41.984  35.542  37.532  1.00  0.00    -0.203 F 
ATOM     70  F   UNL A   1      39.255  33.982  41.993  1.00  0.00    -0.200 F 
ATOM     71  C   UNL A   1      40.685  35.518  40.913  1.00  0.00     0.200 A 
ATOM     72  F   UNL A   1      42.102  37.034  39.785  1.00  0.00    -0.200 F 
ATOM     73  F   UNL A   1      40.725  36.280  42.014  1.00  0.00    -0.200 F 
ENDBRANCH  49  63
BRANCH  50  74
ATOM     74  C   UNL A   1      40.162  28.649  30.120  1.00  0.00     0.064 A 
ATOM     75  C   UNL A   1      40.775  29.136  28.957  1.00  0.00     0.173 A 
ATOM     76  C   UNL A   1      39.507  27.412  30.044  1.00  0.00     0.173 A 
ATOM     77  F   UNL A   1      41.397  30.324  28.976  1.00  0.00    -0.203 F 
ATOM     78  C   UNL A   1      40.715  28.425  27.760  1.00  0.00     0.198 A 
ATOM     79  C   UNL A   1      39.473  26.688  28.854  1.00  0.00     0.198 A 
ATOM     80  F   UNL A   1      38.910  26.899  31.130  1.00  0.00    -0.203 F 
ATOM     81  F   UNL A   1      41.269  28.936  26.653  1.00  0.00    -0.200 F 
ATOM     82  C   UNL A   1      40.070  27.199  27.711  1.00  0.00     0.200 A 
ATOM     83  F   UNL A   1      38.861  25.496  28.814  1.00  0.00    -0.200 F 
ATOM     84  F   UNL A   1      40.015  26.515  26.561  1.00  0.00    -0.200 F 
ENDBRANCH  50  74
BRANCH  62  85
ATOM     85  C   UNL A   1      44.486  28.667  35.584  1.00  0.00     0.064 A 
ATOM     86  C   UNL A   1      44.395  27.457  36.286  1.00  0.00     0.173 A 
ATOM     87  C   UNL A   1      45.757  29.086  35.157  1.00  0.00     0.173 A 
ATOM     88  F   UNL A   1      43.205  27.021  36.729  1.00  0.00    -0.203 F 
ATOM     89  C   UNL A   1      45.533  26.708  36.573  1.00  0.00     0.198 A 
ATOM     90  C   UNL A   1      46.888  28.318  35.418  1.00  0.00     0.198 A 
ATOM     91  F   UNL A   1      45.898  30.232  34.476  1.00  0.00    -0.203 F 
ATOM     92  F   UNL A   1      45.428  25.581  37.289  1.00  0.00    -0.200 F 
ATOM     93  C   UNL A   1      46.777  27.135  36.132  1.00  0.00     0.200 A 
ATOM     94  F   UNL A   1      48.087  28.726  34.979  1.00  0.00    -0.200 F 
ATOM     95  F   UNL A   1      47.871  26.409  36.403  1.00  0.00    -0.200 F 
ENDBRANCH  62  85
ENDBRANCH  36  37
ENDBRANCH  28  31
ENDBRANCH  26  27
ENDBRANCH  25  26
ENDBRANCH  24  25
ENDBRANCH  23  24
ENDBRANCH   1  23
TORSDOF 17
ENDMDL
