MODEL 1
REMARK VINA RESULT:     -12.5      0.000      0.000
REMARK SMILES C[C@H]1[C@@H](C(=O)NCCCCCCNC(=O)c2ccc(-c3c4nc(c(-c5c(F)c(F)c(F)c(F)c5F)c5ccc([nH]5)c(-c5c(F)c(F)c(F)c(F)c5F)c5nc(c(-c6c(F)c(F)c(F)c(F)c6F)c6ccc3[nH]6)C=C5)C=C4)cc2)CCN1C(=O)/C=C/c1cccc(F)c1
REMARK SMILES IDX 9 1 8 2 7 3 6 4 4 5 5 6 3 8 1 9 2 10 81 11 79 12 80 13 82 14
REMARK SMILES IDX 83 15 84 16 85 17 86 18 87 19 92 20 88 21 90 22 89 23 91 24
REMARK SMILES IDX 10 25 11 26 12 27 13 28 14 29 15 31 16 32 17 33 78 34 18 35
REMARK SMILES IDX 77 36 19 37 20 38 21 39 71 40 22 41 76 42 70 43 72 44 23 45
REMARK SMILES IDX 75 46 69 47 68 48 24 50 56 51 36 52 55 53 37 54 40 55 54 56
REMARK SMILES IDX 73 57 38 58 39 59 53 61 74 62 41 63 25 64 26 65 34 66 27 67
REMARK SMILES IDX 28 68 32 69 35 70 29 71 30 72 33 73 31 74 57 75 58 76 66 77
REMARK SMILES IDX 59 78 60 79 64 80 67 81 61 82 62 83 65 84 63 85 42 86 43 87
REMARK SMILES IDX 51 88 44 89 45 90 49 91 52 92 46 93 47 94 50 95 48 96
REMARK H PARENT 6 7 13 30 72 49 40 60
REMARK Flexibility Score: inf
ROOT
ATOM      1  C   UNL A   1      32.607  30.259  26.106  1.00  0.00     0.002 C 
ENDROOT
BRANCH   1   2
ATOM      2  C   UNL A   1      32.630  29.342  24.886  1.00  0.00     0.021 C 
BRANCH   2   3
ATOM      3  C   UNL A   1      33.987  28.713  24.542  1.00  0.00     0.116 C 
BRANCH   3   4
ATOM      4  N   UNL A   1      33.880  27.957  23.309  1.00  0.00    -0.356 N 
ATOM      5  C   UNL A   1      33.213  26.808  23.000  1.00  0.00     0.225 C 
ATOM      6  O   UNL A   1      33.496  26.294  21.916  1.00  0.00    -0.275 OA
ATOM      7  H   UNL A   1      34.382  28.344  22.555  1.00  0.00     0.163 HD
BRANCH   5   8
ATOM      8  C   UNL A   1      32.088  26.258  23.883  1.00  0.00     0.102 C 
ATOM      9  C   UNL A   1      33.854  24.970  25.338  1.00  0.00     0.032 C 
ATOM     10  C   UNL A   1      32.413  25.415  25.141  1.00  0.00     0.094 C 
ATOM     11  N   UNL A   1      31.565  24.225  25.050  1.00  0.00    -0.336 N 
ATOM     12  C   UNL A   1      31.097  25.371  23.080  1.00  0.00     0.037 C 
ATOM     13  C   UNL A   1      31.225  23.980  23.669  1.00  0.00     0.121 C 
BRANCH  11  14
ATOM     14  C   UNL A   1      31.295  23.289  26.032  1.00  0.00     0.246 C 
ATOM     15  O   UNL A   1      30.923  23.582  27.165  1.00  0.00    -0.270 OA
BRANCH  14  16
ATOM     16  C   UNL A   1      31.308  21.854  25.631  1.00  0.00     0.072 C 
ATOM     17  C   UNL A   1      32.433  21.204  25.294  1.00  0.00     0.014 C 
BRANCH  17  18
ATOM     18  C   UNL A   1      32.512  19.863  24.683  1.00  0.00    -0.023 A 
ATOM     19  C   UNL A   1      32.849  18.778  25.511  1.00  0.00     0.008 A 
ATOM     20  C   UNL A   1      32.355  19.622  23.312  1.00  0.00     0.047 A 
ATOM     21  C   UNL A   1      33.017  17.490  24.988  1.00  0.00     0.004 A 
ATOM     22  C   UNL A   1      32.526  18.337  22.801  1.00  0.00     0.123 A 
ATOM     23  C   UNL A   1      32.854  17.268  23.624  1.00  0.00     0.039 A 
ATOM     24  F   UNL A   1      32.390  18.131  21.483  1.00  0.00    -0.207 F 
ENDBRANCH  17  18
ENDBRANCH  14  16
ENDBRANCH  11  14
ENDBRANCH   5   8
ENDBRANCH   3   4
ENDBRANCH   2   3
ENDBRANCH   1   2
BRANCH   1  25
ATOM     25  C   UNL A   1      31.284  30.993  26.329  1.00  0.00     0.002 C 
BRANCH  25  26
ATOM     26  C   UNL A   1      31.382  32.513  26.509  1.00  0.00     0.021 C 
BRANCH  26  27
ATOM     27  C   UNL A   1      32.607  33.011  27.276  1.00  0.00     0.116 C 
BRANCH  27  28
ATOM     28  N   UNL A   1      32.457  34.390  27.711  1.00  0.00    -0.352 N 
ATOM     29  C   UNL A   1      33.064  35.055  28.743  1.00  0.00     0.251 C 
ATOM     30  H   UNL A   1      31.823  34.928  27.184  1.00  0.00     0.163 HD
ATOM     31  O   UNL A   1      32.639  36.154  29.101  1.00  0.00    -0.269 OA
BRANCH  29  32
ATOM     32  C   UNL A   1      34.220  34.459  29.443  1.00  0.00     0.039 A 
ATOM     33  C   UNL A   1      34.009  33.810  30.663  1.00  0.00     0.014 A 
ATOM     34  C   UNL A   1      35.514  34.578  28.927  1.00  0.00     0.014 A 
ATOM     35  C   UNL A   1      35.086  33.232  31.337  1.00  0.00     0.010 A 
ATOM     36  C   UNL A   1      36.578  33.945  29.567  1.00  0.00     0.010 A 
ATOM     37  C   UNL A   1      36.376  33.271  30.782  1.00  0.00    -0.014 A 
BRANCH  37  38
ATOM     38  C   UNL A   1      37.522  32.616  31.460  1.00  0.00     0.031 A 
ATOM     39  C   UNL A   1      38.234  31.466  30.804  1.00  0.00     0.074 A 
ATOM     40  C   UNL A   1      37.885  33.020  32.692  1.00  0.00     0.049 A 
ATOM     41  N   UNL A   1      39.216  30.730  31.262  1.00  0.00    -0.248 NA
ATOM     42  C   UNL A   1      37.764  31.074  29.467  1.00  0.00     0.031 C 
ATOM     43  C   UNL A   1      37.247  34.098  33.449  1.00  0.00     0.029 A 
ATOM     44  N   UNL A   1      38.874  32.568  33.529  1.00  0.00    -0.354 N 
ATOM     45  C   UNL A   1      39.471  29.785  30.276  1.00  0.00     0.074 A 
ATOM     46  C   UNL A   1      38.509  30.007  29.219  1.00  0.00     0.031 C 
ATOM     47  C   UNL A   1      37.872  34.237  34.628  1.00  0.00     0.029 A 
ATOM     48  C   UNL A   1      38.930  33.236  34.727  1.00  0.00     0.049 A 
ATOM     49  H   UNL A   1      39.485  31.833  33.293  1.00  0.00     0.167 HD
ATOM     50  C   UNL A   1      40.435  28.833  30.247  1.00  0.00     0.037 A 
ATOM     51  C   UNL A   1      39.739  33.056  35.789  1.00  0.00     0.037 A 
ATOM     52  C   UNL A   1      41.404  28.629  31.292  1.00  0.00     0.049 A 
ATOM     53  C   UNL A   1      40.792  31.984  35.736  1.00  0.00     0.074 A 
ATOM     54  C   UNL A   1      42.458  27.732  31.330  1.00  0.00     0.029 A 
ATOM     55  N   UNL A   1      41.433  29.330  32.488  1.00  0.00    -0.354 N 
ATOM     56  N   UNL A   1      41.069  31.141  34.770  1.00  0.00    -0.248 NA
ATOM     57  C   UNL A   1      41.651  31.841  36.920  1.00  0.00     0.031 C 
ATOM     58  C   UNL A   1      43.095  27.858  32.569  1.00  0.00     0.029 A 
ATOM     59  C   UNL A   1      42.472  28.869  33.282  1.00  0.00     0.049 A 
ATOM     60  H   UNL A   1      40.809  30.050  32.737  1.00  0.00     0.167 HD
ATOM     61  C   UNL A   1      42.146  30.388  35.217  1.00  0.00     0.074 A 
ATOM     62  C   UNL A   1      42.483  30.883  36.535  1.00  0.00     0.031 C 
ATOM     63  C   UNL A   1      42.796  29.375  34.592  1.00  0.00     0.037 A 
BRANCH  50  64
ATOM     64  C   UNL A   1      40.490  27.939  29.041  1.00  0.00     0.064 A 
ATOM     65  C   UNL A   1      39.733  26.759  28.964  1.00  0.00     0.173 A 
ATOM     66  C   UNL A   1      41.281  28.282  27.934  1.00  0.00     0.173 A 
ATOM     67  F   UNL A   1      38.968  26.380  29.999  1.00  0.00    -0.203 F 
ATOM     68  C   UNL A   1      39.793  25.940  27.839  1.00  0.00     0.198 A 
ATOM     69  C   UNL A   1      41.314  27.477  26.799  1.00  0.00     0.198 A 
ATOM     70  F   UNL A   1      42.017  29.403  27.950  1.00  0.00    -0.203 F 
ATOM     71  F   UNL A   1      39.101  24.792  27.812  1.00  0.00    -0.200 F 
ATOM     72  C   UNL A   1      40.577  26.303  26.755  1.00  0.00     0.200 A 
ATOM     73  F   UNL A   1      42.061  27.836  25.746  1.00  0.00    -0.200 F 
ATOM     74  F   UNL A   1      40.628  25.518  25.671  1.00  0.00    -0.200 F 
ENDBRANCH  50  64
BRANCH  51  75
ATOM     75  C   UNL A   1      39.598  33.928  36.983  1.00  0.00     0.064 A 
ATOM     76  C   UNL A   1      38.826  33.523  38.082  1.00  0.00     0.173 A 
ATOM     77  C   UNL A   1      40.228  35.179  37.054  1.00  0.00     0.173 A 
ATOM     78  F   UNL A   1      38.189  32.343  38.053  1.00  0.00    -0.203 F 
ATOM     79  C   UNL A   1      38.674  34.344  39.197  1.00  0.00     0.198 A 
ATOM     80  C   UNL A   1      40.098  35.986  38.183  1.00  0.00     0.198 A 
ATOM     81  F   UNL A   1      40.984  35.610  36.033  1.00  0.00    -0.203 F 
ATOM     82  F   UNL A   1      37.897  33.950  40.215  1.00  0.00    -0.200 F 
ATOM     83  C   UNL A   1      39.316  35.572  39.249  1.00  0.00     0.200 A 
ATOM     84  F   UNL A   1      40.733  37.165  38.235  1.00  0.00    -0.200 F 
ATOM     85  F   UNL A   1      39.176  36.358  40.325  1.00  0.00    -0.200 F 
ENDBRANCH  51  75
BRANCH  63  86
ATOM     86  C   UNL A   1      43.956  28.754  35.314  1.00  0.00     0.064 A 
ATOM     87  C   UNL A   1      45.262  29.244  35.165  1.00  0.00     0.173 A 
ATOM     88  C   UNL A   1      43.753  27.682  36.196  1.00  0.00     0.173 A 
ATOM     89  F   UNL A   1      45.511  30.257  34.321  1.00  0.00    -0.203 F 
ATOM     90  C   UNL A   1      46.325  28.666  35.853  1.00  0.00     0.198 A 
ATOM     91  C   UNL A   1      44.814  27.126  36.905  1.00  0.00     0.198 A 
ATOM     92  F   UNL A   1      42.522  27.180  36.379  1.00  0.00    -0.203 F 
ATOM     93  F   UNL A   1      47.572  29.119  35.658  1.00  0.00    -0.200 F 
ATOM     94  C   UNL A   1      46.100  27.614  36.727  1.00  0.00     0.200 A 
ATOM     95  F   UNL A   1      44.592  26.118  37.760  1.00  0.00    -0.200 F 
ATOM     96  F   UNL A   1      47.124  27.064  37.394  1.00  0.00    -0.200 F 
ENDBRANCH  63  86
ENDBRANCH  37  38
ENDBRANCH  29  32
ENDBRANCH  27  28
ENDBRANCH  26  27
ENDBRANCH  25  26
ENDBRANCH   1  25
TORSDOF 16
ENDMDL
MODEL 2
REMARK VINA RESULT:     -12.5      0.916      7.255
REMARK SMILES C[C@H]1[C@@H](C(=O)NCCCCCCNC(=O)c2ccc(-c3c4nc(c(-c5c(F)c(F)c(F)c(F)c5F)c5ccc([nH]5)c(-c5c(F)c(F)c(F)c(F)c5F)c5nc(c(-c6c(F)c(F)c(F)c(F)c6F)c6ccc3[nH]6)C=C5)C=C4)cc2)CCN1C(=O)/C=C/c1cccc(F)c1
REMARK SMILES IDX 9 1 8 2 7 3 6 4 4 5 5 6 3 8 1 9 2 10 81 11 79 12 80 13 82 14
REMARK SMILES IDX 83 15 84 16 85 17 86 18 87 19 92 20 88 21 90 22 89 23 91 24
REMARK SMILES IDX 10 25 11 26 12 27 13 28 14 29 15 31 16 32 17 33 78 34 18 35
REMARK SMILES IDX 77 36 19 37 20 38 21 39 71 40 22 41 76 42 70 43 72 44 23 45
REMARK SMILES IDX 75 46 69 47 68 48 24 50 56 51 36 52 55 53 37 54 40 55 54 56
REMARK SMILES IDX 73 57 38 58 39 59 53 61 74 62 41 63 25 64 26 65 34 66 27 67
REMARK SMILES IDX 28 68 32 69 35 70 29 71 30 72 33 73 31 74 57 75 58 76 66 77
REMARK SMILES IDX 59 78 60 79 64 80 67 81 61 82 62 83 65 84 63 85 42 86 43 87
REMARK SMILES IDX 51 88 44 89 45 90 49 91 52 92 46 93 47 94 50 95 48 96
REMARK H PARENT 6 7 13 30 72 49 40 60
REMARK Flexibility Score: inf
ROOT
ATOM      1  C   UNL A   1      32.494  30.275  25.836  1.00  0.00     0.002 C 
ENDROOT
BRANCH   1   2
ATOM      2  C   UNL A   1      32.560  29.147  24.811  1.00  0.00     0.021 C 
BRANCH   2   3
ATOM      3  C   UNL A   1      33.956  28.572  24.533  1.00  0.00     0.116 C 
BRANCH   3   4
ATOM      4  N   UNL A   1      33.937  27.814  23.296  1.00  0.00    -0.356 N 
ATOM      5  C   UNL A   1      33.380  26.612  22.972  1.00  0.00     0.225 C 
ATOM      6  O   UNL A   1      33.726  26.129  21.891  1.00  0.00    -0.275 OA
ATOM      7  H   UNL A   1      34.417  28.246  22.551  1.00  0.00     0.163 HD
BRANCH   5   8
ATOM      8  C   UNL A   1      32.292  25.962  23.832  1.00  0.00     0.102 C 
ATOM      9  C   UNL A   1      34.136  24.737  25.245  1.00  0.00     0.032 C 
ATOM     10  C   UNL A   1      32.669  25.098  25.061  1.00  0.00     0.094 C 
ATOM     11  N   UNL A   1      31.898  23.860  24.927  1.00  0.00    -0.336 N 
ATOM     12  C   UNL A   1      31.358  25.043  22.997  1.00  0.00     0.037 C 
ATOM     13  C   UNL A   1      31.573  23.643  23.538  1.00  0.00     0.121 C 
BRANCH  11  14
ATOM     14  C   UNL A   1      31.688  22.876  25.875  1.00  0.00     0.246 C 
ATOM     15  O   UNL A   1      31.231  23.096  26.993  1.00  0.00    -0.270 OA
BRANCH  14  16
ATOM     16  C   UNL A   1      31.883  21.462  25.447  1.00  0.00     0.072 C 
ATOM     17  C   UNL A   1      33.037  21.010  24.933  1.00  0.00     0.014 C 
BRANCH  17  18
ATOM     18  C   UNL A   1      33.249  19.699  24.290  1.00  0.00    -0.023 A 
ATOM     19  C   UNL A   1      32.392  19.332  23.237  1.00  0.00     0.008 A 
ATOM     20  C   UNL A   1      34.198  18.764  24.725  1.00  0.00     0.047 A 
ATOM     21  C   UNL A   1      32.485  18.074  22.631  1.00  0.00     0.004 A 
ATOM     22  C   UNL A   1      34.280  17.513  24.115  1.00  0.00     0.123 A 
ATOM     23  C   UNL A   1      33.435  17.158  23.073  1.00  0.00     0.039 A 
ATOM     24  F   UNL A   1      35.183  16.626  24.558  1.00  0.00    -0.207 F 
ENDBRANCH  17  18
ENDBRANCH  14  16
ENDBRANCH  11  14
ENDBRANCH   5   8
ENDBRANCH   3   4
ENDBRANCH   2   3
ENDBRANCH   1   2
BRANCH   1  25
ATOM     25  C   UNL A   1      31.153  31.007  25.894  1.00  0.00     0.002 C 
BRANCH  25  26
ATOM     26  C   UNL A   1      31.186  32.420  26.491  1.00  0.00     0.021 C 
BRANCH  26  27
ATOM     27  C   UNL A   1      32.482  32.809  27.202  1.00  0.00     0.116 C 
BRANCH  27  28
ATOM     28  N   UNL A   1      32.505  34.215  27.569  1.00  0.00    -0.352 N 
ATOM     29  C   UNL A   1      33.249  34.861  28.520  1.00  0.00     0.251 C 
ATOM     30  H   UNL A   1      31.894  34.791  27.055  1.00  0.00     0.163 HD
ATOM     31  O   UNL A   1      32.965  36.016  28.843  1.00  0.00    -0.269 OA
BRANCH  29  32
ATOM     32  C   UNL A   1      34.384  34.182  29.175  1.00  0.00     0.039 A 
ATOM     33  C   UNL A   1      34.125  33.288  30.218  1.00  0.00     0.014 A 
ATOM     34  C   UNL A   1      35.702  34.455  28.798  1.00  0.00     0.014 A 
ATOM     35  C   UNL A   1      35.183  32.628  30.846  1.00  0.00     0.010 A 
ATOM     36  C   UNL A   1      36.752  33.747  29.379  1.00  0.00     0.010 A 
ATOM     37  C   UNL A   1      36.504  32.831  30.413  1.00  0.00    -0.014 A 
BRANCH  37  38
ATOM     38  C   UNL A   1      37.635  32.097  31.034  1.00  0.00     0.031 A 
ATOM     39  C   UNL A   1      38.091  32.442  32.424  1.00  0.00     0.074 A 
ATOM     40  C   UNL A   1      38.286  31.156  30.324  1.00  0.00     0.049 A 
ATOM     41  N   UNL A   1      39.093  31.954  33.112  1.00  0.00    -0.248 NA
ATOM     42  C   UNL A   1      37.338  33.494  33.124  1.00  0.00     0.031 C 
ATOM     43  C   UNL A   1      37.963  30.759  28.953  1.00  0.00     0.029 A 
ATOM     44  N   UNL A   1      39.360  30.368  30.653  1.00  0.00    -0.354 N 
ATOM     45  C   UNL A   1      39.096  32.646  34.317  1.00  0.00     0.074 A 
ATOM     46  C   UNL A   1      38.030  33.622  34.246  1.00  0.00     0.031 C 
ATOM     47  C   UNL A   1      38.806  29.789  28.566  1.00  0.00     0.029 A 
ATOM     48  C   UNL A   1      39.752  29.522  29.645  1.00  0.00     0.049 A 
ATOM     49  H   UNL A   1      39.808  30.407  31.529  1.00  0.00     0.167 HD
ATOM     50  C   UNL A   1      39.901  32.468  35.392  1.00  0.00     0.037 A 
ATOM     51  C   UNL A   1      40.765  28.636  29.595  1.00  0.00     0.037 A 
ATOM     52  C   UNL A   1      40.947  31.481  35.466  1.00  0.00     0.049 A 
ATOM     53  C   UNL A   1      41.652  28.466  30.798  1.00  0.00     0.074 A 
ATOM     54  C   UNL A   1      41.778  31.181  36.532  1.00  0.00     0.029 A 
ATOM     55  N   UNL A   1      41.310  30.637  34.427  1.00  0.00    -0.354 N 
ATOM     56  N   UNL A   1      41.603  29.077  31.957  1.00  0.00    -0.248 NA
ATOM     57  C   UNL A   1      42.734  27.478  30.688  1.00  0.00     0.031 C 
ATOM     58  C   UNL A   1      42.674  30.188  36.122  1.00  0.00     0.029 A 
ATOM     59  C   UNL A   1      42.369  29.833  34.818  1.00  0.00     0.049 A 
ATOM     60  H   UNL A   1      40.879  30.613  33.542  1.00  0.00     0.167 HD
ATOM     61  C   UNL A   1      42.625  28.532  32.721  1.00  0.00     0.074 A 
ATOM     62  C   UNL A   1      43.270  27.529  31.900  1.00  0.00     0.031 C 
ATOM     63  C   UNL A   1      42.998  28.837  33.988  1.00  0.00     0.037 A 
BRANCH  50  64
ATOM     64  C   UNL A   1      39.680  33.360  36.580  1.00  0.00     0.064 A 
ATOM     65  C   UNL A   1      40.348  34.587  36.715  1.00  0.00     0.173 A 
ATOM     66  C   UNL A   1      38.762  33.002  37.579  1.00  0.00     0.173 A 
ATOM     67  F   UNL A   1      41.244  34.972  35.793  1.00  0.00    -0.203 F 
ATOM     68  C   UNL A   1      40.132  35.405  37.821  1.00  0.00     0.198 A 
ATOM     69  C   UNL A   1      38.525  33.837  38.668  1.00  0.00     0.198 A 
ATOM     70  F   UNL A   1      38.088  31.845  37.496  1.00  0.00    -0.203 F 
ATOM     71  F   UNL A   1      40.822  36.546  37.952  1.00  0.00    -0.200 F 
ATOM     72  C   UNL A   1      39.215  35.033  38.792  1.00  0.00     0.200 A 
ATOM     73  F   UNL A   1      37.628  33.483  39.599  1.00  0.00    -0.200 F 
ATOM     74  F   UNL A   1      39.003  35.824  39.853  1.00  0.00    -0.200 F 
ENDBRANCH  50  64
BRANCH  51  75
ATOM     75  C   UNL A   1      40.979  27.825  28.369  1.00  0.00     0.064 A 
ATOM     76  C   UNL A   1      40.346  26.583  28.209  1.00  0.00     0.173 A 
ATOM     77  C   UNL A   1      41.816  28.268  27.335  1.00  0.00     0.173 A 
ATOM     78  F   UNL A   1      39.552  26.107  29.180  1.00  0.00    -0.203 F 
ATOM     79  C   UNL A   1      40.558  25.809  27.071  1.00  0.00     0.198 A 
ATOM     80  C   UNL A   1      42.003  27.506  26.184  1.00  0.00     0.198 A 
ATOM     81  F   UNL A   1      42.439  29.453  27.436  1.00  0.00    -0.203 F 
ATOM     82  F   UNL A   1      39.974  24.608  26.963  1.00  0.00    -0.200 F 
ATOM     83  C   UNL A   1      41.382  26.274  26.057  1.00  0.00     0.200 A 
ATOM     84  F   UNL A   1      42.787  27.966  25.200  1.00  0.00    -0.200 F 
ATOM     85  F   UNL A   1      41.579  25.532  24.958  1.00  0.00    -0.200 F 
ENDBRANCH  51  75
BRANCH  63  86
ATOM     86  C   UNL A   1      44.139  28.056  34.575  1.00  0.00     0.064 A 
ATOM     87  C   UNL A   1      45.464  28.508  34.482  1.00  0.00     0.173 A 
ATOM     88  C   UNL A   1      43.899  26.862  35.273  1.00  0.00     0.173 A 
ATOM     89  F   UNL A   1      45.747  29.634  33.811  1.00  0.00    -0.203 F 
ATOM     90  C   UNL A   1      46.508  27.779  35.044  1.00  0.00     0.198 A 
ATOM     91  C   UNL A   1      44.942  26.153  35.859  1.00  0.00     0.198 A 
ATOM     92  F   UNL A   1      42.649  26.391  35.395  1.00  0.00    -0.203 F 
ATOM     93  F   UNL A   1      47.771  28.204  34.901  1.00  0.00    -0.200 F 
ATOM     94  C   UNL A   1      46.246  26.607  35.738  1.00  0.00     0.200 A 
ATOM     95  F   UNL A   1      44.686  25.028  36.541  1.00  0.00    -0.200 F 
ATOM     96  F   UNL A   1      47.253  25.912  36.284  1.00  0.00    -0.200 F 
ENDBRANCH  63  86
ENDBRANCH  37  38
ENDBRANCH  29  32
ENDBRANCH  27  28
ENDBRANCH  26  27
ENDBRANCH  25  26
ENDBRANCH   1  25
TORSDOF 16
ENDMDL
MODEL 3
REMARK VINA RESULT:     -12.4      5.799     11.283
REMARK SMILES C[C@H]1[C@@H](C(=O)NCCCCCCNC(=O)c2ccc(-c3c4nc(c(-c5c(F)c(F)c(F)c(F)c5F)c5ccc([nH]5)c(-c5c(F)c(F)c(F)c(F)c5F)c5nc(c(-c6c(F)c(F)c(F)c(F)c6F)c6ccc3[nH]6)C=C5)C=C4)cc2)CCN1C(=O)/C=C/c1cccc(F)c1
REMARK SMILES IDX 9 1 8 2 7 3 6 4 4 5 5 6 3 8 1 9 2 10 81 11 79 12 80 13 82 14
REMARK SMILES IDX 83 15 84 16 85 17 86 18 87 19 92 20 88 21 90 22 89 23 91 24
REMARK SMILES IDX 10 25 11 26 12 27 13 28 14 29 15 31 16 32 17 33 78 34 18 35
REMARK SMILES IDX 77 36 19 37 20 38 21 39 71 40 22 41 76 42 70 43 72 44 23 45
REMARK SMILES IDX 75 46 69 47 68 48 24 50 56 51 36 52 55 53 37 54 40 55 54 56
REMARK SMILES IDX 73 57 38 58 39 59 53 61 74 62 41 63 25 64 26 65 34 66 27 67
REMARK SMILES IDX 28 68 32 69 35 70 29 71 30 72 33 73 31 74 57 75 58 76 66 77
REMARK SMILES IDX 59 78 60 79 64 80 67 81 61 82 62 83 65 84 63 85 42 86 43 87
REMARK SMILES IDX 51 88 44 89 45 90 49 91 52 92 46 93 47 94 50 95 48 96
REMARK H PARENT 6 7 13 30 72 49 40 60
REMARK Flexibility Score: inf
ROOT
ATOM      1  C   UNL A   1      37.302  22.191  25.326  1.00  0.00     0.002 C 
ENDROOT
BRANCH   1   2
ATOM      2  C   UNL A   1      36.091  22.708  26.098  1.00  0.00     0.021 C 
BRANCH   2   3
ATOM      3  C   UNL A   1      34.965  21.693  26.341  1.00  0.00     0.116 C 
BRANCH   3   4
ATOM      4  N   UNL A   1      33.772  22.382  26.797  1.00  0.00    -0.356 N 
ATOM      5  C   UNL A   1      32.874  23.176  26.148  1.00  0.00     0.225 C 
ATOM      6  O   UNL A   1      32.083  23.794  26.863  1.00  0.00    -0.275 OA
ATOM      7  H   UNL A   1      33.575  22.253  27.754  1.00  0.00     0.163 HD
BRANCH   5   8
ATOM      8  C   UNL A   1      32.765  23.200  24.620  1.00  0.00     0.102 C 
ATOM      9  C   UNL A   1      33.905  25.566  24.573  1.00  0.00     0.032 C 
ATOM     10  C   UNL A   1      33.389  24.359  23.803  1.00  0.00     0.094 C 
ATOM     11  N   UNL A   1      32.339  24.805  22.884  1.00  0.00    -0.336 N 
ATOM     12  C   UNL A   1      31.289  23.150  24.138  1.00  0.00     0.037 C 
ATOM     13  C   UNL A   1      31.046  24.468  23.429  1.00  0.00     0.121 C 
BRANCH  11  14
ATOM     14  C   UNL A   1      32.460  25.638  21.786  1.00  0.00     0.246 C 
ATOM     15  O   UNL A   1      33.278  25.461  20.887  1.00  0.00    -0.270 OA
BRANCH  14  16
ATOM     16  C   UNL A   1      31.434  26.705  21.622  1.00  0.00     0.072 C 
ATOM     17  C   UNL A   1      31.105  27.555  22.607  1.00  0.00     0.014 C 
BRANCH  17  18
ATOM     18  C   UNL A   1      29.963  28.490  22.604  1.00  0.00    -0.023 A 
ATOM     19  C   UNL A   1      28.749  28.054  23.162  1.00  0.00     0.008 A 
ATOM     20  C   UNL A   1      29.995  29.754  21.999  1.00  0.00     0.047 A 
ATOM     21  C   UNL A   1      27.603  28.857  23.126  1.00  0.00     0.004 A 
ATOM     22  C   UNL A   1      28.848  30.545  21.968  1.00  0.00     0.123 A 
ATOM     23  C   UNL A   1      27.653  30.111  22.525  1.00  0.00     0.039 A 
ATOM     24  F   UNL A   1      28.894  31.744  21.369  1.00  0.00    -0.207 F 
ENDBRANCH  17  18
ENDBRANCH  14  16
ENDBRANCH  11  14
ENDBRANCH   5   8
ENDBRANCH   3   4
ENDBRANCH   2   3
ENDBRANCH   1   2
BRANCH   1  25
ATOM     25  C   UNL A   1      37.091  20.845  24.634  1.00  0.00     0.002 C 
BRANCH  25  26
ATOM     26  C   UNL A   1      38.090  19.739  25.000  1.00  0.00     0.021 C 
BRANCH  26  27
ATOM     27  C   UNL A   1      39.142  20.116  26.043  1.00  0.00     0.116 C 
BRANCH  27  28
ATOM     28  N   UNL A   1      40.247  19.172  26.073  1.00  0.00    -0.352 N 
ATOM     29  C   UNL A   1      41.596  19.402  26.123  1.00  0.00     0.251 C 
ATOM     30  H   UNL A   1      39.986  18.223  26.054  1.00  0.00     0.163 HD
ATOM     31  O   UNL A   1      42.385  18.480  25.909  1.00  0.00    -0.269 OA
BRANCH  29  32
ATOM     32  C   UNL A   1      42.117  20.751  26.420  1.00  0.00     0.039 A 
ATOM     33  C   UNL A   1      42.371  21.624  25.360  1.00  0.00     0.014 A 
ATOM     34  C   UNL A   1      42.399  21.141  27.733  1.00  0.00     0.014 A 
ATOM     35  C   UNL A   1      42.856  22.908  25.618  1.00  0.00     0.010 A 
ATOM     36  C   UNL A   1      42.820  22.443  27.995  1.00  0.00     0.010 A 
ATOM     37  C   UNL A   1      43.059  23.338  26.940  1.00  0.00    -0.014 A 
BRANCH  37  38
ATOM     38  C   UNL A   1      43.523  24.716  27.234  1.00  0.00     0.031 A 
ATOM     39  C   UNL A   1      42.562  25.742  27.766  1.00  0.00     0.074 A 
ATOM     40  C   UNL A   1      44.798  25.060  26.969  1.00  0.00     0.049 A 
ATOM     41  N   UNL A   1      42.764  27.009  28.030  1.00  0.00    -0.248 NA
ATOM     42  C   UNL A   1      41.184  25.292  28.012  1.00  0.00     0.031 C 
ATOM     43  C   UNL A   1      45.815  24.165  26.415  1.00  0.00     0.029 A 
ATOM     44  N   UNL A   1      45.455  26.255  27.122  1.00  0.00    -0.354 N 
ATOM     45  C   UNL A   1      41.540  27.506  28.459  1.00  0.00     0.074 A 
ATOM     46  C   UNL A   1      40.589  26.419  28.372  1.00  0.00     0.031 C 
ATOM     47  C   UNL A   1      46.971  24.836  26.293  1.00  0.00     0.029 A 
ATOM     48  C   UNL A   1      46.769  26.215  26.725  1.00  0.00     0.049 A 
ATOM     49  H   UNL A   1      45.025  27.064  27.481  1.00  0.00     0.167 HD
ATOM     50  C   UNL A   1      41.242  28.751  28.904  1.00  0.00     0.037 A 
ATOM     51  C   UNL A   1      47.703  27.186  26.705  1.00  0.00     0.037 A 
ATOM     52  C   UNL A   1      42.196  29.823  29.009  1.00  0.00     0.049 A 
ATOM     53  C   UNL A   1      47.343  28.562  27.194  1.00  0.00     0.074 A 
ATOM     54  C   UNL A   1      42.007  31.102  29.505  1.00  0.00     0.029 A 
ATOM     55  N   UNL A   1      43.520  29.744  28.603  1.00  0.00    -0.354 N 
ATOM     56  N   UNL A   1      46.200  29.002  27.662  1.00  0.00    -0.248 NA
ATOM     57  C   UNL A   1      48.406  29.576  27.157  1.00  0.00     0.031 C 
ATOM     58  C   UNL A   1      43.205  31.811  29.355  1.00  0.00     0.029 A 
ATOM     59  C   UNL A   1      44.154  30.959  28.815  1.00  0.00     0.049 A 
ATOM     60  H   UNL A   1      43.947  28.944  28.222  1.00  0.00     0.167 HD
ATOM     61  C   UNL A   1      46.411  30.332  27.998  1.00  0.00     0.074 A 
ATOM     62  C   UNL A   1      47.796  30.624  27.695  1.00  0.00     0.031 C 
ATOM     63  C   UNL A   1      45.535  31.232  28.509  1.00  0.00     0.037 A 
BRANCH  50  64
ATOM     64  C   UNL A   1      39.822  29.018  29.317  1.00  0.00     0.064 A 
ATOM     65  C   UNL A   1      39.392  28.832  30.640  1.00  0.00     0.173 A 
ATOM     66  C   UNL A   1      38.888  29.499  28.386  1.00  0.00     0.173 A 
ATOM     67  F   UNL A   1      40.243  28.365  31.566  1.00  0.00    -0.203 F 
ATOM     68  C   UNL A   1      38.073  29.086  31.008  1.00  0.00     0.198 A 
ATOM     69  C   UNL A   1      37.578  29.781  28.765  1.00  0.00     0.198 A 
ATOM     70  F   UNL A   1      39.248  29.703  27.110  1.00  0.00    -0.203 F 
ATOM     71  F   UNL A   1      37.674  28.850  32.266  1.00  0.00    -0.200 F 
ATOM     72  C   UNL A   1      37.170  29.566  30.072  1.00  0.00     0.200 A 
ATOM     73  F   UNL A   1      36.710  30.258  27.863  1.00  0.00    -0.200 F 
ATOM     74  F   UNL A   1      35.903  29.816  30.430  1.00  0.00    -0.200 F 
ENDBRANCH  50  64
BRANCH  51  75
ATOM     75  C   UNL A   1      49.076  26.882  26.225  1.00  0.00     0.064 A 
ATOM     76  C   UNL A   1      50.072  26.459  27.117  1.00  0.00     0.173 A 
ATOM     77  C   UNL A   1      49.422  27.006  24.872  1.00  0.00     0.173 A 
ATOM     78  F   UNL A   1      49.794  26.344  28.424  1.00  0.00    -0.203 F 
ATOM     79  C   UNL A   1      51.366  26.191  26.677  1.00  0.00     0.198 A 
ATOM     80  C   UNL A   1      50.710  26.710  24.429  1.00  0.00     0.198 A 
ATOM     81  F   UNL A   1      48.504  27.400  23.976  1.00  0.00    -0.203 F 
ATOM     82  F   UNL A   1      52.309  25.830  27.558  1.00  0.00    -0.200 F 
ATOM     83  C   UNL A   1      51.682  26.311  25.332  1.00  0.00     0.200 A 
ATOM     84  F   UNL A   1      51.006  26.811  23.126  1.00  0.00    -0.200 F 
ATOM     85  F   UNL A   1      52.925  26.046  24.908  1.00  0.00    -0.200 F 
ENDBRANCH  51  75
BRANCH  63  86
ATOM     86  C   UNL A   1      46.057  32.609  28.802  1.00  0.00     0.064 A 
ATOM     87  C   UNL A   1      45.973  33.643  27.857  1.00  0.00     0.173 A 
ATOM     88  C   UNL A   1      46.613  32.908  30.056  1.00  0.00     0.173 A 
ATOM     89  F   UNL A   1      45.465  33.404  26.638  1.00  0.00    -0.203 F 
ATOM     90  C   UNL A   1      46.449  34.918  28.149  1.00  0.00     0.198 A 
ATOM     91  C   UNL A   1      47.060  34.191  30.353  1.00  0.00     0.198 A 
ATOM     92  F   UNL A   1      46.711  31.955  30.995  1.00  0.00    -0.203 F 
ATOM     93  F   UNL A   1      46.403  35.878  27.215  1.00  0.00    -0.200 F 
ATOM     94  C   UNL A   1      46.984  35.193  29.398  1.00  0.00     0.200 A 
ATOM     95  F   UNL A   1      47.564  34.459  31.566  1.00  0.00    -0.200 F 
ATOM     96  F   UNL A   1      47.435  36.424  29.679  1.00  0.00    -0.200 F 
ENDBRANCH  63  86
ENDBRANCH  37  38
ENDBRANCH  29  32
ENDBRANCH  27  28
ENDBRANCH  26  27
ENDBRANCH  25  26
ENDBRANCH   1  25
TORSDOF 16
ENDMDL
