MODEL 1
REMARK VINA RESULT:     -12.5      0.000      0.000
REMARK SMILES Nc1nc(N2CCOC[C@H]2C(=O)NCCCCCCNC(=O)c2ccc(-c3c4nc(c(-c5c(F)c(F)c(F)c(F)c5F)c5ccc([nH]5)c(-c5c(F)c(F)c(F)c(F)c5F)c5nc(c(-c6c(F)c(F)c(F)c(F)c6F)c6ccc3[nH]6)C=C5)C=C4)cc2)ccc1[N+](=O)[O-]
REMARK SMILES IDX 16 1 15 2 14 3 13 4 11 5 12 6 10 8 5 9 6 10 7 11 9 12 8 13
REMARK SMILES IDX 4 14 2 15 3 16 88 17 87 18 86 19 1 20 89 23 90 24 91 25
REMARK SMILES IDX 17 26 18 27 19 28 20 29 21 30 22 32 23 33 24 34 85 35 25 36
REMARK SMILES IDX 84 37 26 38 27 39 28 40 78 41 29 42 83 43 77 44 79 45 30 46
REMARK SMILES IDX 82 47 76 48 75 49 31 51 63 52 43 53 62 54 44 55 47 56 61 57
REMARK SMILES IDX 80 58 45 59 46 60 60 62 81 63 48 64 32 65 33 66 41 67 34 68
REMARK SMILES IDX 35 69 39 70 42 71 36 72 37 73 40 74 38 75 64 76 65 77 73 78
REMARK SMILES IDX 66 79 67 80 71 81 74 82 68 83 69 84 72 85 70 86 49 87 50 88
REMARK SMILES IDX 58 89 51 90 52 91 56 92 59 93 53 94 54 95 57 96 55 97
REMARK H PARENT 13 7 1 21 1 22 20 31 79 50 47 61
REMARK Flexibility Score: inf
ROOT
ATOM      1  C   UNL A   1      32.386  29.975  26.422  1.00  0.00     0.002 C 
ENDROOT
BRANCH   1   2
ATOM      2  C   UNL A   1      31.761  28.942  27.364  1.00  0.00     0.021 C 
BRANCH   2   3
ATOM      3  C   UNL A   1      31.589  27.560  26.734  1.00  0.00     0.116 C 
BRANCH   3   4
ATOM      4  N   UNL A   1      32.867  26.953  26.438  1.00  0.00    -0.354 N 
ATOM      5  C   UNL A   1      33.238  25.936  25.614  1.00  0.00     0.245 C 
ATOM      6  O   UNL A   1      34.458  25.707  25.593  1.00  0.00    -0.273 OA
ATOM      7  H   UNL A   1      33.618  27.355  26.931  1.00  0.00     0.163 HD
BRANCH   5   8
ATOM      8  C   UNL A   1      32.296  25.155  24.669  1.00  0.00     0.199 C 
ATOM      9  N   UNL A   1      32.048  25.738  23.330  1.00  0.00    -0.340 N 
ATOM     10  C   UNL A   1      32.852  25.277  22.207  1.00  0.00     0.147 C 
ATOM     11  C   UNL A   1      32.964  23.752  22.226  1.00  0.00     0.181 C 
ATOM     12  C   UNL A   1      32.629  23.649  24.574  1.00  0.00     0.195 C 
ATOM     13  O   UNL A   1      33.479  23.275  23.475  1.00  0.00    -0.377 OA
BRANCH   9  14
ATOM     14  C   UNL A   1      31.091  26.717  23.173  1.00  0.00     0.132 A 
ATOM     15  C   UNL A   1      30.491  28.833  22.353  1.00  0.00     0.204 A 
ATOM     16  N   UNL A   1      31.431  27.882  22.584  1.00  0.00    -0.207 NA
ATOM     17  C   UNL A   1      29.165  28.643  22.731  1.00  0.00     0.311 A 
ATOM     18  C   UNL A   1      28.809  27.477  23.403  1.00  0.00     0.093 A 
ATOM     19  C   UNL A   1      29.786  26.513  23.623  1.00  0.00     0.054 A 
BRANCH  15  20
ATOM     20  N   UNL A   1      30.950  29.917  21.633  1.00  0.00    -0.378 N 
ATOM     21  H   UNL A   1      31.812  29.865  21.161  1.00  0.00     0.158 HD
ATOM     22  H   UNL A   1      30.415  30.742  21.590  1.00  0.00     0.158 HD
ENDBRANCH  15  20
BRANCH  17  23
ATOM     23  N   UNL A   1      28.133  29.630  22.450  1.00  0.00     0.066 N 
ATOM     24  O   UNL A   1      28.014  30.005  21.273  1.00  0.00    -0.258 OA
ATOM     25  O   UNL A   1      27.410  30.013  23.382  1.00  0.00    -0.258 OA
ENDBRANCH  17  23
ENDBRANCH   9  14
ENDBRANCH   5   8
ENDBRANCH   3   4
ENDBRANCH   2   3
ENDBRANCH   1   2
BRANCH   1  26
ATOM     26  C   UNL A   1      31.393  30.951  25.778  1.00  0.00     0.002 C 
BRANCH  26  27
ATOM     27  C   UNL A   1      31.211  32.289  26.502  1.00  0.00     0.021 C 
BRANCH  27  28
ATOM     28  C   UNL A   1      32.450  32.801  27.232  1.00  0.00     0.116 C 
BRANCH  28  29
ATOM     29  N   UNL A   1      32.333  34.204  27.591  1.00  0.00    -0.352 N 
ATOM     30  C   UNL A   1      32.989  34.922  28.559  1.00  0.00     0.251 C 
ATOM     31  H   UNL A   1      31.685  34.718  27.057  1.00  0.00     0.163 HD
ATOM     32  O   UNL A   1      32.611  36.051  28.851  1.00  0.00    -0.269 OA
BRANCH  30  33
ATOM     33  C   UNL A   1      34.148  34.333  29.262  1.00  0.00     0.039 A 
ATOM     34  C   UNL A   1      33.931  33.633  30.452  1.00  0.00     0.014 A 
ATOM     35  C   UNL A   1      35.446  34.502  28.773  1.00  0.00     0.014 A 
ATOM     36  C   UNL A   1      35.010  33.058  31.125  1.00  0.00     0.010 A 
ATOM     37  C   UNL A   1      36.513  33.872  29.407  1.00  0.00     0.010 A 
ATOM     38  C   UNL A   1      36.307  33.152  30.593  1.00  0.00    -0.014 A 
BRANCH  38  39
ATOM     39  C   UNL A   1      37.462  32.515  31.271  1.00  0.00     0.031 A 
ATOM     40  C   UNL A   1      38.210  31.399  30.597  1.00  0.00     0.074 A 
ATOM     41  C   UNL A   1      37.800  32.901  32.515  1.00  0.00     0.049 A 
ATOM     42  N   UNL A   1      39.205  30.676  31.047  1.00  0.00    -0.248 NA
ATOM     43  C   UNL A   1      37.759  31.028  29.247  1.00  0.00     0.031 C 
ATOM     44  C   UNL A   1      37.131  33.948  33.285  1.00  0.00     0.029 A 
ATOM     45  N   UNL A   1      38.790  32.452  33.352  1.00  0.00    -0.354 N 
ATOM     46  C   UNL A   1      39.489  29.760  30.043  1.00  0.00     0.074 A 
ATOM     47  C   UNL A   1      38.524  29.979  28.987  1.00  0.00     0.031 C 
ATOM     48  C   UNL A   1      37.748  34.084  34.470  1.00  0.00     0.029 A 
ATOM     49  C   UNL A   1      38.832  33.110  34.556  1.00  0.00     0.049 A 
ATOM     50  H   UNL A   1      39.412  31.726  33.113  1.00  0.00     0.167 HD
ATOM     51  C   UNL A   1      40.480  28.837  29.995  1.00  0.00     0.037 A 
ATOM     52  C   UNL A   1      39.656  32.946  35.608  1.00  0.00     0.037 A 
ATOM     53  C   UNL A   1      41.448  28.635  31.042  1.00  0.00     0.049 A 
ATOM     54  C   UNL A   1      40.730  31.897  35.544  1.00  0.00     0.074 A 
ATOM     55  C   UNL A   1      42.521  27.764  31.072  1.00  0.00     0.029 A 
ATOM     56  N   UNL A   1      41.454  29.316  32.251  1.00  0.00    -0.354 N 
ATOM     57  N   UNL A   1      41.028  31.075  34.568  1.00  0.00    -0.248 NA
ATOM     58  C   UNL A   1      41.585  31.755  36.731  1.00  0.00     0.031 C 
ATOM     59  C   UNL A   1      43.151  27.886  32.316  1.00  0.00     0.029 A 
ATOM     60  C   UNL A   1      42.498  28.868  33.044  1.00  0.00     0.049 A 
ATOM     61  H   UNL A   1      40.810  30.015  32.508  1.00  0.00     0.167 HD
ATOM     62  C   UNL A   1      42.122  30.340  35.007  1.00  0.00     0.074 A 
ATOM     63  C   UNL A   1      42.439  30.820  36.336  1.00  0.00     0.031 C 
ATOM     64  C   UNL A   1      42.802  29.359  34.364  1.00  0.00     0.037 A 
BRANCH  51  65
ATOM     65  C   UNL A   1      40.555  27.975  28.767  1.00  0.00     0.064 A 
ATOM     66  C   UNL A   1      41.309  28.356  27.645  1.00  0.00     0.173 A 
ATOM     67  C   UNL A   1      39.863  26.757  28.707  1.00  0.00     0.173 A 
ATOM     68  F   UNL A   1      41.980  29.518  27.646  1.00  0.00    -0.203 F 
ATOM     69  C   UNL A   1      41.331  27.572  26.495  1.00  0.00     0.198 A 
ATOM     70  C   UNL A   1      39.914  25.959  27.566  1.00  0.00     0.198 A 
ATOM     71  F   UNL A   1      39.132  26.340  29.752  1.00  0.00    -0.203 F 
ATOM     72  F   UNL A   1      42.003  27.991  25.414  1.00  0.00    -0.200 F 
ATOM     73  C   UNL A   1      40.636  26.373  26.457  1.00  0.00     0.200 A 
ATOM     74  F   UNL A   1      39.252  24.794  27.535  1.00  0.00    -0.200 F 
ATOM     75  F   UNL A   1      40.653  25.622  25.348  1.00  0.00    -0.200 F 
ENDBRANCH  51  65
BRANCH  52  76
ATOM     76  C   UNL A   1      39.522  33.832  36.792  1.00  0.00     0.064 A 
ATOM     77  C   UNL A   1      40.154  35.084  36.818  1.00  0.00     0.173 A 
ATOM     78  C   UNL A   1      38.753  33.465  37.905  1.00  0.00     0.173 A 
ATOM     79  F   UNL A   1      40.916  35.469  35.784  1.00  0.00    -0.203 F 
ATOM     80  C   UNL A   1      40.029  35.930  37.917  1.00  0.00     0.198 A 
ATOM     81  C   UNL A   1      38.609  34.322  38.994  1.00  0.00     0.198 A 
ATOM     82  F   UNL A   1      38.125  32.280  37.926  1.00  0.00    -0.203 F 
ATOM     83  F   UNL A   1      40.670  37.107  37.929  1.00  0.00    -0.200 F 
ATOM     84  C   UNL A   1      39.251  35.552  39.000  1.00  0.00     0.200 A 
ATOM     85  F   UNL A   1      37.846  33.960  40.034  1.00  0.00    -0.200 F 
ATOM     86  F   UNL A   1      39.124  36.371  40.053  1.00  0.00    -0.200 F 
ENDBRANCH  52  76
BRANCH  64  87
ATOM     87  C   UNL A   1      43.981  28.763  35.078  1.00  0.00     0.064 A 
ATOM     88  C   UNL A   1      45.266  29.310  34.959  1.00  0.00     0.173 A 
ATOM     89  C   UNL A   1      43.812  27.652  35.918  1.00  0.00     0.173 A 
ATOM     90  F   UNL A   1      45.482  30.362  34.156  1.00  0.00    -0.203 F 
ATOM     91  C   UNL A   1      46.346  28.751  35.639  1.00  0.00     0.198 A 
ATOM     92  C   UNL A   1      44.888  27.113  36.618  1.00  0.00     0.198 A 
ATOM     93  F   UNL A   1      42.601  27.094  36.068  1.00  0.00    -0.203 F 
ATOM     94  F   UNL A   1      47.574  29.261  35.475  1.00  0.00    -0.200 F 
ATOM     95  C   UNL A   1      46.155  27.659  36.473  1.00  0.00     0.200 A 
ATOM     96  F   UNL A   1      44.700  26.066  37.432  1.00  0.00    -0.200 F 
ATOM     97  F   UNL A   1      47.194  27.126  37.130  1.00  0.00    -0.200 F 
ENDBRANCH  64  87
ENDBRANCH  38  39
ENDBRANCH  30  33
ENDBRANCH  28  29
ENDBRANCH  27  28
ENDBRANCH  26  27
ENDBRANCH   1  26
TORSDOF 16
ENDMDL
MODEL 2
REMARK VINA RESULT:     -12.5      0.684      1.343
REMARK SMILES Nc1nc(N2CCOC[C@H]2C(=O)NCCCCCCNC(=O)c2ccc(-c3c4nc(c(-c5c(F)c(F)c(F)c(F)c5F)c5ccc([nH]5)c(-c5c(F)c(F)c(F)c(F)c5F)c5nc(c(-c6c(F)c(F)c(F)c(F)c6F)c6ccc3[nH]6)C=C5)C=C4)cc2)ccc1[N+](=O)[O-]
REMARK SMILES IDX 16 1 15 2 14 3 13 4 11 5 12 6 10 8 5 9 6 10 7 11 9 12 8 13
REMARK SMILES IDX 4 14 2 15 3 16 88 17 87 18 86 19 1 20 89 23 90 24 91 25
REMARK SMILES IDX 17 26 18 27 19 28 20 29 21 30 22 32 23 33 24 34 85 35 25 36
REMARK SMILES IDX 84 37 26 38 27 39 28 40 78 41 29 42 83 43 77 44 79 45 30 46
REMARK SMILES IDX 82 47 76 48 75 49 31 51 63 52 43 53 62 54 44 55 47 56 61 57
REMARK SMILES IDX 80 58 45 59 46 60 60 62 81 63 48 64 32 65 33 66 41 67 34 68
REMARK SMILES IDX 35 69 39 70 42 71 36 72 37 73 40 74 38 75 64 76 65 77 73 78
REMARK SMILES IDX 66 79 67 80 71 81 74 82 68 83 69 84 72 85 70 86 49 87 50 88
REMARK SMILES IDX 58 89 51 90 52 91 56 92 59 93 53 94 54 95 57 96 55 97
REMARK H PARENT 13 7 1 21 1 22 20 31 79 50 47 61
REMARK Flexibility Score: inf
ROOT
ATOM      1  C   UNL A   1      31.938  29.856  27.034  1.00  0.00     0.002 C 
ENDROOT
BRANCH   1   2
ATOM      2  C   UNL A   1      33.098  28.991  26.531  1.00  0.00     0.021 C 
BRANCH   2   3
ATOM      3  C   UNL A   1      33.255  28.999  25.011  1.00  0.00     0.116 C 
BRANCH   3   4
ATOM      4  N   UNL A   1      33.898  27.792  24.541  1.00  0.00    -0.354 N 
ATOM      5  C   UNL A   1      33.509  26.488  24.514  1.00  0.00     0.245 C 
ATOM      6  O   UNL A   1      34.329  25.715  23.993  1.00  0.00    -0.273 OA
ATOM      7  H   UNL A   1      34.795  27.944  24.167  1.00  0.00     0.163 HD
BRANCH   5   8
ATOM      8  C   UNL A   1      32.133  25.951  24.971  1.00  0.00     0.199 C 
ATOM      9  N   UNL A   1      31.095  25.778  23.927  1.00  0.00    -0.340 N 
ATOM     10  C   UNL A   1      30.925  24.465  23.322  1.00  0.00     0.147 C 
ATOM     11  C   UNL A   1      30.932  23.379  24.400  1.00  0.00     0.181 C 
ATOM     12  C   UNL A   1      32.230  24.705  25.881  1.00  0.00     0.195 C 
ATOM     13  O   UNL A   1      32.115  23.440  25.205  1.00  0.00    -0.377 OA
BRANCH   9  14
ATOM     14  C   UNL A   1      30.335  26.855  23.529  1.00  0.00     0.132 A 
ATOM     15  C   UNL A   1      30.197  28.930  22.440  1.00  0.00     0.204 A 
ATOM     16  N   UNL A   1      30.935  27.891  22.907  1.00  0.00    -0.207 NA
ATOM     17  C   UNL A   1      28.816  28.966  22.606  1.00  0.00     0.311 A 
ATOM     18  C   UNL A   1      28.188  27.940  23.307  1.00  0.00     0.093 A 
ATOM     19  C   UNL A   1      28.961  26.882  23.769  1.00  0.00     0.054 A 
BRANCH  15  20
ATOM     20  N   UNL A   1      30.921  29.856  21.717  1.00  0.00    -0.378 N 
ATOM     21  H   UNL A   1      30.606  30.786  21.653  1.00  0.00     0.158 HD
ATOM     22  H   UNL A   1      31.755  29.587  21.267  1.00  0.00     0.158 HD
ENDBRANCH  15  20
BRANCH  17  23
ATOM     23  N   UNL A   1      28.002  30.047  22.072  1.00  0.00     0.066 N 
ATOM     24  O   UNL A   1      28.095  30.280  20.857  1.00  0.00    -0.258 OA
ATOM     25  O   UNL A   1      27.238  30.650  22.842  1.00  0.00    -0.258 OA
ENDBRANCH  17  23
ENDBRANCH   9  14
ENDBRANCH   5   8
ENDBRANCH   3   4
ENDBRANCH   2   3
ENDBRANCH   1   2
BRANCH   1  26
ATOM     26  C   UNL A   1      31.393  30.867  26.016  1.00  0.00     0.002 C 
BRANCH  26  27
ATOM     27  C   UNL A   1      31.296  32.315  26.506  1.00  0.00     0.021 C 
BRANCH  27  28
ATOM     28  C   UNL A   1      32.536  32.838  27.227  1.00  0.00     0.116 C 
BRANCH  28  29
ATOM     29  N   UNL A   1      32.377  34.216  27.661  1.00  0.00    -0.352 N 
ATOM     30  C   UNL A   1      33.004  34.896  28.673  1.00  0.00     0.251 C 
ATOM     31  H   UNL A   1      31.720  34.741  27.150  1.00  0.00     0.163 HD
ATOM     32  O   UNL A   1      32.593  35.997  29.023  1.00  0.00    -0.269 OA
BRANCH  30  33
ATOM     33  C   UNL A   1      34.173  34.301  29.355  1.00  0.00     0.039 A 
ATOM     34  C   UNL A   1      33.963  33.505  30.484  1.00  0.00     0.014 A 
ATOM     35  C   UNL A   1      35.472  34.557  28.908  1.00  0.00     0.014 A 
ATOM     36  C   UNL A   1      35.052  32.922  31.135  1.00  0.00     0.010 A 
ATOM     37  C   UNL A   1      36.552  33.923  29.516  1.00  0.00     0.010 A 
ATOM     38  C   UNL A   1      36.353  33.106  30.639  1.00  0.00    -0.014 A 
BRANCH  38  39
ATOM     39  C   UNL A   1      37.520  32.465  31.292  1.00  0.00     0.031 A 
ATOM     40  C   UNL A   1      38.268  31.368  30.589  1.00  0.00     0.074 A 
ATOM     41  C   UNL A   1      37.869  32.830  32.540  1.00  0.00     0.049 A 
ATOM     42  N   UNL A   1      39.273  30.644  31.015  1.00  0.00    -0.248 NA
ATOM     43  C   UNL A   1      37.805  31.018  29.238  1.00  0.00     0.031 C 
ATOM     44  C   UNL A   1      37.201  33.858  33.337  1.00  0.00     0.029 A 
ATOM     45  N   UNL A   1      38.872  32.373  33.357  1.00  0.00    -0.354 N 
ATOM     46  C   UNL A   1      39.552  29.749  29.990  1.00  0.00     0.074 A 
ATOM     47  C   UNL A   1      38.574  29.980  28.949  1.00  0.00     0.031 C 
ATOM     48  C   UNL A   1      37.831  33.976  34.517  1.00  0.00     0.029 A 
ATOM     49  C   UNL A   1      38.923  33.009  34.573  1.00  0.00     0.049 A 
ATOM     50  H   UNL A   1      39.496  31.656  33.097  1.00  0.00     0.167 HD
ATOM     51  C   UNL A   1      40.548  28.834  29.914  1.00  0.00     0.037 A 
ATOM     52  C   UNL A   1      39.760  32.831  35.612  1.00  0.00     0.037 A 
ATOM     53  C   UNL A   1      41.529  28.619  30.946  1.00  0.00     0.049 A 
ATOM     54  C   UNL A   1      40.840  31.791  35.517  1.00  0.00     0.074 A 
ATOM     55  C   UNL A   1      42.609  27.755  30.947  1.00  0.00     0.029 A 
ATOM     56  N   UNL A   1      41.544  29.277  32.168  1.00  0.00    -0.354 N 
ATOM     57  N   UNL A   1      41.133  30.990  34.521  1.00  0.00    -0.248 NA
ATOM     58  C   UNL A   1      41.710  31.632  36.691  1.00  0.00     0.031 C 
ATOM     59  C   UNL A   1      43.252  27.858  32.186  1.00  0.00     0.029 A 
ATOM     60  C   UNL A   1      42.601  28.821  32.940  1.00  0.00     0.049 A 
ATOM     61  H   UNL A   1      40.899  29.967  32.444  1.00  0.00     0.167 HD
ATOM     62  C   UNL A   1      42.236  30.254  34.934  1.00  0.00     0.074 A 
ATOM     63  C   UNL A   1      42.565  30.712  36.269  1.00  0.00     0.031 C 
ATOM     64  C   UNL A   1      42.916  29.290  34.265  1.00  0.00     0.037 A 
BRANCH  51  65
ATOM     65  C   UNL A   1      40.616  27.995  28.669  1.00  0.00     0.064 A 
ATOM     66  C   UNL A   1      39.947  26.764  28.575  1.00  0.00     0.173 A 
ATOM     67  C   UNL A   1      41.362  28.421  27.561  1.00  0.00     0.173 A 
ATOM     68  F   UNL A   1      39.230  26.304  29.611  1.00  0.00    -0.203 F 
ATOM     69  C   UNL A   1      40.058  25.972  27.435  1.00  0.00     0.198 A 
ATOM     70  C   UNL A   1      41.443  27.642  26.409  1.00  0.00     0.198 A 
ATOM     71  F   UNL A   1      42.016  29.592  27.594  1.00  0.00    -0.203 F 
ATOM     72  F   UNL A   1      39.465  24.771  27.395  1.00  0.00    -0.200 F 
ATOM     73  C   UNL A   1      40.803  26.413  26.351  1.00  0.00     0.200 A 
ATOM     74  F   UNL A   1      42.154  28.075  25.358  1.00  0.00    -0.200 F 
ATOM     75  F   UNL A   1      40.913  25.649  25.257  1.00  0.00    -0.200 F 
ENDBRANCH  51  65
BRANCH  52  76
ATOM     76  C   UNL A   1      39.633  33.694  36.814  1.00  0.00     0.064 A 
ATOM     77  C   UNL A   1      40.287  34.933  36.871  1.00  0.00     0.173 A 
ATOM     78  C   UNL A   1      38.850  33.316  37.913  1.00  0.00     0.173 A 
ATOM     79  F   UNL A   1      41.063  35.327  35.850  1.00  0.00    -0.203 F 
ATOM     80  C   UNL A   1      40.169  35.757  37.987  1.00  0.00     0.198 A 
ATOM     81  C   UNL A   1      38.714  34.153  39.020  1.00  0.00     0.198 A 
ATOM     82  F   UNL A   1      38.201  32.143  37.905  1.00  0.00    -0.203 F 
ATOM     83  F   UNL A   1      40.830  36.923  38.028  1.00  0.00    -0.200 F 
ATOM     84  C   UNL A   1      39.377  35.371  39.057  1.00  0.00     0.200 A 
ATOM     85  F   UNL A   1      37.937  33.782  40.047  1.00  0.00    -0.200 F 
ATOM     86  F   UNL A   1      39.257  36.168  40.126  1.00  0.00    -0.200 F 
ENDBRANCH  52  76
BRANCH  64  87
ATOM     87  C   UNL A   1      44.107  28.689  34.955  1.00  0.00     0.064 A 
ATOM     88  C   UNL A   1      45.386  29.251  34.837  1.00  0.00     0.173 A 
ATOM     89  C   UNL A   1      43.956  27.558  35.771  1.00  0.00     0.173 A 
ATOM     90  F   UNL A   1      45.584  30.322  34.055  1.00  0.00    -0.203 F 
ATOM     91  C   UNL A   1      46.477  28.687  35.494  1.00  0.00     0.198 A 
ATOM     92  C   UNL A   1      45.044  27.014  36.449  1.00  0.00     0.198 A 
ATOM     93  F   UNL A   1      42.752  26.985  35.920  1.00  0.00    -0.203 F 
ATOM     94  F   UNL A   1      47.699  29.212  35.331  1.00  0.00    -0.200 F 
ATOM     95  C   UNL A   1      46.304  27.574  36.304  1.00  0.00     0.200 A 
ATOM     96  F   UNL A   1      44.873  25.946  37.241  1.00  0.00    -0.200 F 
ATOM     97  F   UNL A   1      47.354  27.037  36.940  1.00  0.00    -0.200 F 
ENDBRANCH  64  87
ENDBRANCH  38  39
ENDBRANCH  30  33
ENDBRANCH  28  29
ENDBRANCH  27  28
ENDBRANCH  26  27
ENDBRANCH   1  26
TORSDOF 16
ENDMDL
MODEL 3
REMARK VINA RESULT:     -12.4      0.836      7.280
REMARK SMILES Nc1nc(N2CCOC[C@H]2C(=O)NCCCCCCNC(=O)c2ccc(-c3c4nc(c(-c5c(F)c(F)c(F)c(F)c5F)c5ccc([nH]5)c(-c5c(F)c(F)c(F)c(F)c5F)c5nc(c(-c6c(F)c(F)c(F)c(F)c6F)c6ccc3[nH]6)C=C5)C=C4)cc2)ccc1[N+](=O)[O-]
REMARK SMILES IDX 16 1 15 2 14 3 13 4 11 5 12 6 10 8 5 9 6 10 7 11 9 12 8 13
REMARK SMILES IDX 4 14 2 15 3 16 88 17 87 18 86 19 1 20 89 23 90 24 91 25
REMARK SMILES IDX 17 26 18 27 19 28 20 29 21 30 22 32 23 33 24 34 85 35 25 36
REMARK SMILES IDX 84 37 26 38 27 39 28 40 78 41 29 42 83 43 77 44 79 45 30 46
REMARK SMILES IDX 82 47 76 48 75 49 31 51 63 52 43 53 62 54 44 55 47 56 61 57
REMARK SMILES IDX 80 58 45 59 46 60 60 62 81 63 48 64 32 65 33 66 41 67 34 68
REMARK SMILES IDX 35 69 39 70 42 71 36 72 37 73 40 74 38 75 64 76 65 77 73 78
REMARK SMILES IDX 66 79 67 80 71 81 74 82 68 83 69 84 72 85 70 86 49 87 50 88
REMARK SMILES IDX 58 89 51 90 52 91 56 92 59 93 53 94 54 95 57 96 55 97
REMARK H PARENT 13 7 1 21 1 22 20 31 79 50 47 61
REMARK Flexibility Score: inf
ROOT
ATOM      1  C   UNL A   1      32.015  29.847  27.085  1.00  0.00     0.002 C 
ENDROOT
BRANCH   1   2
ATOM      2  C   UNL A   1      33.177  29.021  26.526  1.00  0.00     0.021 C 
BRANCH   2   3
ATOM      3  C   UNL A   1      33.229  28.989  24.998  1.00  0.00     0.116 C 
BRANCH   3   4
ATOM      4  N   UNL A   1      33.884  27.794  24.518  1.00  0.00    -0.354 N 
ATOM      5  C   UNL A   1      33.509  26.486  24.480  1.00  0.00     0.245 C 
ATOM      6  O   UNL A   1      34.337  25.726  23.951  1.00  0.00    -0.273 OA
ATOM      7  H   UNL A   1      34.779  27.959  24.144  1.00  0.00     0.163 HD
BRANCH   5   8
ATOM      8  C   UNL A   1      32.140  25.930  24.934  1.00  0.00     0.199 C 
ATOM      9  N   UNL A   1      31.100  25.761  23.892  1.00  0.00    -0.340 N 
ATOM     10  C   UNL A   1      30.940  24.454  23.270  1.00  0.00     0.147 C 
ATOM     11  C   UNL A   1      30.960  23.355  24.334  1.00  0.00     0.181 C 
ATOM     12  C   UNL A   1      32.251  24.673  25.827  1.00  0.00     0.195 C 
ATOM     13  O   UNL A   1      32.146  23.416  25.136  1.00  0.00    -0.377 OA
BRANCH   9  14
ATOM     14  C   UNL A   1      30.328  26.837  23.510  1.00  0.00     0.132 A 
ATOM     15  C   UNL A   1      30.163  28.914  22.431  1.00  0.00     0.204 A 
ATOM     16  N   UNL A   1      30.913  27.877  22.882  1.00  0.00    -0.207 NA
ATOM     17  C   UNL A   1      28.785  28.944  22.621  1.00  0.00     0.311 A 
ATOM     18  C   UNL A   1      28.173  27.913  23.330  1.00  0.00     0.093 A 
ATOM     19  C   UNL A   1      28.959  26.856  23.775  1.00  0.00     0.054 A 
BRANCH  15  20
ATOM     20  N   UNL A   1      30.870  29.845  21.698  1.00  0.00    -0.378 N 
ATOM     21  H   UNL A   1      30.617  30.035  20.766  1.00  0.00     0.158 HD
ATOM     22  H   UNL A   1      31.628  30.322  22.109  1.00  0.00     0.158 HD
ENDBRANCH  15  20
BRANCH  17  23
ATOM     23  N   UNL A   1      27.957  30.023  22.105  1.00  0.00     0.066 N 
ATOM     24  O   UNL A   1      28.049  30.278  20.894  1.00  0.00    -0.258 OA
ATOM     25  O   UNL A   1      27.184  30.602  22.884  1.00  0.00    -0.258 OA
ENDBRANCH  17  23
ENDBRANCH   9  14
ENDBRANCH   5   8
ENDBRANCH   3   4
ENDBRANCH   2   3
ENDBRANCH   1   2
BRANCH   1  26
ATOM     26  C   UNL A   1      31.379  30.830  26.091  1.00  0.00     0.002 C 
BRANCH  26  27
ATOM     27  C   UNL A   1      31.323  32.291  26.546  1.00  0.00     0.021 C 
BRANCH  27  28
ATOM     28  C   UNL A   1      32.640  32.854  27.073  1.00  0.00     0.116 C 
BRANCH  28  29
ATOM     29  N   UNL A   1      32.484  34.192  27.621  1.00  0.00    -0.352 N 
ATOM     30  C   UNL A   1      33.109  34.783  28.690  1.00  0.00     0.251 C 
ATOM     31  H   UNL A   1      31.831  34.760  27.152  1.00  0.00     0.163 HD
ATOM     32  O   UNL A   1      32.699  35.852  29.128  1.00  0.00    -0.269 OA
BRANCH  30  33
ATOM     33  C   UNL A   1      34.272  34.128  29.324  1.00  0.00     0.039 A 
ATOM     34  C   UNL A   1      34.052  33.229  30.371  1.00  0.00     0.014 A 
ATOM     35  C   UNL A   1      35.575  34.427  28.917  1.00  0.00     0.014 A 
ATOM     36  C   UNL A   1      35.136  32.589  30.975  1.00  0.00     0.010 A 
ATOM     37  C   UNL A   1      36.650  33.740  29.474  1.00  0.00     0.010 A 
ATOM     38  C   UNL A   1      36.442  32.822  30.513  1.00  0.00    -0.014 A 
BRANCH  38  39
ATOM     39  C   UNL A   1      37.604  32.124  31.115  1.00  0.00     0.031 A 
ATOM     40  C   UNL A   1      38.074  32.494  32.493  1.00  0.00     0.074 A 
ATOM     41  C   UNL A   1      38.272  31.202  30.398  1.00  0.00     0.049 A 
ATOM     42  N   UNL A   1      39.103  32.045  33.168  1.00  0.00    -0.248 NA
ATOM     43  C   UNL A   1      37.298  33.527  33.197  1.00  0.00     0.031 C 
ATOM     44  C   UNL A   1      37.933  30.782  29.038  1.00  0.00     0.029 A 
ATOM     45  N   UNL A   1      39.378  30.453  30.712  1.00  0.00    -0.354 N 
ATOM     46  C   UNL A   1      39.104  32.748  34.365  1.00  0.00     0.074 A 
ATOM     47  C   UNL A   1      38.011  33.694  34.300  1.00  0.00     0.031 C 
ATOM     48  C   UNL A   1      38.794  29.829  28.647  1.00  0.00     0.029 A 
ATOM     49  C   UNL A   1      39.764  29.596  29.712  1.00  0.00     0.049 A 
ATOM     50  H   UNL A   1      39.851  30.525  31.574  1.00  0.00     0.167 HD
ATOM     51  C   UNL A   1      39.926  32.602  35.432  1.00  0.00     0.037 A 
ATOM     52  C   UNL A   1      40.787  28.721  29.664  1.00  0.00     0.037 A 
ATOM     53  C   UNL A   1      41.003  31.648  35.498  1.00  0.00     0.049 A 
ATOM     54  C   UNL A   1      41.703  28.595  30.848  1.00  0.00     0.074 A 
ATOM     55  C   UNL A   1      41.861  31.383  36.550  1.00  0.00     0.029 A 
ATOM     56  N   UNL A   1      41.369  30.801  34.461  1.00  0.00    -0.354 N 
ATOM     57  N   UNL A   1      41.661  29.223  31.998  1.00  0.00    -0.248 NA
ATOM     58  C   UNL A   1      42.810  27.636  30.728  1.00  0.00     0.031 C 
ATOM     59  C   UNL A   1      42.775  30.407  36.135  1.00  0.00     0.029 A 
ATOM     60  C   UNL A   1      42.457  30.030  34.839  1.00  0.00     0.049 A 
ATOM     61  H   UNL A   1      40.922  30.755  33.585  1.00  0.00     0.167 HD
ATOM     62  C   UNL A   1      42.713  28.715  32.749  1.00  0.00     0.074 A 
ATOM     63  C   UNL A   1      43.370  27.721  31.926  1.00  0.00     0.031 C 
ATOM     64  C   UNL A   1      43.096  29.041  34.009  1.00  0.00     0.037 A 
BRANCH  51  65
ATOM     65  C   UNL A   1      39.690  33.504  36.609  1.00  0.00     0.064 A 
ATOM     66  C   UNL A   1      38.847  33.127  37.668  1.00  0.00     0.173 A 
ATOM     67  C   UNL A   1      40.306  34.763  36.680  1.00  0.00     0.173 A 
ATOM     68  F   UNL A   1      38.224  31.941  37.644  1.00  0.00    -0.203 F 
ATOM     69  C   UNL A   1      38.597  33.993  38.729  1.00  0.00     0.198 A 
ATOM     70  C   UNL A   1      40.079  35.613  37.760  1.00  0.00     0.198 A 
ATOM     71  F   UNL A   1      41.126  35.171  35.699  1.00  0.00    -0.203 F 
ATOM     72  F   UNL A   1      37.737  33.637  39.693  1.00  0.00    -0.200 F 
ATOM     73  C   UNL A   1      39.216  35.234  38.776  1.00  0.00     0.200 A 
ATOM     74  F   UNL A   1      40.687  36.806  37.810  1.00  0.00    -0.200 F 
ATOM     75  F   UNL A   1      38.970  36.068  39.795  1.00  0.00    -0.200 F 
ENDBRANCH  51  65
BRANCH  52  76
ATOM     76  C   UNL A   1      40.963  27.862  28.466  1.00  0.00     0.064 A 
ATOM     77  C   UNL A   1      41.808  28.264  27.422  1.00  0.00     0.173 A 
ATOM     78  C   UNL A   1      40.316  26.625  28.344  1.00  0.00     0.173 A 
ATOM     79  F   UNL A   1      42.433  29.449  27.486  1.00  0.00    -0.203 F 
ATOM     80  C   UNL A   1      41.991  27.464  26.296  1.00  0.00     0.198 A 
ATOM     81  C   UNL A   1      40.518  25.815  27.228  1.00  0.00     0.198 A 
ATOM     82  F   UNL A   1      39.501  26.195  29.318  1.00  0.00    -0.203 F 
ATOM     83  F   UNL A   1      42.780  27.887  25.298  1.00  0.00    -0.200 F 
ATOM     84  C   UNL A   1      41.353  26.238  26.204  1.00  0.00     0.200 A 
ATOM     85  F   UNL A   1      39.910  24.624  27.148  1.00  0.00    -0.200 F 
ATOM     86  F   UNL A   1      41.537  25.464  25.126  1.00  0.00    -0.200 F 
ENDBRANCH  52  76
BRANCH  64  87
ATOM     87  C   UNL A   1      44.261  28.290  34.586  1.00  0.00     0.064 A 
ATOM     88  C   UNL A   1      45.572  28.777  34.487  1.00  0.00     0.173 A 
ATOM     89  C   UNL A   1      44.055  27.086  35.277  1.00  0.00     0.173 A 
ATOM     90  F   UNL A   1      45.822  29.913  33.821  1.00  0.00    -0.203 F 
ATOM     91  C   UNL A   1      46.639  28.072  35.039  1.00  0.00     0.198 A 
ATOM     92  C   UNL A   1      45.120  26.400  35.853  1.00  0.00     0.198 A 
ATOM     93  F   UNL A   1      42.818  26.581  35.404  1.00  0.00    -0.203 F 
ATOM     94  F   UNL A   1      47.890  28.531  34.893  1.00  0.00    -0.200 F 
ATOM     95  C   UNL A   1      46.411  26.889  35.727  1.00  0.00     0.200 A 
ATOM     96  F   UNL A   1      44.897  25.263  36.528  1.00  0.00    -0.200 F 
ATOM     97  F   UNL A   1      47.439  26.216  36.263  1.00  0.00    -0.200 F 
ENDBRANCH  64  87
ENDBRANCH  38  39
ENDBRANCH  30  33
ENDBRANCH  28  29
ENDBRANCH  27  28
ENDBRANCH  26  27
ENDBRANCH   1  26
TORSDOF 16
ENDMDL
