MODEL 1
REMARK VINA RESULT:     -11.7      0.000      0.000
REMARK SMILES O=C(CC1CC[NH+](C[C@@H]2Cc3ccccc32)CC1)NCCCCCCNC(=O)c1ccc(-c2c3nc(c(-c4c(F)c(F)c(F)c(F)c4F)c4ccc([nH]4)c(-c4c(F)c(F)c(F)c(F)c4F)c4nc(c(-c5c(F)c(F)c(F)c(F)c5F)c5ccc2[nH]5)C=C4)C=C3)cc1
REMARK SMILES IDX 22 1 21 2 20 3 19 4 1 5 2 6 3 8 4 9 5 10 18 11 6 12 17 13
REMARK SMILES IDX 7 14 8 16 9 17 10 18 16 19 11 20 15 21 12 22 14 23 13 24
REMARK SMILES IDX 23 25 24 26 25 27 26 28 27 29 28 31 29 32 30 33 91 34 31 35
REMARK SMILES IDX 90 36 32 37 33 38 34 39 84 40 35 41 89 42 83 43 85 44 36 45
REMARK SMILES IDX 88 46 82 47 81 48 37 50 69 51 49 52 68 53 50 54 53 55 67 56
REMARK SMILES IDX 86 57 51 58 52 59 66 61 87 62 54 63 38 64 39 65 47 66 40 67
REMARK SMILES IDX 41 68 45 69 48 70 42 71 43 72 46 73 44 74 70 75 71 76 79 77
REMARK SMILES IDX 72 78 73 79 77 80 80 81 74 82 75 83 78 84 76 85 55 86 56 87
REMARK SMILES IDX 64 88 57 89 58 90 62 91 65 92 59 93 60 94 63 95 61 96
REMARK H PARENT 19 7 7 15 26 30 85 49 53 60
REMARK Flexibility Score: inf
ROOT
ATOM      1  C   UNL A   1      42.274  21.016  27.378  1.00  0.00     0.002 C 
ENDROOT
BRANCH   1   2
ATOM      2  C   UNL A   1      41.459  22.076  26.623  1.00  0.00     0.021 C 
BRANCH   2   3
ATOM      3  C   UNL A   1      40.242  22.606  27.383  1.00  0.00     0.116 C 
BRANCH   3   4
ATOM      4  N   UNL A   1      39.070  22.620  26.537  1.00  0.00    -0.356 N 
ATOM      5  O   UNL A   1      38.554  24.829  26.854  1.00  0.00    -0.275 OA
ATOM      6  C   UNL A   1      38.290  23.735  26.365  1.00  0.00     0.220 C 
ATOM      7  H   UNL A   1      38.820  21.794  26.063  1.00  0.00     0.163 HD
BRANCH   6   8
ATOM      8  C   UNL A   1      37.001  23.487  25.611  1.00  0.00     0.104 C 
BRANCH   8   9
ATOM      9  C   UNL A   1      37.040  22.345  24.569  1.00  0.00     0.009 C 
ATOM     10  C   UNL A   1      36.265  22.745  23.302  1.00  0.00     0.066 C 
ATOM     11  C   UNL A   1      36.395  21.036  25.058  1.00  0.00     0.066 C 
ATOM     12  C   UNL A   1      34.783  22.972  23.616  1.00  0.00     0.262 C 
ATOM     13  C   UNL A   1      34.893  21.185  25.328  1.00  0.00     0.262 C 
ATOM     14  N   UNL A   1      34.145  21.824  24.250  1.00  0.00    -0.334 N 
ATOM     15  H   UNL A   1      34.189  21.125  23.509  1.00  0.00     0.348 HD
BRANCH  14  16
ATOM     16  C   UNL A   1      32.697  21.981  24.515  1.00  0.00     0.270 C 
BRANCH  16  17
ATOM     17  C   UNL A   1      32.167  22.602  25.830  1.00  0.00     0.079 C 
ATOM     18  C   UNL A   1      30.625  22.730  26.129  1.00  0.00     0.050 C 
ATOM     19  C   UNL A   1      32.211  24.100  25.996  1.00  0.00    -0.036 A 
ATOM     20  C   UNL A   1      30.843  24.216  26.077  1.00  0.00    -0.043 A 
ATOM     21  C   UNL A   1      33.041  25.199  26.043  1.00  0.00     0.004 A 
ATOM     22  C   UNL A   1      30.217  25.439  26.118  1.00  0.00     0.004 A 
ATOM     23  C   UNL A   1      32.434  26.457  26.083  1.00  0.00     0.000 A 
ATOM     24  C   UNL A   1      31.030  26.576  26.103  1.00  0.00     0.000 A 
ENDBRANCH  16  17
ENDBRANCH  14  16
ENDBRANCH   8   9
ENDBRANCH   6   8
ENDBRANCH   3   4
ENDBRANCH   2   3
ENDBRANCH   1   2
BRANCH   1  25
ATOM     25  C   UNL A   1      41.733  19.586  27.286  1.00  0.00     0.002 C 
BRANCH  25  26
ATOM     26  C   UNL A   1      42.287  18.755  26.128  1.00  0.00     0.021 C 
BRANCH  26  27
ATOM     27  C   UNL A   1      43.800  18.569  26.140  1.00  0.00     0.116 C 
BRANCH  27  28
ATOM     28  N   UNL A   1      44.358  18.460  24.801  1.00  0.00    -0.352 N 
ATOM     29  C   UNL A   1      44.793  19.452  23.961  1.00  0.00     0.251 C 
ATOM     30  H   UNL A   1      44.434  17.544  24.449  1.00  0.00     0.163 HD
ATOM     31  O   UNL A   1      45.084  19.189  22.794  1.00  0.00    -0.269 OA
BRANCH  29  32
ATOM     32  C   UNL A   1      44.892  20.847  24.444  1.00  0.00     0.039 A 
ATOM     33  C   UNL A   1      45.517  21.095  25.669  1.00  0.00     0.014 A 
ATOM     34  C   UNL A   1      44.358  21.906  23.704  1.00  0.00     0.014 A 
ATOM     35  C   UNL A   1      45.650  22.408  26.127  1.00  0.00     0.010 A 
ATOM     36  C   UNL A   1      44.559  23.217  24.124  1.00  0.00     0.010 A 
ATOM     37  C   UNL A   1      45.197  23.483  25.346  1.00  0.00    -0.014 A 
BRANCH  37  38
ATOM     38  C   UNL A   1      45.347  24.889  25.806  1.00  0.00     0.031 A 
ATOM     39  C   UNL A   1      46.697  25.553  25.759  1.00  0.00     0.074 A 
ATOM     40  C   UNL A   1      44.286  25.551  26.308  1.00  0.00     0.049 A 
ATOM     41  N   UNL A   1      47.054  26.736  26.191  1.00  0.00    -0.248 NA
ATOM     42  C   UNL A   1      47.798  24.773  25.171  1.00  0.00     0.031 C 
ATOM     43  C   UNL A   1      42.934  25.007  26.442  1.00  0.00     0.029 A 
ATOM     44  N   UNL A   1      44.182  26.824  26.811  1.00  0.00    -0.354 N 
ATOM     45  C   UNL A   1      48.416  26.837  25.931  1.00  0.00     0.074 A 
ATOM     46  C   UNL A   1      48.834  25.574  25.366  1.00  0.00     0.031 C 
ATOM     47  C   UNL A   1      42.134  25.942  26.978  1.00  0.00     0.029 A 
ATOM     48  C   UNL A   1      42.922  27.138  27.263  1.00  0.00     0.049 A 
ATOM     49  H   UNL A   1      44.939  27.453  26.847  1.00  0.00     0.167 HD
ATOM     50  C   UNL A   1      49.237  27.898  26.119  1.00  0.00     0.037 A 
ATOM     51  C   UNL A   1      42.460  28.259  27.850  1.00  0.00     0.037 A 
ATOM     52  C   UNL A   1      48.817  29.161  26.664  1.00  0.00     0.049 A 
ATOM     53  C   UNL A   1      43.402  29.417  28.061  1.00  0.00     0.074 A 
ATOM     54  C   UNL A   1      49.568  30.303  26.878  1.00  0.00     0.029 A 
ATOM     55  N   UNL A   1      47.524  29.451  27.076  1.00  0.00    -0.354 N 
ATOM     56  N   UNL A   1      44.676  29.515  27.768  1.00  0.00    -0.248 NA
ATOM     57  C   UNL A   1      42.836  30.627  28.675  1.00  0.00     0.031 C 
ATOM     58  C   UNL A   1      48.741  31.272  27.453  1.00  0.00     0.029 A 
ATOM     59  C   UNL A   1      47.460  30.753  27.547  1.00  0.00     0.049 A 
ATOM     60  H   UNL A   1      46.765  28.826  27.040  1.00  0.00     0.167 HD
ATOM     61  C   UNL A   1      45.050  30.806  28.121  1.00  0.00     0.074 A 
ATOM     62  C   UNL A   1      43.866  31.458  28.637  1.00  0.00     0.031 C 
ATOM     63  C   UNL A   1      46.266  31.397  28.028  1.00  0.00     0.037 A 
BRANCH  50  64
ATOM     64  C   UNL A   1      50.674  27.749  25.709  1.00  0.00     0.064 A 
ATOM     65  C   UNL A   1      51.077  27.946  24.379  1.00  0.00     0.173 A 
ATOM     66  C   UNL A   1      51.665  27.465  26.660  1.00  0.00     0.173 A 
ATOM     67  F   UNL A   1      50.167  28.207  23.429  1.00  0.00    -0.203 F 
ATOM     68  C   UNL A   1      52.416  27.844  24.013  1.00  0.00     0.198 A 
ATOM     69  C   UNL A   1      53.007  27.395  26.296  1.00  0.00     0.198 A 
ATOM     70  F   UNL A   1      51.335  27.273  27.945  1.00  0.00    -0.203 F 
ATOM     71  F   UNL A   1      52.772  27.995  22.730  1.00  0.00    -0.200 F 
ATOM     72  C   UNL A   1      53.381  27.578  24.973  1.00  0.00     0.200 A 
ATOM     73  F   UNL A   1      53.941  27.153  27.226  1.00  0.00    -0.200 F 
ATOM     74  F   UNL A   1      54.672  27.496  24.621  1.00  0.00    -0.200 F 
ENDBRANCH  50  64
BRANCH  51  75
ATOM     75  C   UNL A   1      41.038  28.356  28.276  1.00  0.00     0.064 A 
ATOM     76  C   UNL A   1      40.064  28.904  27.429  1.00  0.00     0.173 A 
ATOM     77  C   UNL A   1      40.632  27.946  29.554  1.00  0.00     0.173 A 
ATOM     78  F   UNL A   1      40.406  29.329  26.204  1.00  0.00    -0.203 F 
ATOM     79  C   UNL A   1      38.751  29.079  27.859  1.00  0.00     0.198 A 
ATOM     80  C   UNL A   1      39.309  28.090  29.970  1.00  0.00     0.198 A 
ATOM     81  F   UNL A   1      41.520  27.408  30.402  1.00  0.00    -0.203 F 
ATOM     82  F   UNL A   1      37.859  29.672  27.053  1.00  0.00    -0.200 F 
ATOM     83  C   UNL A   1      38.373  28.669  29.128  1.00  0.00     0.200 A 
ATOM     84  F   UNL A   1      38.946  27.677  31.192  1.00  0.00    -0.200 F 
ATOM     85  F   UNL A   1      37.112  28.845  29.544  1.00  0.00    -0.200 F 
ENDBRANCH  51  75
BRANCH  63  86
ATOM     86  C   UNL A   1      46.364  32.842  28.425  1.00  0.00     0.064 A 
ATOM     87  C   UNL A   1      46.152  33.881  27.507  1.00  0.00     0.173 A 
ATOM     88  C   UNL A   1      46.638  33.188  29.758  1.00  0.00     0.173 A 
ATOM     89  F   UNL A   1      45.899  33.603  26.220  1.00  0.00    -0.203 F 
ATOM     90  C   UNL A   1      46.244  35.214  27.901  1.00  0.00     0.198 A 
ATOM     91  C   UNL A   1      46.695  34.522  30.156  1.00  0.00     0.198 A 
ATOM     92  F   UNL A   1      46.840  32.233  30.678  1.00  0.00    -0.203 F 
ATOM     93  F   UNL A   1      46.092  36.189  26.996  1.00  0.00    -0.200 F 
ATOM     94  C   UNL A   1      46.508  35.532  29.225  1.00  0.00     0.200 A 
ATOM     95  F   UNL A   1      46.934  34.827  31.438  1.00  0.00    -0.200 F 
ATOM     96  F   UNL A   1      46.589  36.816  29.604  1.00  0.00    -0.200 F 
ENDBRANCH  63  86
ENDBRANCH  37  38
ENDBRANCH  29  32
ENDBRANCH  27  28
ENDBRANCH  26  27
ENDBRANCH  25  26
ENDBRANCH   1  25
TORSDOF 16
ENDMDL
MODEL 2
REMARK VINA RESULT:     -11.6      7.377     12.905
REMARK SMILES O=C(CC1CC[NH+](C[C@@H]2Cc3ccccc32)CC1)NCCCCCCNC(=O)c1ccc(-c2c3nc(c(-c4c(F)c(F)c(F)c(F)c4F)c4ccc([nH]4)c(-c4c(F)c(F)c(F)c(F)c4F)c4nc(c(-c5c(F)c(F)c(F)c(F)c5F)c5ccc2[nH]5)C=C4)C=C3)cc1
REMARK SMILES IDX 22 1 21 2 20 3 19 4 1 5 2 6 3 8 4 9 5 10 18 11 6 12 17 13
REMARK SMILES IDX 7 14 8 16 9 17 10 18 16 19 11 20 15 21 12 22 14 23 13 24
REMARK SMILES IDX 23 25 24 26 25 27 26 28 27 29 28 31 29 32 30 33 91 34 31 35
REMARK SMILES IDX 90 36 32 37 33 38 34 39 84 40 35 41 89 42 83 43 85 44 36 45
REMARK SMILES IDX 88 46 82 47 81 48 37 50 69 51 49 52 68 53 50 54 53 55 67 56
REMARK SMILES IDX 86 57 51 58 52 59 66 61 87 62 54 63 38 64 39 65 47 66 40 67
REMARK SMILES IDX 41 68 45 69 48 70 42 71 43 72 46 73 44 74 70 75 71 76 79 77
REMARK SMILES IDX 72 78 73 79 77 80 80 81 74 82 75 83 78 84 76 85 55 86 56 87
REMARK SMILES IDX 64 88 57 89 58 90 62 91 65 92 59 93 60 94 63 95 61 96
REMARK H PARENT 19 7 7 15 26 30 85 49 53 60
REMARK Flexibility Score: inf
ROOT
ATOM      1  C   UNL A   1      35.177  33.476  29.297  1.00  0.00     0.002 C 
ENDROOT
BRANCH   1   2
ATOM      2  C   UNL A   1      34.486  32.116  29.120  1.00  0.00     0.021 C 
BRANCH   2   3
ATOM      3  C   UNL A   1      34.681  31.474  27.746  1.00  0.00     0.116 C 
BRANCH   3   4
ATOM      4  N   UNL A   1      33.899  30.265  27.623  1.00  0.00    -0.356 N 
ATOM      5  O   UNL A   1      32.104  31.228  26.577  1.00  0.00    -0.275 OA
ATOM      6  C   UNL A   1      32.644  30.244  27.072  1.00  0.00     0.220 C 
ATOM      7  H   UNL A   1      34.285  29.419  27.947  1.00  0.00     0.163 HD
BRANCH   6   8
ATOM      8  C   UNL A   1      31.915  28.925  27.225  1.00  0.00     0.104 C 
BRANCH   8   9
ATOM      9  C   UNL A   1      32.606  27.697  26.585  1.00  0.00     0.009 C 
ATOM     10  C   UNL A   1      33.243  28.079  25.239  1.00  0.00     0.066 C 
ATOM     11  C   UNL A   1      31.645  26.534  26.280  1.00  0.00     0.066 C 
ATOM     12  C   UNL A   1      32.176  28.526  24.235  1.00  0.00     0.262 C 
ATOM     13  C   UNL A   1      30.590  26.903  25.229  1.00  0.00     0.262 C 
ATOM     14  N   UNL A   1      31.127  27.534  24.028  1.00  0.00    -0.334 N 
ATOM     15  H   UNL A   1      31.645  26.771  23.593  1.00  0.00     0.348 HD
BRANCH  14  16
ATOM     16  C   UNL A   1      30.109  27.903  23.019  1.00  0.00     0.270 C 
BRANCH  16  17
ATOM     17  C   UNL A   1      28.841  28.712  23.391  1.00  0.00     0.079 C 
ATOM     18  C   UNL A   1      27.657  28.919  22.374  1.00  0.00     0.050 C 
ATOM     19  C   UNL A   1      28.926  30.217  23.429  1.00  0.00    -0.036 A 
ATOM     20  C   UNL A   1      28.016  30.378  22.411  1.00  0.00    -0.043 A 
ATOM     21  C   UNL A   1      29.547  31.290  24.029  1.00  0.00     0.004 A 
ATOM     22  C   UNL A   1      27.739  31.611  21.869  1.00  0.00     0.004 A 
ATOM     23  C   UNL A   1      29.287  32.557  23.500  1.00  0.00     0.000 A 
ATOM     24  C   UNL A   1      28.402  32.714  22.415  1.00  0.00     0.000 A 
ENDBRANCH  16  17
ENDBRANCH  14  16
ENDBRANCH   8   9
ENDBRANCH   6   8
ENDBRANCH   3   4
ENDBRANCH   2   3
ENDBRANCH   1   2
BRANCH   1  25
ATOM     25  C   UNL A   1      34.672  34.592  28.378  1.00  0.00     0.002 C 
BRANCH  25  26
ATOM     26  C   UNL A   1      33.337  35.216  28.787  1.00  0.00     0.021 C 
BRANCH  26  27
ATOM     27  C   UNL A   1      33.452  36.444  29.683  1.00  0.00     0.116 C 
BRANCH  27  28
ATOM     28  N   UNL A   1      32.464  36.450  30.750  1.00  0.00    -0.352 N 
ATOM     29  C   UNL A   1      32.484  35.793  31.953  1.00  0.00     0.251 C 
ATOM     30  H   UNL A   1      31.667  37.005  30.584  1.00  0.00     0.163 HD
ATOM     31  O   UNL A   1      31.481  35.784  32.667  1.00  0.00    -0.269 OA
BRANCH  29  32
ATOM     32  C   UNL A   1      33.700  35.074  32.388  1.00  0.00     0.039 A 
ATOM     33  C   UNL A   1      33.577  33.766  32.865  1.00  0.00     0.014 A 
ATOM     34  C   UNL A   1      34.955  35.686  32.345  1.00  0.00     0.014 A 
ATOM     35  C   UNL A   1      34.717  33.056  33.251  1.00  0.00     0.010 A 
ATOM     36  C   UNL A   1      36.097  34.954  32.657  1.00  0.00     0.010 A 
ATOM     37  C   UNL A   1      35.990  33.635  33.124  1.00  0.00    -0.014 A 
BRANCH  37  38
ATOM     38  C   UNL A   1      37.218  32.890  33.509  1.00  0.00     0.031 A 
ATOM     39  C   UNL A   1      37.909  33.205  34.809  1.00  0.00     0.074 A 
ATOM     40  C   UNL A   1      37.738  31.970  32.674  1.00  0.00     0.049 A 
ATOM     41  N   UNL A   1      39.033  32.733  35.286  1.00  0.00    -0.248 NA
ATOM     42  C   UNL A   1      37.263  34.203  35.677  1.00  0.00     0.031 C 
ATOM     43  C   UNL A   1      37.185  31.599  31.370  1.00  0.00     0.029 A 
ATOM     44  N   UNL A   1      38.858  31.185  32.793  1.00  0.00    -0.354 N 
ATOM     45  C   UNL A   1      39.228  33.379  36.501  1.00  0.00     0.074 A 
ATOM     46  C   UNL A   1      38.143  34.321  36.659  1.00  0.00     0.031 C 
ATOM     47  C   UNL A   1      37.959  30.653  30.817  1.00  0.00     0.029 A 
ATOM     48  C   UNL A   1      39.083  30.374  31.706  1.00  0.00     0.049 A 
ATOM     49  H   UNL A   1      39.446  31.200  33.583  1.00  0.00     0.167 HD
ATOM     50  C   UNL A   1      40.206  33.181  37.418  1.00  0.00     0.037 A 
ATOM     51  C   UNL A   1      40.089  29.515  31.452  1.00  0.00     0.037 A 
ATOM     52  C   UNL A   1      41.275  32.229  37.269  1.00  0.00     0.049 A 
ATOM     53  C   UNL A   1      41.172  29.328  32.482  1.00  0.00     0.074 A 
ATOM     54  C   UNL A   1      42.305  31.942  38.148  1.00  0.00     0.029 A 
ATOM     55  N   UNL A   1      41.447  31.402  36.168  1.00  0.00    -0.354 N 
ATOM     56  N   UNL A   1      41.318  29.911  33.648  1.00  0.00    -0.248 NA
ATOM     57  C   UNL A   1      42.227  28.353  32.167  1.00  0.00     0.031 C 
ATOM     58  C   UNL A   1      43.120  30.969  37.565  1.00  0.00     0.029 A 
ATOM     59  C   UNL A   1      42.569  30.609  36.347  1.00  0.00     0.049 A 
ATOM     60  H   UNL A   1      40.861  31.382  35.379  1.00  0.00     0.167 HD
ATOM     61  C   UNL A   1      42.451  29.343  34.219  1.00  0.00     0.074 A 
ATOM     62  C   UNL A   1      42.946  28.362  33.279  1.00  0.00     0.031 C 
ATOM     63  C   UNL A   1      43.030  29.613  35.414  1.00  0.00     0.037 A 
BRANCH  50  64
ATOM     64  C   UNL A   1      40.155  33.993  38.679  1.00  0.00     0.064 A 
ATOM     65  C   UNL A   1      39.462  33.539  39.812  1.00  0.00     0.173 A 
ATOM     66  C   UNL A   1      40.849  35.208  38.778  1.00  0.00     0.173 A 
ATOM     67  F   UNL A   1      38.771  32.390  39.766  1.00  0.00    -0.203 F 
ATOM     68  C   UNL A   1      39.450  34.280  40.991  1.00  0.00     0.198 A 
ATOM     69  C   UNL A   1      40.862  35.931  39.968  1.00  0.00     0.198 A 
ATOM     70  F   UNL A   1      41.531  35.686  37.727  1.00  0.00    -0.203 F 
ATOM     71  F   UNL A   1      38.748  33.846  42.046  1.00  0.00    -0.200 F 
ATOM     72  C   UNL A   1      40.158  35.470  41.071  1.00  0.00     0.200 A 
ATOM     73  F   UNL A   1      41.557  37.073  40.050  1.00  0.00    -0.200 F 
ATOM     74  F   UNL A   1      40.159  36.174  42.212  1.00  0.00    -0.200 F 
ENDBRANCH  50  64
BRANCH  51  75
ATOM     75  C   UNL A   1      40.125  28.754  30.173  1.00  0.00     0.064 A 
ATOM     76  C   UNL A   1      40.743  29.286  29.032  1.00  0.00     0.173 A 
ATOM     77  C   UNL A   1      39.504  27.502  30.053  1.00  0.00     0.173 A 
ATOM     78  F   UNL A   1      41.334  30.488  29.090  1.00  0.00    -0.203 F 
ATOM     79  C   UNL A   1      40.699  28.616  27.811  1.00  0.00     0.198 A 
ATOM     80  C   UNL A   1      39.492  26.818  28.839  1.00  0.00     0.198 A 
ATOM     81  F   UNL A   1      38.906  26.944  31.114  1.00  0.00    -0.203 F 
ATOM     82  F   UNL A   1      41.235  29.183  26.721  1.00  0.00    -0.200 F 
ATOM     83  C   UNL A   1      40.077  27.381  27.716  1.00  0.00     0.200 A 
ATOM     84  F   UNL A   1      38.904  25.617  28.756  1.00  0.00    -0.200 F 
ATOM     85  F   UNL A   1      40.028  26.742  26.539  1.00  0.00    -0.200 F 
ENDBRANCH  51  75
BRANCH  63  86
ATOM     86  C   UNL A   1      44.221  28.787  35.807  1.00  0.00     0.064 A 
ATOM     87  C   UNL A   1      45.531  29.173  35.485  1.00  0.00     0.173 A 
ATOM     88  C   UNL A   1      44.047  27.610  36.551  1.00  0.00     0.173 A 
ATOM     89  F   UNL A   1      45.750  30.283  34.765  1.00  0.00    -0.203 F 
ATOM     90  C   UNL A   1      46.620  28.393  35.864  1.00  0.00     0.198 A 
ATOM     91  C   UNL A   1      45.141  26.850  36.958  1.00  0.00     0.198 A 
ATOM     92  F   UNL A   1      42.816  27.201  36.894  1.00  0.00    -0.203 F 
ATOM     93  F   UNL A   1      47.857  28.752  35.498  1.00  0.00    -0.200 F 
ATOM     94  C   UNL A   1      46.424  27.237  36.606  1.00  0.00     0.200 A 
ATOM     95  F   UNL A   1      44.951  25.744  37.689  1.00  0.00    -0.200 F 
ATOM     96  F   UNL A   1      47.475  26.491  36.976  1.00  0.00    -0.200 F 
ENDBRANCH  63  86
ENDBRANCH  37  38
ENDBRANCH  29  32
ENDBRANCH  27  28
ENDBRANCH  26  27
ENDBRANCH  25  26
ENDBRANCH   1  25
TORSDOF 16
ENDMDL
MODEL 3
REMARK VINA RESULT:     -11.6      7.053     12.652
REMARK SMILES O=C(CC1CC[NH+](C[C@@H]2Cc3ccccc32)CC1)NCCCCCCNC(=O)c1ccc(-c2c3nc(c(-c4c(F)c(F)c(F)c(F)c4F)c4ccc([nH]4)c(-c4c(F)c(F)c(F)c(F)c4F)c4nc(c(-c5c(F)c(F)c(F)c(F)c5F)c5ccc2[nH]5)C=C4)C=C3)cc1
REMARK SMILES IDX 22 1 21 2 20 3 19 4 1 5 2 6 3 8 4 9 5 10 18 11 6 12 17 13
REMARK SMILES IDX 7 14 8 16 9 17 10 18 16 19 11 20 15 21 12 22 14 23 13 24
REMARK SMILES IDX 23 25 24 26 25 27 26 28 27 29 28 31 29 32 30 33 91 34 31 35
REMARK SMILES IDX 90 36 32 37 33 38 34 39 84 40 35 41 89 42 83 43 85 44 36 45
REMARK SMILES IDX 88 46 82 47 81 48 37 50 69 51 49 52 68 53 50 54 53 55 67 56
REMARK SMILES IDX 86 57 51 58 52 59 66 61 87 62 54 63 38 64 39 65 47 66 40 67
REMARK SMILES IDX 41 68 45 69 48 70 42 71 43 72 46 73 44 74 70 75 71 76 79 77
REMARK SMILES IDX 72 78 73 79 77 80 80 81 74 82 75 83 78 84 76 85 55 86 56 87
REMARK SMILES IDX 64 88 57 89 58 90 62 91 65 92 59 93 60 94 63 95 61 96
REMARK H PARENT 19 7 7 15 26 30 85 49 53 60
REMARK Flexibility Score: inf
ROOT
ATOM      1  C   UNL A   1      34.610  33.026  29.283  1.00  0.00     0.002 C 
ENDROOT
BRANCH   1   2
ATOM      2  C   UNL A   1      34.077  31.900  28.384  1.00  0.00     0.021 C 
BRANCH   2   3
ATOM      3  C   UNL A   1      35.113  30.841  28.006  1.00  0.00     0.116 C 
BRANCH   3   4
ATOM      4  N   UNL A   1      34.774  30.209  26.751  1.00  0.00    -0.356 N 
ATOM      5  O   UNL A   1      33.462  28.557  27.643  1.00  0.00    -0.275 OA
ATOM      6  C   UNL A   1      33.994  29.084  26.671  1.00  0.00     0.220 C 
ATOM      7  H   UNL A   1      35.117  30.604  25.917  1.00  0.00     0.163 HD
BRANCH   6   8
ATOM      8  C   UNL A   1      33.929  28.464  25.291  1.00  0.00     0.104 C 
BRANCH   8   9
ATOM      9  C   UNL A   1      32.943  29.128  24.301  1.00  0.00     0.009 C 
ATOM     10  C   UNL A   1      31.531  28.546  24.476  1.00  0.00     0.066 C 
ATOM     11  C   UNL A   1      33.305  28.908  22.822  1.00  0.00     0.066 C 
ATOM     12  C   UNL A   1      31.509  27.050  24.145  1.00  0.00     0.262 C 
ATOM     13  C   UNL A   1      33.239  27.432  22.413  1.00  0.00     0.262 C 
ATOM     14  N   UNL A   1      32.012  26.748  22.810  1.00  0.00    -0.334 N 
ATOM     15  H   UNL A   1      31.312  27.195  22.218  1.00  0.00     0.348 HD
BRANCH  14  16
ATOM     16  C   UNL A   1      31.952  25.320  22.427  1.00  0.00     0.270 C 
BRANCH  16  17
ATOM     17  C   UNL A   1      33.219  24.431  22.379  1.00  0.00     0.079 C 
ATOM     18  C   UNL A   1      33.133  22.865  22.226  1.00  0.00     0.050 C 
ATOM     19  C   UNL A   1      33.961  24.153  23.662  1.00  0.00    -0.036 A 
ATOM     20  C   UNL A   1      33.723  22.799  23.606  1.00  0.00    -0.043 A 
ATOM     21  C   UNL A   1      34.646  24.730  24.708  1.00  0.00     0.004 A 
ATOM     22  C   UNL A   1      34.074  21.954  24.632  1.00  0.00     0.004 A 
ATOM     23  C   UNL A   1      35.015  23.897  25.768  1.00  0.00     0.000 A 
ATOM     24  C   UNL A   1      34.715  22.521  25.738  1.00  0.00     0.000 A 
ENDBRANCH  16  17
ENDBRANCH  14  16
ENDBRANCH   8   9
ENDBRANCH   6   8
ENDBRANCH   3   4
ENDBRANCH   2   3
ENDBRANCH   1   2
BRANCH   1  25
ATOM     25  C   UNL A   1      34.627  34.420  28.647  1.00  0.00     0.002 C 
BRANCH  25  26
ATOM     26  C   UNL A   1      33.327  35.212  28.788  1.00  0.00     0.021 C 
BRANCH  26  27
ATOM     27  C   UNL A   1      33.403  36.403  29.738  1.00  0.00     0.116 C 
BRANCH  27  28
ATOM     28  N   UNL A   1      32.409  36.336  30.796  1.00  0.00    -0.352 N 
ATOM     29  C   UNL A   1      32.442  35.634  31.973  1.00  0.00     0.251 C 
ATOM     30  H   UNL A   1      31.595  36.871  30.645  1.00  0.00     0.163 HD
ATOM     31  O   UNL A   1      31.435  35.565  32.679  1.00  0.00    -0.269 OA
BRANCH  29  32
ATOM     32  C   UNL A   1      33.678  34.938  32.391  1.00  0.00     0.039 A 
ATOM     33  C   UNL A   1      33.586  33.630  32.874  1.00  0.00     0.014 A 
ATOM     34  C   UNL A   1      34.921  35.573  32.324  1.00  0.00     0.014 A 
ATOM     35  C   UNL A   1      34.745  32.942  33.243  1.00  0.00     0.010 A 
ATOM     36  C   UNL A   1      36.081  34.862  32.618  1.00  0.00     0.010 A 
ATOM     37  C   UNL A   1      36.006  33.543  33.092  1.00  0.00    -0.014 A 
BRANCH  37  38
ATOM     38  C   UNL A   1      37.253  32.822  33.459  1.00  0.00     0.031 A 
ATOM     39  C   UNL A   1      37.948  33.139  34.755  1.00  0.00     0.074 A 
ATOM     40  C   UNL A   1      37.785  31.921  32.610  1.00  0.00     0.049 A 
ATOM     41  N   UNL A   1      39.087  32.687  35.218  1.00  0.00    -0.248 NA
ATOM     42  C   UNL A   1      37.289  34.114  35.640  1.00  0.00     0.031 C 
ATOM     43  C   UNL A   1      37.229  31.551  31.308  1.00  0.00     0.029 A 
ATOM     44  N   UNL A   1      38.923  31.160  32.712  1.00  0.00    -0.354 N 
ATOM     45  C   UNL A   1      39.279  33.325  36.438  1.00  0.00     0.074 A 
ATOM     46  C   UNL A   1      38.175  34.241  36.615  1.00  0.00     0.031 C 
ATOM     47  C   UNL A   1      38.018  30.627  30.738  1.00  0.00     0.029 A 
ATOM     48  C   UNL A   1      39.156  30.365  31.614  1.00  0.00     0.049 A 
ATOM     49  H   UNL A   1      39.518  31.181  33.496  1.00  0.00     0.167 HD
ATOM     50  C   UNL A   1      40.269  33.139  37.343  1.00  0.00     0.037 A 
ATOM     51  C   UNL A   1      40.178  29.530  31.342  1.00  0.00     0.037 A 
ATOM     52  C   UNL A   1      41.357  32.213  37.176  1.00  0.00     0.049 A 
ATOM     53  C   UNL A   1      41.274  29.358  32.361  1.00  0.00     0.074 A 
ATOM     54  C   UNL A   1      42.401  31.940  38.043  1.00  0.00     0.029 A 
ATOM     55  N   UNL A   1      41.538  31.401  36.065  1.00  0.00    -0.354 N 
ATOM     56  N   UNL A   1      41.418  29.932  33.531  1.00  0.00    -0.248 NA
ATOM     57  C   UNL A   1      42.347  28.409  32.027  1.00  0.00     0.031 C 
ATOM     58  C   UNL A   1      43.233  30.990  37.443  1.00  0.00     0.029 A 
ATOM     59  C   UNL A   1      42.678  30.630  36.225  1.00  0.00     0.049 A 
ATOM     60  H   UNL A   1      40.944  31.376  35.281  1.00  0.00     0.167 HD
ATOM     61  C   UNL A   1      42.568  29.384  34.086  1.00  0.00     0.074 A 
ATOM     62  C   UNL A   1      43.076  28.423  33.132  1.00  0.00     0.031 C 
ATOM     63  C   UNL A   1      43.152  29.654  35.279  1.00  0.00     0.037 A 
BRANCH  50  64
ATOM     64  C   UNL A   1      40.212  33.938  38.613  1.00  0.00     0.064 A 
ATOM     65  C   UNL A   1      40.890  35.161  38.737  1.00  0.00     0.173 A 
ATOM     66  C   UNL A   1      39.427  33.510  39.694  1.00  0.00     0.173 A 
ATOM     67  F   UNL A   1      41.663  35.608  37.737  1.00  0.00    -0.203 F 
ATOM     68  C   UNL A   1      40.801  35.916  39.903  1.00  0.00     0.198 A 
ATOM     69  C   UNL A   1      39.315  34.283  40.848  1.00  0.00     0.198 A 
ATOM     70  F   UNL A   1      38.755  32.352  39.627  1.00  0.00    -0.203 F 
ATOM     71  F   UNL A   1      41.490  37.059  40.014  1.00  0.00    -0.200 F 
ATOM     72  C   UNL A   1      40.006  35.481  40.954  1.00  0.00     0.200 A 
ATOM     73  F   UNL A   1      38.536  33.870  41.856  1.00  0.00    -0.200 F 
ATOM     74  F   UNL A   1      39.909  36.216  42.070  1.00  0.00    -0.200 F 
ENDBRANCH  50  64
BRANCH  51  75
ATOM     75  C   UNL A   1      40.219  28.783  30.056  1.00  0.00     0.064 A 
ATOM     76  C   UNL A   1      40.833  29.330  28.920  1.00  0.00     0.173 A 
ATOM     77  C   UNL A   1      39.606  27.529  29.922  1.00  0.00     0.173 A 
ATOM     78  F   UNL A   1      41.417  30.536  28.991  1.00  0.00    -0.203 F 
ATOM     79  C   UNL A   1      40.794  28.674  27.692  1.00  0.00     0.198 A 
ATOM     80  C   UNL A   1      39.598  26.857  28.701  1.00  0.00     0.198 A 
ATOM     81  F   UNL A   1      39.010  26.955  30.978  1.00  0.00    -0.203 F 
ATOM     82  F   UNL A   1      41.327  29.255  26.608  1.00  0.00    -0.200 F 
ATOM     83  C   UNL A   1      40.180  27.436  27.584  1.00  0.00     0.200 A 
ATOM     84  F   UNL A   1      39.017  25.653  28.606  1.00  0.00    -0.200 F 
ATOM     85  F   UNL A   1      40.135  26.808  26.401  1.00  0.00    -0.200 F 
ENDBRANCH  51  75
BRANCH  63  86
ATOM     86  C   UNL A   1      44.365  28.851  35.653  1.00  0.00     0.064 A 
ATOM     87  C   UNL A   1      44.267  27.647  36.366  1.00  0.00     0.173 A 
ATOM     88  C   UNL A   1      45.642  29.278  35.256  1.00  0.00     0.173 A 
ATOM     89  F   UNL A   1      43.071  27.202  36.779  1.00  0.00    -0.203 F 
ATOM     90  C   UNL A   1      45.406  26.918  36.697  1.00  0.00     0.198 A 
ATOM     91  C   UNL A   1      46.775  28.528  35.559  1.00  0.00     0.198 A 
ATOM     92  F   UNL A   1      45.790  30.418  34.564  1.00  0.00    -0.203 F 
ATOM     93  F   UNL A   1      45.294  25.800  37.426  1.00  0.00    -0.200 F 
ATOM     94  C   UNL A   1      46.657  27.355  36.287  1.00  0.00     0.200 A 
ATOM     95  F   UNL A   1      47.981  28.944  35.147  1.00  0.00    -0.200 F 
ATOM     96  F   UNL A   1      47.751  26.647  36.601  1.00  0.00    -0.200 F 
ENDBRANCH  63  86
ENDBRANCH  37  38
ENDBRANCH  29  32
ENDBRANCH  27  28
ENDBRANCH  26  27
ENDBRANCH  25  26
ENDBRANCH   1  25
TORSDOF 16
ENDMDL
