MODEL 1
REMARK VINA RESULT:     -11.5      0.000      0.000
REMARK SMILES CCN(CC(C)(C)O)C(=O)Nc1ccc(C(=O)NCCCCCCNC(=O)c2ccc(-c3c4nc(c(-c5c(F)c(F)c(F)c(F)c5F)c5ccc([nH]5)c(-c5c(F)c(F)c(F)c(F)c5F)c5nc(c(-c6c(F)c(F)c(F)c(F)c6F)c6ccc3[nH]6)C=C5)C=C4)cc2)c(O)c1
REMARK SMILES IDX 20 1 19 2 18 3 16 4 17 5 15 7 12 8 13 9 93 10 14 11 91 12
REMARK SMILES IDX 11 13 9 14 10 15 3 17 2 18 1 19 4 20 5 21 6 22 7 23 8 24
REMARK SMILES IDX 92 26 21 28 22 29 23 30 24 31 25 32 26 33 27 35 28 36 29 37
REMARK SMILES IDX 90 38 30 39 89 40 31 41 32 42 33 43 83 44 34 45 88 46 82 47
REMARK SMILES IDX 84 48 35 49 87 50 81 51 80 52 36 54 68 55 48 56 67 57 49 58
REMARK SMILES IDX 52 59 66 60 85 61 50 62 51 63 65 65 86 66 53 67 37 68 38 69
REMARK SMILES IDX 46 70 39 71 40 72 44 73 47 74 41 75 42 76 45 77 43 78 69 79
REMARK SMILES IDX 70 80 78 81 71 82 72 83 76 84 79 85 73 86 74 87 77 88 75 89
REMARK SMILES IDX 54 90 55 91 63 92 56 93 57 94 61 95 64 96 58 97 59 98 62 99
REMARK SMILES IDX 60 100
REMARK H PARENT 18 6 11 16 8 25 92 27 25 34 84 53 52 64
REMARK Flexibility Score: inf
ROOT
ATOM      1  C   UNL A   1      33.063  28.480  26.912  1.00  0.00     0.021 C 
ENDROOT
BRANCH   1   2
ATOM      2  C   UNL A   1      33.905  27.867  25.809  1.00  0.00     0.116 C 
BRANCH   2   3
ATOM      3  N   UNL A   1      34.051  28.686  24.630  1.00  0.00    -0.352 N 
ATOM      4  C   UNL A   1      33.450  28.515  23.412  1.00  0.00     0.255 C 
ATOM      5  O   UNL A   1      33.592  29.369  22.540  1.00  0.00    -0.269 OA
ATOM      6  H   UNL A   1      34.655  29.459  24.710  1.00  0.00     0.163 HD
BRANCH   4   7
ATOM      7  C   UNL A   1      32.779  27.237  23.091  1.00  0.00     0.081 A 
ATOM      8  C   UNL A   1      32.073  24.535  22.728  1.00  0.00     0.046 A 
ATOM      9  C   UNL A   1      33.080  25.140  22.026  1.00  0.00     0.027 A 
ATOM     10  C   UNL A   1      31.245  25.374  23.468  1.00  0.00     0.073 A 
ATOM     11  C   UNL A   1      33.501  26.438  22.230  1.00  0.00     0.020 A 
ATOM     12  C   UNL A   1      31.574  26.737  23.600  1.00  0.00     0.130 A 
BRANCH   8  13
ATOM     13  N   UNL A   1      31.829  23.164  22.596  1.00  0.00    -0.308 N 
ATOM     14  C   UNL A   1      32.255  21.997  23.143  1.00  0.00     0.321 C 
ATOM     15  O   UNL A   1      31.962  21.013  22.445  1.00  0.00    -0.248 OA
ATOM     16  H   UNL A   1      31.151  22.998  21.902  1.00  0.00     0.171 HD
BRANCH  14  17
ATOM     17  N   UNL A   1      32.848  21.815  24.378  1.00  0.00    -0.322 N 
BRANCH  17  18
ATOM     18  C   UNL A   1      34.309  21.601  24.330  1.00  0.00     0.118 C 
ATOM     19  C   UNL A   1      35.061  22.797  23.737  1.00  0.00     0.027 C 
ENDBRANCH  17  18
BRANCH  17  20
ATOM     20  C   UNL A   1      32.292  21.638  25.742  1.00  0.00     0.155 C 
BRANCH  20  21
ATOM     21  C   UNL A   1      32.004  22.962  26.589  1.00  0.00     0.077 C 
ATOM     22  C   UNL A   1      32.927  24.190  26.386  1.00  0.00     0.043 C 
ATOM     23  C   UNL A   1      30.533  23.378  26.367  1.00  0.00     0.043 C 
BRANCH  21  24
ATOM     24  O   UNL A   1      32.131  22.628  27.985  1.00  0.00    -0.389 OA
ATOM     25  H   UNL A   1      32.034  23.433  28.520  1.00  0.00     0.211 HD
ENDBRANCH  21  24
ENDBRANCH  20  21
ENDBRANCH  17  20
ENDBRANCH  14  17
ENDBRANCH   8  13
BRANCH  12  26
ATOM     26  O   UNL A   1      30.643  27.534  24.205  1.00  0.00    -0.507 OA
ATOM     27  H   UNL A   1      29.791  27.195  24.399  1.00  0.00     0.293 HD
ENDBRANCH  12  26
ENDBRANCH   4   7
ENDBRANCH   2   3
ENDBRANCH   1   2
BRANCH   1  28
ATOM     28  C   UNL A   1      32.965  30.008  26.935  1.00  0.00     0.002 C 
BRANCH  28  29
ATOM     29  C   UNL A   1      31.652  30.655  26.482  1.00  0.00     0.002 C 
BRANCH  29  30
ATOM     30  C   UNL A   1      31.503  32.161  26.684  1.00  0.00     0.021 C 
BRANCH  30  31
ATOM     31  C   UNL A   1      32.718  32.870  27.254  1.00  0.00     0.116 C 
BRANCH  31  32
ATOM     32  N   UNL A   1      32.432  34.239  27.638  1.00  0.00    -0.352 N 
ATOM     33  C   UNL A   1      33.006  34.992  28.634  1.00  0.00     0.251 C 
ATOM     34  H   UNL A   1      31.732  34.691  27.113  1.00  0.00     0.163 HD
ATOM     35  O   UNL A   1      32.542  36.078  28.939  1.00  0.00    -0.269 OA
BRANCH  33  36
ATOM     36  C   UNL A   1      34.179  34.453  29.356  1.00  0.00     0.039 A 
ATOM     37  C   UNL A   1      33.974  33.790  30.567  1.00  0.00     0.014 A 
ATOM     38  C   UNL A   1      35.467  34.583  28.829  1.00  0.00     0.014 A 
ATOM     39  C   UNL A   1      35.059  33.213  31.226  1.00  0.00     0.010 A 
ATOM     40  C   UNL A   1      36.533  33.935  29.444  1.00  0.00     0.010 A 
ATOM     41  C   UNL A   1      36.341  33.252  30.655  1.00  0.00    -0.014 A 
BRANCH  41  42
ATOM     42  C   UNL A   1      37.501  32.609  31.322  1.00  0.00     0.031 A 
ATOM     43  C   UNL A   1      38.225  31.482  30.639  1.00  0.00     0.074 A 
ATOM     44  C   UNL A   1      37.872  33.007  32.554  1.00  0.00     0.049 A 
ATOM     45  N   UNL A   1      39.208  30.739  31.082  1.00  0.00    -0.248 NA
ATOM     46  C   UNL A   1      37.767  31.124  29.286  1.00  0.00     0.031 C 
ATOM     47  C   UNL A   1      37.229  34.070  33.330  1.00  0.00     0.029 A 
ATOM     48  N   UNL A   1      38.877  32.560  33.375  1.00  0.00    -0.354 N 
ATOM     49  C   UNL A   1      39.482  29.832  30.066  1.00  0.00     0.074 A 
ATOM     50  C   UNL A   1      38.520  30.069  29.012  1.00  0.00     0.031 C 
ATOM     51  C   UNL A   1      37.871  34.210  34.502  1.00  0.00     0.029 A 
ATOM     52  C   UNL A   1      38.939  33.217  34.581  1.00  0.00     0.049 A 
ATOM     53  H   UNL A   1      39.495  31.837  33.124  1.00  0.00     0.167 HD
ATOM     54  C   UNL A   1      40.468  28.907  30.004  1.00  0.00     0.037 A 
ATOM     55  C   UNL A   1      39.757  33.028  35.634  1.00  0.00     0.037 A 
ATOM     56  C   UNL A   1      41.432  28.683  31.048  1.00  0.00     0.049 A 
ATOM     57  C   UNL A   1      40.811  31.955  35.555  1.00  0.00     0.074 A 
ATOM     58  C   UNL A   1      42.483  27.784  31.074  1.00  0.00     0.029 A 
ATOM     59  N   UNL A   1      41.463  29.370  32.253  1.00  0.00    -0.354 N 
ATOM     60  N   UNL A   1      41.094  31.140  34.568  1.00  0.00    -0.248 NA
ATOM     61  C   UNL A   1      41.666  31.779  36.738  1.00  0.00     0.031 C 
ATOM     62  C   UNL A   1      43.122  27.894  32.312  1.00  0.00     0.029 A 
ATOM     63  C   UNL A   1      42.507  28.903  33.034  1.00  0.00     0.049 A 
ATOM     64  H   UNL A   1      40.837  30.084  32.514  1.00  0.00     0.167 HD
ATOM     65  C   UNL A   1      42.183  30.389  34.993  1.00  0.00     0.074 A 
ATOM     66  C   UNL A   1      42.518  30.855  36.322  1.00  0.00     0.031 C 
ATOM     67  C   UNL A   1      42.844  29.401  34.343  1.00  0.00     0.037 A 
BRANCH  54  68
ATOM     68  C   UNL A   1      40.567  28.075  28.758  1.00  0.00     0.064 A 
ATOM     69  C   UNL A   1      41.354  28.480  27.668  1.00  0.00     0.173 A 
ATOM     70  C   UNL A   1      39.918  26.833  28.672  1.00  0.00     0.173 A 
ATOM     71  F   UNL A   1      41.984  29.664  27.694  1.00  0.00    -0.203 F 
ATOM     72  C   UNL A   1      41.469  27.684  26.532  1.00  0.00     0.198 A 
ATOM     73  C   UNL A   1      40.063  26.025  27.547  1.00  0.00     0.198 A 
ATOM     74  F   UNL A   1      39.158  26.396  29.686  1.00  0.00    -0.203 F 
ATOM     75  F   UNL A   1      42.192  28.113  25.487  1.00  0.00    -0.200 F 
ATOM     76  C   UNL A   1      40.833  26.454  26.476  1.00  0.00     0.200 A 
ATOM     77  F   UNL A   1      39.459  24.830  27.501  1.00  0.00    -0.200 F 
ATOM     78  F   UNL A   1      40.959  25.681  25.388  1.00  0.00    -0.200 F 
ENDBRANCH  54  68
BRANCH  55  79
ATOM     79  C   UNL A   1      39.629  33.871  36.854  1.00  0.00     0.064 A 
ATOM     80  C   UNL A   1      38.837  33.459  37.935  1.00  0.00     0.173 A 
ATOM     81  C   UNL A   1      40.250  35.126  36.946  1.00  0.00     0.173 A 
ATOM     82  F   UNL A   1      38.207  32.275  37.889  1.00  0.00    -0.203 F 
ATOM     83  C   UNL A   1      38.635  34.285  39.040  1.00  0.00     0.198 A 
ATOM     84  C   UNL A   1      40.077  35.935  38.067  1.00  0.00     0.198 A 
ATOM     85  F   UNL A   1      41.025  35.569  35.945  1.00  0.00    -0.203 F 
ATOM     86  F   UNL A   1      37.814  33.894  40.024  1.00  0.00    -0.200 F 
ATOM     87  C   UNL A   1      39.257  35.522  39.106  1.00  0.00     0.200 A 
ATOM     88  F   UNL A   1      40.693  37.124  38.134  1.00  0.00    -0.200 F 
ATOM     89  F   UNL A   1      39.055  36.320  40.162  1.00  0.00    -0.200 F 
ENDBRANCH  55  79
BRANCH  67  90
ATOM     90  C   UNL A   1      44.039  28.801  35.028  1.00  0.00     0.064 A 
ATOM     91  C   UNL A   1      43.934  27.668  35.847  1.00  0.00     0.173 A 
ATOM     92  C   UNL A   1      45.317  29.345  34.822  1.00  0.00     0.173 A 
ATOM     93  F   UNL A   1      42.734  27.118  36.088  1.00  0.00    -0.203 F 
ATOM     94  C   UNL A   1      45.058  27.120  36.458  1.00  0.00     0.198 A 
ATOM     95  C   UNL A   1      46.444  28.774  35.405  1.00  0.00     0.198 A 
ATOM     96  F   UNL A   1      45.475  30.425  34.040  1.00  0.00    -0.203 F 
ATOM     97  F   UNL A   1      44.926  26.069  37.279  1.00  0.00    -0.200 F 
ATOM     98  C   UNL A   1      46.312  27.667  36.229  1.00  0.00     0.200 A 
ATOM     99  F   UNL A   1      47.656  29.293  35.168  1.00  0.00    -0.200 F 
ATOM    100  F   UNL A   1      47.395  27.130  36.810  1.00  0.00    -0.200 F 
ENDBRANCH  67  90
ENDBRANCH  41  42
ENDBRANCH  33  36
ENDBRANCH  31  32
ENDBRANCH  30  31
ENDBRANCH  29  30
ENDBRANCH  28  29
ENDBRANCH   1  28
TORSDOF 20
ENDMDL
MODEL 2
REMARK VINA RESULT:     -11.4      0.767      7.327
REMARK SMILES CCN(CC(C)(C)O)C(=O)Nc1ccc(C(=O)NCCCCCCNC(=O)c2ccc(-c3c4nc(c(-c5c(F)c(F)c(F)c(F)c5F)c5ccc([nH]5)c(-c5c(F)c(F)c(F)c(F)c5F)c5nc(c(-c6c(F)c(F)c(F)c(F)c6F)c6ccc3[nH]6)C=C5)C=C4)cc2)c(O)c1
REMARK SMILES IDX 20 1 19 2 18 3 16 4 17 5 15 7 12 8 13 9 93 10 14 11 91 12
REMARK SMILES IDX 11 13 9 14 10 15 3 17 2 18 1 19 4 20 5 21 6 22 7 23 8 24
REMARK SMILES IDX 92 26 21 28 22 29 23 30 24 31 25 32 26 33 27 35 28 36 29 37
REMARK SMILES IDX 90 38 30 39 89 40 31 41 32 42 33 43 83 44 34 45 88 46 82 47
REMARK SMILES IDX 84 48 35 49 87 50 81 51 80 52 36 54 68 55 48 56 67 57 49 58
REMARK SMILES IDX 52 59 66 60 85 61 50 62 51 63 65 65 86 66 53 67 37 68 38 69
REMARK SMILES IDX 46 70 39 71 40 72 44 73 47 74 41 75 42 76 45 77 43 78 69 79
REMARK SMILES IDX 70 80 78 81 71 82 72 83 76 84 79 85 73 86 74 87 77 88 75 89
REMARK SMILES IDX 54 90 55 91 63 92 56 93 57 94 61 95 64 96 58 97 59 98 62 99
REMARK SMILES IDX 60 100
REMARK H PARENT 18 6 11 16 8 25 92 27 25 34 84 53 52 64
REMARK Flexibility Score: inf
ROOT
ATOM      1  C   UNL A   1      32.986  28.892  25.260  1.00  0.00     0.021 C 
ENDROOT
BRANCH   1   2
ATOM      2  C   UNL A   1      33.229  29.184  23.791  1.00  0.00     0.116 C 
BRANCH   2   3
ATOM      3  N   UNL A   1      32.035  29.321  22.993  1.00  0.00    -0.352 N 
ATOM      4  C   UNL A   1      31.196  28.328  22.563  1.00  0.00     0.255 C 
ATOM      5  O   UNL A   1      30.155  28.623  21.983  1.00  0.00    -0.269 OA
ATOM      6  H   UNL A   1      31.795  30.237  22.725  1.00  0.00     0.163 HD
BRANCH   4   7
ATOM      7  C   UNL A   1      31.622  26.914  22.643  1.00  0.00     0.081 A 
ATOM      8  C   UNL A   1      31.795  24.104  22.593  1.00  0.00     0.046 A 
ATOM      9  C   UNL A   1      31.010  24.783  23.483  1.00  0.00     0.027 A 
ATOM     10  C   UNL A   1      32.697  24.867  21.856  1.00  0.00     0.073 A 
ATOM     11  C   UNL A   1      30.844  26.153  23.489  1.00  0.00     0.020 A 
ATOM     12  C   UNL A   1      32.641  26.272  21.929  1.00  0.00     0.130 A 
BRANCH   8  13
ATOM     13  N   UNL A   1      31.766  22.707  22.531  1.00  0.00    -0.308 N 
ATOM     14  C   UNL A   1      32.212  21.646  23.251  1.00  0.00     0.321 C 
ATOM     15  O   UNL A   1      32.207  20.592  22.594  1.00  0.00    -0.248 OA
ATOM     16  H   UNL A   1      31.281  22.405  21.729  1.00  0.00     0.171 HD
BRANCH  14  17
ATOM     17  N   UNL A   1      32.544  21.621  24.592  1.00  0.00    -0.322 N 
BRANCH  17  18
ATOM     18  C   UNL A   1      33.847  20.992  24.890  1.00  0.00     0.118 C 
ATOM     19  C   UNL A   1      35.024  21.746  24.261  1.00  0.00     0.027 C 
ENDBRANCH  17  18
BRANCH  17  20
ATOM     20  C   UNL A   1      31.786  21.964  25.821  1.00  0.00     0.155 C 
BRANCH  20  21
ATOM     21  C   UNL A   1      32.468  22.993  26.835  1.00  0.00     0.077 C 
ATOM     22  C   UNL A   1      33.435  22.443  27.914  1.00  0.00     0.043 C 
ATOM     23  C   UNL A   1      33.178  24.094  26.017  1.00  0.00     0.043 C 
BRANCH  21  24
ATOM     24  O   UNL A   1      31.417  23.644  27.575  1.00  0.00    -0.389 OA
ATOM     25  H   UNL A   1      30.588  23.597  27.070  1.00  0.00     0.211 HD
ENDBRANCH  21  24
ENDBRANCH  20  21
ENDBRANCH  17  20
ENDBRANCH  14  17
ENDBRANCH   8  13
BRANCH  12  26
ATOM     26  O   UNL A   1      33.649  26.955  21.308  1.00  0.00    -0.507 OA
ATOM     27  H   UNL A   1      34.531  26.647  21.369  1.00  0.00     0.293 HD
ENDBRANCH  12  26
ENDBRANCH   4   7
ENDBRANCH   2   3
ENDBRANCH   1   2
BRANCH   1  28
ATOM     28  C   UNL A   1      32.773  30.100  26.176  1.00  0.00     0.002 C 
BRANCH  28  29
ATOM     29  C   UNL A   1      31.395  30.770  26.179  1.00  0.00     0.002 C 
BRANCH  29  30
ATOM     30  C   UNL A   1      31.338  32.263  26.493  1.00  0.00     0.021 C 
BRANCH  30  31
ATOM     31  C   UNL A   1      32.549  32.828  27.214  1.00  0.00     0.116 C 
BRANCH  31  32
ATOM     32  N   UNL A   1      32.366  34.213  27.604  1.00  0.00    -0.352 N 
ATOM     33  C   UNL A   1      33.021  34.926  28.580  1.00  0.00     0.251 C 
ATOM     34  H   UNL A   1      31.680  34.709  27.102  1.00  0.00     0.163 HD
ATOM     35  O   UNL A   1      32.640  36.040  28.897  1.00  0.00    -0.269 OA
BRANCH  33  36
ATOM     36  C   UNL A   1      34.179  34.311  29.262  1.00  0.00     0.039 A 
ATOM     37  C   UNL A   1      33.945  33.453  30.338  1.00  0.00     0.014 A 
ATOM     38  C   UNL A   1      35.484  34.565  28.830  1.00  0.00     0.014 A 
ATOM     39  C   UNL A   1      35.020  32.808  30.949  1.00  0.00     0.010 A 
ATOM     40  C   UNL A   1      36.545  33.857  29.385  1.00  0.00     0.010 A 
ATOM     41  C   UNL A   1      36.325  32.979  30.457  1.00  0.00    -0.014 A 
BRANCH  41  42
ATOM     42  C   UNL A   1      37.477  32.270  31.068  1.00  0.00     0.031 A 
ATOM     43  C   UNL A   1      37.963  32.673  32.433  1.00  0.00     0.074 A 
ATOM     44  C   UNL A   1      38.110  31.300  30.381  1.00  0.00     0.049 A 
ATOM     45  N   UNL A   1      38.996  32.235  33.109  1.00  0.00    -0.248 NA
ATOM     46  C   UNL A   1      37.202  33.729  33.123  1.00  0.00     0.031 C 
ATOM     47  C   UNL A   1      37.749  30.841  29.038  1.00  0.00     0.029 A 
ATOM     48  N   UNL A   1      39.194  30.528  30.714  1.00  0.00    -0.354 N 
ATOM     49  C   UNL A   1      39.005  32.959  34.294  1.00  0.00     0.074 A 
ATOM     50  C   UNL A   1      37.920  33.912  34.220  1.00  0.00     0.031 C 
ATOM     51  C   UNL A   1      38.581  29.851  28.672  1.00  0.00     0.029 A 
ATOM     52  C   UNL A   1      39.561  29.638  29.733  1.00  0.00     0.049 A 
ATOM     53  H   UNL A   1      39.666  30.605  31.574  1.00  0.00     0.167 HD
ATOM     54  C   UNL A   1      39.826  32.818  35.362  1.00  0.00     0.037 A 
ATOM     55  C   UNL A   1      40.582  28.760  29.692  1.00  0.00     0.037 A 
ATOM     56  C   UNL A   1      40.896  31.860  35.437  1.00  0.00     0.049 A 
ATOM     57  C   UNL A   1      41.509  28.664  30.876  1.00  0.00     0.074 A 
ATOM     58  C   UNL A   1      41.771  31.624  36.483  1.00  0.00     0.029 A 
ATOM     59  N   UNL A   1      41.234  30.975  34.424  1.00  0.00    -0.354 N 
ATOM     60  N   UNL A   1      41.476  29.316  32.012  1.00  0.00    -0.248 NA
ATOM     61  C   UNL A   1      42.616  27.702  30.772  1.00  0.00     0.031 C 
ATOM     62  C   UNL A   1      42.668  30.629  36.085  1.00  0.00     0.029 A 
ATOM     63  C   UNL A   1      42.315  30.202  34.816  1.00  0.00     0.049 A 
ATOM     64  H   UNL A   1      40.774  30.905  33.556  1.00  0.00     0.167 HD
ATOM     65  C   UNL A   1      42.525  28.814  32.771  1.00  0.00     0.074 A 
ATOM     66  C   UNL A   1      43.167  27.793  31.973  1.00  0.00     0.031 C 
ATOM     67  C   UNL A   1      42.922  29.168  34.018  1.00  0.00     0.037 A 
BRANCH  54  68
ATOM     68  C   UNL A   1      39.589  33.712  36.545  1.00  0.00     0.064 A 
ATOM     69  C   UNL A   1      38.775  33.308  37.615  1.00  0.00     0.173 A 
ATOM     70  C   UNL A   1      40.227  34.958  36.641  1.00  0.00     0.173 A 
ATOM     71  F   UNL A   1      38.133  32.132  37.568  1.00  0.00    -0.203 F 
ATOM     72  C   UNL A   1      38.592  34.128  38.726  1.00  0.00     0.198 A 
ATOM     73  C   UNL A   1      40.068  35.761  37.768  1.00  0.00     0.198 A 
ATOM     74  F   UNL A   1      41.020  35.391  35.649  1.00  0.00    -0.203 F 
ATOM     75  F   UNL A   1      37.776  33.738  39.715  1.00  0.00    -0.200 F 
ATOM     76  C   UNL A   1      39.246  35.347  38.806  1.00  0.00     0.200 A 
ATOM     77  F   UNL A   1      40.712  36.932  37.850  1.00  0.00    -0.200 F 
ATOM     78  F   UNL A   1      39.082  36.128  39.884  1.00  0.00    -0.200 F 
ENDBRANCH  54  68
BRANCH  55  79
ATOM     79  C   UNL A   1      40.786  27.890  28.501  1.00  0.00     0.064 A 
ATOM     80  C   UNL A   1      41.597  28.308  27.436  1.00  0.00     0.173 A 
ATOM     81  C   UNL A   1      40.139  26.652  28.378  1.00  0.00     0.173 A 
ATOM     82  F   UNL A   1      42.224  29.492  27.496  1.00  0.00    -0.203 F 
ATOM     83  C   UNL A   1      41.716  27.543  26.276  1.00  0.00     0.198 A 
ATOM     84  C   UNL A   1      40.288  25.871  27.233  1.00  0.00     0.198 A 
ATOM     85  F   UNL A   1      39.357  26.199  29.369  1.00  0.00    -0.203 F 
ATOM     86  F   UNL A   1      42.438  28.003  25.245  1.00  0.00    -0.200 F 
ATOM     87  C   UNL A   1      41.063  26.324  26.177  1.00  0.00     0.200 A 
ATOM     88  F   UNL A   1      39.668  24.686  27.148  1.00  0.00    -0.200 F 
ATOM     89  F   UNL A   1      41.170  25.594  25.059  1.00  0.00    -0.200 F 
ENDBRANCH  55  79
BRANCH  67  90
ATOM     90  C   UNL A   1      44.063  28.402  34.624  1.00  0.00     0.064 A 
ATOM     91  C   UNL A   1      43.871  27.175  35.275  1.00  0.00     0.173 A 
ATOM     92  C   UNL A   1      45.376  28.886  34.510  1.00  0.00     0.173 A 
ATOM     93  F   UNL A   1      42.634  26.675  35.423  1.00  0.00    -0.203 F 
ATOM     94  C   UNL A   1      44.947  26.476  35.814  1.00  0.00     0.198 A 
ATOM     95  C   UNL A   1      46.453  28.167  35.018  1.00  0.00     0.198 A 
ATOM     96  F   UNL A   1      45.616  30.051  33.889  1.00  0.00    -0.203 F 
ATOM     97  F   UNL A   1      44.733  25.331  36.478  1.00  0.00    -0.200 F 
ATOM     98  C   UNL A   1      46.237  26.966  35.677  1.00  0.00     0.200 A 
ATOM     99  F   UNL A   1      47.700  28.635  34.870  1.00  0.00    -0.200 F 
ATOM    100  F   UNL A   1      47.272  26.286  36.189  1.00  0.00    -0.200 F 
ENDBRANCH  67  90
ENDBRANCH  41  42
ENDBRANCH  33  36
ENDBRANCH  31  32
ENDBRANCH  30  31
ENDBRANCH  29  30
ENDBRANCH  28  29
ENDBRANCH   1  28
TORSDOF 20
ENDMDL
MODEL 3
REMARK VINA RESULT:     -11.4      1.093      7.346
REMARK SMILES CCN(CC(C)(C)O)C(=O)Nc1ccc(C(=O)NCCCCCCNC(=O)c2ccc(-c3c4nc(c(-c5c(F)c(F)c(F)c(F)c5F)c5ccc([nH]5)c(-c5c(F)c(F)c(F)c(F)c5F)c5nc(c(-c6c(F)c(F)c(F)c(F)c6F)c6ccc3[nH]6)C=C5)C=C4)cc2)c(O)c1
REMARK SMILES IDX 20 1 19 2 18 3 16 4 17 5 15 7 12 8 13 9 93 10 14 11 91 12
REMARK SMILES IDX 11 13 9 14 10 15 3 17 2 18 1 19 4 20 5 21 6 22 7 23 8 24
REMARK SMILES IDX 92 26 21 28 22 29 23 30 24 31 25 32 26 33 27 35 28 36 29 37
REMARK SMILES IDX 90 38 30 39 89 40 31 41 32 42 33 43 83 44 34 45 88 46 82 47
REMARK SMILES IDX 84 48 35 49 87 50 81 51 80 52 36 54 68 55 48 56 67 57 49 58
REMARK SMILES IDX 52 59 66 60 85 61 50 62 51 63 65 65 86 66 53 67 37 68 38 69
REMARK SMILES IDX 46 70 39 71 40 72 44 73 47 74 41 75 42 76 45 77 43 78 69 79
REMARK SMILES IDX 70 80 78 81 71 82 72 83 76 84 79 85 73 86 74 87 77 88 75 89
REMARK SMILES IDX 54 90 55 91 63 92 56 93 57 94 61 95 64 96 58 97 59 98 62 99
REMARK SMILES IDX 60 100
REMARK H PARENT 18 6 11 16 8 25 92 27 25 34 84 53 52 64
REMARK Flexibility Score: inf
ROOT
ATOM      1  C   UNL A   1      32.979  28.931  25.169  1.00  0.00     0.021 C 
ENDROOT
BRANCH   1   2
ATOM      2  C   UNL A   1      33.178  29.229  23.695  1.00  0.00     0.116 C 
BRANCH   2   3
ATOM      3  N   UNL A   1      31.976  29.184  22.899  1.00  0.00    -0.352 N 
ATOM      4  C   UNL A   1      31.218  28.088  22.585  1.00  0.00     0.255 C 
ATOM      5  O   UNL A   1      30.155  28.236  21.987  1.00  0.00    -0.269 OA
ATOM      6  H   UNL A   1      31.662  30.045  22.537  1.00  0.00     0.163 HD
BRANCH   4   7
ATOM      7  C   UNL A   1      31.755  26.729  22.811  1.00  0.00     0.081 A 
ATOM      8  C   UNL A   1      32.128  23.961  23.169  1.00  0.00     0.046 A 
ATOM      9  C   UNL A   1      31.445  24.739  24.063  1.00  0.00     0.027 A 
ATOM     10  C   UNL A   1      32.842  24.633  22.182  1.00  0.00     0.073 A 
ATOM     11  C   UNL A   1      31.180  26.082  23.883  1.00  0.00     0.020 A 
ATOM     12  C   UNL A   1      32.694  26.027  22.044  1.00  0.00     0.130 A 
BRANCH   8  13
ATOM     13  N   UNL A   1      32.194  22.573  23.330  1.00  0.00    -0.308 N 
ATOM     14  C   UNL A   1      32.930  21.661  24.015  1.00  0.00     0.321 C 
ATOM     15  O   UNL A   1      32.801  20.512  23.563  1.00  0.00    -0.248 OA
ATOM     16  H   UNL A   1      31.504  22.127  22.788  1.00  0.00     0.171 HD
BRANCH  14  17
ATOM     17  N   UNL A   1      33.674  21.871  25.161  1.00  0.00    -0.322 N 
BRANCH  17  18
ATOM     18  C   UNL A   1      32.879  22.252  26.347  1.00  0.00     0.118 C 
ATOM     19  C   UNL A   1      33.594  21.932  27.664  1.00  0.00     0.027 C 
ENDBRANCH  17  18
BRANCH  17  20
ATOM     20  C   UNL A   1      35.135  21.942  25.411  1.00  0.00     0.155 C 
BRANCH  20  21
ATOM     21  C   UNL A   1      35.921  23.190  24.797  1.00  0.00     0.077 C 
ATOM     22  C   UNL A   1      37.267  23.610  25.440  1.00  0.00     0.043 C 
ATOM     23  C   UNL A   1      36.123  22.950  23.285  1.00  0.00     0.043 C 
BRANCH  21  24
ATOM     24  O   UNL A   1      35.073  24.348  24.920  1.00  0.00    -0.389 OA
ATOM     25  H   UNL A   1      35.342  25.017  24.270  1.00  0.00     0.211 HD
ENDBRANCH  21  24
ENDBRANCH  20  21
ENDBRANCH  17  20
ENDBRANCH  14  17
ENDBRANCH   8  13
BRANCH  12  26
ATOM     26  O   UNL A   1      33.537  26.646  21.164  1.00  0.00    -0.507 OA
ATOM     27  H   UNL A   1      34.278  26.187  20.823  1.00  0.00     0.293 HD
ENDBRANCH  12  26
ENDBRANCH   4   7
ENDBRANCH   2   3
ENDBRANCH   1   2
BRANCH   1  28
ATOM     28  C   UNL A   1      32.768  30.134  26.091  1.00  0.00     0.002 C 
BRANCH  28  29
ATOM     29  C   UNL A   1      31.386  30.795  26.112  1.00  0.00     0.002 C 
BRANCH  29  30
ATOM     30  C   UNL A   1      31.320  32.281  26.458  1.00  0.00     0.021 C 
BRANCH  30  31
ATOM     31  C   UNL A   1      32.539  32.844  27.166  1.00  0.00     0.116 C 
BRANCH  31  32
ATOM     32  N   UNL A   1      32.343  34.212  27.605  1.00  0.00    -0.352 N 
ATOM     33  C   UNL A   1      33.005  34.903  28.592  1.00  0.00     0.251 C 
ATOM     34  H   UNL A   1      31.641  34.714  27.132  1.00  0.00     0.163 HD
ATOM     35  O   UNL A   1      32.613  36.000  28.952  1.00  0.00    -0.269 OA
BRANCH  33  36
ATOM     36  C   UNL A   1      34.185  34.284  29.233  1.00  0.00     0.039 A 
ATOM     37  C   UNL A   1      33.986  33.426  30.316  1.00  0.00     0.014 A 
ATOM     38  C   UNL A   1      35.474  34.533  28.755  1.00  0.00     0.014 A 
ATOM     39  C   UNL A   1      35.079  32.777  30.888  1.00  0.00     0.010 A 
ATOM     40  C   UNL A   1      36.552  33.821  29.272  1.00  0.00     0.010 A 
ATOM     41  C   UNL A   1      36.367  32.944  30.351  1.00  0.00    -0.014 A 
BRANCH  41  42
ATOM     42  C   UNL A   1      37.537  32.231  30.922  1.00  0.00     0.031 A 
ATOM     43  C   UNL A   1      38.063  32.622  32.275  1.00  0.00     0.074 A 
ATOM     44  C   UNL A   1      38.150  31.267  30.207  1.00  0.00     0.049 A 
ATOM     45  N   UNL A   1      39.116  32.179  32.915  1.00  0.00    -0.248 NA
ATOM     46  C   UNL A   1      37.322  33.670  32.996  1.00  0.00     0.031 C 
ATOM     47  C   UNL A   1      37.749  30.820  28.871  1.00  0.00     0.029 A 
ATOM     48  N   UNL A   1      39.245  30.494  30.500  1.00  0.00    -0.354 N 
ATOM     49  C   UNL A   1      39.160  32.892  34.106  1.00  0.00     0.074 A 
ATOM     50  C   UNL A   1      38.072  33.844  34.073  1.00  0.00     0.031 C 
ATOM     51  C   UNL A   1      38.571  29.835  28.471  1.00  0.00     0.029 A 
ATOM     52  C   UNL A   1      39.583  29.613  29.501  1.00  0.00     0.049 A 
ATOM     53  H   UNL A   1      39.741  30.564  31.347  1.00  0.00     0.167 HD
ATOM     54  C   UNL A   1      40.012  32.742  35.148  1.00  0.00     0.037 A 
ATOM     55  C   UNL A   1      40.602  28.736  29.422  1.00  0.00     0.037 A 
ATOM     56  C   UNL A   1      41.085  31.785  35.183  1.00  0.00     0.049 A 
ATOM     57  C   UNL A   1      41.565  28.631  30.576  1.00  0.00     0.074 A 
ATOM     58  C   UNL A   1      41.991  31.541  36.199  1.00  0.00     0.029 A 
ATOM     59  N   UNL A   1      41.394  30.909  34.152  1.00  0.00    -0.354 N 
ATOM     60  N   UNL A   1      41.565  29.273  31.718  1.00  0.00    -0.248 NA
ATOM     61  C   UNL A   1      42.669  27.671  30.430  1.00  0.00     0.031 C 
ATOM     62  C   UNL A   1      42.877  30.550  35.767  1.00  0.00     0.029 A 
ATOM     63  C   UNL A   1      42.486  30.134  34.504  1.00  0.00     0.049 A 
ATOM     64  H   UNL A   1      40.908  30.847  33.297  1.00  0.00     0.167 HD
ATOM     65  C   UNL A   1      42.636  28.765  32.442  1.00  0.00     0.074 A 
ATOM     66  C   UNL A   1      43.256  27.752  31.615  1.00  0.00     0.031 C 
ATOM     67  C   UNL A   1      43.070  29.108  33.679  1.00  0.00     0.037 A 
BRANCH  54  68
ATOM     68  C   UNL A   1      39.810  33.625  36.346  1.00  0.00     0.064 A 
ATOM     69  C   UNL A   1      40.443  34.874  36.448  1.00  0.00     0.173 A 
ATOM     70  C   UNL A   1      38.932  33.249  37.374  1.00  0.00     0.173 A 
ATOM     71  F   UNL A   1      41.301  35.276  35.499  1.00  0.00    -0.203 F 
ATOM     72  C   UNL A   1      40.220  35.703  37.545  1.00  0.00     0.198 A 
ATOM     73  C   UNL A   1      38.687  34.095  38.453  1.00  0.00     0.198 A 
ATOM     74  F   UNL A   1      38.298  32.068  37.324  1.00  0.00    -0.203 F 
ATOM     75  F   UNL A   1      40.869  36.872  37.641  1.00  0.00    -0.200 F 
ATOM     76  C   UNL A   1      39.336  35.318  38.540  1.00  0.00     0.200 A 
ATOM     77  F   UNL A   1      37.820  33.727  39.406  1.00  0.00    -0.200 F 
ATOM     78  F   UNL A   1      39.110  36.124  39.587  1.00  0.00    -0.200 F 
ENDBRANCH  54  68
BRANCH  55  79
ATOM     79  C   UNL A   1      40.772  27.879  28.217  1.00  0.00     0.064 A 
ATOM     80  C   UNL A   1      40.245  26.580  28.177  1.00  0.00     0.173 A 
ATOM     81  C   UNL A   1      41.507  28.315  27.105  1.00  0.00     0.173 A 
ATOM     82  F   UNL A   1      39.550  26.108  29.223  1.00  0.00    -0.203 F 
ATOM     83  C   UNL A   1      40.482  25.737  27.093  1.00  0.00     0.198 A 
ATOM     84  C   UNL A   1      41.713  27.484  26.005  1.00  0.00     0.198 A 
ATOM     85  F   UNL A   1      42.029  29.550  27.085  1.00  0.00    -0.203 F 
ATOM     86  F   UNL A   1      40.028  24.476  27.116  1.00  0.00    -0.200 F 
ATOM     87  C   UNL A   1      41.214  26.190  26.007  1.00  0.00     0.200 A 
ATOM     88  F   UNL A   1      42.407  27.932  24.950  1.00  0.00    -0.200 F 
ATOM     89  F   UNL A   1      41.451  25.377  24.969  1.00  0.00    -0.200 F 
ENDBRANCH  55  79
BRANCH  67  90
ATOM     90  C   UNL A   1      44.229  28.338  34.244  1.00  0.00     0.064 A 
ATOM     91  C   UNL A   1      45.552  28.784  34.112  1.00  0.00     0.173 A 
ATOM     92  C   UNL A   1      44.005  27.157  34.970  1.00  0.00     0.173 A 
ATOM     93  F   UNL A   1      45.822  29.900  33.416  1.00  0.00    -0.203 F 
ATOM     94  C   UNL A   1      46.608  28.062  34.658  1.00  0.00     0.198 A 
ATOM     95  C   UNL A   1      45.060  26.457  35.546  1.00  0.00     0.198 A 
ATOM     96  F   UNL A   1      42.757  26.690  35.134  1.00  0.00    -0.203 F 
ATOM     97  F   UNL A   1      47.868  28.480  34.474  1.00  0.00    -0.200 F 
ATOM     98  C   UNL A   1      46.362  26.905  35.383  1.00  0.00     0.200 A 
ATOM     99  F   UNL A   1      44.817  25.349  36.260  1.00  0.00    -0.200 F 
ATOM    100  F   UNL A   1      47.380  26.217  35.918  1.00  0.00    -0.200 F 
ENDBRANCH  67  90
ENDBRANCH  41  42
ENDBRANCH  33  36
ENDBRANCH  31  32
ENDBRANCH  30  31
ENDBRANCH  29  30
ENDBRANCH  28  29
ENDBRANCH   1  28
TORSDOF 20
ENDMDL
