MODEL 1
REMARK VINA RESULT:     -12.0      0.000      0.000
REMARK SMILES COc1ccc(C(=O)N2CC[C@@H](C(=O)NCCCCCCNC(=O)c3ccc(-c4c5nc(c(-c6c(F)c(F)c(F)c(F)c6F)c6ccc([nH]6)c(-c6c(F)c(F)c(F)c(F)c6F)c6nc(c(-c7c(F)c(F)c(F)c(F)c7F)c7ccc4[nH]7)C=C6)C=C5)cc3)[C@H]2C)cc1O
REMARK SMILES IDX 18 1 17 2 16 3 15 4 13 5 14 6 12 8 9 9 10 10 88 11 11 12
REMARK SMILES IDX 89 13 7 14 8 15 6 16 3 17 4 18 91 19 5 20 90 21 2 22 1 23
REMARK SMILES IDX 92 24 19 26 20 27 21 28 22 29 23 30 24 32 25 33 26 34 87 35
REMARK SMILES IDX 27 36 86 37 28 38 29 39 30 40 80 41 31 42 85 43 79 44 81 45
REMARK SMILES IDX 32 46 84 47 78 48 77 49 33 51 65 52 45 53 64 54 46 55 49 56
REMARK SMILES IDX 63 57 82 58 47 59 48 60 62 62 83 63 50 64 34 65 35 66 43 67
REMARK SMILES IDX 36 68 37 69 41 70 44 71 38 72 39 73 42 74 40 75 66 76 67 77
REMARK SMILES IDX 75 78 68 79 69 80 73 81 76 82 70 83 71 84 74 85 72 86 51 87
REMARK SMILES IDX 52 88 60 89 53 90 54 91 58 92 61 93 55 94 56 95 59 96 57 97
REMARK H PARENT 15 7 92 25 22 31 81 50 49 61
REMARK Flexibility Score: inf
ROOT
ATOM      1  C   UNL A   1      32.864  30.196  25.834  1.00  0.00     0.002 C 
ENDROOT
BRANCH   1   2
ATOM      2  C   UNL A   1      32.964  28.680  25.637  1.00  0.00     0.021 C 
BRANCH   2   3
ATOM      3  C   UNL A   1      33.167  28.223  24.192  1.00  0.00     0.116 C 
BRANCH   3   4
ATOM      4  N   UNL A   1      32.064  28.650  23.355  1.00  0.00    -0.356 N 
ATOM      5  C   UNL A   1      31.020  27.973  22.816  1.00  0.00     0.225 C 
ATOM      6  O   UNL A   1      30.299  28.601  22.035  1.00  0.00    -0.275 OA
ATOM      7  H   UNL A   1      32.073  29.610  23.137  1.00  0.00     0.163 HD
BRANCH   5   8
ATOM      8  C   UNL A   1      30.691  26.522  23.136  1.00  0.00     0.102 C 
ATOM      9  N   UNL A   1      31.802  24.433  23.480  1.00  0.00    -0.335 N 
ATOM     10  C   UNL A   1      30.966  24.684  24.637  1.00  0.00     0.121 C 
ATOM     11  C   UNL A   1      31.441  25.383  22.407  1.00  0.00     0.094 C 
ATOM     12  C   UNL A   1      30.739  26.179  24.628  1.00  0.00     0.037 C 
ATOM     13  C   UNL A   1      32.540  25.783  21.438  1.00  0.00     0.032 C 
BRANCH   9  14
ATOM     14  C   UNL A   1      32.188  23.110  23.263  1.00  0.00     0.254 C 
ATOM     15  O   UNL A   1      31.402  22.243  22.885  1.00  0.00    -0.269 OA
BRANCH  14  16
ATOM     16  C   UNL A   1      33.569  22.705  23.619  1.00  0.00     0.043 A 
ATOM     17  C   UNL A   1      36.203  21.944  24.274  1.00  0.00     0.160 A 
ATOM     18  C   UNL A   1      35.949  23.132  23.574  1.00  0.00     0.051 A 
ATOM     19  C   UNL A   1      35.116  21.134  24.616  1.00  0.00     0.158 A 
ATOM     20  C   UNL A   1      34.643  23.520  23.253  1.00  0.00     0.018 A 
ATOM     21  C   UNL A   1      33.818  21.481  24.242  1.00  0.00     0.064 A 
BRANCH  17  22
ATOM     22  O   UNL A   1      37.528  21.751  24.538  1.00  0.00    -0.493 OA
ATOM     23  C   UNL A   1      38.076  22.224  25.758  1.00  0.00     0.278 C 
ENDBRANCH  17  22
BRANCH  19  24
ATOM     24  O   UNL A   1      35.211  20.007  25.384  1.00  0.00    -0.504 OA
ATOM     25  H   UNL A   1      36.024  19.544  25.436  1.00  0.00     0.293 HD
ENDBRANCH  19  24
ENDBRANCH  14  16
ENDBRANCH   9  14
ENDBRANCH   5   8
ENDBRANCH   3   4
ENDBRANCH   2   3
ENDBRANCH   1   2
BRANCH   1  26
ATOM     26  C   UNL A   1      31.487  30.715  26.251  1.00  0.00     0.002 C 
BRANCH  26  27
ATOM     27  C   UNL A   1      31.406  32.221  26.510  1.00  0.00     0.021 C 
BRANCH  27  28
ATOM     28  C   UNL A   1      32.599  32.816  27.253  1.00  0.00     0.116 C 
BRANCH  28  29
ATOM     29  N   UNL A   1      32.380  34.203  27.627  1.00  0.00    -0.352 N 
ATOM     30  C   UNL A   1      32.967  34.937  28.627  1.00  0.00     0.251 C 
ATOM     31  H   UNL A   1      31.717  34.685  27.084  1.00  0.00     0.163 HD
ATOM     32  O   UNL A   1      32.527  36.041  28.926  1.00  0.00    -0.269 OA
BRANCH  30  33
ATOM     33  C   UNL A   1      34.125  34.384  29.361  1.00  0.00     0.039 A 
ATOM     34  C   UNL A   1      33.903  33.712  30.565  1.00  0.00     0.014 A 
ATOM     35  C   UNL A   1      35.424  34.537  28.868  1.00  0.00     0.014 A 
ATOM     36  C   UNL A   1      34.981  33.143  31.248  1.00  0.00     0.010 A 
ATOM     37  C   UNL A   1      36.487  33.909  29.511  1.00  0.00     0.010 A 
ATOM     38  C   UNL A   1      36.276  33.211  30.711  1.00  0.00    -0.014 A 
BRANCH  38  39
ATOM     39  C   UNL A   1      37.424  32.560  31.391  1.00  0.00     0.031 A 
ATOM     40  C   UNL A   1      38.127  31.400  30.743  1.00  0.00     0.074 A 
ATOM     41  C   UNL A   1      37.794  32.974  32.618  1.00  0.00     0.049 A 
ATOM     42  N   UNL A   1      39.104  30.660  31.205  1.00  0.00    -0.248 NA
ATOM     43  C   UNL A   1      37.650  30.999  29.411  1.00  0.00     0.031 C 
ATOM     44  C   UNL A   1      37.159  34.058  33.369  1.00  0.00     0.029 A 
ATOM     45  N   UNL A   1      38.785  32.526  33.454  1.00  0.00    -0.354 N 
ATOM     46  C   UNL A   1      39.348  29.703  30.227  1.00  0.00     0.074 A 
ATOM     47  C   UNL A   1      38.382  29.920  29.173  1.00  0.00     0.031 C 
ATOM     48  C   UNL A   1      37.788  34.203  34.547  1.00  0.00     0.029 A 
ATOM     49  C   UNL A   1      38.843  33.200  34.650  1.00  0.00     0.049 A 
ATOM     50  H   UNL A   1      39.396  31.790  33.220  1.00  0.00     0.167 HD
ATOM     51  C   UNL A   1      40.307  28.746  30.202  1.00  0.00     0.037 A 
ATOM     52  C   UNL A   1      39.651  33.022  35.713  1.00  0.00     0.037 A 
ATOM     53  C   UNL A   1      41.280  28.550  31.245  1.00  0.00     0.049 A 
ATOM     54  C   UNL A   1      40.702  31.947  35.662  1.00  0.00     0.074 A 
ATOM     55  C   UNL A   1      42.330  27.650  31.287  1.00  0.00     0.029 A 
ATOM     56  N   UNL A   1      41.319  29.265  32.434  1.00  0.00    -0.354 N 
ATOM     57  N   UNL A   1      40.971  31.096  34.703  1.00  0.00    -0.248 NA
ATOM     58  C   UNL A   1      41.569  31.813  36.842  1.00  0.00     0.031 C 
ATOM     59  C   UNL A   1      42.972  27.783  32.522  1.00  0.00     0.029 A 
ATOM     60  C   UNL A   1      42.360  28.808  33.226  1.00  0.00     0.049 A 
ATOM     61  H   UNL A   1      40.700  29.989  32.678  1.00  0.00     0.167 HD
ATOM     62  C   UNL A   1      42.052  30.347  35.147  1.00  0.00     0.074 A 
ATOM     63  C   UNL A   1      42.401  30.855  36.457  1.00  0.00     0.031 C 
ATOM     64  C   UNL A   1      42.699  29.329  34.525  1.00  0.00     0.037 A 
BRANCH  51  65
ATOM     65  C   UNL A   1      40.349  27.836  29.009  1.00  0.00     0.064 A 
ATOM     66  C   UNL A   1      41.115  28.143  27.873  1.00  0.00     0.173 A 
ATOM     67  C   UNL A   1      39.646  26.621  29.014  1.00  0.00     0.173 A 
ATOM     68  F   UNL A   1      41.797  29.296  27.811  1.00  0.00    -0.203 F 
ATOM     69  C   UNL A   1      41.148  27.285  26.777  1.00  0.00     0.198 A 
ATOM     70  C   UNL A   1      39.709  25.750  27.929  1.00  0.00     0.198 A 
ATOM     71  F   UNL A   1      38.903  26.274  30.075  1.00  0.00    -0.203 F 
ATOM     72  F   UNL A   1      41.843  27.627  25.683  1.00  0.00    -0.200 F 
ATOM     73  C   UNL A   1      40.452  26.087  26.809  1.00  0.00     0.200 A 
ATOM     74  F   UNL A   1      39.046  24.586  27.968  1.00  0.00    -0.200 F 
ATOM     75  F   UNL A   1      40.492  25.259  25.755  1.00  0.00    -0.200 F 
ENDBRANCH  51  65
BRANCH  52  76
ATOM     76  C   UNL A   1      39.509  33.896  36.907  1.00  0.00     0.064 A 
ATOM     77  C   UNL A   1      40.133  35.150  36.959  1.00  0.00     0.173 A 
ATOM     78  C   UNL A   1      38.753  33.497  38.019  1.00  0.00     0.173 A 
ATOM     79  F   UNL A   1      40.883  35.568  35.929  1.00  0.00    -0.203 F 
ATOM     80  C   UNL A   1      40.025  35.963  38.086  1.00  0.00     0.198 A 
ATOM     81  C   UNL A   1      38.622  34.323  39.133  1.00  0.00     0.198 A 
ATOM     82  F   UNL A   1      38.131  32.310  38.018  1.00  0.00    -0.203 F 
ATOM     83  F   UNL A   1      40.672  37.136  38.129  1.00  0.00    -0.200 F 
ATOM     84  C   UNL A   1      39.265  35.550  39.170  1.00  0.00     0.200 A 
ATOM     85  F   UNL A   1      37.872  33.928  40.172  1.00  0.00    -0.200 F 
ATOM     86  F   UNL A   1      39.157  36.334  40.253  1.00  0.00    -0.200 F 
ENDBRANCH  52  76
BRANCH  64  87
ATOM     87  C   UNL A   1      43.873  28.723  35.238  1.00  0.00     0.064 A 
ATOM     88  C   UNL A   1      45.176  29.211  35.063  1.00  0.00     0.173 A 
ATOM     89  C   UNL A   1      43.684  27.665  36.141  1.00  0.00     0.173 A 
ATOM     90  F   UNL A   1      45.412  30.211  34.199  1.00  0.00    -0.203 F 
ATOM     91  C   UNL A   1      46.251  28.645  35.744  1.00  0.00     0.198 A 
ATOM     92  C   UNL A   1      44.756  27.123  36.846  1.00  0.00     0.198 A 
ATOM     93  F   UNL A   1      42.458  27.166  36.352  1.00  0.00    -0.203 F 
ATOM     94  F   UNL A   1      47.494  29.094  35.523  1.00  0.00    -0.200 F 
ATOM     95  C   UNL A   1      46.039  27.608  36.641  1.00  0.00     0.200 A 
ATOM     96  F   UNL A   1      44.547  26.133  37.724  1.00  0.00    -0.200 F 
ATOM     97  F   UNL A   1      47.073  27.071  37.302  1.00  0.00    -0.200 F 
ENDBRANCH  64  87
ENDBRANCH  38  39
ENDBRANCH  30  33
ENDBRANCH  28  29
ENDBRANCH  27  28
ENDBRANCH  26  27
ENDBRANCH   1  26
TORSDOF 17
ENDMDL
MODEL 2
REMARK VINA RESULT:     -12.0      1.508      7.556
REMARK SMILES COc1ccc(C(=O)N2CC[C@@H](C(=O)NCCCCCCNC(=O)c3ccc(-c4c5nc(c(-c6c(F)c(F)c(F)c(F)c6F)c6ccc([nH]6)c(-c6c(F)c(F)c(F)c(F)c6F)c6nc(c(-c7c(F)c(F)c(F)c(F)c7F)c7ccc4[nH]7)C=C6)C=C5)cc3)[C@H]2C)cc1O
REMARK SMILES IDX 18 1 17 2 16 3 15 4 13 5 14 6 12 8 9 9 10 10 88 11 11 12
REMARK SMILES IDX 89 13 7 14 8 15 6 16 3 17 4 18 91 19 5 20 90 21 2 22 1 23
REMARK SMILES IDX 92 24 19 26 20 27 21 28 22 29 23 30 24 32 25 33 26 34 87 35
REMARK SMILES IDX 27 36 86 37 28 38 29 39 30 40 80 41 31 42 85 43 79 44 81 45
REMARK SMILES IDX 32 46 84 47 78 48 77 49 33 51 65 52 45 53 64 54 46 55 49 56
REMARK SMILES IDX 63 57 82 58 47 59 48 60 62 62 83 63 50 64 34 65 35 66 43 67
REMARK SMILES IDX 36 68 37 69 41 70 44 71 38 72 39 73 42 74 40 75 66 76 67 77
REMARK SMILES IDX 75 78 68 79 69 80 73 81 76 82 70 83 71 84 74 85 72 86 51 87
REMARK SMILES IDX 52 88 60 89 53 90 54 91 58 92 61 93 55 94 56 95 59 96 57 97
REMARK H PARENT 15 7 92 25 22 31 81 50 49 61
REMARK Flexibility Score: inf
ROOT
ATOM      1  C   UNL A   1      31.045  30.297  25.002  1.00  0.00     0.002 C 
ENDROOT
BRANCH   1   2
ATOM      2  C   UNL A   1      31.432  28.830  24.795  1.00  0.00     0.021 C 
BRANCH   2   3
ATOM      3  C   UNL A   1      31.971  28.116  26.035  1.00  0.00     0.116 C 
BRANCH   3   4
ATOM      4  N   UNL A   1      31.030  27.121  26.509  1.00  0.00    -0.356 N 
ATOM      5  C   UNL A   1      30.625  25.936  25.988  1.00  0.00     0.225 C 
ATOM      6  O   UNL A   1      29.704  25.361  26.577  1.00  0.00    -0.275 OA
ATOM      7  H   UNL A   1      30.606  27.346  27.368  1.00  0.00     0.163 HD
BRANCH   5   8
ATOM      8  C   UNL A   1      31.249  25.289  24.761  1.00  0.00     0.102 C 
ATOM      9  N   UNL A   1      32.152  23.187  24.068  1.00  0.00    -0.335 N 
ATOM     10  C   UNL A   1      31.121  23.559  23.119  1.00  0.00     0.121 C 
ATOM     11  C   UNL A   1      32.469  24.351  24.920  1.00  0.00     0.094 C 
ATOM     12  C   UNL A   1      30.253  24.547  23.864  1.00  0.00     0.037 C 
ATOM     13  C   UNL A   1      32.946  24.066  26.334  1.00  0.00     0.032 C 
BRANCH   9  14
ATOM     14  C   UNL A   1      33.090  22.249  23.636  1.00  0.00     0.254 C 
ATOM     15  O   UNL A   1      34.035  22.544  22.906  1.00  0.00    -0.269 OA
BRANCH  14  16
ATOM     16  C   UNL A   1      32.872  20.821  23.968  1.00  0.00     0.043 A 
ATOM     17  C   UNL A   1      32.443  18.103  24.584  1.00  0.00     0.160 A 
ATOM     18  C   UNL A   1      32.359  18.566  23.262  1.00  0.00     0.051 A 
ATOM     19  C   UNL A   1      32.720  19.032  25.591  1.00  0.00     0.158 A 
ATOM     20  C   UNL A   1      32.580  19.911  22.949  1.00  0.00     0.018 A 
ATOM     21  C   UNL A   1      32.875  20.386  25.295  1.00  0.00     0.064 A 
BRANCH  17  22
ATOM     22  O   UNL A   1      32.243  16.757  24.694  1.00  0.00    -0.493 OA
ATOM     23  C   UNL A   1      33.356  15.896  24.866  1.00  0.00     0.278 C 
ENDBRANCH  17  22
BRANCH  19  24
ATOM     24  O   UNL A   1      32.928  18.702  26.901  1.00  0.00    -0.504 OA
ATOM     25  H   UNL A   1      32.255  18.268  27.387  1.00  0.00     0.293 HD
ENDBRANCH  19  24
ENDBRANCH  14  16
ENDBRANCH   9  14
ENDBRANCH   5   8
ENDBRANCH   3   4
ENDBRANCH   2   3
ENDBRANCH   1   2
BRANCH   1  26
ATOM     26  C   UNL A   1      31.305  30.854  26.403  1.00  0.00     0.002 C 
BRANCH  26  27
ATOM     27  C   UNL A   1      31.385  32.379  26.498  1.00  0.00     0.021 C 
BRANCH  27  28
ATOM     28  C   UNL A   1      32.642  32.921  27.172  1.00  0.00     0.116 C 
BRANCH  28  29
ATOM     29  N   UNL A   1      32.467  34.282  27.651  1.00  0.00    -0.352 N 
ATOM     30  C   UNL A   1      33.094  34.926  28.687  1.00  0.00     0.251 C 
ATOM     31  H   UNL A   1      31.805  34.819  27.160  1.00  0.00     0.163 HD
ATOM     32  O   UNL A   1      32.690  36.016  29.076  1.00  0.00    -0.269 OA
BRANCH  30  33
ATOM     33  C   UNL A   1      34.254  34.293  29.351  1.00  0.00     0.039 A 
ATOM     34  C   UNL A   1      34.031  33.466  30.455  1.00  0.00     0.014 A 
ATOM     35  C   UNL A   1      35.554  34.522  28.893  1.00  0.00     0.014 A 
ATOM     36  C   UNL A   1      35.110  32.823  31.065  1.00  0.00     0.010 A 
ATOM     37  C   UNL A   1      36.619  33.826  29.456  1.00  0.00     0.010 A 
ATOM     38  C   UNL A   1      36.408  32.974  30.552  1.00  0.00    -0.014 A 
BRANCH  38  39
ATOM     39  C   UNL A   1      37.559  32.250  31.150  1.00  0.00     0.031 A 
ATOM     40  C   UNL A   1      38.055  32.620  32.520  1.00  0.00     0.074 A 
ATOM     41  C   UNL A   1      38.194  31.302  30.435  1.00  0.00     0.049 A 
ATOM     42  N   UNL A   1      39.081  32.152  33.185  1.00  0.00    -0.248 NA
ATOM     43  C   UNL A   1      37.316  33.678  33.226  1.00  0.00     0.031 C 
ATOM     44  C   UNL A   1      37.836  30.887  29.078  1.00  0.00     0.029 A 
ATOM     45  N   UNL A   1      39.281  30.523  30.745  1.00  0.00    -0.354 N 
ATOM     46  C   UNL A   1      39.117  32.864  34.377  1.00  0.00     0.074 A 
ATOM     47  C   UNL A   1      38.045  33.834  34.322  1.00  0.00     0.031 C 
ATOM     48  C   UNL A   1      38.675  29.918  28.679  1.00  0.00     0.029 A 
ATOM     49  C   UNL A   1      39.652  29.670  29.734  1.00  0.00     0.049 A 
ATOM     50  H   UNL A   1      39.750  30.572  31.609  1.00  0.00     0.167 HD
ATOM     51  C   UNL A   1      39.954  32.707  35.430  1.00  0.00     0.037 A 
ATOM     52  C   UNL A   1      40.672  28.792  29.665  1.00  0.00     0.037 A 
ATOM     53  C   UNL A   1      41.005  31.724  35.488  1.00  0.00     0.049 A 
ATOM     54  C   UNL A   1      41.591  28.642  30.846  1.00  0.00     0.074 A 
ATOM     55  C   UNL A   1      41.866  31.443  36.533  1.00  0.00     0.029 A 
ATOM     56  N   UNL A   1      41.339  30.863  34.452  1.00  0.00    -0.354 N 
ATOM     57  N   UNL A   1      41.571  29.270  31.997  1.00  0.00    -0.248 NA
ATOM     58  C   UNL A   1      42.672  27.655  30.722  1.00  0.00     0.031 C 
ATOM     59  C   UNL A   1      42.756  30.450  36.112  1.00  0.00     0.029 A 
ATOM     60  C   UNL A   1      42.412  30.069  34.825  1.00  0.00     0.049 A 
ATOM     61  H   UNL A   1      40.883  30.824  33.581  1.00  0.00     0.167 HD
ATOM     62  C   UNL A   1      42.612  28.736  32.743  1.00  0.00     0.074 A 
ATOM     63  C   UNL A   1      43.236  27.720  31.920  1.00  0.00     0.031 C 
ATOM     64  C   UNL A   1      43.016  29.057  33.997  1.00  0.00     0.037 A 
BRANCH  51  65
ATOM     65  C   UNL A   1      39.768  33.619  36.608  1.00  0.00     0.064 A 
ATOM     66  C   UNL A   1      40.443  34.846  36.705  1.00  0.00     0.173 A 
ATOM     67  C   UNL A   1      38.875  33.282  37.637  1.00  0.00     0.173 A 
ATOM     68  F   UNL A   1      41.318  35.212  35.756  1.00  0.00    -0.203 F 
ATOM     69  C   UNL A   1      40.256  35.684  37.801  1.00  0.00     0.198 A 
ATOM     70  C   UNL A   1      38.665  34.138  38.715  1.00  0.00     0.198 A 
ATOM     71  F   UNL A   1      38.198  32.125  37.593  1.00  0.00    -0.203 F 
ATOM     72  F   UNL A   1      40.954  36.825  37.897  1.00  0.00    -0.200 F 
ATOM     73  C   UNL A   1      39.362  35.333  38.800  1.00  0.00     0.200 A 
ATOM     74  F   UNL A   1      37.790  33.804  39.673  1.00  0.00    -0.200 F 
ATOM     75  F   UNL A   1      39.177  36.144  39.852  1.00  0.00    -0.200 F 
ENDBRANCH  51  65
BRANCH  52  76
ATOM     76  C   UNL A   1      40.863  27.973  28.439  1.00  0.00     0.064 A 
ATOM     77  C   UNL A   1      40.282  26.703  28.323  1.00  0.00     0.173 A 
ATOM     78  C   UNL A   1      41.632  28.439  27.362  1.00  0.00     0.173 A 
ATOM     79  F   UNL A   1      39.555  26.205  29.334  1.00  0.00    -0.203 F 
ATOM     80  C   UNL A   1      40.480  25.920  27.188  1.00  0.00     0.198 A 
ATOM     81  C   UNL A   1      41.804  27.668  26.215  1.00  0.00     0.198 A 
ATOM     82  F   UNL A   1      42.204  29.650  27.419  1.00  0.00    -0.203 F 
ATOM     83  F   UNL A   1      39.953  24.690  27.124  1.00  0.00    -0.200 F 
ATOM     84  C   UNL A   1      41.237  26.406  26.132  1.00  0.00     0.200 A 
ATOM     85  F   UNL A   1      42.522  28.148  25.190  1.00  0.00    -0.200 F 
ATOM     86  F   UNL A   1      41.423  25.655  25.037  1.00  0.00    -0.200 F 
ENDBRANCH  52  76
BRANCH  64  87
ATOM     87  C   UNL A   1      44.163  28.277  34.572  1.00  0.00     0.064 A 
ATOM     88  C   UNL A   1      43.966  27.066  35.252  1.00  0.00     0.173 A 
ATOM     89  C   UNL A   1      45.482  28.728  34.403  1.00  0.00     0.173 A 
ATOM     90  F   UNL A   1      42.724  26.600  35.454  1.00  0.00    -0.203 F 
ATOM     91  C   UNL A   1      45.044  26.349  35.765  1.00  0.00     0.198 A 
ATOM     92  C   UNL A   1      46.560  27.991  34.888  1.00  0.00     0.198 A 
ATOM     93  F   UNL A   1      45.727  29.875  33.753  1.00  0.00    -0.203 F 
ATOM     94  F   UNL A   1      44.828  25.221  36.455  1.00  0.00    -0.200 F 
ATOM     95  C   UNL A   1      46.339  26.807  35.575  1.00  0.00     0.200 A 
ATOM     96  F   UNL A   1      47.810  28.428  34.689  1.00  0.00    -0.200 F 
ATOM     97  F   UNL A   1      47.375  26.111  36.061  1.00  0.00    -0.200 F 
ENDBRANCH  64  87
ENDBRANCH  38  39
ENDBRANCH  30  33
ENDBRANCH  28  29
ENDBRANCH  27  28
ENDBRANCH  26  27
ENDBRANCH   1  26
TORSDOF 17
ENDMDL
MODEL 3
REMARK VINA RESULT:     -11.9      1.439      2.315
REMARK SMILES COc1ccc(C(=O)N2CC[C@@H](C(=O)NCCCCCCNC(=O)c3ccc(-c4c5nc(c(-c6c(F)c(F)c(F)c(F)c6F)c6ccc([nH]6)c(-c6c(F)c(F)c(F)c(F)c6F)c6nc(c(-c7c(F)c(F)c(F)c(F)c7F)c7ccc4[nH]7)C=C6)C=C5)cc3)[C@H]2C)cc1O
REMARK SMILES IDX 18 1 17 2 16 3 15 4 13 5 14 6 12 8 9 9 10 10 88 11 11 12
REMARK SMILES IDX 89 13 7 14 8 15 6 16 3 17 4 18 91 19 5 20 90 21 2 22 1 23
REMARK SMILES IDX 92 24 19 26 20 27 21 28 22 29 23 30 24 32 25 33 26 34 87 35
REMARK SMILES IDX 27 36 86 37 28 38 29 39 30 40 80 41 31 42 85 43 79 44 81 45
REMARK SMILES IDX 32 46 84 47 78 48 77 49 33 51 65 52 45 53 64 54 46 55 49 56
REMARK SMILES IDX 63 57 82 58 47 59 48 60 62 62 83 63 50 64 34 65 35 66 43 67
REMARK SMILES IDX 36 68 37 69 41 70 44 71 38 72 39 73 42 74 40 75 66 76 67 77
REMARK SMILES IDX 75 78 68 79 69 80 73 81 76 82 70 83 71 84 74 85 72 86 51 87
REMARK SMILES IDX 52 88 60 89 53 90 54 91 58 92 61 93 55 94 56 95 59 96 57 97
REMARK H PARENT 15 7 92 25 22 31 81 50 49 61
REMARK Flexibility Score: inf
ROOT
ATOM      1  C   UNL A   1      30.896  29.633  24.671  1.00  0.00     0.002 C 
ENDROOT
BRANCH   1   2
ATOM      2  C   UNL A   1      31.647  28.923  23.540  1.00  0.00     0.021 C 
BRANCH   2   3
ATOM      3  C   UNL A   1      30.863  27.818  22.831  1.00  0.00     0.116 C 
BRANCH   3   4
ATOM      4  N   UNL A   1      31.703  27.116  21.881  1.00  0.00    -0.356 N 
ATOM      5  C   UNL A   1      32.666  26.176  22.044  1.00  0.00     0.225 C 
ATOM      6  O   UNL A   1      33.299  25.854  21.033  1.00  0.00    -0.275 OA
ATOM      7  H   UNL A   1      31.546  27.370  20.943  1.00  0.00     0.163 HD
BRANCH   5   8
ATOM      8  C   UNL A   1      32.980  25.502  23.371  1.00  0.00     0.102 C 
ATOM      9  N   UNL A   1      32.848  23.346  24.397  1.00  0.00    -0.335 N 
ATOM     10  C   UNL A   1      34.215  23.811  24.522  1.00  0.00     0.121 C 
ATOM     11  C   UNL A   1      31.992  24.470  23.964  1.00  0.00     0.094 C 
ATOM     12  C   UNL A   1      34.367  24.853  23.436  1.00  0.00     0.037 C 
ATOM     13  C   UNL A   1      30.766  24.127  23.135  1.00  0.00     0.032 C 
BRANCH   9  14
ATOM     14  C   UNL A   1      32.446  22.346  25.281  1.00  0.00     0.254 C 
ATOM     15  O   UNL A   1      32.124  22.579  26.445  1.00  0.00    -0.269 OA
BRANCH  14  16
ATOM     16  C   UNL A   1      32.525  20.932  24.840  1.00  0.00     0.043 A 
ATOM     17  C   UNL A   1      32.694  18.242  24.014  1.00  0.00     0.160 A 
ATOM     18  C   UNL A   1      32.987  18.611  25.334  1.00  0.00     0.051 A 
ATOM     19  C   UNL A   1      32.340  19.249  23.111  1.00  0.00     0.158 A 
ATOM     20  C   UNL A   1      32.896  19.943  25.753  1.00  0.00     0.018 A 
ATOM     21  C   UNL A   1      32.312  20.587  23.504  1.00  0.00     0.064 A 
BRANCH  17  22
ATOM     22  O   UNL A   1      32.791  16.898  23.799  1.00  0.00    -0.493 OA
ATOM     23  C   UNL A   1      34.066  16.313  23.586  1.00  0.00     0.278 C 
ENDBRANCH  17  22
BRANCH  19  24
ATOM     24  O   UNL A   1      31.933  19.018  21.827  1.00  0.00    -0.504 OA
ATOM     25  H   UNL A   1      32.550  19.070  21.123  1.00  0.00     0.293 HD
ENDBRANCH  19  24
ENDBRANCH  14  16
ENDBRANCH   9  14
ENDBRANCH   5   8
ENDBRANCH   3   4
ENDBRANCH   2   3
ENDBRANCH   1   2
BRANCH   1  26
ATOM     26  C   UNL A   1      31.768  30.141  25.821  1.00  0.00     0.002 C 
BRANCH  26  27
ATOM     27  C   UNL A   1      31.558  31.607  26.204  1.00  0.00     0.021 C 
BRANCH  27  28
ATOM     28  C   UNL A   1      32.619  32.192  27.133  1.00  0.00     0.116 C 
BRANCH  28  29
ATOM     29  N   UNL A   1      32.379  33.595  27.428  1.00  0.00    -0.352 N 
ATOM     30  C   UNL A   1      32.982  34.402  28.359  1.00  0.00     0.251 C 
ATOM     31  H   UNL A   1      31.686  34.028  26.880  1.00  0.00     0.163 HD
ATOM     32  O   UNL A   1      32.526  35.514  28.605  1.00  0.00    -0.269 OA
BRANCH  30  33
ATOM     33  C   UNL A   1      34.177  33.922  29.084  1.00  0.00     0.039 A 
ATOM     34  C   UNL A   1      34.028  32.915  30.041  1.00  0.00     0.014 A 
ATOM     35  C   UNL A   1      35.438  34.469  28.829  1.00  0.00     0.014 A 
ATOM     36  C   UNL A   1      35.153  32.417  30.701  1.00  0.00     0.010 A 
ATOM     37  C   UNL A   1      36.565  33.923  29.434  1.00  0.00     0.010 A 
ATOM     38  C   UNL A   1      36.433  32.895  30.381  1.00  0.00    -0.014 A 
BRANCH  38  39
ATOM     39  C   UNL A   1      37.646  32.335  31.029  1.00  0.00     0.031 A 
ATOM     40  C   UNL A   1      38.433  31.250  30.348  1.00  0.00     0.074 A 
ATOM     41  C   UNL A   1      38.003  32.760  32.256  1.00  0.00     0.049 A 
ATOM     42  N   UNL A   1      39.479  30.590  30.778  1.00  0.00    -0.248 NA
ATOM     43  C   UNL A   1      37.966  30.831  29.018  1.00  0.00     0.031 C 
ATOM     44  C   UNL A   1      37.293  33.773  33.038  1.00  0.00     0.029 A 
ATOM     45  N   UNL A   1      39.046  32.386  33.066  1.00  0.00    -0.354 N 
ATOM     46  C   UNL A   1      39.784  29.673  29.780  1.00  0.00     0.074 A 
ATOM     47  C   UNL A   1      38.782  29.823  28.748  1.00  0.00     0.031 C 
ATOM     48  C   UNL A   1      37.930  33.953  34.206  1.00  0.00     0.029 A 
ATOM     49  C   UNL A   1      39.069  33.043  34.272  1.00  0.00     0.049 A 
ATOM     50  H   UNL A   1      39.713  31.709  32.808  1.00  0.00     0.167 HD
ATOM     51  C   UNL A   1      40.821  28.803  29.721  1.00  0.00     0.037 A 
ATOM     52  C   UNL A   1      39.910  32.918  35.317  1.00  0.00     0.037 A 
ATOM     53  C   UNL A   1      41.828  28.675  30.742  1.00  0.00     0.049 A 
ATOM     54  C   UNL A   1      41.048  31.939  35.228  1.00  0.00     0.074 A 
ATOM     55  C   UNL A   1      42.952  27.868  30.748  1.00  0.00     0.029 A 
ATOM     56  N   UNL A   1      41.830  29.372  31.942  1.00  0.00    -0.354 N 
ATOM     57  N   UNL A   1      41.371  31.129  34.249  1.00  0.00    -0.248 NA
ATOM     58  C   UNL A   1      41.947  31.862  36.389  1.00  0.00     0.031 C 
ATOM     59  C   UNL A   1      43.605  28.037  31.973  1.00  0.00     0.029 A 
ATOM     60  C   UNL A   1      42.922  28.993  32.707  1.00  0.00     0.049 A 
ATOM     61  H   UNL A   1      41.155  30.036  32.210  1.00  0.00     0.167 HD
ATOM     62  C   UNL A   1      42.520  30.469  34.660  1.00  0.00     0.074 A 
ATOM     63  C   UNL A   1      42.850  30.985  35.972  1.00  0.00     0.031 C 
ATOM     64  C   UNL A   1      43.239  29.521  34.009  1.00  0.00     0.037 A 
BRANCH  51  65
ATOM     65  C   UNL A   1      40.918  27.919  28.511  1.00  0.00     0.064 A 
ATOM     66  C   UNL A   1      40.213  26.708  28.424  1.00  0.00     0.173 A 
ATOM     67  C   UNL A   1      41.696  28.303  27.408  1.00  0.00     0.173 A 
ATOM     68  F   UNL A   1      39.464  26.287  29.453  1.00  0.00    -0.203 F 
ATOM     69  C   UNL A   1      40.309  25.902  27.292  1.00  0.00     0.198 A 
ATOM     70  C   UNL A   1      41.764  27.510  26.265  1.00  0.00     0.198 A 
ATOM     71  F   UNL A   1      42.387  29.452  27.435  1.00  0.00    -0.203 F 
ATOM     72  F   UNL A   1      39.669  24.724  27.255  1.00  0.00    -0.200 F 
ATOM     73  C   UNL A   1      41.077  26.307  26.212  1.00  0.00     0.200 A 
ATOM     74  F   UNL A   1      42.496  27.910  25.217  1.00  0.00    -0.200 F 
ATOM     75  F   UNL A   1      41.163  25.533  25.121  1.00  0.00    -0.200 F 
ENDBRANCH  51  65
BRANCH  52  76
ATOM     76  C   UNL A   1      39.718  33.758  36.528  1.00  0.00     0.064 A 
ATOM     77  C   UNL A   1      40.320  35.020  36.633  1.00  0.00     0.173 A 
ATOM     78  C   UNL A   1      38.934  33.318  37.605  1.00  0.00     0.173 A 
ATOM     79  F   UNL A   1      41.095  35.476  35.639  1.00  0.00    -0.203 F 
ATOM     80  C   UNL A   1      40.164  35.800  37.777  1.00  0.00     0.198 A 
ATOM     81  C   UNL A   1      38.754  34.112  38.735  1.00  0.00     0.198 A 
ATOM     82  F   UNL A   1      38.330  32.122  37.553  1.00  0.00    -0.203 F 
ATOM     83  F   UNL A   1      40.791  36.980  37.871  1.00  0.00    -0.200 F 
ATOM     84  C   UNL A   1      39.377  35.347  38.825  1.00  0.00     0.200 A 
ATOM     85  F   UNL A   1      37.979  33.679  39.739  1.00  0.00    -0.200 F 
ATOM     86  F   UNL A   1      39.223  36.100  39.924  1.00  0.00    -0.200 F 
ENDBRANCH  52  76
BRANCH  64  87
ATOM     87  C   UNL A   1      44.476  29.007  34.689  1.00  0.00     0.064 A 
ATOM     88  C   UNL A   1      45.719  29.639  34.539  1.00  0.00     0.173 A 
ATOM     89  C   UNL A   1      44.405  27.890  35.537  1.00  0.00     0.173 A 
ATOM     90  F   UNL A   1      45.842  30.701  33.728  1.00  0.00    -0.203 F 
ATOM     91  C   UNL A   1      46.851  29.156  35.189  1.00  0.00     0.198 A 
ATOM     92  C   UNL A   1      45.532  27.430  36.212  1.00  0.00     0.198 A 
ATOM     93  F   UNL A   1      43.239  27.254  35.722  1.00  0.00    -0.203 F 
ATOM     94  F   UNL A   1      48.038  29.745  34.992  1.00  0.00    -0.200 F 
ATOM     95  C   UNL A   1      46.755  28.058  36.032  1.00  0.00     0.200 A 
ATOM     96  F   UNL A   1      45.434  26.379  37.037  1.00  0.00    -0.200 F 
ATOM     97  F   UNL A   1      47.844  27.601  36.665  1.00  0.00    -0.200 F 
ENDBRANCH  64  87
ENDBRANCH  38  39
ENDBRANCH  30  33
ENDBRANCH  28  29
ENDBRANCH  27  28
ENDBRANCH  26  27
ENDBRANCH   1  26
TORSDOF 17
ENDMDL
