MODEL 1
REMARK VINA RESULT:     -13.5      0.000      0.000
REMARK SMILES O=C(NCCCCCCNC(=O)c1ccccc1Nc1cccc(S(F)(F)(F)(F)F)c1)c1ccc(-c2c3nc(c(-c4c(F)c(F)c(F)c(F)c4F)c4ccc([nH]4)c(-c4c(F)c(F)c(F)c(F)c4F)c4nc(c(-c5c(F)c(F)c(F)c(F)c5F)c5ccc2[nH]5)C=C4)C=C3)cc1
REMARK SMILES IDX 7 1 6 2 5 3 4 4 3 5 1 6 2 7 32 9 33 10 94 11 34 12 93 13
REMARK SMILES IDX 35 14 36 15 37 16 87 17 38 18 92 19 86 20 88 21 39 22 91 23
REMARK SMILES IDX 85 24 84 25 40 27 72 28 52 29 71 30 53 31 56 32 70 33 89 34
REMARK SMILES IDX 54 35 55 36 69 38 90 39 57 40 41 41 42 42 50 43 43 44 44 45
REMARK SMILES IDX 48 46 51 47 45 48 46 49 49 50 47 51 73 52 74 53 82 54 75 55
REMARK SMILES IDX 76 56 80 57 83 58 77 59 78 60 81 61 79 62 58 63 59 64 67 65
REMARK SMILES IDX 60 66 61 67 65 68 68 69 62 70 63 71 66 72 64 73 8 74 9 75
REMARK SMILES IDX 10 76 11 77 12 79 13 80 14 81 18 82 15 83 17 84 16 85 19 86
REMARK SMILES IDX 20 88 21 89 31 90 22 91 24 92 23 93 25 94 26 95 27 96 28 97
REMARK SMILES IDX 29 98 30 99
REMARK H PARENT 3 8 88 26 56 37 10 78 19 87
REMARK Flexibility Score: inf
ROOT
ATOM      1  C   UNL A   1      33.214  30.472  27.051  1.00  0.00     0.002 C 
ENDROOT
BRANCH   1   2
ATOM      2  C   UNL A   1      31.743  30.669  26.719  1.00  0.00     0.002 C 
BRANCH   2   3
ATOM      3  C   UNL A   1      31.401  32.148  26.790  1.00  0.00     0.021 C 
BRANCH   3   4
ATOM      4  C   UNL A   1      32.645  32.938  27.162  1.00  0.00     0.116 C 
BRANCH   4   5
ATOM      5  N   UNL A   1      32.255  34.277  27.627  1.00  0.00    -0.352 N 
ATOM      6  O   UNL A   1      32.676  36.088  29.105  1.00  0.00    -0.269 OA
ATOM      7  C   UNL A   1      33.013  34.931  28.703  1.00  0.00     0.251 C 
ATOM      8  H   UNL A   1      31.487  34.736  27.217  1.00  0.00     0.163 HD
BRANCH   7   9
ATOM      9  C   UNL A   1      34.200  34.222  29.336  1.00  0.00     0.039 A 
ATOM     10  C   UNL A   1      35.486  34.525  28.922  1.00  0.00     0.014 A 
ATOM     11  C   UNL A   1      33.976  33.320  30.284  1.00  0.00     0.014 A 
ATOM     12  C   UNL A   1      36.464  33.606  29.371  1.00  0.00     0.010 A 
ATOM     13  C   UNL A   1      35.002  32.550  30.774  1.00  0.00     0.010 A 
ATOM     14  C   UNL A   1      36.292  32.755  30.366  1.00  0.00    -0.014 A 
BRANCH  14  15
ATOM     15  C   UNL A   1      37.462  32.041  31.022  1.00  0.00     0.031 A 
ATOM     16  C   UNL A   1      38.127  31.058  30.286  1.00  0.00     0.074 A 
ATOM     17  C   UNL A   1      37.804  32.405  32.314  1.00  0.00     0.049 A 
ATOM     18  N   UNL A   1      39.188  30.342  30.659  1.00  0.00    -0.248 NA
ATOM     19  C   UNL A   1      37.744  30.646  28.928  1.00  0.00     0.031 C 
ATOM     20  C   UNL A   1      37.144  33.402  33.059  1.00  0.00     0.029 A 
ATOM     21  N   UNL A   1      38.812  31.891  33.097  1.00  0.00    -0.354 N 
ATOM     22  C   UNL A   1      39.553  29.513  29.678  1.00  0.00     0.074 A 
ATOM     23  C   UNL A   1      38.625  29.692  28.554  1.00  0.00     0.031 C 
ATOM     24  C   UNL A   1      37.738  33.479  34.278  1.00  0.00     0.029 A 
ATOM     25  C   UNL A   1      38.780  32.534  34.316  1.00  0.00     0.049 A 
ATOM     26  H   UNL A   1      39.447  31.187  32.833  1.00  0.00     0.167 HD
ATOM     27  C   UNL A   1      40.623  28.617  29.678  1.00  0.00     0.037 A 
ATOM     28  C   UNL A   1      39.602  32.318  35.410  1.00  0.00     0.037 A 
ATOM     29  C   UNL A   1      41.472  28.433  30.757  1.00  0.00     0.049 A 
ATOM     30  C   UNL A   1      40.637  31.380  35.430  1.00  0.00     0.074 A 
ATOM     31  C   UNL A   1      42.561  27.540  30.770  1.00  0.00     0.029 A 
ATOM     32  N   UNL A   1      41.424  29.058  31.984  1.00  0.00    -0.354 N 
ATOM     33  N   UNL A   1      41.026  30.580  34.436  1.00  0.00    -0.248 NA
ATOM     34  C   UNL A   1      41.494  31.122  36.595  1.00  0.00     0.031 C 
ATOM     35  C   UNL A   1      43.155  27.617  31.989  1.00  0.00     0.029 A 
ATOM     36  C   UNL A   1      42.448  28.560  32.760  1.00  0.00     0.049 A 
ATOM     37  H   UNL A   1      40.772  29.742  32.258  1.00  0.00     0.167 HD
ATOM     38  C   UNL A   1      42.062  29.835  34.824  1.00  0.00     0.074 A 
ATOM     39  C   UNL A   1      42.374  30.167  36.221  1.00  0.00     0.031 C 
ATOM     40  C   UNL A   1      42.763  28.893  34.068  1.00  0.00     0.037 A 
BRANCH  27  41
ATOM     41  C   UNL A   1      40.870  27.797  28.422  1.00  0.00     0.064 A 
ATOM     42  C   UNL A   1      41.734  28.279  27.453  1.00  0.00     0.173 A 
ATOM     43  C   UNL A   1      40.268  26.621  28.284  1.00  0.00     0.173 A 
ATOM     44  F   UNL A   1      42.545  29.313  27.654  1.00  0.00    -0.203 F 
ATOM     45  C   UNL A   1      41.674  27.572  26.228  1.00  0.00     0.198 A 
ATOM     46  C   UNL A   1      40.363  25.920  27.107  1.00  0.00     0.198 A 
ATOM     47  F   UNL A   1      39.565  26.119  29.296  1.00  0.00    -0.203 F 
ATOM     48  F   UNL A   1      42.178  28.161  25.148  1.00  0.00    -0.200 F 
ATOM     49  C   UNL A   1      41.152  26.368  26.084  1.00  0.00     0.200 A 
ATOM     50  F   UNL A   1      39.679  24.789  26.961  1.00  0.00    -0.200 F 
ATOM     51  F   UNL A   1      41.382  25.629  25.001  1.00  0.00    -0.200 F 
ENDBRANCH  27  41
BRANCH  28  52
ATOM     52  C   UNL A   1      39.365  33.151  36.660  1.00  0.00     0.064 A 
ATOM     53  C   UNL A   1      40.038  34.353  36.814  1.00  0.00     0.173 A 
ATOM     54  C   UNL A   1      38.529  32.704  37.589  1.00  0.00     0.173 A 
ATOM     55  F   UNL A   1      40.678  34.959  35.818  1.00  0.00    -0.203 F 
ATOM     56  C   UNL A   1      39.982  34.875  38.128  1.00  0.00     0.198 A 
ATOM     57  C   UNL A   1      38.424  33.344  38.801  1.00  0.00     0.198 A 
ATOM     58  F   UNL A   1      37.787  31.628  37.347  1.00  0.00    -0.203 F 
ATOM     59  F   UNL A   1      40.871  35.805  38.462  1.00  0.00    -0.200 F 
ATOM     60  C   UNL A   1      39.107  34.504  39.045  1.00  0.00     0.200 A 
ATOM     61  F   UNL A   1      37.649  32.829  39.750  1.00  0.00    -0.200 F 
ATOM     62  F   UNL A   1      38.900  35.221  40.146  1.00  0.00    -0.200 F 
ENDBRANCH  28  52
BRANCH  40  63
ATOM     63  C   UNL A   1      43.944  28.190  34.719  1.00  0.00     0.064 A 
ATOM     64  C   UNL A   1      45.206  28.758  34.657  1.00  0.00     0.173 A 
ATOM     65  C   UNL A   1      43.737  27.035  35.340  1.00  0.00     0.173 A 
ATOM     66  F   UNL A   1      45.418  30.014  34.275  1.00  0.00    -0.203 F 
ATOM     67  C   UNL A   1      46.247  27.880  35.038  1.00  0.00     0.198 A 
ATOM     68  C   UNL A   1      44.795  26.293  35.808  1.00  0.00     0.198 A 
ATOM     69  F   UNL A   1      42.494  26.593  35.512  1.00  0.00    -0.203 F 
ATOM     70  F   UNL A   1      47.487  28.198  34.676  1.00  0.00    -0.200 F 
ATOM     71  C   UNL A   1      46.075  26.767  35.728  1.00  0.00     0.200 A 
ATOM     72  F   UNL A   1      44.569  25.100  36.348  1.00  0.00    -0.200 F 
ATOM     73  F   UNL A   1      47.092  26.139  36.312  1.00  0.00    -0.200 F 
ENDBRANCH  40  63
ENDBRANCH  14  15
ENDBRANCH   7   9
ENDBRANCH   4   5
ENDBRANCH   3   4
ENDBRANCH   2   3
ENDBRANCH   1   2
BRANCH   1  74
ATOM     74  C   UNL A   1      33.855  29.579  26.001  1.00  0.00     0.021 C 
BRANCH  74  75
ATOM     75  C   UNL A   1      32.885  29.376  24.848  1.00  0.00     0.116 C 
BRANCH  75  76
ATOM     76  N   UNL A   1      33.628  29.361  23.580  1.00  0.00    -0.352 N 
ATOM     77  C   UNL A   1      33.718  28.120  22.797  1.00  0.00     0.253 C 
ATOM     78  H   UNL A   1      34.065  30.181  23.255  1.00  0.00     0.163 HD
ATOM     79  O   UNL A   1      34.360  28.106  21.700  1.00  0.00    -0.269 OA
BRANCH  77  80
ATOM     80  C   UNL A   1      33.044  26.853  23.298  1.00  0.00     0.063 A 
ATOM     81  C   UNL A   1      33.678  26.077  24.253  1.00  0.00     0.016 A 
ATOM     82  C   UNL A   1      31.857  26.513  22.811  1.00  0.00     0.051 A 
ATOM     83  C   UNL A   1      33.105  24.795  24.423  1.00  0.00     0.001 A 
ATOM     84  C   UNL A   1      31.293  25.299  23.128  1.00  0.00     0.027 A 
ATOM     85  C   UNL A   1      31.894  24.456  24.020  1.00  0.00     0.002 A 
BRANCH  82  86
ATOM     86  N   UNL A   1      31.138  27.441  21.927  1.00  0.00    -0.355 N 
ATOM     87  H   UNL A   1      31.423  27.549  20.991  1.00  0.00     0.167 HD
BRANCH  86  88
ATOM     88  C   UNL A   1      29.992  28.206  22.440  1.00  0.00     0.040 A 
ATOM     89  C   UNL A   1      29.044  27.442  23.098  1.00  0.00     0.026 A 
ATOM     90  C   UNL A   1      29.906  29.531  22.406  1.00  0.00     0.050 A 
ATOM     91  C   UNL A   1      27.874  28.157  23.449  1.00  0.00     0.004 A 
ATOM     92  C   UNL A   1      28.793  30.173  22.891  1.00  0.00     0.109 A 
ATOM     93  C   UNL A   1      27.788  29.474  23.501  1.00  0.00     0.024 A 
BRANCH  92  94
ATOM     94  S   UNL A   1      28.653  31.969  22.719  1.00  0.00     0.310 S 
ATOM     95  F   UNL A   1      27.276  31.946  23.504  1.00  0.00    -0.094 F 
ATOM     96  F   UNL A   1      27.818  31.826  21.390  1.00  0.00    -0.094 F 
ATOM     97  F   UNL A   1      28.526  33.518  22.665  1.00  0.00    -0.094 F 
ATOM     98  F   UNL A   1      29.370  32.085  24.122  1.00  0.00    -0.094 F 
ATOM     99  F   UNL A   1      28.693  30.394  22.844  1.00  0.00    -0.094 F 
ENDBRANCH  92  94
ENDBRANCH  86  88
ENDBRANCH  82  86
ENDBRANCH  77  80
ENDBRANCH  75  76
ENDBRANCH  74  75
ENDBRANCH   1  74
TORSDOF 16
ENDMDL
MODEL 2
REMARK VINA RESULT:     -13.4      0.679      7.054
REMARK SMILES O=C(NCCCCCCNC(=O)c1ccccc1Nc1cccc(S(F)(F)(F)(F)F)c1)c1ccc(-c2c3nc(c(-c4c(F)c(F)c(F)c(F)c4F)c4ccc([nH]4)c(-c4c(F)c(F)c(F)c(F)c4F)c4nc(c(-c5c(F)c(F)c(F)c(F)c5F)c5ccc2[nH]5)C=C4)C=C3)cc1
REMARK SMILES IDX 7 1 6 2 5 3 4 4 3 5 1 6 2 7 32 9 33 10 94 11 34 12 93 13
REMARK SMILES IDX 35 14 36 15 37 16 87 17 38 18 92 19 86 20 88 21 39 22 91 23
REMARK SMILES IDX 85 24 84 25 40 27 72 28 52 29 71 30 53 31 56 32 70 33 89 34
REMARK SMILES IDX 54 35 55 36 69 38 90 39 57 40 41 41 42 42 50 43 43 44 44 45
REMARK SMILES IDX 48 46 51 47 45 48 46 49 49 50 47 51 73 52 74 53 82 54 75 55
REMARK SMILES IDX 76 56 80 57 83 58 77 59 78 60 81 61 79 62 58 63 59 64 67 65
REMARK SMILES IDX 60 66 61 67 65 68 68 69 62 70 63 71 66 72 64 73 8 74 9 75
REMARK SMILES IDX 10 76 11 77 12 79 13 80 14 81 18 82 15 83 17 84 16 85 19 86
REMARK SMILES IDX 20 88 21 89 31 90 22 91 24 92 23 93 25 94 26 95 27 96 28 97
REMARK SMILES IDX 29 98 30 99
REMARK H PARENT 3 8 88 26 56 37 10 78 19 87
REMARK Flexibility Score: inf
ROOT
ATOM      1  C   UNL A   1      31.468  30.050  25.564  1.00  0.00     0.002 C 
ENDROOT
BRANCH   1   2
ATOM      2  C   UNL A   1      31.687  30.786  26.877  1.00  0.00     0.002 C 
BRANCH   2   3
ATOM      3  C   UNL A   1      31.450  32.273  26.669  1.00  0.00     0.021 C 
BRANCH   3   4
ATOM      4  C   UNL A   1      32.638  33.055  27.206  1.00  0.00     0.116 C 
BRANCH   4   5
ATOM      5  N   UNL A   1      32.193  34.388  27.636  1.00  0.00    -0.352 N 
ATOM      6  O   UNL A   1      32.532  36.249  29.075  1.00  0.00    -0.269 OA
ATOM      7  C   UNL A   1      32.916  35.096  28.703  1.00  0.00     0.251 C 
ATOM      8  H   UNL A   1      31.412  34.807  27.210  1.00  0.00     0.163 HD
BRANCH   7   9
ATOM      9  C   UNL A   1      34.124  34.448  29.361  1.00  0.00     0.039 A 
ATOM     10  C   UNL A   1      35.397  34.724  28.891  1.00  0.00     0.014 A 
ATOM     11  C   UNL A   1      33.931  33.625  30.385  1.00  0.00     0.014 A 
ATOM     12  C   UNL A   1      36.393  33.850  29.389  1.00  0.00     0.010 A 
ATOM     13  C   UNL A   1      34.975  32.904  30.909  1.00  0.00     0.010 A 
ATOM     14  C   UNL A   1      36.253  33.082  30.454  1.00  0.00    -0.014 A 
BRANCH  14  15
ATOM     15  C   UNL A   1      37.445  32.431  31.136  1.00  0.00     0.031 A 
ATOM     16  C   UNL A   1      37.817  32.903  32.397  1.00  0.00     0.074 A 
ATOM     17  C   UNL A   1      38.094  31.406  30.470  1.00  0.00     0.049 A 
ATOM     18  N   UNL A   1      38.802  32.454  33.175  1.00  0.00    -0.248 NA
ATOM     19  C   UNL A   1      37.149  34.014  33.091  1.00  0.00     0.031 C 
ATOM     20  C   UNL A   1      37.719  30.919  29.203  1.00  0.00     0.029 A 
ATOM     21  N   UNL A   1      39.190  30.687  30.891  1.00  0.00    -0.354 N 
ATOM     22  C   UNL A   1      38.839  33.144  34.317  1.00  0.00     0.074 A 
ATOM     23  C   UNL A   1      37.781  34.162  34.275  1.00  0.00     0.031 C 
ATOM     24  C   UNL A   1      38.583  29.928  28.860  1.00  0.00     0.029 A 
ATOM     25  C   UNL A   1      39.512  29.778  29.906  1.00  0.00     0.049 A 
ATOM     26  H   UNL A   1      39.662  30.801  31.748  1.00  0.00     0.167 HD
ATOM     27  C   UNL A   1      39.713  32.963  35.389  1.00  0.00     0.037 A 
ATOM     28  C   UNL A   1      40.555  28.866  29.903  1.00  0.00     0.037 A 
ATOM     29  C   UNL A   1      40.729  32.021  35.403  1.00  0.00     0.049 A 
ATOM     30  C   UNL A   1      41.466  28.724  30.952  1.00  0.00     0.074 A 
ATOM     31  C   UNL A   1      41.614  31.820  36.481  1.00  0.00     0.029 A 
ATOM     32  N   UNL A   1      41.067  31.130  34.409  1.00  0.00    -0.354 N 
ATOM     33  N   UNL A   1      41.479  29.388  32.110  1.00  0.00    -0.248 NA
ATOM     34  C   UNL A   1      42.593  27.783  30.945  1.00  0.00     0.031 C 
ATOM     35  C   UNL A   1      42.478  30.829  36.138  1.00  0.00     0.029 A 
ATOM     36  C   UNL A   1      42.148  30.394  34.839  1.00  0.00     0.049 A 
ATOM     37  H   UNL A   1      40.612  31.035  33.541  1.00  0.00     0.167 HD
ATOM     38  C   UNL A   1      42.490  28.965  32.870  1.00  0.00     0.074 A 
ATOM     39  C   UNL A   1      43.226  27.932  32.130  1.00  0.00     0.031 C 
ATOM     40  C   UNL A   1      42.827  29.397  34.155  1.00  0.00     0.037 A 
BRANCH  27  41
ATOM     41  C   UNL A   1      39.541  33.850  36.611  1.00  0.00     0.064 A 
ATOM     42  C   UNL A   1      40.140  35.099  36.637  1.00  0.00     0.173 A 
ATOM     43  C   UNL A   1      38.801  33.421  37.628  1.00  0.00     0.173 A 
ATOM     44  F   UNL A   1      40.671  35.671  35.560  1.00  0.00    -0.203 F 
ATOM     45  C   UNL A   1      40.138  35.709  37.914  1.00  0.00     0.198 A 
ATOM     46  C   UNL A   1      38.736  34.137  38.798  1.00  0.00     0.198 A 
ATOM     47  F   UNL A   1      38.117  32.285  37.511  1.00  0.00    -0.203 F 
ATOM     48  F   UNL A   1      40.984  36.714  38.120  1.00  0.00    -0.200 F 
ATOM     49  C   UNL A   1      39.354  35.352  38.914  1.00  0.00     0.200 A 
ATOM     50  F   UNL A   1      38.062  33.643  39.832  1.00  0.00    -0.200 F 
ATOM     51  F   UNL A   1      39.174  36.130  39.977  1.00  0.00    -0.200 F 
ENDBRANCH  27  41
BRANCH  28  52
ATOM     52  C   UNL A   1      40.716  27.967  28.687  1.00  0.00     0.064 A 
ATOM     53  C   UNL A   1      41.565  28.355  27.662  1.00  0.00     0.173 A 
ATOM     54  C   UNL A   1      40.028  26.835  28.620  1.00  0.00     0.173 A 
ATOM     55  F   UNL A   1      42.456  29.335  27.790  1.00  0.00    -0.203 F 
ATOM     56  C   UNL A   1      41.397  27.614  26.469  1.00  0.00     0.198 A 
ATOM     57  C   UNL A   1      40.018  26.089  27.465  1.00  0.00     0.198 A 
ATOM     58  F   UNL A   1      39.340  26.417  29.678  1.00  0.00    -0.203 F 
ATOM     59  F   UNL A   1      41.891  28.130  25.347  1.00  0.00    -0.200 F 
ATOM     60  C   UNL A   1      40.787  26.446  26.392  1.00  0.00     0.200 A 
ATOM     61  F   UNL A   1      39.251  25.007  27.390  1.00  0.00    -0.200 F 
ATOM     62  F   UNL A   1      40.914  25.658  25.328  1.00  0.00    -0.200 F 
ENDBRANCH  28  52
BRANCH  40  63
ATOM     63  C   UNL A   1      44.008  28.735  34.844  1.00  0.00     0.064 A 
ATOM     64  C   UNL A   1      43.818  27.585  35.591  1.00  0.00     0.173 A 
ATOM     65  C   UNL A   1      45.212  29.280  34.714  1.00  0.00     0.173 A 
ATOM     66  F   UNL A   1      42.698  26.868  35.546  1.00  0.00    -0.203 F 
ATOM     67  C   UNL A   1      44.922  27.241  36.405  1.00  0.00     0.198 A 
ATOM     68  C   UNL A   1      46.278  28.805  35.440  1.00  0.00     0.198 A 
ATOM     69  F   UNL A   1      45.389  30.295  33.871  1.00  0.00    -0.203 F 
ATOM     70  F   UNL A   1      44.711  26.388  37.404  1.00  0.00    -0.200 F 
ATOM     71  C   UNL A   1      46.147  27.707  36.243  1.00  0.00     0.200 A 
ATOM     72  F   UNL A   1      47.453  29.422  35.359  1.00  0.00    -0.200 F 
ATOM     73  F   UNL A   1      47.197  27.139  36.831  1.00  0.00    -0.200 F 
ENDBRANCH  40  63
ENDBRANCH  14  15
ENDBRANCH   7   9
ENDBRANCH   4   5
ENDBRANCH   3   4
ENDBRANCH   2   3
ENDBRANCH   1   2
BRANCH   1  74
ATOM     74  C   UNL A   1      31.812  28.581  25.743  1.00  0.00     0.021 C 
BRANCH  74  75
ATOM     75  C   UNL A   1      33.322  28.418  25.799  1.00  0.00     0.116 C 
BRANCH  75  76
ATOM     76  N   UNL A   1      33.920  28.967  24.573  1.00  0.00    -0.352 N 
ATOM     77  C   UNL A   1      33.984  28.145  23.355  1.00  0.00     0.253 C 
ATOM     78  H   UNL A   1      34.276  29.885  24.567  1.00  0.00     0.163 HD
ATOM     79  O   UNL A   1      34.500  28.620  22.295  1.00  0.00    -0.269 OA
BRANCH  77  80
ATOM     80  C   UNL A   1      33.434  26.729  23.364  1.00  0.00     0.063 A 
ATOM     81  C   UNL A   1      33.987  25.789  24.218  1.00  0.00     0.016 A 
ATOM     82  C   UNL A   1      32.432  26.416  22.552  1.00  0.00     0.051 A 
ATOM     83  C   UNL A   1      33.602  24.458  23.933  1.00  0.00     0.001 A 
ATOM     84  C   UNL A   1      32.016  25.111  22.424  1.00  0.00     0.027 A 
ATOM     85  C   UNL A   1      32.560  24.122  23.195  1.00  0.00     0.002 A 
BRANCH  82  86
ATOM     86  N   UNL A   1      31.760  27.473  21.783  1.00  0.00    -0.355 N 
ATOM     87  H   UNL A   1      32.129  27.762  20.918  1.00  0.00     0.167 HD
BRANCH  86  88
ATOM     88  C   UNL A   1      30.535  28.096  22.305  1.00  0.00     0.040 A 
ATOM     89  C   UNL A   1      29.730  27.243  23.041  1.00  0.00     0.026 A 
ATOM     90  C   UNL A   1      30.259  29.391  22.207  1.00  0.00     0.050 A 
ATOM     91  C   UNL A   1      28.482  27.805  23.405  1.00  0.00     0.004 A 
ATOM     92  C   UNL A   1      29.082  29.895  22.707  1.00  0.00     0.109 A 
ATOM     93  C   UNL A   1      28.210  29.097  23.394  1.00  0.00     0.024 A 
BRANCH  92  94
ATOM     94  S   UNL A   1      28.680  31.641  22.450  1.00  0.00     0.310 S 
ATOM     95  F   UNL A   1      27.294  31.440  23.193  1.00  0.00    -0.094 F 
ATOM     96  F   UNL A   1      27.927  31.320  21.103  1.00  0.00    -0.094 F 
ATOM     97  F   UNL A   1      28.323  33.149  22.323  1.00  0.00    -0.094 F 
ATOM     98  F   UNL A   1      29.319  31.920  23.867  1.00  0.00    -0.094 F 
ATOM     99  F   UNL A   1      28.952  30.096  22.647  1.00  0.00    -0.094 F 
ENDBRANCH  92  94
ENDBRANCH  86  88
ENDBRANCH  82  86
ENDBRANCH  77  80
ENDBRANCH  75  76
ENDBRANCH  74  75
ENDBRANCH   1  74
TORSDOF 16
ENDMDL
MODEL 3
REMARK VINA RESULT:     -13.2      1.354      7.383
REMARK SMILES O=C(NCCCCCCNC(=O)c1ccccc1Nc1cccc(S(F)(F)(F)(F)F)c1)c1ccc(-c2c3nc(c(-c4c(F)c(F)c(F)c(F)c4F)c4ccc([nH]4)c(-c4c(F)c(F)c(F)c(F)c4F)c4nc(c(-c5c(F)c(F)c(F)c(F)c5F)c5ccc2[nH]5)C=C4)C=C3)cc1
REMARK SMILES IDX 7 1 6 2 5 3 4 4 3 5 1 6 2 7 32 9 33 10 94 11 34 12 93 13
REMARK SMILES IDX 35 14 36 15 37 16 87 17 38 18 92 19 86 20 88 21 39 22 91 23
REMARK SMILES IDX 85 24 84 25 40 27 72 28 52 29 71 30 53 31 56 32 70 33 89 34
REMARK SMILES IDX 54 35 55 36 69 38 90 39 57 40 41 41 42 42 50 43 43 44 44 45
REMARK SMILES IDX 48 46 51 47 45 48 46 49 49 50 47 51 73 52 74 53 82 54 75 55
REMARK SMILES IDX 76 56 80 57 83 58 77 59 78 60 81 61 79 62 58 63 59 64 67 65
REMARK SMILES IDX 60 66 61 67 65 68 68 69 62 70 63 71 66 72 64 73 8 74 9 75
REMARK SMILES IDX 10 76 11 77 12 79 13 80 14 81 18 82 15 83 17 84 16 85 19 86
REMARK SMILES IDX 20 88 21 89 31 90 22 91 24 92 23 93 25 94 26 95 27 96 28 97
REMARK SMILES IDX 29 98 30 99
REMARK H PARENT 3 8 88 26 56 37 10 78 19 87
REMARK Flexibility Score: inf
ROOT
ATOM      1  C   UNL A   1      31.780  29.172  27.082  1.00  0.00     0.002 C 
ENDROOT
BRANCH   1   2
ATOM      2  C   UNL A   1      31.836  30.213  25.975  1.00  0.00     0.002 C 
BRANCH   2   3
ATOM      3  C   UNL A   1      31.427  31.567  26.532  1.00  0.00     0.021 C 
BRANCH   3   4
ATOM      4  C   UNL A   1      32.670  32.355  26.912  1.00  0.00     0.116 C 
BRANCH   4   5
ATOM      5  N   UNL A   1      32.288  33.726  27.280  1.00  0.00    -0.352 N 
ATOM      6  O   UNL A   1      32.725  35.640  28.618  1.00  0.00    -0.269 OA
ATOM      7  C   UNL A   1      33.055  34.454  28.300  1.00  0.00     0.251 C 
ATOM      8  H   UNL A   1      31.519  34.157  26.842  1.00  0.00     0.163 HD
BRANCH   7   9
ATOM      9  C   UNL A   1      34.244  33.790  28.975  1.00  0.00     0.039 A 
ATOM     10  C   UNL A   1      35.523  34.268  28.749  1.00  0.00     0.014 A 
ATOM     11  C   UNL A   1      34.028  32.754  29.778  1.00  0.00     0.014 A 
ATOM     12  C   UNL A   1      36.548  33.399  29.194  1.00  0.00     0.010 A 
ATOM     13  C   UNL A   1      35.079  32.032  30.286  1.00  0.00     0.010 A 
ATOM     14  C   UNL A   1      36.372  32.413  30.055  1.00  0.00    -0.014 A 
BRANCH  14  15
ATOM     15  C   UNL A   1      37.543  31.738  30.751  1.00  0.00     0.031 A 
ATOM     16  C   UNL A   1      37.837  32.122  32.061  1.00  0.00     0.074 A 
ATOM     17  C   UNL A   1      38.252  30.779  30.047  1.00  0.00     0.049 A 
ATOM     18  N   UNL A   1      38.791  31.636  32.855  1.00  0.00    -0.248 NA
ATOM     19  C   UNL A   1      37.107  33.164  32.797  1.00  0.00     0.031 C 
ATOM     20  C   UNL A   1      37.955  30.380  28.729  1.00  0.00     0.029 A 
ATOM     21  N   UNL A   1      39.342  30.053  30.472  1.00  0.00    -0.354 N 
ATOM     22  C   UNL A   1      38.752  32.240  34.045  1.00  0.00     0.074 A 
ATOM     23  C   UNL A   1      37.673  33.236  34.022  1.00  0.00     0.031 C 
ATOM     24  C   UNL A   1      38.860  29.437  28.361  1.00  0.00     0.029 A 
ATOM     25  C   UNL A   1      39.737  29.228  29.442  1.00  0.00     0.049 A 
ATOM     26  H   UNL A   1      39.765  30.113  31.358  1.00  0.00     0.167 HD
ATOM     27  C   UNL A   1      39.574  31.998  35.147  1.00  0.00     0.037 A 
ATOM     28  C   UNL A   1      40.802  28.341  29.427  1.00  0.00     0.037 A 
ATOM     29  C   UNL A   1      40.611  31.078  35.146  1.00  0.00     0.049 A 
ATOM     30  C   UNL A   1      41.660  28.140  30.510  1.00  0.00     0.074 A 
ATOM     31  C   UNL A   1      41.443  30.816  36.251  1.00  0.00     0.029 A 
ATOM     32  N   UNL A   1      41.022  30.272  34.108  1.00  0.00    -0.354 N 
ATOM     33  N   UNL A   1      41.596  28.716  31.712  1.00  0.00    -0.248 NA
ATOM     34  C   UNL A   1      42.809  27.226  30.495  1.00  0.00     0.031 C 
ATOM     35  C   UNL A   1      42.348  29.872  35.883  1.00  0.00     0.029 A 
ATOM     36  C   UNL A   1      42.097  29.529  34.541  1.00  0.00     0.049 A 
ATOM     37  H   UNL A   1      40.615  30.232  33.212  1.00  0.00     0.167 HD
ATOM     38  C   UNL A   1      42.577  28.259  32.493  1.00  0.00     0.074 A 
ATOM     39  C   UNL A   1      43.376  27.299  31.719  1.00  0.00     0.031 C 
ATOM     40  C   UNL A   1      42.835  28.600  33.822  1.00  0.00     0.037 A 
BRANCH  27  41
ATOM     41  C   UNL A   1      39.316  32.787  36.420  1.00  0.00     0.064 A 
ATOM     42  C   UNL A   1      38.377  32.327  37.329  1.00  0.00     0.173 A 
ATOM     43  C   UNL A   1      40.010  33.896  36.649  1.00  0.00     0.173 A 
ATOM     44  F   UNL A   1      37.847  31.109  37.270  1.00  0.00    -0.203 F 
ATOM     45  C   UNL A   1      38.032  33.272  38.324  1.00  0.00     0.198 A 
ATOM     46  C   UNL A   1      39.707  34.702  37.719  1.00  0.00     0.198 A 
ATOM     47  F   UNL A   1      41.006  34.230  35.833  1.00  0.00    -0.203 F 
ATOM     48  F   UNL A   1      36.908  33.070  39.006  1.00  0.00    -0.200 F 
ATOM     49  C   UNL A   1      38.749  34.339  38.625  1.00  0.00     0.200 A 
ATOM     50  F   UNL A   1      40.356  35.853  37.877  1.00  0.00    -0.200 F 
ATOM     51  F   UNL A   1      38.551  35.023  39.748  1.00  0.00    -0.200 F 
ENDBRANCH  27  41
BRANCH  28  52
ATOM     52  C   UNL A   1      41.048  27.539  28.158  1.00  0.00     0.064 A 
ATOM     53  C   UNL A   1      40.502  26.271  28.038  1.00  0.00     0.173 A 
ATOM     54  C   UNL A   1      41.797  28.061  27.195  1.00  0.00     0.173 A 
ATOM     55  F   UNL A   1      39.552  25.811  28.848  1.00  0.00    -0.203 F 
ATOM     56  C   UNL A   1      41.047  25.512  26.977  1.00  0.00     0.198 A 
ATOM     57  C   UNL A   1      42.180  27.300  26.117  1.00  0.00     0.198 A 
ATOM     58  F   UNL A   1      42.181  29.332  27.273  1.00  0.00    -0.203 F 
ATOM     59  F   UNL A   1      40.861  24.195  26.999  1.00  0.00    -0.200 F 
ATOM     60  C   UNL A   1      41.727  26.019  25.964  1.00  0.00     0.200 A 
ATOM     61  F   UNL A   1      43.004  27.816  25.210  1.00  0.00    -0.200 F 
ATOM     62  F   UNL A   1      41.956  25.322  24.855  1.00  0.00    -0.200 F 
ENDBRANCH  28  52
BRANCH  40  63
ATOM     63  C   UNL A   1      43.996  27.914  34.524  1.00  0.00     0.064 A 
ATOM     64  C   UNL A   1      43.799  26.697  35.156  1.00  0.00     0.173 A 
ATOM     65  C   UNL A   1      45.186  28.501  34.514  1.00  0.00     0.173 A 
ATOM     66  F   UNL A   1      42.708  25.957  34.981  1.00  0.00    -0.203 F 
ATOM     67  C   UNL A   1      44.865  26.314  36.004  1.00  0.00     0.198 A 
ATOM     68  C   UNL A   1      46.223  27.994  35.261  1.00  0.00     0.198 A 
ATOM     69  F   UNL A   1      45.379  29.589  33.774  1.00  0.00    -0.203 F 
ATOM     70  F   UNL A   1      44.624  25.372  36.912  1.00  0.00    -0.200 F 
ATOM     71  C   UNL A   1      46.081  26.826  35.958  1.00  0.00     0.200 A 
ATOM     72  F   UNL A   1      47.379  28.648  35.305  1.00  0.00    -0.200 F 
ATOM     73  F   UNL A   1      47.113  26.239  36.558  1.00  0.00    -0.200 F 
ENDBRANCH  40  63
ENDBRANCH  14  15
ENDBRANCH   7   9
ENDBRANCH   4   5
ENDBRANCH   3   4
ENDBRANCH   2   3
ENDBRANCH   1   2
BRANCH   1  74
ATOM     74  C   UNL A   1      32.928  28.190  26.913  1.00  0.00     0.021 C 
BRANCH  74  75
ATOM     75  C   UNL A   1      32.400  26.891  26.325  1.00  0.00     0.116 C 
BRANCH  75  76
ATOM     76  N   UNL A   1      31.052  26.628  26.851  1.00  0.00    -0.352 N 
ATOM     77  C   UNL A   1      30.317  25.429  26.421  1.00  0.00     0.253 C 
ATOM     78  H   UNL A   1      30.643  27.253  27.492  1.00  0.00     0.163 HD
ATOM     79  O   UNL A   1      29.153  25.201  26.876  1.00  0.00    -0.269 OA
BRANCH  77  80
ATOM     80  C   UNL A   1      30.949  24.464  25.432  1.00  0.00     0.063 A 
ATOM     81  C   UNL A   1      31.821  23.492  25.892  1.00  0.00     0.016 A 
ATOM     82  C   UNL A   1      30.655  24.571  24.141  1.00  0.00     0.051 A 
ATOM     83  C   UNL A   1      32.562  22.855  24.869  1.00  0.00     0.001 A 
ATOM     84  C   UNL A   1      31.325  23.817  23.207  1.00  0.00     0.027 A 
ATOM     85  C   UNL A   1      32.242  22.878  23.587  1.00  0.00     0.002 A 
BRANCH  82  86
ATOM     86  N   UNL A   1      29.602  25.500  23.708  1.00  0.00    -0.355 N 
ATOM     87  H   UNL A   1      28.667  25.197  23.662  1.00  0.00     0.167 HD
BRANCH  86  88
ATOM     88  C   UNL A   1      29.946  26.883  23.346  1.00  0.00     0.040 A 
ATOM     89  C   UNL A   1      31.238  27.046  22.877  1.00  0.00     0.026 A 
ATOM     90  C   UNL A   1      29.077  27.888  23.336  1.00  0.00     0.050 A 
ATOM     91  C   UNL A   1      31.611  28.397  22.681  1.00  0.00     0.004 A 
ATOM     92  C   UNL A   1      29.481  29.158  23.002  1.00  0.00     0.109 A 
ATOM     93  C   UNL A   1      30.760  29.403  22.585  1.00  0.00     0.024 A 
BRANCH  92  94
ATOM     94  S   UNL A   1      28.302  30.526  23.115  1.00  0.00     0.310 S 
ATOM     95  F   UNL A   1      29.154  31.359  22.069  1.00  0.00    -0.094 F 
ATOM     96  F   UNL A   1      29.144  31.222  24.251  1.00  0.00    -0.094 F 
ATOM     97  F   UNL A   1      27.278  31.697  23.119  1.00  0.00    -0.094 F 
ATOM     98  F   UNL A   1      27.550  29.884  21.883  1.00  0.00    -0.094 F 
ATOM     99  F   UNL A   1      29.395  29.388  23.024  1.00  0.00    -0.094 F 
ENDBRANCH  92  94
ENDBRANCH  86  88
ENDBRANCH  82  86
ENDBRANCH  77  80
ENDBRANCH  75  76
ENDBRANCH  74  75
ENDBRANCH   1  74
TORSDOF 16
ENDMDL
