MODEL 1
REMARK VINA RESULT:     -12.8      0.000      0.000
REMARK SMILES CCc1ccc(NC(=O)c2cnn3c2N=C(C(=O)NCCCCCCNC(=O)c2ccc(-c4c5nc(c(-c6c(F)c(F)c(F)c(F)c6F)c6ccc([nH]6)c(-c6c(F)c(F)c(F)c(F)c6F)c6nc(c(-c7c(F)c(F)c(F)c(F)c7F)c7ccc4[nH]7)C=C6)C=C5)cc2)C[C@H]3c2ccccc2Cl)cc1
REMARK SMILES IDX 22 1 21 2 20 3 19 4 17 5 18 6 16 8 10 9 11 10 14 11 12 12
REMARK SMILES IDX 13 13 15 14 93 15 92 16 8 17 7 18 9 20 6 21 3 22 4 23 102 24
REMARK SMILES IDX 5 25 101 26 2 27 1 28 94 29 95 30 99 31 96 32 98 33 100 34
REMARK SMILES IDX 97 35 23 36 24 37 25 38 26 39 27 40 28 42 29 43 30 44 91 45
REMARK SMILES IDX 31 46 90 47 32 48 33 49 34 50 84 51 35 52 89 53 83 54 85 55
REMARK SMILES IDX 36 56 88 57 82 58 81 59 37 61 69 62 49 63 68 64 50 65 53 66
REMARK SMILES IDX 67 67 86 68 51 69 52 70 66 72 87 73 54 74 38 75 39 76 47 77
REMARK SMILES IDX 40 78 41 79 45 80 48 81 42 82 43 83 46 84 44 85 70 86 71 87
REMARK SMILES IDX 79 88 72 89 73 90 77 91 80 92 74 93 75 94 78 95 76 96 55 97
REMARK SMILES IDX 56 98 64 99 57 100 58 101 62 102 65 103 59 104 60 105 63 106
REMARK SMILES IDX 61 107
REMARK H PARENT 19 7 7 19 26 41 85 60 53 71
REMARK Flexibility Score: inf
ROOT
ATOM      1  C   UNL A   1      32.597  30.615  26.933  1.00  0.00     0.002 C 
ENDROOT
BRANCH   1   2
ATOM      2  C   UNL A   1      32.118  29.204  27.260  1.00  0.00     0.021 C 
BRANCH   2   3
ATOM      3  C   UNL A   1      33.143  28.102  27.025  1.00  0.00     0.116 C 
BRANCH   3   4
ATOM      4  N   UNL A   1      33.585  28.027  25.645  1.00  0.00    -0.351 N 
ATOM      5  C   UNL A   1      33.909  27.012  24.775  1.00  0.00     0.265 C 
ATOM      6  O   UNL A   1      34.149  27.339  23.613  1.00  0.00    -0.268 OA
ATOM      7  H   UNL A   1      33.674  28.916  25.232  1.00  0.00     0.163 HD
BRANCH   5   8
ATOM      8  C   UNL A   1      34.000  25.520  25.155  1.00  0.00     0.110 C 
ATOM      9  C   UNL A   1      32.002  22.927  26.619  1.00  0.00     0.104 A 
ATOM     10  C   UNL A   1      32.564  21.638  26.727  1.00  0.00     0.151 A 
ATOM     11  C   UNL A   1      33.057  23.745  26.247  1.00  0.00     0.164 A 
ATOM     12  N   UNL A   1      33.825  21.593  26.286  1.00  0.00    -0.178 NA
ATOM     13  N   UNL A   1      34.079  22.878  25.963  1.00  0.00    -0.239 N 
ATOM     14  N   UNL A   1      33.123  25.077  26.008  1.00  0.00    -0.227 NA
ATOM     15  C   UNL A   1      35.154  23.221  25.048  1.00  0.00     0.147 C 
ATOM     16  C   UNL A   1      35.028  24.644  24.502  1.00  0.00     0.094 C 
BRANCH   9  17
ATOM     17  C   UNL A   1      30.620  23.307  26.810  1.00  0.00     0.261 C 
ATOM     18  N   UNL A   1      30.016  24.176  25.918  1.00  0.00    -0.322 N 
ATOM     19  H   UNL A   1      29.161  24.551  26.231  1.00  0.00     0.170 HD
ATOM     20  O   UNL A   1      29.970  22.878  27.763  1.00  0.00    -0.269 OA
BRANCH  18  21
ATOM     21  C   UNL A   1      30.413  24.620  24.639  1.00  0.00     0.041 A 
ATOM     22  C   UNL A   1      31.408  25.702  22.217  1.00  0.00    -0.048 A 
ATOM     23  C   UNL A   1      31.467  24.327  22.469  1.00  0.00     0.006 A 
ATOM     24  C   UNL A   1      30.779  26.517  23.165  1.00  0.00     0.006 A 
ATOM     25  C   UNL A   1      30.944  23.790  23.650  1.00  0.00     0.026 A 
ATOM     26  C   UNL A   1      30.272  25.980  24.355  1.00  0.00     0.026 A 
BRANCH  22  27
ATOM     27  C   UNL A   1      32.089  26.253  20.987  1.00  0.00     0.032 C 
ATOM     28  C   UNL A   1      32.570  25.216  19.982  1.00  0.00     0.009 C 
ENDBRANCH  22  27
ENDBRANCH  18  21
ENDBRANCH   9  17
BRANCH  15  29
ATOM     29  C   UNL A   1      36.542  23.051  25.650  1.00  0.00    -0.004 A 
ATOM     30  C   UNL A   1      37.200  24.166  26.204  1.00  0.00     0.007 A 
ATOM     31  C   UNL A   1      37.264  21.851  25.515  1.00  0.00     0.046 A 
ATOM     32  C   UNL A   1      38.535  24.087  26.600  1.00  0.00     0.000 A 
ATOM     33  C   UNL A   1      38.597  21.773  25.930  1.00  0.00     0.021 A 
ATOM     34  Cl  UNL A   1      36.597  20.443  24.762  1.00  0.00    -0.084 Cl
ATOM     35  C   UNL A   1      39.233  22.891  26.464  1.00  0.00     0.002 A 
ENDBRANCH  15  29
ENDBRANCH   5   8
ENDBRANCH   3   4
ENDBRANCH   2   3
ENDBRANCH   1   2
BRANCH   1  36
ATOM     36  C   UNL A   1      33.886  31.065  27.634  1.00  0.00     0.002 C 
BRANCH  36  37
ATOM     37  C   UNL A   1      34.028  32.567  27.929  1.00  0.00     0.021 C 
BRANCH  37  38
ATOM     38  C   UNL A   1      35.278  32.939  28.713  1.00  0.00     0.116 C 
BRANCH  38  39
ATOM     39  N   UNL A   1      35.045  32.937  30.150  1.00  0.00    -0.352 N 
ATOM     40  C   UNL A   1      35.535  32.070  31.102  1.00  0.00     0.251 C 
ATOM     41  H   UNL A   1      34.458  33.652  30.487  1.00  0.00     0.163 HD
ATOM     42  O   UNL A   1      34.974  31.954  32.180  1.00  0.00    -0.269 OA
BRANCH  40  43
ATOM     43  C   UNL A   1      36.740  31.272  30.807  1.00  0.00     0.039 A 
ATOM     44  C   UNL A   1      37.977  31.908  30.673  1.00  0.00     0.014 A 
ATOM     45  C   UNL A   1      36.634  29.889  30.651  1.00  0.00     0.014 A 
ATOM     46  C   UNL A   1      39.115  31.135  30.468  1.00  0.00     0.010 A 
ATOM     47  C   UNL A   1      37.770  29.115  30.553  1.00  0.00     0.010 A 
ATOM     48  C   UNL A   1      39.011  29.733  30.441  1.00  0.00    -0.014 A 
BRANCH  48  49
ATOM     49  C   UNL A   1      40.229  28.922  30.490  1.00  0.00     0.031 A 
ATOM     50  C   UNL A   1      40.791  28.804  31.862  1.00  0.00     0.074 A 
ATOM     51  C   UNL A   1      40.704  28.182  29.464  1.00  0.00     0.049 A 
ATOM     52  N   UNL A   1      41.900  29.301  32.297  1.00  0.00    -0.248 NA
ATOM     53  C   UNL A   1      39.961  28.199  32.918  1.00  0.00     0.031 C 
ATOM     54  C   UNL A   1      40.060  27.955  28.167  1.00  0.00     0.029 A 
ATOM     55  N   UNL A   1      41.820  27.391  29.391  1.00  0.00    -0.354 N 
ATOM     56  C   UNL A   1      42.022  28.865  33.615  1.00  0.00     0.074 A 
ATOM     57  C   UNL A   1      40.725  28.381  33.997  1.00  0.00     0.031 C 
ATOM     58  C   UNL A   1      40.662  26.925  27.534  1.00  0.00     0.029 A 
ATOM     59  C   UNL A   1      41.838  26.535  28.292  1.00  0.00     0.049 A 
ATOM     60  H   UNL A   1      42.545  27.425  30.055  1.00  0.00     0.167 HD
ATOM     61  C   UNL A   1      43.261  28.650  34.140  1.00  0.00     0.037 A 
ATOM     62  C   UNL A   1      42.752  25.576  28.004  1.00  0.00     0.037 A 
ATOM     63  C   UNL A   1      44.264  29.262  33.305  1.00  0.00     0.049 A 
ATOM     64  C   UNL A   1      43.993  25.896  28.740  1.00  0.00     0.074 A 
ATOM     65  C   UNL A   1      44.752  30.528  33.073  1.00  0.00     0.029 A 
ATOM     66  N   UNL A   1      44.644  28.478  32.251  1.00  0.00    -0.354 N 
ATOM     67  N   UNL A   1      44.751  26.915  28.451  1.00  0.00    -0.248 NA
ATOM     68  C   UNL A   1      44.249  25.266  30.030  1.00  0.00     0.031 C 
ATOM     69  C   UNL A   1      45.346  30.498  31.775  1.00  0.00     0.029 A 
ATOM     70  C   UNL A   1      45.245  29.207  31.264  1.00  0.00     0.049 A 
ATOM     71  H   UNL A   1      44.503  27.504  32.208  1.00  0.00     0.167 HD
ATOM     72  C   UNL A   1      45.243  27.317  29.674  1.00  0.00     0.074 A 
ATOM     73  C   UNL A   1      45.071  26.175  30.560  1.00  0.00     0.031 C 
ATOM     74  C   UNL A   1      45.408  28.641  29.947  1.00  0.00     0.037 A 
BRANCH  61  75
ATOM     75  C   UNL A   1      43.641  27.486  35.045  1.00  0.00     0.064 A 
ATOM     76  C   UNL A   1      44.264  27.776  36.281  1.00  0.00     0.173 A 
ATOM     77  C   UNL A   1      43.738  26.142  34.629  1.00  0.00     0.173 A 
ATOM     78  F   UNL A   1      44.241  29.019  36.787  1.00  0.00    -0.203 F 
ATOM     79  C   UNL A   1      45.009  26.822  36.983  1.00  0.00     0.198 A 
ATOM     80  C   UNL A   1      44.443  25.182  35.357  1.00  0.00     0.198 A 
ATOM     81  F   UNL A   1      43.254  25.713  33.461  1.00  0.00    -0.203 F 
ATOM     82  F   UNL A   1      45.689  27.182  38.081  1.00  0.00    -0.200 F 
ATOM     83  C   UNL A   1      45.107  25.527  36.513  1.00  0.00     0.200 A 
ATOM     84  F   UNL A   1      44.542  23.935  34.874  1.00  0.00    -0.200 F 
ATOM     85  F   UNL A   1      45.872  24.628  37.145  1.00  0.00    -0.200 F 
ENDBRANCH  61  75
BRANCH  62  86
ATOM     86  C   UNL A   1      42.616  24.322  27.228  1.00  0.00     0.064 A 
ATOM     87  C   UNL A   1      43.017  24.248  25.883  1.00  0.00     0.173 A 
ATOM     88  C   UNL A   1      42.364  23.100  27.877  1.00  0.00     0.173 A 
ATOM     89  F   UNL A   1      43.307  25.365  25.201  1.00  0.00    -0.203 F 
ATOM     90  C   UNL A   1      43.195  23.021  25.237  1.00  0.00     0.198 A 
ATOM     91  C   UNL A   1      42.540  21.875  27.230  1.00  0.00     0.198 A 
ATOM     92  F   UNL A   1      42.039  23.073  29.178  1.00  0.00    -0.203 F 
ATOM     93  F   UNL A   1      43.645  22.988  23.974  1.00  0.00    -0.200 F 
ATOM     94  C   UNL A   1      42.972  21.835  25.916  1.00  0.00     0.200 A 
ATOM     95  F   UNL A   1      42.355  20.734  27.909  1.00  0.00    -0.200 F 
ATOM     96  F   UNL A   1      43.212  20.658  25.322  1.00  0.00    -0.200 F 
ENDBRANCH  62  86
BRANCH  74  97
ATOM     97  C   UNL A   1      45.609  29.564  28.790  1.00  0.00     0.064 A 
ATOM     98  C   UNL A   1      44.579  30.235  28.112  1.00  0.00     0.173 A 
ATOM     99  C   UNL A   1      46.928  29.822  28.393  1.00  0.00     0.173 A 
ATOM    100  F   UNL A   1      43.300  30.090  28.482  1.00  0.00    -0.203 F 
ATOM    101  C   UNL A   1      44.864  31.103  27.058  1.00  0.00     0.198 A 
ATOM    102  C   UNL A   1      47.210  30.715  27.367  1.00  0.00     0.198 A 
ATOM    103  F   UNL A   1      47.949  29.228  29.029  1.00  0.00    -0.203 F 
ATOM    104  F   UNL A   1      43.866  31.719  26.408  1.00  0.00    -0.200 F 
ATOM    105  C   UNL A   1      46.178  31.346  26.692  1.00  0.00     0.200 A 
ATOM    106  F   UNL A   1      48.484  30.976  27.045  1.00  0.00    -0.200 F 
ATOM    107  F   UNL A   1      46.453  32.207  25.702  1.00  0.00    -0.200 F 
ENDBRANCH  74  97
ENDBRANCH  48  49
ENDBRANCH  40  43
ENDBRANCH  38  39
ENDBRANCH  37  38
ENDBRANCH  36  37
ENDBRANCH   1  36
TORSDOF 17
ENDMDL
MODEL 2
REMARK VINA RESULT:     -12.3      5.437     10.330
REMARK SMILES CCc1ccc(NC(=O)c2cnn3c2N=C(C(=O)NCCCCCCNC(=O)c2ccc(-c4c5nc(c(-c6c(F)c(F)c(F)c(F)c6F)c6ccc([nH]6)c(-c6c(F)c(F)c(F)c(F)c6F)c6nc(c(-c7c(F)c(F)c(F)c(F)c7F)c7ccc4[nH]7)C=C6)C=C5)cc2)C[C@H]3c2ccccc2Cl)cc1
REMARK SMILES IDX 22 1 21 2 20 3 19 4 17 5 18 6 16 8 10 9 11 10 14 11 12 12
REMARK SMILES IDX 13 13 15 14 93 15 92 16 8 17 7 18 9 20 6 21 3 22 4 23 102 24
REMARK SMILES IDX 5 25 101 26 2 27 1 28 94 29 95 30 99 31 96 32 98 33 100 34
REMARK SMILES IDX 97 35 23 36 24 37 25 38 26 39 27 40 28 42 29 43 30 44 91 45
REMARK SMILES IDX 31 46 90 47 32 48 33 49 34 50 84 51 35 52 89 53 83 54 85 55
REMARK SMILES IDX 36 56 88 57 82 58 81 59 37 61 69 62 49 63 68 64 50 65 53 66
REMARK SMILES IDX 67 67 86 68 51 69 52 70 66 72 87 73 54 74 38 75 39 76 47 77
REMARK SMILES IDX 40 78 41 79 45 80 48 81 42 82 43 83 46 84 44 85 70 86 71 87
REMARK SMILES IDX 79 88 72 89 73 90 77 91 80 92 74 93 75 94 78 95 76 96 55 97
REMARK SMILES IDX 56 98 64 99 57 100 58 101 62 102 65 103 59 104 60 105 63 106
REMARK SMILES IDX 61 107
REMARK H PARENT 19 7 7 19 26 41 85 60 53 71
REMARK Flexibility Score: inf
ROOT
ATOM      1  C   UNL A   1      42.797  27.339  33.856  1.00  0.00     0.002 C 
ENDROOT
BRANCH   1   2
ATOM      2  C   UNL A   1      42.123  27.795  32.565  1.00  0.00     0.021 C 
BRANCH   2   3
ATOM      3  C   UNL A   1      41.065  28.878  32.734  1.00  0.00     0.116 C 
BRANCH   3   4
ATOM      4  N   UNL A   1      39.722  28.341  32.856  1.00  0.00    -0.351 N 
ATOM      5  C   UNL A   1      38.455  28.873  32.881  1.00  0.00     0.265 C 
ATOM      6  O   UNL A   1      37.522  28.071  32.894  1.00  0.00    -0.268 OA
ATOM      7  H   UNL A   1      39.719  27.360  32.941  1.00  0.00     0.163 HD
BRANCH   5   8
ATOM      8  C   UNL A   1      38.132  30.382  32.904  1.00  0.00     0.110 C 
ATOM      9  C   UNL A   1      37.541  33.033  35.244  1.00  0.00     0.104 A 
ATOM     10  C   UNL A   1      37.306  34.327  34.735  1.00  0.00     0.151 A 
ATOM     11  C   UNL A   1      37.500  32.202  34.136  1.00  0.00     0.164 A 
ATOM     12  N   UNL A   1      37.297  34.355  33.398  1.00  0.00    -0.178 NA
ATOM     13  N   UNL A   1      37.459  33.058  33.067  1.00  0.00    -0.239 N 
ATOM     14  N   UNL A   1      37.645  30.860  34.012  1.00  0.00    -0.227 NA
ATOM     15  C   UNL A   1      37.943  32.676  31.751  1.00  0.00     0.147 C 
ATOM     16  C   UNL A   1      38.437  31.229  31.705  1.00  0.00     0.094 C 
BRANCH   9  17
ATOM     17  C   UNL A   1      37.811  32.659  36.615  1.00  0.00     0.261 C 
ATOM     18  N   UNL A   1      39.054  32.156  36.958  1.00  0.00    -0.322 N 
ATOM     19  H   UNL A   1      39.089  31.728  37.844  1.00  0.00     0.170 HD
ATOM     20  O   UNL A   1      36.947  32.770  37.484  1.00  0.00    -0.269 OA
BRANCH  18  21
ATOM     21  C   UNL A   1      40.280  32.148  36.259  1.00  0.00     0.041 A 
ATOM     22  C   UNL A   1      42.584  32.005  34.618  1.00  0.00    -0.048 A 
ATOM     23  C   UNL A   1      42.151  33.226  35.144  1.00  0.00     0.006 A 
ATOM     24  C   UNL A   1      41.889  30.847  34.984  1.00  0.00     0.006 A 
ATOM     25  C   UNL A   1      41.032  33.291  35.982  1.00  0.00     0.026 A 
ATOM     26  C   UNL A   1      40.758  30.916  35.810  1.00  0.00     0.026 A 
BRANCH  22  27
ATOM     27  C   UNL A   1      43.721  31.996  33.625  1.00  0.00     0.032 C 
ATOM     28  C   UNL A   1      43.340  31.654  32.192  1.00  0.00     0.009 C 
ENDBRANCH  22  27
ENDBRANCH  18  21
ENDBRANCH   9  17
BRANCH  15  29
ATOM     29  C   UNL A   1      36.916  32.876  30.646  1.00  0.00    -0.004 A 
ATOM     30  C   UNL A   1      35.699  32.168  30.691  1.00  0.00     0.007 A 
ATOM     31  C   UNL A   1      37.214  33.614  29.485  1.00  0.00     0.046 A 
ATOM     32  C   UNL A   1      34.816  32.189  29.611  1.00  0.00     0.000 A 
ATOM     33  C   UNL A   1      36.317  33.645  28.413  1.00  0.00     0.021 A 
ATOM     34  Cl  UNL A   1      38.716  34.444  29.271  1.00  0.00    -0.084 Cl
ATOM     35  C   UNL A   1      35.124  32.928  28.473  1.00  0.00     0.002 A 
ENDBRANCH  15  29
ENDBRANCH   5   8
ENDBRANCH   3   4
ENDBRANCH   2   3
ENDBRANCH   1   2
BRANCH   1  36
ATOM     36  C   UNL A   1      41.910  26.561  34.837  1.00  0.00     0.002 C 
BRANCH  36  37
ATOM     37  C   UNL A   1      42.364  26.524  36.305  1.00  0.00     0.021 C 
BRANCH  37  38
ATOM     38  C   UNL A   1      43.700  27.203  36.568  1.00  0.00     0.116 C 
BRANCH  38  39
ATOM     39  N   UNL A   1      44.670  26.295  37.163  1.00  0.00    -0.352 N 
ATOM     40  C   UNL A   1      45.330  25.234  36.581  1.00  0.00     0.251 C 
ATOM     41  H   UNL A   1      44.882  26.460  38.110  1.00  0.00     0.163 HD
ATOM     42  O   UNL A   1      45.809  24.349  37.272  1.00  0.00    -0.269 OA
BRANCH  40  43
ATOM     43  C   UNL A   1      45.446  25.169  35.112  1.00  0.00     0.039 A 
ATOM     44  C   UNL A   1      44.766  24.172  34.407  1.00  0.00     0.014 A 
ATOM     45  C   UNL A   1      46.243  26.095  34.438  1.00  0.00     0.014 A 
ATOM     46  C   UNL A   1      44.827  24.167  33.018  1.00  0.00     0.010 A 
ATOM     47  C   UNL A   1      46.219  26.157  33.061  1.00  0.00     0.010 A 
ATOM     48  C   UNL A   1      45.529  25.184  32.345  1.00  0.00    -0.014 A 
BRANCH  48  49
ATOM     49  C   UNL A   1      45.372  25.328  30.898  1.00  0.00     0.031 A 
ATOM     50  C   UNL A   1      46.385  26.234  30.292  1.00  0.00     0.074 A 
ATOM     51  C   UNL A   1      44.544  24.582  30.134  1.00  0.00     0.049 A 
ATOM     52  N   UNL A   1      46.178  27.391  29.761  1.00  0.00    -0.248 NA
ATOM     53  C   UNL A   1      47.811  25.892  30.427  1.00  0.00     0.031 C 
ATOM     54  C   UNL A   1      43.739  23.434  30.566  1.00  0.00     0.029 A 
ATOM     55  N   UNL A   1      44.313  24.622  28.785  1.00  0.00    -0.354 N 
ATOM     56  C   UNL A   1      47.415  27.814  29.277  1.00  0.00     0.074 A 
ATOM     57  C   UNL A   1      48.397  26.966  29.894  1.00  0.00     0.031 C 
ATOM     58  C   UNL A   1      43.297  22.756  29.484  1.00  0.00     0.029 A 
ATOM     59  C   UNL A   1      43.634  23.511  28.291  1.00  0.00     0.049 A 
ATOM     60  H   UNL A   1      44.602  25.370  28.214  1.00  0.00     0.167 HD
ATOM     61  C   UNL A   1      47.469  28.607  28.171  1.00  0.00     0.037 A 
ATOM     62  C   UNL A   1      43.349  23.222  26.997  1.00  0.00     0.037 A 
ATOM     63  C   UNL A   1      46.166  29.158  27.893  1.00  0.00     0.049 A 
ATOM     64  C   UNL A   1      43.410  24.481  26.226  1.00  0.00     0.074 A 
ATOM     65  C   UNL A   1      45.367  30.166  28.386  1.00  0.00     0.029 A 
ATOM     66  N   UNL A   1      45.363  28.316  27.173  1.00  0.00    -0.354 N 
ATOM     67  N   UNL A   1      42.541  25.441  26.359  1.00  0.00    -0.248 NA
ATOM     68  C   UNL A   1      44.635  24.833  25.517  1.00  0.00     0.031 C 
ATOM     69  C   UNL A   1      44.028  29.829  28.025  1.00  0.00     0.029 A 
ATOM     70  C   UNL A   1      44.043  28.650  27.286  1.00  0.00     0.049 A 
ATOM     71  H   UNL A   1      45.697  27.560  26.638  1.00  0.00     0.167 HD
ATOM     72  C   UNL A   1      43.282  26.587  26.161  1.00  0.00     0.074 A 
ATOM     73  C   UNL A   1      44.486  26.158  25.464  1.00  0.00     0.031 C 
ATOM     74  C   UNL A   1      43.025  27.706  26.894  1.00  0.00     0.037 A 
BRANCH  61  75
ATOM     75  C   UNL A   1      48.486  28.477  27.046  1.00  0.00     0.064 A 
ATOM     76  C   UNL A   1      48.600  27.230  26.388  1.00  0.00     0.173 A 
ATOM     77  C   UNL A   1      49.553  29.371  26.819  1.00  0.00     0.173 A 
ATOM     78  F   UNL A   1      47.649  26.294  26.522  1.00  0.00    -0.203 F 
ATOM     79  C   UNL A   1      49.737  26.875  25.654  1.00  0.00     0.198 A 
ATOM     80  C   UNL A   1      50.666  29.029  26.047  1.00  0.00     0.198 A 
ATOM     81  F   UNL A   1      49.630  30.567  27.409  1.00  0.00    -0.203 F 
ATOM     82  F   UNL A   1      49.853  25.634  25.161  1.00  0.00    -0.200 F 
ATOM     83  C   UNL A   1      50.775  27.772  25.494  1.00  0.00     0.200 A 
ATOM     84  F   UNL A   1      51.671  29.908  25.920  1.00  0.00    -0.200 F 
ATOM     85  F   UNL A   1      51.894  27.415  24.850  1.00  0.00    -0.200 F 
ENDBRANCH  61  75
BRANCH  62  86
ATOM     86  C   UNL A   1      43.136  21.917  26.329  1.00  0.00     0.064 A 
ATOM     87  C   UNL A   1      44.214  21.172  25.820  1.00  0.00     0.173 A 
ATOM     88  C   UNL A   1      41.905  21.246  26.441  1.00  0.00     0.173 A 
ATOM     89  F   UNL A   1      45.429  21.728  25.711  1.00  0.00    -0.203 F 
ATOM     90  C   UNL A   1      44.078  19.823  25.481  1.00  0.00     0.198 A 
ATOM     91  C   UNL A   1      41.770  19.899  26.100  1.00  0.00     0.198 A 
ATOM     92  F   UNL A   1      40.839  21.861  26.975  1.00  0.00    -0.203 F 
ATOM     93  F   UNL A   1      45.144  19.127  25.064  1.00  0.00    -0.200 F 
ATOM     94  C   UNL A   1      42.860  19.183  25.637  1.00  0.00     0.200 A 
ATOM     95  F   UNL A   1      40.595  19.282  26.288  1.00  0.00    -0.200 F 
ATOM     96  F   UNL A   1      42.745  17.872  25.382  1.00  0.00    -0.200 F 
ENDBRANCH  62  86
BRANCH  74  97
ATOM     97  C   UNL A   1      41.647  27.868  27.446  1.00  0.00     0.064 A 
ATOM     98  C   UNL A   1      41.198  27.314  28.654  1.00  0.00     0.173 A 
ATOM     99  C   UNL A   1      40.758  28.681  26.730  1.00  0.00     0.173 A 
ATOM    100  F   UNL A   1      42.014  26.583  29.425  1.00  0.00    -0.203 F 
ATOM    101  C   UNL A   1      39.898  27.543  29.107  1.00  0.00     0.198 A 
ATOM    102  C   UNL A   1      39.476  28.936  27.202  1.00  0.00     0.198 A 
ATOM    103  F   UNL A   1      41.149  29.258  25.583  1.00  0.00    -0.203 F 
ATOM    104  F   UNL A   1      39.480  26.988  30.254  1.00  0.00    -0.200 F 
ATOM    105  C   UNL A   1      39.042  28.359  28.384  1.00  0.00     0.200 A 
ATOM    106  F   UNL A   1      38.668  29.759  26.518  1.00  0.00    -0.200 F 
ATOM    107  F   UNL A   1      37.806  28.606  28.836  1.00  0.00    -0.200 F 
ENDBRANCH  74  97
ENDBRANCH  48  49
ENDBRANCH  40  43
ENDBRANCH  38  39
ENDBRANCH  37  38
ENDBRANCH  36  37
ENDBRANCH   1  36
TORSDOF 17
ENDMDL
MODEL 3
REMARK VINA RESULT:     -12.3      1.751      3.636
REMARK SMILES CCc1ccc(NC(=O)c2cnn3c2N=C(C(=O)NCCCCCCNC(=O)c2ccc(-c4c5nc(c(-c6c(F)c(F)c(F)c(F)c6F)c6ccc([nH]6)c(-c6c(F)c(F)c(F)c(F)c6F)c6nc(c(-c7c(F)c(F)c(F)c(F)c7F)c7ccc4[nH]7)C=C6)C=C5)cc2)C[C@H]3c2ccccc2Cl)cc1
REMARK SMILES IDX 22 1 21 2 20 3 19 4 17 5 18 6 16 8 10 9 11 10 14 11 12 12
REMARK SMILES IDX 13 13 15 14 93 15 92 16 8 17 7 18 9 20 6 21 3 22 4 23 102 24
REMARK SMILES IDX 5 25 101 26 2 27 1 28 94 29 95 30 99 31 96 32 98 33 100 34
REMARK SMILES IDX 97 35 23 36 24 37 25 38 26 39 27 40 28 42 29 43 30 44 91 45
REMARK SMILES IDX 31 46 90 47 32 48 33 49 34 50 84 51 35 52 89 53 83 54 85 55
REMARK SMILES IDX 36 56 88 57 82 58 81 59 37 61 69 62 49 63 68 64 50 65 53 66
REMARK SMILES IDX 67 67 86 68 51 69 52 70 66 72 87 73 54 74 38 75 39 76 47 77
REMARK SMILES IDX 40 78 41 79 45 80 48 81 42 82 43 83 46 84 44 85 70 86 71 87
REMARK SMILES IDX 79 88 72 89 73 90 77 91 80 92 74 93 75 94 78 95 76 96 55 97
REMARK SMILES IDX 56 98 64 99 57 100 58 101 62 102 65 103 59 104 60 105 63 106
REMARK SMILES IDX 61 107
REMARK H PARENT 19 7 7 19 26 41 85 60 53 71
REMARK Flexibility Score: inf
ROOT
ATOM      1  C   UNL A   1      33.077  28.463  26.148  1.00  0.00     0.002 C 
ENDROOT
BRANCH   1   2
ATOM      2  C   UNL A   1      32.476  27.134  26.599  1.00  0.00     0.021 C 
BRANCH   2   3
ATOM      3  C   UNL A   1      31.094  27.231  27.231  1.00  0.00     0.116 C 
BRANCH   3   4
ATOM      4  N   UNL A   1      30.403  25.955  27.275  1.00  0.00    -0.351 N 
ATOM      5  C   UNL A   1      30.390  24.823  26.496  1.00  0.00     0.265 C 
ATOM      6  O   UNL A   1      29.733  23.872  26.919  1.00  0.00    -0.268 OA
ATOM      7  H   UNL A   1      29.797  25.885  28.048  1.00  0.00     0.163 HD
BRANCH   5   8
ATOM      8  C   UNL A   1      31.123  24.671  25.147  1.00  0.00     0.110 C 
ATOM      9  C   UNL A   1      33.092  22.282  23.339  1.00  0.00     0.104 A 
ATOM     10  C   UNL A   1      33.531  22.628  22.044  1.00  0.00     0.151 A 
ATOM     11  C   UNL A   1      32.574  23.455  23.864  1.00  0.00     0.164 A 
ATOM     12  N   UNL A   1      33.163  23.865  21.694  1.00  0.00    -0.178 NA
ATOM     13  N   UNL A   1      32.549  24.323  22.805  1.00  0.00    -0.239 N 
ATOM     14  N   UNL A   1      32.023  23.735  25.070  1.00  0.00    -0.227 NA
ATOM     15  C   UNL A   1      31.620  25.438  22.739  1.00  0.00     0.147 C 
ATOM     16  C   UNL A   1      30.741  25.544  23.988  1.00  0.00     0.094 C 
BRANCH   9  17
ATOM     17  C   UNL A   1      33.132  20.980  23.966  1.00  0.00     0.261 C 
ATOM     18  N   UNL A   1      34.250  20.598  24.688  1.00  0.00    -0.322 N 
ATOM     19  H   UNL A   1      34.292  19.636  24.894  1.00  0.00     0.170 HD
ATOM     20  O   UNL A   1      32.189  20.195  23.860  1.00  0.00    -0.269 OA
BRANCH  18  21
ATOM     21  C   UNL A   1      35.341  21.347  25.177  1.00  0.00     0.041 A 
ATOM     22  C   UNL A   1      37.608  22.901  25.863  1.00  0.00    -0.048 A 
ATOM     23  C   UNL A   1      36.331  23.256  26.310  1.00  0.00     0.006 A 
ATOM     24  C   UNL A   1      37.742  21.717  25.128  1.00  0.00     0.006 A 
ATOM     25  C   UNL A   1      35.216  22.469  25.999  1.00  0.00     0.026 A 
ATOM     26  C   UNL A   1      36.622  20.940  24.803  1.00  0.00     0.026 A 
BRANCH  22  27
ATOM     27  C   UNL A   1      38.762  23.839  26.120  1.00  0.00     0.032 C 
ATOM     28  C   UNL A   1      38.695  24.624  27.421  1.00  0.00     0.009 C 
ENDBRANCH  22  27
ENDBRANCH  18  21
ENDBRANCH   9  17
BRANCH  15  29
ATOM     29  C   UNL A   1      32.298  26.780  22.507  1.00  0.00    -0.004 A 
ATOM     30  C   UNL A   1      33.705  26.851  22.469  1.00  0.00     0.007 A 
ATOM     31  C   UNL A   1      31.571  27.986  22.501  1.00  0.00     0.046 A 
ATOM     32  C   UNL A   1      34.361  28.082  22.437  1.00  0.00     0.000 A 
ATOM     33  C   UNL A   1      32.234  29.216  22.452  1.00  0.00     0.021 A 
ATOM     34  Cl  UNL A   1      29.848  28.032  22.641  1.00  0.00    -0.084 Cl
ATOM     35  C   UNL A   1      33.626  29.263  22.427  1.00  0.00     0.002 A 
ENDBRANCH  15  29
ENDBRANCH   5   8
ENDBRANCH   3   4
ENDBRANCH   2   3
ENDBRANCH   1   2
BRANCH   1  36
ATOM     36  C   UNL A   1      33.791  29.278  27.233  1.00  0.00     0.002 C 
BRANCH  36  37
ATOM     37  C   UNL A   1      33.315  30.725  27.440  1.00  0.00     0.021 C 
BRANCH  37  38
ATOM     38  C   UNL A   1      34.436  31.735  27.635  1.00  0.00     0.116 C 
BRANCH  38  39
ATOM     39  N   UNL A   1      34.443  32.295  28.978  1.00  0.00    -0.352 N 
ATOM     40  C   UNL A   1      35.197  31.917  30.068  1.00  0.00     0.251 C 
ATOM     41  H   UNL A   1      33.824  33.046  29.129  1.00  0.00     0.163 HD
ATOM     42  O   UNL A   1      34.840  32.208  31.199  1.00  0.00    -0.269 OA
BRANCH  40  43
ATOM     43  C   UNL A   1      36.438  31.147  29.860  1.00  0.00     0.039 A 
ATOM     44  C   UNL A   1      37.627  31.816  29.558  1.00  0.00     0.014 A 
ATOM     45  C   UNL A   1      36.412  29.755  29.955  1.00  0.00     0.014 A 
ATOM     46  C   UNL A   1      38.802  31.082  29.437  1.00  0.00     0.010 A 
ATOM     47  C   UNL A   1      37.590  29.039  29.941  1.00  0.00     0.010 A 
ATOM     48  C   UNL A   1      38.785  29.694  29.662  1.00  0.00    -0.014 A 
BRANCH  48  49
ATOM     49  C   UNL A   1      40.052  28.973  29.794  1.00  0.00     0.031 A 
ATOM     50  C   UNL A   1      40.493  28.830  31.208  1.00  0.00     0.074 A 
ATOM     51  C   UNL A   1      40.676  28.320  28.789  1.00  0.00     0.049 A 
ATOM     52  N   UNL A   1      41.515  29.386  31.767  1.00  0.00    -0.248 NA
ATOM     53  C   UNL A   1      39.618  28.116  32.154  1.00  0.00     0.031 C 
ATOM     54  C   UNL A   1      40.174  28.109  27.428  1.00  0.00     0.029 A 
ATOM     55  N   UNL A   1      41.851  27.617  28.791  1.00  0.00    -0.354 N 
ATOM     56  C   UNL A   1      41.548  28.897  33.072  1.00  0.00     0.074 A 
ATOM     57  C   UNL A   1      40.262  28.302  33.308  1.00  0.00     0.031 C 
ATOM     58  C   UNL A   1      40.911  27.158  26.814  1.00  0.00     0.029 A 
ATOM     59  C   UNL A   1      42.037  26.819  27.665  1.00  0.00     0.049 A 
ATOM     60  H   UNL A   1      42.507  27.672  29.523  1.00  0.00     0.167 HD
ATOM     61  C   UNL A   1      42.745  28.748  33.704  1.00  0.00     0.037 A 
ATOM     62  C   UNL A   1      43.046  25.944  27.427  1.00  0.00     0.037 A 
ATOM     63  C   UNL A   1      43.771  29.471  32.995  1.00  0.00     0.049 A 
ATOM     64  C   UNL A   1      44.184  26.318  28.291  1.00  0.00     0.074 A 
ATOM     65  C   UNL A   1      44.179  30.780  32.863  1.00  0.00     0.029 A 
ATOM     66  N   UNL A   1      44.307  28.768  31.951  1.00  0.00    -0.354 N 
ATOM     67  N   UNL A   1      44.885  27.403  28.118  1.00  0.00    -0.248 NA
ATOM     68  C   UNL A   1      44.368  25.647  29.572  1.00  0.00     0.031 C 
ATOM     69  C   UNL A   1      44.891  30.855  31.628  1.00  0.00     0.029 A 
ATOM     70  C   UNL A   1      44.938  29.586  31.057  1.00  0.00     0.049 A 
ATOM     71  H   UNL A   1      44.246  27.791  31.855  1.00  0.00     0.167 HD
ATOM     72  C   UNL A   1      45.230  27.780  29.398  1.00  0.00     0.074 A 
ATOM     73  C   UNL A   1      45.064  26.587  30.216  1.00  0.00     0.031 C 
ATOM     74  C   UNL A   1      45.265  29.098  29.739  1.00  0.00     0.037 A 
BRANCH  61  75
ATOM     75  C   UNL A   1      43.129  27.573  34.593  1.00  0.00     0.064 A 
ATOM     76  C   UNL A   1      43.418  27.830  35.953  1.00  0.00     0.173 A 
ATOM     77  C   UNL A   1      43.548  26.311  34.122  1.00  0.00     0.173 A 
ATOM     78  F   UNL A   1      43.068  28.994  36.521  1.00  0.00    -0.203 F 
ATOM     79  C   UNL A   1      44.157  26.940  36.740  1.00  0.00     0.198 A 
ATOM     80  C   UNL A   1      44.246  25.406  34.924  1.00  0.00     0.198 A 
ATOM     81  F   UNL A   1      43.404  25.933  32.849  1.00  0.00    -0.203 F 
ATOM     82  F   UNL A   1      44.517  27.289  37.983  1.00  0.00    -0.200 F 
ATOM     83  C   UNL A   1      44.581  25.732  36.220  1.00  0.00     0.200 A 
ATOM     84  F   UNL A   1      44.664  24.247  34.395  1.00  0.00    -0.200 F 
ATOM     85  F   UNL A   1      45.345  24.906  36.946  1.00  0.00    -0.200 F 
ENDBRANCH  61  75
BRANCH  62  86
ATOM     86  C   UNL A   1      43.080  24.722  26.590  1.00  0.00     0.064 A 
ATOM     87  C   UNL A   1      43.898  24.639  25.451  1.00  0.00     0.173 A 
ATOM     88  C   UNL A   1      42.533  23.515  27.062  1.00  0.00     0.173 A 
ATOM     89  F   UNL A   1      44.482  25.740  24.956  1.00  0.00    -0.203 F 
ATOM     90  C   UNL A   1      44.185  23.414  24.842  1.00  0.00     0.198 A 
ATOM     91  C   UNL A   1      42.820  22.292  26.451  1.00  0.00     0.198 A 
ATOM     92  F   UNL A   1      41.793  23.491  28.180  1.00  0.00    -0.203 F 
ATOM     93  F   UNL A   1      45.025  23.366  23.797  1.00  0.00    -0.200 F 
ATOM     94  C   UNL A   1      43.659  22.240  25.352  1.00  0.00     0.200 A 
ATOM     95  F   UNL A   1      42.332  21.159  26.975  1.00  0.00    -0.200 F 
ATOM     96  F   UNL A   1      43.992  21.058  24.815  1.00  0.00    -0.200 F 
ENDBRANCH  62  86
BRANCH  74  97
ATOM     97  C   UNL A   1      45.501  30.088  28.646  1.00  0.00     0.064 A 
ATOM     98  C   UNL A   1      44.489  30.713  27.900  1.00  0.00     0.173 A 
ATOM     99  C   UNL A   1      46.827  30.461  28.389  1.00  0.00     0.173 A 
ATOM    100  F   UNL A   1      43.196  30.456  28.138  1.00  0.00    -0.203 F 
ATOM    101  C   UNL A   1      44.802  31.648  26.915  1.00  0.00     0.198 A 
ATOM    102  C   UNL A   1      47.132  31.420  27.432  1.00  0.00     0.198 A 
ATOM    103  F   UNL A   1      47.827  29.914  29.096  1.00  0.00    -0.203 F 
ATOM    104  F   UNL A   1      43.824  32.220  26.197  1.00  0.00    -0.200 F 
ATOM    105  C   UNL A   1      46.122  32.006  26.687  1.00  0.00     0.200 A 
ATOM    106  F   UNL A   1      48.407  31.790  27.246  1.00  0.00    -0.200 F 
ATOM    107  F   UNL A   1      46.420  32.931  25.764  1.00  0.00    -0.200 F 
ENDBRANCH  74  97
ENDBRANCH  48  49
ENDBRANCH  40  43
ENDBRANCH  38  39
ENDBRANCH  37  38
ENDBRANCH  36  37
ENDBRANCH   1  36
TORSDOF 17
ENDMDL
