MODEL 1
REMARK VINA RESULT:     -11.7      0.000      0.000
REMARK SMILES C[C@@H](Cc1cccs1)N(C)c1ncc(Br)cc1C(=O)NCCCCCCNC(=O)c1ccc(-c2c3nc(c(-c4c(F)c(F)c(F)c(F)c4F)c4ccc([nH]4)c(-c4c(F)c(F)c(F)c(F)c4F)c4nc(c(-c5c(F)c(F)c(F)c(F)c5F)c5ccc2[nH]5)C=C4)C=C3)cc1
REMARK SMILES IDX 22 1 21 2 20 3 18 4 19 5 17 7 11 8 12 9 13 10 16 11 14 12
REMARK SMILES IDX 15 13 9 14 10 15 2 16 1 17 3 18 4 19 5 20 8 21 6 22 7 23
REMARK SMILES IDX 23 24 24 25 25 26 26 27 27 28 28 29 29 31 30 32 31 33 92 34
REMARK SMILES IDX 32 35 91 36 33 37 34 38 35 39 85 40 36 41 90 42 84 43 86 44
REMARK SMILES IDX 37 45 89 46 83 47 82 48 38 50 70 51 50 52 69 53 51 54 54 55
REMARK SMILES IDX 68 56 87 57 52 58 53 59 67 61 88 62 55 63 39 64 40 65 48 66
REMARK SMILES IDX 41 67 42 68 46 69 49 70 43 71 44 72 47 73 45 74 71 75 72 76
REMARK SMILES IDX 80 77 73 78 74 79 78 80 81 81 75 82 76 83 79 84 77 85 56 86
REMARK SMILES IDX 57 87 65 88 58 89 59 90 63 91 66 92 60 93 61 94 64 95 62 96
REMARK H PARENT 20 6 27 30 86 49 54 60
REMARK Flexibility Score: inf
ROOT
ATOM      1  C   UNL A   1      33.440  28.724  25.299  1.00  0.00     0.021 C 
ENDROOT
BRANCH   1   2
ATOM      2  C   UNL A   1      33.888  28.979  23.861  1.00  0.00     0.116 C 
BRANCH   2   3
ATOM      3  N   UNL A   1      33.956  27.803  23.016  1.00  0.00    -0.352 N 
ATOM      4  C   UNL A   1      32.973  26.983  22.493  1.00  0.00     0.255 C 
ATOM      5  O   UNL A   1      33.288  26.287  21.528  1.00  0.00    -0.269 OA
ATOM      6  H   UNL A   1      34.872  27.539  22.768  1.00  0.00     0.163 HD
BRANCH   4   7
ATOM      7  C   UNL A   1      31.592  26.923  23.036  1.00  0.00     0.083 A 
ATOM      8  C   UNL A   1      31.142  25.825  23.802  1.00  0.00     0.141 A 
ATOM      9  N   UNL A   1      29.836  25.735  24.189  1.00  0.00    -0.237 NA
ATOM     10  C   UNL A   1      28.984  26.735  23.875  1.00  0.00     0.129 A 
ATOM     11  C   UNL A   1      30.656  27.901  22.662  1.00  0.00     0.035 A 
ATOM     12  C   UNL A   1      29.351  27.830  23.126  1.00  0.00     0.037 A 
ATOM     13  Br  UNL A   1      28.112  29.194  22.734  1.00  0.00    -0.049 Br
BRANCH   8  14
ATOM     14  N   UNL A   1      31.930  24.746  24.169  1.00  0.00    -0.356 N 
ATOM     15  C   UNL A   1      31.466  23.481  23.605  1.00  0.00     0.145 C 
BRANCH  14  16
ATOM     16  C   UNL A   1      32.670  24.676  25.445  1.00  0.00     0.085 C 
ATOM     17  C   UNL A   1      32.349  23.405  26.227  1.00  0.00     0.031 C 
BRANCH  16  18
ATOM     18  C   UNL A   1      34.166  25.062  25.421  1.00  0.00     0.071 C 
BRANCH  18  19
ATOM     19  C   UNL A   1      35.155  24.108  24.805  1.00  0.00     0.007 A 
ATOM     20  C   UNL A   1      35.291  23.682  23.498  1.00  0.00     0.015 A 
ATOM     21  S   UNL A   1      36.278  23.297  25.828  1.00  0.00    -0.149 S 
ATOM     22  C   UNL A   1      36.386  22.786  23.325  1.00  0.00     0.012 A 
ATOM     23  C   UNL A   1      37.021  22.509  24.511  1.00  0.00     0.065 A 
ENDBRANCH  18  19
ENDBRANCH  16  18
ENDBRANCH  14  16
ENDBRANCH   8  14
ENDBRANCH   4   7
ENDBRANCH   2   3
ENDBRANCH   1   2
BRANCH   1  24
ATOM     24  C   UNL A   1      33.048  29.932  26.150  1.00  0.00     0.002 C 
BRANCH  24  25
ATOM     25  C   UNL A   1      31.659  30.524  25.913  1.00  0.00     0.002 C 
BRANCH  25  26
ATOM     26  C   UNL A   1      31.405  31.913  26.501  1.00  0.00     0.021 C 
BRANCH  26  27
ATOM     27  C   UNL A   1      32.579  32.542  27.243  1.00  0.00     0.116 C 
BRANCH  27  28
ATOM     28  N   UNL A   1      32.357  33.942  27.557  1.00  0.00    -0.352 N 
ATOM     29  C   UNL A   1      32.967  34.733  28.502  1.00  0.00     0.251 C 
ATOM     30  H   UNL A   1      31.670  34.391  27.015  1.00  0.00     0.163 HD
ATOM     31  O   UNL A   1      32.529  35.849  28.751  1.00  0.00    -0.269 OA
BRANCH  29  32
ATOM     32  C   UNL A   1      34.146  34.224  29.239  1.00  0.00     0.039 A 
ATOM     33  C   UNL A   1      33.946  33.538  30.440  1.00  0.00     0.014 A 
ATOM     34  C   UNL A   1      35.440  34.431  28.755  1.00  0.00     0.014 A 
ATOM     35  C   UNL A   1      35.041  33.004  31.122  1.00  0.00     0.010 A 
ATOM     36  C   UNL A   1      36.523  33.834  29.397  1.00  0.00     0.010 A 
ATOM     37  C   UNL A   1      36.335  33.118  30.589  1.00  0.00    -0.014 A 
BRANCH  37  38
ATOM     38  C   UNL A   1      37.504  32.495  31.263  1.00  0.00     0.031 A 
ATOM     39  C   UNL A   1      38.249  31.370  30.597  1.00  0.00     0.074 A 
ATOM     40  C   UNL A   1      37.856  32.899  32.499  1.00  0.00     0.049 A 
ATOM     41  N   UNL A   1      39.241  30.648  31.054  1.00  0.00    -0.248 NA
ATOM     42  C   UNL A   1      37.801  30.987  29.249  1.00  0.00     0.031 C 
ATOM     43  C   UNL A   1      37.186  33.950  33.266  1.00  0.00     0.029 A 
ATOM     44  N   UNL A   1      38.855  32.464  33.334  1.00  0.00    -0.354 N 
ATOM     45  C   UNL A   1      39.524  29.721  30.059  1.00  0.00     0.074 A 
ATOM     46  C   UNL A   1      38.567  29.935  28.996  1.00  0.00     0.031 C 
ATOM     47  C   UNL A   1      37.803  34.091  34.451  1.00  0.00     0.029 A 
ATOM     48  C   UNL A   1      38.882  33.113  34.546  1.00  0.00     0.049 A 
ATOM     49  H   UNL A   1      39.492  31.755  33.089  1.00  0.00     0.167 HD
ATOM     50  C   UNL A   1      40.509  28.791  30.026  1.00  0.00     0.037 A 
ATOM     51  C   UNL A   1      39.678  32.930  35.617  1.00  0.00     0.037 A 
ATOM     52  C   UNL A   1      41.475  28.599  31.076  1.00  0.00     0.049 A 
ATOM     53  C   UNL A   1      40.755  31.879  35.558  1.00  0.00     0.074 A 
ATOM     54  C   UNL A   1      42.547  27.726  31.111  1.00  0.00     0.029 A 
ATOM     55  N   UNL A   1      41.480  29.287  32.281  1.00  0.00    -0.354 N 
ATOM     56  N   UNL A   1      41.059  31.057  34.582  1.00  0.00    -0.248 NA
ATOM     57  C   UNL A   1      41.602  31.732  36.749  1.00  0.00     0.031 C 
ATOM     58  C   UNL A   1      43.168  27.845  32.358  1.00  0.00     0.029 A 
ATOM     59  C   UNL A   1      42.522  28.837  33.077  1.00  0.00     0.049 A 
ATOM     60  H   UNL A   1      40.839  29.991  32.533  1.00  0.00     0.167 HD
ATOM     61  C   UNL A   1      42.151  30.324  35.027  1.00  0.00     0.074 A 
ATOM     62  C   UNL A   1      42.465  30.806  36.355  1.00  0.00     0.031 C 
ATOM     63  C   UNL A   1      42.830  29.337  34.393  1.00  0.00     0.037 A 
BRANCH  50  64
ATOM     64  C   UNL A   1      40.596  27.907  28.815  1.00  0.00     0.064 A 
ATOM     65  C   UNL A   1      39.862  26.716  28.716  1.00  0.00     0.173 A 
ATOM     66  C   UNL A   1      41.384  28.285  27.716  1.00  0.00     0.173 A 
ATOM     67  F   UNL A   1      39.102  26.303  29.741  1.00  0.00    -0.203 F 
ATOM     68  C   UNL A   1      39.933  25.923  27.573  1.00  0.00     0.198 A 
ATOM     69  C   UNL A   1      41.426  27.506  26.562  1.00  0.00     0.198 A 
ATOM     70  F   UNL A   1      42.101  29.417  27.754  1.00  0.00    -0.203 F 
ATOM     71  F   UNL A   1      39.259  24.766  27.520  1.00  0.00    -0.200 F 
ATOM     72  C   UNL A   1      40.707  26.323  26.494  1.00  0.00     0.200 A 
ATOM     73  F   UNL A   1      42.162  27.902  25.514  1.00  0.00    -0.200 F 
ATOM     74  F   UNL A   1      40.763  25.565  25.391  1.00  0.00    -0.200 F 
ENDBRANCH  50  64
BRANCH  51  75
ATOM     75  C   UNL A   1      39.496  33.764  36.835  1.00  0.00     0.064 A 
ATOM     76  C   UNL A   1      40.123  35.013  36.956  1.00  0.00     0.173 A 
ATOM     77  C   UNL A   1      38.711  33.325  37.910  1.00  0.00     0.173 A 
ATOM     78  F   UNL A   1      40.902  35.470  35.964  1.00  0.00    -0.203 F 
ATOM     79  C   UNL A   1      39.997  35.774  38.116  1.00  0.00     0.198 A 
ATOM     80  C   UNL A   1      38.557  34.102  39.057  1.00  0.00     0.198 A 
ATOM     81  F   UNL A   1      38.082  32.142  37.844  1.00  0.00    -0.203 F 
ATOM     82  F   UNL A   1      40.655  36.935  38.228  1.00  0.00    -0.200 F 
ATOM     83  C   UNL A   1      39.209  35.321  39.164  1.00  0.00     0.200 A 
ATOM     84  F   UNL A   1      37.782  33.667  40.059  1.00  0.00    -0.200 F 
ATOM     85  F   UNL A   1      39.088  36.052  40.279  1.00  0.00    -0.200 F 
ENDBRANCH  51  75
BRANCH  63  86
ATOM     86  C   UNL A   1      44.011  28.743  35.105  1.00  0.00     0.064 A 
ATOM     87  C   UNL A   1      45.298  29.286  34.984  1.00  0.00     0.173 A 
ATOM     88  C   UNL A   1      43.841  27.641  35.959  1.00  0.00     0.173 A 
ATOM     89  F   UNL A   1      45.517  30.330  34.170  1.00  0.00    -0.203 F 
ATOM     90  C   UNL A   1      46.376  28.732  35.669  1.00  0.00     0.198 A 
ATOM     91  C   UNL A   1      44.915  27.112  36.669  1.00  0.00     0.198 A 
ATOM     92  F   UNL A   1      42.629  27.088  36.117  1.00  0.00    -0.203 F 
ATOM     93  F   UNL A   1      47.606  29.235  35.498  1.00  0.00    -0.200 F 
ATOM     94  C   UNL A   1      46.182  27.652  36.517  1.00  0.00     0.200 A 
ATOM     95  F   UNL A   1      44.721  26.079  37.501  1.00  0.00    -0.200 F 
ATOM     96  F   UNL A   1      47.218  27.127  37.185  1.00  0.00    -0.200 F 
ENDBRANCH  63  86
ENDBRANCH  37  38
ENDBRANCH  29  32
ENDBRANCH  27  28
ENDBRANCH  26  27
ENDBRANCH  25  26
ENDBRANCH  24  25
ENDBRANCH   1  24
TORSDOF 17
ENDMDL
MODEL 2
REMARK VINA RESULT:     -11.5      3.619      8.523
REMARK SMILES C[C@@H](Cc1cccs1)N(C)c1ncc(Br)cc1C(=O)NCCCCCCNC(=O)c1ccc(-c2c3nc(c(-c4c(F)c(F)c(F)c(F)c4F)c4ccc([nH]4)c(-c4c(F)c(F)c(F)c(F)c4F)c4nc(c(-c5c(F)c(F)c(F)c(F)c5F)c5ccc2[nH]5)C=C4)C=C3)cc1
REMARK SMILES IDX 22 1 21 2 20 3 18 4 19 5 17 7 11 8 12 9 13 10 16 11 14 12
REMARK SMILES IDX 15 13 9 14 10 15 2 16 1 17 3 18 4 19 5 20 8 21 6 22 7 23
REMARK SMILES IDX 23 24 24 25 25 26 26 27 27 28 28 29 29 31 30 32 31 33 92 34
REMARK SMILES IDX 32 35 91 36 33 37 34 38 35 39 85 40 36 41 90 42 84 43 86 44
REMARK SMILES IDX 37 45 89 46 83 47 82 48 38 50 70 51 50 52 69 53 51 54 54 55
REMARK SMILES IDX 68 56 87 57 52 58 53 59 67 61 88 62 55 63 39 64 40 65 48 66
REMARK SMILES IDX 41 67 42 68 46 69 49 70 43 71 44 72 47 73 45 74 71 75 72 76
REMARK SMILES IDX 80 77 73 78 74 79 78 80 81 81 75 82 76 83 79 84 77 85 56 86
REMARK SMILES IDX 57 87 65 88 58 89 59 90 63 91 66 92 60 93 61 94 64 95 62 96
REMARK H PARENT 20 6 27 30 86 49 54 60
REMARK Flexibility Score: inf
ROOT
ATOM      1  C   UNL A   1      33.993  28.539  23.924  1.00  0.00     0.021 C 
ENDROOT
BRANCH   1   2
ATOM      2  C   UNL A   1      33.855  28.521  22.402  1.00  0.00     0.116 C 
BRANCH   2   3
ATOM      3  N   UNL A   1      33.650  27.212  21.814  1.00  0.00    -0.352 N 
ATOM      4  C   UNL A   1      32.542  26.385  21.764  1.00  0.00     0.255 C 
ATOM      5  O   UNL A   1      32.545  25.508  20.901  1.00  0.00    -0.269 OA
ATOM      6  H   UNL A   1      34.447  26.843  21.368  1.00  0.00     0.163 HD
BRANCH   4   7
ATOM      7  C   UNL A   1      31.384  26.522  22.685  1.00  0.00     0.083 A 
ATOM      8  C   UNL A   1      31.186  25.636  23.766  1.00  0.00     0.141 A 
ATOM      9  N   UNL A   1      30.054  25.707  24.525  1.00  0.00    -0.237 NA
ATOM     10  C   UNL A   1      29.143  26.669  24.264  1.00  0.00     0.129 A 
ATOM     11  C   UNL A   1      30.376  27.456  22.396  1.00  0.00     0.035 A 
ATOM     12  C   UNL A   1      29.267  27.561  23.223  1.00  0.00     0.037 A 
ATOM     13  Br  UNL A   1      27.962  28.886  22.923  1.00  0.00    -0.049 Br
BRANCH   8  14
ATOM     14  N   UNL A   1      32.052  24.610  24.112  1.00  0.00    -0.356 N 
ATOM     15  C   UNL A   1      31.575  23.294  23.695  1.00  0.00     0.145 C 
BRANCH  14  16
ATOM     16  C   UNL A   1      32.935  24.656  25.295  1.00  0.00     0.085 C 
ATOM     17  C   UNL A   1      32.792  23.412  26.167  1.00  0.00     0.031 C 
BRANCH  16  18
ATOM     18  C   UNL A   1      34.388  25.134  25.079  1.00  0.00     0.071 C 
BRANCH  18  19
ATOM     19  C   UNL A   1      35.482  24.106  24.958  1.00  0.00     0.007 A 
ATOM     20  C   UNL A   1      36.545  23.831  25.797  1.00  0.00     0.015 A 
ATOM     21  S   UNL A   1      35.558  23.131  23.541  1.00  0.00    -0.149 S 
ATOM     22  C   UNL A   1      37.345  22.748  25.329  1.00  0.00     0.012 A 
ATOM     23  C   UNL A   1      36.905  22.262  24.122  1.00  0.00     0.065 A 
ENDBRANCH  18  19
ENDBRANCH  16  18
ENDBRANCH  14  16
ENDBRANCH   8  14
ENDBRANCH   4   7
ENDBRANCH   2   3
ENDBRANCH   1   2
BRANCH   1  24
ATOM     24  C   UNL A   1      32.968  29.340  24.725  1.00  0.00     0.002 C 
BRANCH  24  25
ATOM     25  C   UNL A   1      32.049  28.551  25.657  1.00  0.00     0.002 C 
BRANCH  25  26
ATOM     26  C   UNL A   1      32.656  28.097  26.985  1.00  0.00     0.021 C 
BRANCH  26  27
ATOM     27  C   UNL A   1      34.022  28.686  27.323  1.00  0.00     0.116 C 
BRANCH  27  28
ATOM     28  N   UNL A   1      33.936  30.044  27.829  1.00  0.00    -0.352 N 
ATOM     29  C   UNL A   1      34.848  30.761  28.567  1.00  0.00     0.251 C 
ATOM     30  H   UNL A   1      33.103  30.522  27.612  1.00  0.00     0.163 HD
ATOM     31  O   UNL A   1      34.535  31.837  29.061  1.00  0.00    -0.269 OA
BRANCH  29  32
ATOM     32  C   UNL A   1      36.207  30.220  28.785  1.00  0.00     0.039 A 
ATOM     33  C   UNL A   1      37.164  30.373  27.777  1.00  0.00     0.014 A 
ATOM     34  C   UNL A   1      36.535  29.555  29.969  1.00  0.00     0.014 A 
ATOM     35  C   UNL A   1      38.468  29.917  27.986  1.00  0.00     0.010 A 
ATOM     36  C   UNL A   1      37.852  29.168  30.204  1.00  0.00     0.010 A 
ATOM     37  C   UNL A   1      38.832  29.342  29.214  1.00  0.00    -0.014 A 
BRANCH  37  38
ATOM     38  C   UNL A   1      40.230  28.915  29.482  1.00  0.00     0.031 A 
ATOM     39  C   UNL A   1      41.163  29.819  30.239  1.00  0.00     0.074 A 
ATOM     40  C   UNL A   1      40.677  27.743  28.988  1.00  0.00     0.049 A 
ATOM     41  N   UNL A   1      42.436  29.661  30.505  1.00  0.00    -0.248 NA
ATOM     42  C   UNL A   1      40.599  31.081  30.742  1.00  0.00     0.031 C 
ATOM     43  C   UNL A   1      39.881  26.800  28.202  1.00  0.00     0.029 A 
ATOM     44  N   UNL A   1      41.914  27.152  29.063  1.00  0.00    -0.354 N 
ATOM     45  C   UNL A   1      42.824  30.805  31.190  1.00  0.00     0.074 A 
ATOM     46  C   UNL A   1      41.669  31.673  31.255  1.00  0.00     0.031 C 
ATOM     47  C   UNL A   1      40.643  25.741  27.882  1.00  0.00     0.029 A 
ATOM     48  C   UNL A   1      41.991  25.950  28.401  1.00  0.00     0.049 A 
ATOM     49  H   UNL A   1      42.674  27.551  29.544  1.00  0.00     0.167 HD
ATOM     50  C   UNL A   1      44.030  31.095  31.736  1.00  0.00     0.037 A 
ATOM     51  C   UNL A   1      43.034  25.117  28.222  1.00  0.00     0.037 A 
ATOM     52  C   UNL A   1      45.169  30.217  31.691  1.00  0.00     0.049 A 
ATOM     53  C   UNL A   1      44.366  25.472  28.828  1.00  0.00     0.074 A 
ATOM     54  C   UNL A   1      46.415  30.392  32.267  1.00  0.00     0.029 A 
ATOM     55  N   UNL A   1      45.203  29.000  31.027  1.00  0.00    -0.354 N 
ATOM     56  N   UNL A   1      44.701  26.523  29.536  1.00  0.00    -0.248 NA
ATOM     57  C   UNL A   1      45.465  24.520  28.613  1.00  0.00     0.031 C 
ATOM     58  C   UNL A   1      47.221  29.308  31.904  1.00  0.00     0.029 A 
ATOM     59  C   UNL A   1      46.459  28.427  31.155  1.00  0.00     0.049 A 
ATOM     60  H   UNL A   1      44.448  28.601  30.536  1.00  0.00     0.167 HD
ATOM     61  C   UNL A   1      46.035  26.343  29.879  1.00  0.00     0.074 A 
ATOM     62  C   UNL A   1      46.444  25.075  29.313  1.00  0.00     0.031 C 
ATOM     63  C   UNL A   1      46.848  27.157  30.596  1.00  0.00     0.037 A 
BRANCH  50  64
ATOM     64  C   UNL A   1      44.183  32.416  32.434  1.00  0.00     0.064 A 
ATOM     65  C   UNL A   1      44.595  33.569  31.750  1.00  0.00     0.173 A 
ATOM     66  C   UNL A   1      43.860  32.543  33.794  1.00  0.00     0.173 A 
ATOM     67  F   UNL A   1      44.926  33.502  30.451  1.00  0.00    -0.203 F 
ATOM     68  C   UNL A   1      44.704  34.793  32.406  1.00  0.00     0.198 A 
ATOM     69  C   UNL A   1      43.938  33.775  34.439  1.00  0.00     0.198 A 
ATOM     70  F   UNL A   1      43.454  31.474  34.496  1.00  0.00    -0.203 F 
ATOM     71  F   UNL A   1      45.145  35.870  31.742  1.00  0.00    -0.200 F 
ATOM     72  C   UNL A   1      44.366  34.896  33.747  1.00  0.00     0.200 A 
ATOM     73  F   UNL A   1      43.596  33.876  35.731  1.00  0.00    -0.200 F 
ATOM     74  F   UNL A   1      44.459  36.077  34.372  1.00  0.00    -0.200 F 
ENDBRANCH  50  64
BRANCH  51  75
ATOM     75  C   UNL A   1      42.864  23.862  27.442  1.00  0.00     0.064 A 
ATOM     76  C   UNL A   1      42.375  22.695  28.048  1.00  0.00     0.173 A 
ATOM     77  C   UNL A   1      43.203  23.794  26.083  1.00  0.00     0.173 A 
ATOM     78  F   UNL A   1      42.054  22.701  29.351  1.00  0.00    -0.203 F 
ATOM     79  C   UNL A   1      42.262  21.504  27.334  1.00  0.00     0.198 A 
ATOM     80  C   UNL A   1      43.059  22.612  25.361  1.00  0.00     0.198 A 
ATOM     81  F   UNL A   1      43.669  24.883  25.452  1.00  0.00    -0.203 F 
ATOM     82  F   UNL A   1      41.849  20.390  27.953  1.00  0.00    -0.200 F 
ATOM     83  C   UNL A   1      42.599  21.464  25.989  1.00  0.00     0.200 A 
ATOM     84  F   UNL A   1      43.369  22.583  24.058  1.00  0.00    -0.200 F 
ATOM     85  F   UNL A   1      42.491  20.319  25.303  1.00  0.00    -0.200 F 
ENDBRANCH  51  75
BRANCH  63  86
ATOM     86  C   UNL A   1      48.250  26.682  30.852  1.00  0.00     0.064 A 
ATOM     87  C   UNL A   1      49.323  27.071  30.036  1.00  0.00     0.173 A 
ATOM     88  C   UNL A   1      48.529  25.865  31.959  1.00  0.00     0.173 A 
ATOM     89  F   UNL A   1      49.107  27.840  28.958  1.00  0.00    -0.203 F 
ATOM     90  C   UNL A   1      50.618  26.637  30.303  1.00  0.00     0.198 A 
ATOM     91  C   UNL A   1      49.831  25.461  32.242  1.00  0.00     0.198 A 
ATOM     92  F   UNL A   1      47.541  25.471  32.776  1.00  0.00    -0.203 F 
ATOM     93  F   UNL A   1      51.620  26.978  29.480  1.00  0.00    -0.200 F 
ATOM     94  C   UNL A   1      50.873  25.840  31.409  1.00  0.00     0.200 A 
ATOM     95  F   UNL A   1      50.076  24.706  33.322  1.00  0.00    -0.200 F 
ATOM     96  F   UNL A   1      52.122  25.433  31.671  1.00  0.00    -0.200 F 
ENDBRANCH  63  86
ENDBRANCH  37  38
ENDBRANCH  29  32
ENDBRANCH  27  28
ENDBRANCH  26  27
ENDBRANCH  25  26
ENDBRANCH  24  25
ENDBRANCH   1  24
TORSDOF 17
ENDMDL
MODEL 3
REMARK VINA RESULT:     -11.4      5.321      9.416
REMARK SMILES C[C@@H](Cc1cccs1)N(C)c1ncc(Br)cc1C(=O)NCCCCCCNC(=O)c1ccc(-c2c3nc(c(-c4c(F)c(F)c(F)c(F)c4F)c4ccc([nH]4)c(-c4c(F)c(F)c(F)c(F)c4F)c4nc(c(-c5c(F)c(F)c(F)c(F)c5F)c5ccc2[nH]5)C=C4)C=C3)cc1
REMARK SMILES IDX 22 1 21 2 20 3 18 4 19 5 17 7 11 8 12 9 13 10 16 11 14 12
REMARK SMILES IDX 15 13 9 14 10 15 2 16 1 17 3 18 4 19 5 20 8 21 6 22 7 23
REMARK SMILES IDX 23 24 24 25 25 26 26 27 27 28 28 29 29 31 30 32 31 33 92 34
REMARK SMILES IDX 32 35 91 36 33 37 34 38 35 39 85 40 36 41 90 42 84 43 86 44
REMARK SMILES IDX 37 45 89 46 83 47 82 48 38 50 70 51 50 52 69 53 51 54 54 55
REMARK SMILES IDX 68 56 87 57 52 58 53 59 67 61 88 62 55 63 39 64 40 65 48 66
REMARK SMILES IDX 41 67 42 68 46 69 49 70 43 71 44 72 47 73 45 74 71 75 72 76
REMARK SMILES IDX 80 77 73 78 74 79 78 80 81 81 75 82 76 83 79 84 77 85 56 86
REMARK SMILES IDX 57 87 65 88 58 89 59 90 63 91 66 92 60 93 61 94 64 95 62 96
REMARK H PARENT 20 6 27 30 86 49 54 60
REMARK Flexibility Score: inf
ROOT
ATOM      1  C   UNL A   1      35.963  22.850  24.234  1.00  0.00     0.021 C 
ENDROOT
BRANCH   1   2
ATOM      2  C   UNL A   1      35.871  23.821  25.410  1.00  0.00     0.116 C 
BRANCH   2   3
ATOM      3  N   UNL A   1      34.669  23.710  26.213  1.00  0.00    -0.352 N 
ATOM      4  C   UNL A   1      33.452  24.364  26.147  1.00  0.00     0.255 C 
ATOM      5  O   UNL A   1      32.502  23.824  26.713  1.00  0.00    -0.269 OA
ATOM      6  H   UNL A   1      34.730  23.047  26.938  1.00  0.00     0.163 HD
BRANCH   4   7
ATOM      7  C   UNL A   1      33.260  25.653  25.434  1.00  0.00     0.083 A 
ATOM      8  C   UNL A   1      33.060  25.707  24.037  1.00  0.00     0.141 A 
ATOM      9  N   UNL A   1      33.005  26.906  23.388  1.00  0.00    -0.237 NA
ATOM     10  C   UNL A   1      33.095  28.049  24.102  1.00  0.00     0.129 A 
ATOM     11  C   UNL A   1      33.429  26.861  26.129  1.00  0.00     0.035 A 
ATOM     12  C   UNL A   1      33.298  28.072  25.464  1.00  0.00     0.037 A 
ATOM     13  Br  UNL A   1      33.402  29.704  26.399  1.00  0.00    -0.049 Br
BRANCH   8  14
ATOM     14  N   UNL A   1      32.965  24.597  23.212  1.00  0.00    -0.356 N 
ATOM     15  C   UNL A   1      33.140  24.919  21.799  1.00  0.00     0.145 C 
BRANCH  14  16
ATOM     16  C   UNL A   1      32.138  23.416  23.531  1.00  0.00     0.085 C 
ATOM     17  C   UNL A   1      30.645  23.727  23.472  1.00  0.00     0.031 C 
BRANCH  16  18
ATOM     18  C   UNL A   1      32.545  22.070  22.891  1.00  0.00     0.071 C 
BRANCH  18  19
ATOM     19  C   UNL A   1      32.626  20.844  23.763  1.00  0.00     0.007 A 
ATOM     20  C   UNL A   1      32.997  20.713  25.087  1.00  0.00     0.015 A 
ATOM     21  S   UNL A   1      32.314  19.302  23.063  1.00  0.00    -0.149 S 
ATOM     22  C   UNL A   1      32.910  19.367  25.549  1.00  0.00     0.012 A 
ATOM     23  C   UNL A   1      32.529  18.501  24.552  1.00  0.00     0.065 A 
ENDBRANCH  18  19
ENDBRANCH  16  18
ENDBRANCH  14  16
ENDBRANCH   8  14
ENDBRANCH   4   7
ENDBRANCH   2   3
ENDBRANCH   1   2
BRANCH   1  24
ATOM     24  C   UNL A   1      37.083  21.811  24.249  1.00  0.00     0.002 C 
BRANCH  24  25
ATOM     25  C   UNL A   1      36.739  20.430  24.806  1.00  0.00     0.002 C 
BRANCH  25  26
ATOM     26  C   UNL A   1      37.915  19.483  25.046  1.00  0.00     0.021 C 
BRANCH  26  27
ATOM     27  C   UNL A   1      39.168  20.121  25.636  1.00  0.00     0.116 C 
BRANCH  27  28
ATOM     28  N   UNL A   1      40.221  19.154  25.891  1.00  0.00    -0.352 N 
ATOM     29  C   UNL A   1      41.549  19.364  26.177  1.00  0.00     0.251 C 
ATOM     30  H   UNL A   1      39.944  18.210  25.854  1.00  0.00     0.163 HD
ATOM     31  O   UNL A   1      42.336  18.425  26.188  1.00  0.00    -0.269 OA
BRANCH  29  32
ATOM     32  C   UNL A   1      42.037  20.734  26.450  1.00  0.00     0.039 A 
ATOM     33  C   UNL A   1      42.314  21.579  25.372  1.00  0.00     0.014 A 
ATOM     34  C   UNL A   1      42.230  21.180  27.760  1.00  0.00     0.014 A 
ATOM     35  C   UNL A   1      42.723  22.893  25.610  1.00  0.00     0.010 A 
ATOM     36  C   UNL A   1      42.565  22.511  27.996  1.00  0.00     0.010 A 
ATOM     37  C   UNL A   1      42.819  23.381  26.924  1.00  0.00    -0.014 A 
BRANCH  37  38
ATOM     38  C   UNL A   1      43.183  24.796  27.196  1.00  0.00     0.031 A 
ATOM     39  C   UNL A   1      44.585  25.277  26.940  1.00  0.00     0.074 A 
ATOM     40  C   UNL A   1      42.270  25.629  27.733  1.00  0.00     0.049 A 
ATOM     41  N   UNL A   1      45.118  26.448  27.187  1.00  0.00    -0.248 NA
ATOM     42  C   UNL A   1      45.522  24.305  26.356  1.00  0.00     0.031 C 
ATOM     43  C   UNL A   1      40.892  25.269  28.066  1.00  0.00     0.029 A 
ATOM     44  N   UNL A   1      42.369  26.947  28.106  1.00  0.00    -0.354 N 
ATOM     45  C   UNL A   1      46.448  26.347  26.801  1.00  0.00     0.074 A 
ATOM     46  C   UNL A   1      46.658  24.988  26.354  1.00  0.00     0.031 C 
ATOM     47  C   UNL A   1      40.268  26.344  28.577  1.00  0.00     0.029 A 
ATOM     48  C   UNL A   1      41.212  27.454  28.649  1.00  0.00     0.049 A 
ATOM     49  H   UNL A   1      43.190  27.478  27.995  1.00  0.00     0.167 HD
ATOM     50  C   UNL A   1      47.402  27.310  26.798  1.00  0.00     0.037 A 
ATOM     51  C   UNL A   1      40.948  28.672  29.159  1.00  0.00     0.037 A 
ATOM     52  C   UNL A   1      47.181  28.668  27.220  1.00  0.00     0.049 A 
ATOM     53  C   UNL A   1      42.032  29.718  29.157  1.00  0.00     0.074 A 
ATOM     54  C   UNL A   1      48.065  29.732  27.197  1.00  0.00     0.029 A 
ATOM     55  N   UNL A   1      45.991  29.148  27.747  1.00  0.00    -0.354 N 
ATOM     56  N   UNL A   1      43.266  29.631  28.722  1.00  0.00    -0.248 NA
ATOM     57  C   UNL A   1      41.684  31.033  29.712  1.00  0.00     0.031 C 
ATOM     58  C   UNL A   1      47.429  30.841  27.763  1.00  0.00     0.029 A 
ATOM     59  C   UNL A   1      46.128  30.487  28.080  1.00  0.00     0.049 A 
ATOM     60  H   UNL A   1      45.170  28.617  27.868  1.00  0.00     0.167 HD
ATOM     61  C   UNL A   1      43.829  30.886  28.919  1.00  0.00     0.074 A 
ATOM     62  C   UNL A   1      42.798  31.719  29.500  1.00  0.00     0.031 C 
ATOM     63  C   UNL A   1      45.088  31.307  28.646  1.00  0.00     0.037 A 
BRANCH  50  64
ATOM     64  C   UNL A   1      48.775  26.932  26.322  1.00  0.00     0.064 A 
ATOM     65  C   UNL A   1      49.740  26.407  27.194  1.00  0.00     0.173 A 
ATOM     66  C   UNL A   1      49.113  27.046  24.965  1.00  0.00     0.173 A 
ATOM     67  F   UNL A   1      49.474  26.286  28.504  1.00  0.00    -0.203 F 
ATOM     68  C   UNL A   1      51.000  26.034  26.731  1.00  0.00     0.198 A 
ATOM     69  C   UNL A   1      50.362  26.642  24.499  1.00  0.00     0.198 A 
ATOM     70  F   UNL A   1      48.227  27.536  24.085  1.00  0.00    -0.203 F 
ATOM     71  F   UNL A   1      51.921  25.579  27.591  1.00  0.00    -0.200 F 
ATOM     72  C   UNL A   1      51.306  26.143  25.383  1.00  0.00     0.200 A 
ATOM     73  F   UNL A   1      50.651  26.732  23.194  1.00  0.00    -0.200 F 
ATOM     74  F   UNL A   1      52.514  25.772  24.937  1.00  0.00    -0.200 F 
ENDBRANCH  50  64
BRANCH  51  75
ATOM     75  C   UNL A   1      39.600  28.977  29.708  1.00  0.00     0.064 A 
ATOM     76  C   UNL A   1      39.298  28.738  31.057  1.00  0.00     0.173 A 
ATOM     77  C   UNL A   1      38.580  29.492  28.896  1.00  0.00     0.173 A 
ATOM     78  F   UNL A   1      40.234  28.227  31.871  1.00  0.00    -0.203 F 
ATOM     79  C   UNL A   1      38.022  28.974  31.563  1.00  0.00     0.198 A 
ATOM     80  C   UNL A   1      37.312  29.759  29.411  1.00  0.00     0.198 A 
ATOM     81  F   UNL A   1      38.816  29.746  27.600  1.00  0.00    -0.203 F 
ATOM     82  F   UNL A   1      37.746  28.680  32.841  1.00  0.00    -0.200 F 
ATOM     83  C   UNL A   1      37.031  29.489  30.741  1.00  0.00     0.200 A 
ATOM     84  F   UNL A   1      36.363  30.273  28.617  1.00  0.00    -0.200 F 
ATOM     85  F   UNL A   1      35.804  29.715  31.228  1.00  0.00    -0.200 F 
ENDBRANCH  51  75
BRANCH  63  86
ATOM     86  C   UNL A   1      45.411  32.747  28.927  1.00  0.00     0.064 A 
ATOM     87  C   UNL A   1      45.172  33.757  27.983  1.00  0.00     0.173 A 
ATOM     88  C   UNL A   1      45.923  33.126  30.179  1.00  0.00     0.173 A 
ATOM     89  F   UNL A   1      44.696  33.446  26.768  1.00  0.00    -0.203 F 
ATOM     90  C   UNL A   1      45.459  35.088  28.272  1.00  0.00     0.198 A 
ATOM     91  C   UNL A   1      46.177  34.461  30.475  1.00  0.00     0.198 A 
ATOM     92  F   UNL A   1      46.162  32.200  31.120  1.00  0.00    -0.203 F 
ATOM     93  F   UNL A   1      45.272  36.030  27.337  1.00  0.00    -0.200 F 
ATOM     94  C   UNL A   1      45.953  35.440  29.519  1.00  0.00     0.200 A 
ATOM     95  F   UNL A   1      46.637  34.801  31.687  1.00  0.00    -0.200 F 
ATOM     96  F   UNL A   1      46.218  36.723  29.799  1.00  0.00    -0.200 F 
ENDBRANCH  63  86
ENDBRANCH  37  38
ENDBRANCH  29  32
ENDBRANCH  27  28
ENDBRANCH  26  27
ENDBRANCH  25  26
ENDBRANCH  24  25
ENDBRANCH   1  24
TORSDOF 17
ENDMDL
