MODEL 1
REMARK VINA RESULT:     -10.7      0.000      0.000
REMARK SMILES CCC[C@@H](CNC(=O)N1C[C@@H](C)[C@H](C(=O)OC)C1)C(=O)NCCCCCCNC(=O)c1ccc(-c2c3nc(c(-c4c(F)c(F)c(F)c(F)c4F)c4ccc([nH]4)c(-c4c(F)c(F)c(F)c(F)c4F)c4nc(c(-c5c(F)c(F)c(F)c(F)c5F)c5ccc2[nH]5)C=C4)C=C3)cc1
REMARK SMILES IDX 23 1 22 2 21 3 19 4 20 5 4 7 3 8 2 9 1 10 5 11 6 12 7 13
REMARK SMILES IDX 8 15 9 16 10 17 18 18 11 19 13 20 12 21 14 22 15 23 16 24
REMARK SMILES IDX 17 25 24 26 25 27 26 28 27 29 28 30 29 31 30 33 31 34 32 35
REMARK SMILES IDX 93 36 33 37 92 38 34 39 35 40 36 41 86 42 37 43 91 44 85 45
REMARK SMILES IDX 87 46 38 47 90 48 84 49 83 50 39 52 71 53 51 54 70 55 52 56
REMARK SMILES IDX 55 57 69 58 88 59 53 60 54 61 68 63 89 64 56 65 40 66 41 67
REMARK SMILES IDX 49 68 42 69 43 70 47 71 50 72 44 73 45 74 48 75 46 76 72 77
REMARK SMILES IDX 73 78 81 79 74 80 75 81 79 82 82 83 76 84 77 85 80 86 78 87
REMARK SMILES IDX 57 88 58 89 66 90 59 91 60 92 64 93 67 94 61 95 62 96 65 97
REMARK SMILES IDX 63 98
REMARK H PARENT 21 6 6 14 28 32 87 51 55 62
REMARK Flexibility Score: inf
ROOT
ATOM      1  C   UNL A   1      37.512  23.830  26.073  1.00  0.00     0.021 C 
ENDROOT
BRANCH   1   2
ATOM      2  C   UNL A   1      36.078  23.615  25.610  1.00  0.00     0.116 C 
BRANCH   2   3
ATOM      3  N   UNL A   1      35.304  22.893  26.594  1.00  0.00    -0.356 N 
ATOM      4  C   UNL A   1      34.276  22.022  26.460  1.00  0.00     0.224 C 
ATOM      5  O   UNL A   1      33.851  21.487  27.491  1.00  0.00    -0.275 OA
ATOM      6  H   UNL A   1      35.571  23.066  27.526  1.00  0.00     0.163 HD
BRANCH   4   7
ATOM      7  C   UNL A   1      33.620  21.702  25.123  1.00  0.00     0.097 C 
BRANCH   7   8
ATOM      8  C   UNL A   1      33.632  20.206  24.780  1.00  0.00     0.015 C 
BRANCH   8   9
ATOM      9  C   UNL A   1      32.510  19.739  23.849  1.00  0.00    -0.003 C 
ATOM     10  C   UNL A   1      32.676  18.314  23.341  1.00  0.00     0.004 C 
ENDBRANCH   8   9
ENDBRANCH   7   8
BRANCH   7  11
ATOM     11  C   UNL A   1      32.336  22.503  24.854  1.00  0.00     0.131 C 
BRANCH  11  12
ATOM     12  N   UNL A   1      31.287  22.468  25.861  1.00  0.00    -0.337 N 
ATOM     13  C   UNL A   1      30.669  23.515  26.479  1.00  0.00     0.317 C 
ATOM     14  H   UNL A   1      30.984  21.571  26.132  1.00  0.00     0.165 HD
ATOM     15  O   UNL A   1      30.110  23.326  27.557  1.00  0.00    -0.249 OA
BRANCH  13  16
ATOM     16  N   UNL A   1      30.794  24.746  25.920  1.00  0.00    -0.324 N 
ATOM     17  C   UNL A   1      29.826  25.383  25.059  1.00  0.00     0.125 C 
ATOM     18  C   UNL A   1      31.692  25.756  26.438  1.00  0.00     0.137 C 
ATOM     19  C   UNL A   1      30.669  26.401  24.302  1.00  0.00     0.021 C 
ATOM     20  C   UNL A   1      31.815  26.761  25.286  1.00  0.00     0.123 C 
ATOM     21  C   UNL A   1      29.853  27.606  23.860  1.00  0.00     0.010 C 
BRANCH  20  22
ATOM     22  C   UNL A   1      33.148  26.727  24.563  1.00  0.00     0.310 C 
ATOM     23  O   UNL A   1      33.706  25.674  24.270  1.00  0.00    -0.252 OA
BRANCH  22  24
ATOM     24  O   UNL A   1      33.662  27.960  24.321  1.00  0.00    -0.469 OA
ATOM     25  C   UNL A   1      34.044  28.185  22.961  1.00  0.00     0.282 C 
ENDBRANCH  22  24
ENDBRANCH  20  22
ENDBRANCH  13  16
ENDBRANCH  11  12
ENDBRANCH   7  11
ENDBRANCH   4   7
ENDBRANCH   2   3
ENDBRANCH   1   2
BRANCH   1  26
ATOM     26  C   UNL A   1      38.400  22.592  25.902  1.00  0.00     0.002 C 
BRANCH  26  27
ATOM     27  C   UNL A   1      37.837  21.499  24.982  1.00  0.00     0.002 C 
BRANCH  27  28
ATOM     28  C   UNL A   1      38.490  20.123  25.124  1.00  0.00     0.021 C 
BRANCH  28  29
ATOM     29  C   UNL A   1      39.405  19.981  26.333  1.00  0.00     0.116 C 
BRANCH  29  30
ATOM     30  N   UNL A   1      40.446  18.989  26.128  1.00  0.00    -0.352 N 
ATOM     31  C   UNL A   1      41.803  19.176  26.028  1.00  0.00     0.251 C 
ATOM     32  H   UNL A   1      40.137  18.058  26.049  1.00  0.00     0.163 HD
ATOM     33  O   UNL A   1      42.540  18.261  25.691  1.00  0.00    -0.269 OA
BRANCH  31  34
ATOM     34  C   UNL A   1      42.364  20.513  26.316  1.00  0.00     0.039 A 
ATOM     35  C   UNL A   1      42.657  21.369  25.253  1.00  0.00     0.014 A 
ATOM     36  C   UNL A   1      42.579  20.920  27.636  1.00  0.00     0.014 A 
ATOM     37  C   UNL A   1      43.119  22.660  25.516  1.00  0.00     0.010 A 
ATOM     38  C   UNL A   1      42.964  22.229  27.897  1.00  0.00     0.010 A 
ATOM     39  C   UNL A   1      43.249  23.108  26.840  1.00  0.00    -0.014 A 
BRANCH  39  40
ATOM     40  C   UNL A   1      43.716  24.480  27.158  1.00  0.00     0.031 A 
ATOM     41  C   UNL A   1      42.731  25.492  27.676  1.00  0.00     0.074 A 
ATOM     42  C   UNL A   1      44.987  24.839  26.902  1.00  0.00     0.049 A 
ATOM     43  N   UNL A   1      42.887  26.775  27.877  1.00  0.00    -0.248 NA
ATOM     44  C   UNL A   1      41.378  24.997  27.977  1.00  0.00     0.031 C 
ATOM     45  C   UNL A   1      46.028  23.956  26.374  1.00  0.00     0.029 A 
ATOM     46  N   UNL A   1      45.617  26.052  27.033  1.00  0.00    -0.354 N 
ATOM     47  C   UNL A   1      41.650  27.242  28.302  1.00  0.00     0.074 A 
ATOM     48  C   UNL A   1      40.741  26.117  28.279  1.00  0.00     0.031 C 
ATOM     49  C   UNL A   1      47.167  24.652  26.236  1.00  0.00     0.029 A 
ATOM     50  C   UNL A   1      46.927  26.040  26.618  1.00  0.00     0.049 A 
ATOM     51  H   UNL A   1      45.172  26.855  27.390  1.00  0.00     0.167 HD
ATOM     52  C   UNL A   1      41.309  28.491  28.696  1.00  0.00     0.037 A 
ATOM     53  C   UNL A   1      47.824  27.042  26.536  1.00  0.00     0.037 A 
ATOM     54  C   UNL A   1      42.228  29.598  28.741  1.00  0.00     0.049 A 
ATOM     55  C   UNL A   1      47.415  28.429  26.959  1.00  0.00     0.074 A 
ATOM     56  C   UNL A   1      41.998  30.892  29.172  1.00  0.00     0.029 A 
ATOM     57  N   UNL A   1      43.555  29.539  28.338  1.00  0.00    -0.354 N 
ATOM     58  N   UNL A   1      46.257  28.851  27.408  1.00  0.00    -0.248 NA
ATOM     59  C   UNL A   1      48.438  29.481  26.868  1.00  0.00     0.031 C 
ATOM     60  C   UNL A   1      43.168  31.631  28.979  1.00  0.00     0.029 A 
ATOM     61  C   UNL A   1      44.148  30.781  28.492  1.00  0.00     0.049 A 
ATOM     62  H   UNL A   1      44.006  28.734  27.995  1.00  0.00     0.167 HD
ATOM     63  C   UNL A   1      46.425  30.199  27.695  1.00  0.00     0.074 A 
ATOM     64  C   UNL A   1      47.795  30.529  27.366  1.00  0.00     0.031 C 
ATOM     65  C   UNL A   1      45.524  31.083  28.190  1.00  0.00     0.037 A 
BRANCH  52  66
ATOM     66  C   UNL A   1      39.884  28.731  29.103  1.00  0.00     0.064 A 
ATOM     67  C   UNL A   1      38.911  29.141  28.178  1.00  0.00     0.173 A 
ATOM     68  C   UNL A   1      39.478  28.515  30.428  1.00  0.00     0.173 A 
ATOM     69  F   UNL A   1      39.247  29.371  26.900  1.00  0.00    -0.203 F 
ATOM     70  C   UNL A   1      37.593  29.358  28.572  1.00  0.00     0.198 A 
ATOM     71  C   UNL A   1      38.152  28.699  30.812  1.00  0.00     0.198 A 
ATOM     72  F   UNL A   1      40.365  28.117  31.352  1.00  0.00    -0.203 F 
ATOM     73  F   UNL A   1      36.695  29.803  27.684  1.00  0.00    -0.200 F 
ATOM     74  C   UNL A   1      37.213  29.128  29.887  1.00  0.00     0.200 A 
ATOM     75  F   UNL A   1      37.783  28.461  32.077  1.00  0.00    -0.200 F 
ATOM     76  F   UNL A   1      35.943  29.329  30.262  1.00  0.00    -0.200 F 
ENDBRANCH  52  66
BRANCH  53  77
ATOM     77  C   UNL A   1      49.202  26.771  26.048  1.00  0.00     0.064 A 
ATOM     78  C   UNL A   1      49.546  26.984  24.705  1.00  0.00     0.173 A 
ATOM     79  C   UNL A   1      50.199  26.285  26.906  1.00  0.00     0.173 A 
ATOM     80  F   UNL A   1      48.621  27.429  23.842  1.00  0.00    -0.203 F 
ATOM     81  C   UNL A   1      50.826  26.699  24.234  1.00  0.00     0.198 A 
ATOM     82  C   UNL A   1      51.488  26.029  26.440  1.00  0.00     0.198 A 
ATOM     83  F   UNL A   1      49.926  26.066  28.201  1.00  0.00    -0.203 F 
ATOM     84  F   UNL A   1      51.111  26.863  22.936  1.00  0.00    -0.200 F 
ATOM     85  C   UNL A   1      51.797  26.227  25.103  1.00  0.00     0.200 A 
ATOM     86  F   UNL A   1      52.429  25.587  27.287  1.00  0.00    -0.200 F 
ATOM     87  F   UNL A   1      53.028  25.954  24.650  1.00  0.00    -0.200 F 
ENDBRANCH  53  77
BRANCH  65  88
ATOM     88  C   UNL A   1      45.999  32.476  28.482  1.00  0.00     0.064 A 
ATOM     89  C   UNL A   1      45.898  33.509  27.539  1.00  0.00     0.173 A 
ATOM     90  C   UNL A   1      46.487  32.797  29.759  1.00  0.00     0.173 A 
ATOM     91  F   UNL A   1      45.452  33.251  26.300  1.00  0.00    -0.203 F 
ATOM     92  C   UNL A   1      46.279  34.809  27.860  1.00  0.00     0.198 A 
ATOM     93  C   UNL A   1      46.836  34.104  30.086  1.00  0.00     0.198 A 
ATOM     94  F   UNL A   1      46.596  31.847  30.700  1.00  0.00    -0.203 F 
ATOM     95  F   UNL A   1      46.207  35.774  26.934  1.00  0.00    -0.200 F 
ATOM     96  C   UNL A   1      46.736  35.107  29.135  1.00  0.00     0.200 A 
ATOM     97  F   UNL A   1      47.260  34.392  31.324  1.00  0.00    -0.200 F 
ATOM     98  F   UNL A   1      47.082  36.364  29.449  1.00  0.00    -0.200 F 
ENDBRANCH  65  88
ENDBRANCH  39  40
ENDBRANCH  31  34
ENDBRANCH  29  30
ENDBRANCH  28  29
ENDBRANCH  27  28
ENDBRANCH  26  27
ENDBRANCH   1  26
TORSDOF 20
ENDMDL
MODEL 2
REMARK VINA RESULT:     -10.6      0.674      7.204
REMARK SMILES CCC[C@@H](CNC(=O)N1C[C@@H](C)[C@H](C(=O)OC)C1)C(=O)NCCCCCCNC(=O)c1ccc(-c2c3nc(c(-c4c(F)c(F)c(F)c(F)c4F)c4ccc([nH]4)c(-c4c(F)c(F)c(F)c(F)c4F)c4nc(c(-c5c(F)c(F)c(F)c(F)c5F)c5ccc2[nH]5)C=C4)C=C3)cc1
REMARK SMILES IDX 23 1 22 2 21 3 19 4 20 5 4 7 3 8 2 9 1 10 5 11 6 12 7 13
REMARK SMILES IDX 8 15 9 16 10 17 18 18 11 19 13 20 12 21 14 22 15 23 16 24
REMARK SMILES IDX 17 25 24 26 25 27 26 28 27 29 28 30 29 31 30 33 31 34 32 35
REMARK SMILES IDX 93 36 33 37 92 38 34 39 35 40 36 41 86 42 37 43 91 44 85 45
REMARK SMILES IDX 87 46 38 47 90 48 84 49 83 50 39 52 71 53 51 54 70 55 52 56
REMARK SMILES IDX 55 57 69 58 88 59 53 60 54 61 68 63 89 64 56 65 40 66 41 67
REMARK SMILES IDX 49 68 42 69 43 70 47 71 50 72 44 73 45 74 48 75 46 76 72 77
REMARK SMILES IDX 73 78 81 79 74 80 75 81 79 82 82 83 76 84 77 85 80 86 78 87
REMARK SMILES IDX 57 88 58 89 66 90 59 91 60 92 64 93 67 94 61 95 62 96 65 97
REMARK SMILES IDX 63 98
REMARK H PARENT 21 6 6 14 28 32 87 51 55 62
REMARK Flexibility Score: inf
ROOT
ATOM      1  C   UNL A   1      38.059  23.568  26.151  1.00  0.00     0.021 C 
ENDROOT
BRANCH   1   2
ATOM      2  C   UNL A   1      36.660  23.538  25.552  1.00  0.00     0.116 C 
BRANCH   2   3
ATOM      3  N   UNL A   1      35.659  23.246  26.553  1.00  0.00    -0.356 N 
ATOM      4  C   UNL A   1      34.509  22.535  26.486  1.00  0.00     0.224 C 
ATOM      5  O   UNL A   1      33.878  22.381  27.539  1.00  0.00    -0.275 OA
ATOM      6  H   UNL A   1      35.848  23.631  27.439  1.00  0.00     0.163 HD
BRANCH   4   7
ATOM      7  C   UNL A   1      33.958  21.956  25.190  1.00  0.00     0.097 C 
BRANCH   7   8
ATOM      8  C   UNL A   1      34.164  20.440  25.063  1.00  0.00     0.015 C 
BRANCH   8   9
ATOM      9  C   UNL A   1      33.090  19.698  24.264  1.00  0.00    -0.003 C 
ATOM     10  C   UNL A   1      32.568  18.439  24.941  1.00  0.00     0.004 C 
ENDBRANCH   8   9
ENDBRANCH   7   8
BRANCH   7  11
ATOM     11  C   UNL A   1      32.603  22.546  24.771  1.00  0.00     0.131 C 
BRANCH  11  12
ATOM     12  N   UNL A   1      31.509  22.488  25.728  1.00  0.00    -0.337 N 
ATOM     13  C   UNL A   1      30.884  23.519  26.366  1.00  0.00     0.317 C 
ATOM     14  H   UNL A   1      31.176  21.586  25.944  1.00  0.00     0.165 HD
ATOM     15  O   UNL A   1      30.274  23.293  27.408  1.00  0.00    -0.249 OA
BRANCH  13  16
ATOM     16  N   UNL A   1      31.058  24.771  25.870  1.00  0.00    -0.324 N 
ATOM     17  C   UNL A   1      30.108  25.496  25.059  1.00  0.00     0.125 C 
ATOM     18  C   UNL A   1      32.007  25.711  26.427  1.00  0.00     0.137 C 
ATOM     19  C   UNL A   1      30.987  26.514  24.343  1.00  0.00     0.021 C 
ATOM     20  C   UNL A   1      32.161  26.769  25.327  1.00  0.00     0.123 C 
ATOM     21  C   UNL A   1      30.221  27.775  23.978  1.00  0.00     0.010 C 
BRANCH  20  22
ATOM     22  C   UNL A   1      33.482  26.714  24.582  1.00  0.00     0.310 C 
ATOM     23  O   UNL A   1      34.222  25.737  24.637  1.00  0.00    -0.252 OA
BRANCH  22  24
ATOM     24  O   UNL A   1      33.765  27.853  23.902  1.00  0.00    -0.469 OA
ATOM     25  C   UNL A   1      33.827  27.694  22.481  1.00  0.00     0.282 C 
ENDBRANCH  22  24
ENDBRANCH  20  22
ENDBRANCH  13  16
ENDBRANCH  11  12
ENDBRANCH   7  11
ENDBRANCH   4   7
ENDBRANCH   2   3
ENDBRANCH   1   2
BRANCH   1  26
ATOM     26  C   UNL A   1      38.794  22.226  26.047  1.00  0.00     0.002 C 
BRANCH  26  27
ATOM     27  C   UNL A   1      38.172  21.207  25.084  1.00  0.00     0.002 C 
BRANCH  27  28
ATOM     28  C   UNL A   1      38.796  19.810  25.116  1.00  0.00     0.021 C 
BRANCH  28  29
ATOM     29  C   UNL A   1      39.599  19.507  26.374  1.00  0.00     0.116 C 
BRANCH  29  30
ATOM     30  N   UNL A   1      40.848  18.825  26.084  1.00  0.00    -0.352 N 
ATOM     31  C   UNL A   1      42.102  19.361  25.920  1.00  0.00     0.251 C 
ATOM     32  H   UNL A   1      40.788  17.847  25.991  1.00  0.00     0.163 HD
ATOM     33  O   UNL A   1      43.030  18.676  25.517  1.00  0.00    -0.269 OA
BRANCH  31  34
ATOM     34  C   UNL A   1      42.313  20.793  26.221  1.00  0.00     0.039 A 
ATOM     35  C   UNL A   1      42.471  21.191  27.550  1.00  0.00     0.014 A 
ATOM     36  C   UNL A   1      42.371  21.732  25.187  1.00  0.00     0.014 A 
ATOM     37  C   UNL A   1      42.741  22.529  27.841  1.00  0.00     0.010 A 
ATOM     38  C   UNL A   1      42.717  23.047  25.472  1.00  0.00     0.010 A 
ATOM     39  C   UNL A   1      42.894  23.461  26.802  1.00  0.00    -0.014 A 
BRANCH  39  40
ATOM     40  C   UNL A   1      43.204  24.887  27.071  1.00  0.00     0.031 A 
ATOM     41  C   UNL A   1      44.594  25.399  26.815  1.00  0.00     0.074 A 
ATOM     42  C   UNL A   1      42.274  25.690  27.620  1.00  0.00     0.049 A 
ATOM     43  N   UNL A   1      45.120  26.560  27.114  1.00  0.00    -0.248 NA
ATOM     44  C   UNL A   1      45.529  24.468  26.163  1.00  0.00     0.031 C 
ATOM     45  C   UNL A   1      40.900  25.301  27.939  1.00  0.00     0.029 A 
ATOM     46  N   UNL A   1      42.352  26.999  28.028  1.00  0.00    -0.354 N 
ATOM     47  C   UNL A   1      46.447  26.486  26.712  1.00  0.00     0.074 A 
ATOM     48  C   UNL A   1      46.661  25.153  26.196  1.00  0.00     0.031 C 
ATOM     49  C   UNL A   1      40.261  26.349  28.483  1.00  0.00     0.029 A 
ATOM     50  C   UNL A   1      41.192  27.468  28.596  1.00  0.00     0.049 A 
ATOM     51  H   UNL A   1      43.162  27.549  27.923  1.00  0.00     0.167 HD
ATOM     52  C   UNL A   1      47.394  27.452  26.750  1.00  0.00     0.037 A 
ATOM     53  C   UNL A   1      40.920  28.660  29.162  1.00  0.00     0.037 A 
ATOM     54  C   UNL A   1      47.164  28.786  27.240  1.00  0.00     0.049 A 
ATOM     55  C   UNL A   1      41.997  29.711  29.213  1.00  0.00     0.074 A 
ATOM     56  C   UNL A   1      48.042  29.854  27.276  1.00  0.00     0.029 A 
ATOM     57  N   UNL A   1      45.967  29.231  27.782  1.00  0.00    -0.354 N 
ATOM     58  N   UNL A   1      43.235  29.650  28.783  1.00  0.00    -0.248 NA
ATOM     59  C   UNL A   1      41.641  31.000  29.824  1.00  0.00     0.031 C 
ATOM     60  C   UNL A   1      47.394  30.930  27.889  1.00  0.00     0.029 A 
ATOM     61  C   UNL A   1      46.091  30.553  28.173  1.00  0.00     0.049 A 
ATOM     62  H   UNL A   1      45.151  28.688  27.874  1.00  0.00     0.167 HD
ATOM     63  C   UNL A   1      43.788  30.900  29.029  1.00  0.00     0.074 A 
ATOM     64  C   UNL A   1      42.754  31.700  29.649  1.00  0.00     0.031 C 
ATOM     65  C   UNL A   1      45.040  31.345  28.760  1.00  0.00     0.037 A 
BRANCH  52  66
ATOM     66  C   UNL A   1      48.768  27.102  26.255  1.00  0.00     0.064 A 
ATOM     67  C   UNL A   1      49.113  27.206  24.898  1.00  0.00     0.173 A 
ATOM     68  C   UNL A   1      49.763  26.688  27.153  1.00  0.00     0.173 A 
ATOM     69  F   UNL A   1      48.197  27.588  23.995  1.00  0.00    -0.203 F 
ATOM     70  C   UNL A   1      50.392  26.879  24.456  1.00  0.00     0.198 A 
ATOM     71  C   UNL A   1      51.051  26.395  26.712  1.00  0.00     0.198 A 
ATOM     72  F   UNL A   1      49.490  26.577  28.462  1.00  0.00    -0.203 F 
ATOM     73  F   UNL A   1      50.681  26.933  23.149  1.00  0.00    -0.200 F 
ATOM     74  C   UNL A   1      51.362  26.481  25.364  1.00  0.00     0.200 A 
ATOM     75  F   UNL A   1      51.991  26.028  27.593  1.00  0.00    -0.200 F 
ATOM     76  F   UNL A   1      52.595  26.175  24.938  1.00  0.00    -0.200 F 
ENDBRANCH  52  66
BRANCH  53  77
ATOM     77  C   UNL A   1      39.566  28.930  29.714  1.00  0.00     0.064 A 
ATOM     78  C   UNL A   1      38.552  29.467  28.908  1.00  0.00     0.173 A 
ATOM     79  C   UNL A   1      39.258  28.668  31.058  1.00  0.00     0.173 A 
ATOM     80  F   UNL A   1      38.804  29.754  27.622  1.00  0.00    -0.203 F 
ATOM     81  C   UNL A   1      37.292  29.755  29.428  1.00  0.00     0.198 A 
ATOM     82  C   UNL A   1      37.988  28.927  31.569  1.00  0.00     0.198 A 
ATOM     83  F   UNL A   1      40.189  28.150  31.873  1.00  0.00    -0.203 F 
ATOM     84  F   UNL A   1      36.361  30.316  28.647  1.00  0.00    -0.200 F 
ATOM     85  C   UNL A   1      37.009  29.479  30.756  1.00  0.00     0.200 A 
ATOM     86  F   UNL A   1      37.713  28.646  32.851  1.00  0.00    -0.200 F 
ATOM     87  F   UNL A   1      35.797  29.755  31.256  1.00  0.00    -0.200 F 
ENDBRANCH  53  77
BRANCH  65  88
ATOM     88  C   UNL A   1      45.352  32.781  29.062  1.00  0.00     0.064 A 
ATOM     89  C   UNL A   1      46.004  33.169  30.242  1.00  0.00     0.173 A 
ATOM     90  C   UNL A   1      45.065  33.776  28.112  1.00  0.00     0.173 A 
ATOM     91  F   UNL A   1      46.287  32.260  31.187  1.00  0.00    -0.203 F 
ATOM     92  C   UNL A   1      46.346  34.500  30.464  1.00  0.00     0.198 A 
ATOM     93  C   UNL A   1      45.437  35.099  28.324  1.00  0.00     0.198 A 
ATOM     94  F   UNL A   1      44.449  33.455  26.964  1.00  0.00    -0.203 F 
ATOM     95  F   UNL A   1      46.938  34.855  31.612  1.00  0.00    -0.200 F 
ATOM     96  C   UNL A   1      46.074  35.461  29.502  1.00  0.00     0.200 A 
ATOM     97  F   UNL A   1      45.189  36.022  27.385  1.00  0.00    -0.200 F 
ATOM     98  F   UNL A   1      46.424  36.738  29.708  1.00  0.00    -0.200 F 
ENDBRANCH  65  88
ENDBRANCH  39  40
ENDBRANCH  31  34
ENDBRANCH  29  30
ENDBRANCH  28  29
ENDBRANCH  27  28
ENDBRANCH  26  27
ENDBRANCH   1  26
TORSDOF 20
ENDMDL
MODEL 3
REMARK VINA RESULT:     -10.6      1.659      7.623
REMARK SMILES CCC[C@@H](CNC(=O)N1C[C@@H](C)[C@H](C(=O)OC)C1)C(=O)NCCCCCCNC(=O)c1ccc(-c2c3nc(c(-c4c(F)c(F)c(F)c(F)c4F)c4ccc([nH]4)c(-c4c(F)c(F)c(F)c(F)c4F)c4nc(c(-c5c(F)c(F)c(F)c(F)c5F)c5ccc2[nH]5)C=C4)C=C3)cc1
REMARK SMILES IDX 23 1 22 2 21 3 19 4 20 5 4 7 3 8 2 9 1 10 5 11 6 12 7 13
REMARK SMILES IDX 8 15 9 16 10 17 18 18 11 19 13 20 12 21 14 22 15 23 16 24
REMARK SMILES IDX 17 25 24 26 25 27 26 28 27 29 28 30 29 31 30 33 31 34 32 35
REMARK SMILES IDX 93 36 33 37 92 38 34 39 35 40 36 41 86 42 37 43 91 44 85 45
REMARK SMILES IDX 87 46 38 47 90 48 84 49 83 50 39 52 71 53 51 54 70 55 52 56
REMARK SMILES IDX 55 57 69 58 88 59 53 60 54 61 68 63 89 64 56 65 40 66 41 67
REMARK SMILES IDX 49 68 42 69 43 70 47 71 50 72 44 73 45 74 48 75 46 76 72 77
REMARK SMILES IDX 73 78 81 79 74 80 75 81 79 82 82 83 76 84 77 85 80 86 78 87
REMARK SMILES IDX 57 88 58 89 66 90 59 91 60 92 64 93 67 94 61 95 62 96 65 97
REMARK SMILES IDX 63 98
REMARK H PARENT 21 6 6 14 28 32 87 51 55 62
REMARK Flexibility Score: inf
ROOT
ATOM      1  C   UNL A   1      39.742  21.813  26.734  1.00  0.00     0.021 C 
ENDROOT
BRANCH   1   2
ATOM      2  C   UNL A   1      38.931  22.973  26.173  1.00  0.00     0.116 C 
BRANCH   2   3
ATOM      3  N   UNL A   1      38.087  22.552  25.079  1.00  0.00    -0.356 N 
ATOM      4  C   UNL A   1      36.743  22.599  24.917  1.00  0.00     0.224 C 
ATOM      5  O   UNL A   1      36.293  22.234  23.825  1.00  0.00    -0.275 OA
ATOM      6  H   UNL A   1      38.574  22.163  24.317  1.00  0.00     0.163 HD
BRANCH   4   7
ATOM      7  C   UNL A   1      35.784  23.046  26.012  1.00  0.00     0.097 C 
BRANCH   7   8
ATOM      8  C   UNL A   1      35.157  24.422  25.750  1.00  0.00     0.015 C 
BRANCH   8   9
ATOM      9  C   UNL A   1      34.758  24.693  24.297  1.00  0.00    -0.003 C 
ATOM     10  C   UNL A   1      34.028  26.011  24.087  1.00  0.00     0.004 C 
ENDBRANCH   8   9
ENDBRANCH   7   8
BRANCH   7  11
ATOM     11  C   UNL A   1      34.882  21.922  26.546  1.00  0.00     0.131 C 
BRANCH  11  12
ATOM     12  N   UNL A   1      34.637  20.777  25.683  1.00  0.00    -0.337 N 
ATOM     13  C   UNL A   1      33.495  20.447  25.014  1.00  0.00     0.317 C 
ATOM     14  H   UNL A   1      35.396  20.159  25.567  1.00  0.00     0.165 HD
ATOM     15  O   UNL A   1      33.325  19.281  24.665  1.00  0.00    -0.249 OA
BRANCH  13  16
ATOM     16  N   UNL A   1      32.548  21.408  24.862  1.00  0.00    -0.324 N 
ATOM     17  C   UNL A   1      32.269  22.130  23.643  1.00  0.00     0.125 C 
ATOM     18  C   UNL A   1      31.415  21.543  25.752  1.00  0.00     0.137 C 
ATOM     19  C   UNL A   1      31.590  23.395  24.151  1.00  0.00     0.021 C 
ATOM     20  C   UNL A   1      30.894  22.957  25.468  1.00  0.00     0.123 C 
ATOM     21  C   UNL A   1      30.629  23.980  23.127  1.00  0.00     0.010 C 
BRANCH  20  22
ATOM     22  C   UNL A   1      31.180  23.965  26.565  1.00  0.00     0.310 C 
ATOM     23  O   UNL A   1      31.799  23.666  27.582  1.00  0.00    -0.252 OA
BRANCH  22  24
ATOM     24  O   UNL A   1      30.652  25.191  26.323  1.00  0.00    -0.469 OA
ATOM     25  C   UNL A   1      31.547  26.280  26.570  1.00  0.00     0.282 C 
ENDBRANCH  22  24
ENDBRANCH  20  22
ENDBRANCH  13  16
ENDBRANCH  11  12
ENDBRANCH   7  11
ENDBRANCH   4   7
ENDBRANCH   2   3
ENDBRANCH   1   2
BRANCH   1  26
ATOM     26  C   UNL A   1      41.257  22.034  26.652  1.00  0.00     0.002 C 
BRANCH  26  27
ATOM     27  C   UNL A   1      42.104  21.136  27.566  1.00  0.00     0.002 C 
BRANCH  27  28
ATOM     28  C   UNL A   1      42.279  19.694  27.087  1.00  0.00     0.021 C 
BRANCH  28  29
ATOM     29  C   UNL A   1      42.196  19.517  25.577  1.00  0.00     0.116 C 
BRANCH  29  30
ATOM     30  N   UNL A   1      43.384  18.885  25.027  1.00  0.00    -0.352 N 
ATOM     31  C   UNL A   1      44.567  19.467  24.642  1.00  0.00     0.251 C 
ATOM     32  H   UNL A   1      43.334  17.909  24.916  1.00  0.00     0.163 HD
ATOM     33  O   UNL A   1      45.417  18.826  24.044  1.00  0.00    -0.269 OA
BRANCH  31  34
ATOM     34  C   UNL A   1      44.792  20.897  24.944  1.00  0.00     0.039 A 
ATOM     35  C   UNL A   1      44.336  21.861  24.042  1.00  0.00     0.014 A 
ATOM     36  C   UNL A   1      45.434  21.277  26.126  1.00  0.00     0.014 A 
ATOM     37  C   UNL A   1      44.479  23.215  24.351  1.00  0.00     0.010 A 
ATOM     38  C   UNL A   1      45.505  22.623  26.466  1.00  0.00     0.010 A 
ATOM     39  C   UNL A   1      45.039  23.604  25.578  1.00  0.00    -0.014 A 
BRANCH  39  40
ATOM     40  C   UNL A   1      45.186  25.033  25.950  1.00  0.00     0.031 A 
ATOM     41  C   UNL A   1      46.538  25.684  25.856  1.00  0.00     0.074 A 
ATOM     42  C   UNL A   1      44.137  25.714  26.449  1.00  0.00     0.049 A 
ATOM     43  N   UNL A   1      46.921  26.866  26.264  1.00  0.00    -0.248 NA
ATOM     44  C   UNL A   1      47.612  24.882  25.248  1.00  0.00     0.031 C 
ATOM     45  C   UNL A   1      42.784  25.184  26.615  1.00  0.00     0.029 A 
ATOM     46  N   UNL A   1      44.053  26.997  26.931  1.00  0.00    -0.354 N 
ATOM     47  C   UNL A   1      48.280  26.938  25.987  1.00  0.00     0.074 A 
ATOM     48  C   UNL A   1      48.666  25.663  25.425  1.00  0.00     0.031 C 
ATOM     49  C   UNL A   1      42.002  26.135  27.150  1.00  0.00     0.029 A 
ATOM     50  C   UNL A   1      42.807  27.324  27.410  1.00  0.00     0.049 A 
ATOM     51  H   UNL A   1      44.813  27.623  26.933  1.00  0.00     0.167 HD
ATOM     52  C   UNL A   1      49.124  27.981  26.166  1.00  0.00     0.037 A 
ATOM     53  C   UNL A   1      42.372  28.449  28.010  1.00  0.00     0.037 A 
ATOM     54  C   UNL A   1      48.724  29.255  26.702  1.00  0.00     0.049 A 
ATOM     55  C   UNL A   1      43.335  29.589  28.218  1.00  0.00     0.074 A 
ATOM     56  C   UNL A   1      49.489  30.394  26.877  1.00  0.00     0.029 A 
ATOM     57  N   UNL A   1      47.446  29.557  27.150  1.00  0.00    -0.354 N 
ATOM     58  N   UNL A   1      44.607  29.666  27.906  1.00  0.00    -0.248 NA
ATOM     59  C   UNL A   1      42.804  30.800  28.860  1.00  0.00     0.031 C 
ATOM     60  C   UNL A   1      48.689  31.368  27.482  1.00  0.00     0.029 A 
ATOM     61  C   UNL A   1      47.407  30.859  27.620  1.00  0.00     0.049 A 
ATOM     62  H   UNL A   1      46.681  28.938  27.134  1.00  0.00     0.167 HD
ATOM     63  C   UNL A   1      45.014  30.943  28.269  1.00  0.00     0.074 A 
ATOM     64  C   UNL A   1      43.856  31.607  28.829  1.00  0.00     0.031 C 
ATOM     65  C   UNL A   1      46.237  31.515  28.145  1.00  0.00     0.037 A 
BRANCH  52  66
ATOM     66  C   UNL A   1      50.563  27.787  25.787  1.00  0.00     0.064 A 
ATOM     67  C   UNL A   1      51.003  27.927  24.461  1.00  0.00     0.173 A 
ATOM     68  C   UNL A   1      51.523  27.490  26.766  1.00  0.00     0.173 A 
ATOM     69  F   UNL A   1      50.126  28.200  23.483  1.00  0.00    -0.203 F 
ATOM     70  C   UNL A   1      52.342  27.745  24.126  1.00  0.00     0.198 A 
ATOM     71  C   UNL A   1      52.867  27.344  26.434  1.00  0.00     0.198 A 
ATOM     72  F   UNL A   1      51.159  27.351  28.051  1.00  0.00    -0.203 F 
ATOM     73  F   UNL A   1      52.728  27.828  22.846  1.00  0.00    -0.200 F 
ATOM     74  C   UNL A   1      53.275  27.461  25.114  1.00  0.00     0.200 A 
ATOM     75  F   UNL A   1      53.768  27.086  27.392  1.00  0.00    -0.200 F 
ATOM     76  F   UNL A   1      54.564  27.295  24.791  1.00  0.00    -0.200 F 
ENDBRANCH  52  66
BRANCH  53  77
ATOM     77  C   UNL A   1      40.954  28.562  28.443  1.00  0.00     0.064 A 
ATOM     78  C   UNL A   1      39.961  28.998  27.555  1.00  0.00     0.173 A 
ATOM     79  C   UNL A   1      40.563  28.247  29.753  1.00  0.00     0.173 A 
ATOM     80  F   UNL A   1      40.290  29.331  26.298  1.00  0.00    -0.203 F 
ATOM     81  C   UNL A   1      38.637  29.139  27.965  1.00  0.00     0.198 A 
ATOM     82  C   UNL A   1      39.233  28.359  30.154  1.00  0.00     0.198 A 
ATOM     83  F   UNL A   1      41.471  27.821  30.643  1.00  0.00    -0.203 F 
ATOM     84  F   UNL A   1      37.720  29.609  27.109  1.00  0.00    -0.200 F 
ATOM     85  C   UNL A   1      38.273  28.814  29.262  1.00  0.00     0.200 A 
ATOM     86  F   UNL A   1      38.881  28.029  31.404  1.00  0.00    -0.200 F 
ATOM     87  F   UNL A   1      36.999  28.948  29.656  1.00  0.00    -0.200 F 
ENDBRANCH  53  77
BRANCH  65  88
ATOM     88  C   UNL A   1      46.381  32.952  28.551  1.00  0.00     0.064 A 
ATOM     89  C   UNL A   1      46.820  33.324  29.830  1.00  0.00     0.173 A 
ATOM     90  C   UNL A   1      46.155  33.972  27.611  1.00  0.00     0.173 A 
ATOM     91  F   UNL A   1      47.036  32.389  30.768  1.00  0.00    -0.203 F 
ATOM     92  C   UNL A   1      47.015  34.663  30.157  1.00  0.00     0.198 A 
ATOM     93  C   UNL A   1      46.382  35.306  27.932  1.00  0.00     0.198 A 
ATOM     94  F   UNL A   1      45.743  33.668  26.371  1.00  0.00    -0.203 F 
ATOM     95  F   UNL A   1      47.401  34.999  31.395  1.00  0.00    -0.200 F 
ATOM     96  C   UNL A   1      46.808  35.651  29.206  1.00  0.00     0.200 A 
ATOM     97  F   UNL A   1      46.199  36.257  27.006  1.00  0.00    -0.200 F 
ATOM     98  F   UNL A   1      47.017  36.937  29.516  1.00  0.00    -0.200 F 
ENDBRANCH  65  88
ENDBRANCH  39  40
ENDBRANCH  31  34
ENDBRANCH  29  30
ENDBRANCH  28  29
ENDBRANCH  27  28
ENDBRANCH  26  27
ENDBRANCH   1  26
TORSDOF 20
ENDMDL
