MODEL 1
REMARK VINA RESULT:     -12.5      0.000      0.000
REMARK SMILES C[C@H](Oc1ccc(Cl)cc1Cl)C(=O)NNC(=O)[C@H]1CCCC[C@H]1C(=O)NCCCCCCNC(=O)c1ccc(-c2c3nc(c(-c4c(F)c(F)c(F)c(F)c4F)c4ccc([nH]4)c(-c4c(F)c(F)c(F)c(F)c4F)c4nc(c(-c5c(F)c(F)c(F)c(F)c5F)c5ccc2[nH]5)C=C4)C=C3)cc1
REMARK SMILES IDX 28 1 27 2 26 3 24 4 25 5 23 7 18 8 19 9 20 10 22 11 21 12
REMARK SMILES IDX 16 13 15 14 17 16 14 17 12 18 13 19 2 21 1 22 3 23 4 24 5 25
REMARK SMILES IDX 10 26 6 27 9 28 11 29 7 30 8 31 29 32 30 33 31 34 32 35
REMARK SMILES IDX 33 36 34 37 35 39 36 40 37 41 98 42 38 43 97 44 39 45 40 46
REMARK SMILES IDX 41 47 91 48 42 49 96 50 90 51 92 52 43 53 95 54 89 55 88 56
REMARK SMILES IDX 44 58 76 59 56 60 75 61 57 62 60 63 74 64 93 65 58 66 59 67
REMARK SMILES IDX 73 69 94 70 61 71 45 72 46 73 54 74 47 75 48 76 52 77 55 78
REMARK SMILES IDX 49 79 50 80 53 81 51 82 77 83 78 84 86 85 79 86 80 87 84 88
REMARK SMILES IDX 87 89 81 90 82 91 85 92 83 93 62 94 63 95 71 96 64 97 65 98
REMARK SMILES IDX 69 99 72 100 66 101 67 102 70 103 68 104
REMARK H PARENT 26 6 15 15 14 20 33 38 92 57 60 68
REMARK Flexibility Score: inf
ROOT
ATOM      1  C   UNL A   1      35.103  30.539  28.004  1.00  0.00     0.021 C 
ENDROOT
BRANCH   1   2
ATOM      2  C   UNL A   1      34.668  29.325  27.186  1.00  0.00     0.116 C 
BRANCH   2   3
ATOM      3  N   UNL A   1      33.415  28.727  27.625  1.00  0.00    -0.356 N 
ATOM      4  C   UNL A   1      32.307  28.326  26.953  1.00  0.00     0.223 C 
ATOM      5  O   UNL A   1      31.371  27.844  27.596  1.00  0.00    -0.275 OA
ATOM      6  H   UNL A   1      33.362  28.586  28.599  1.00  0.00     0.163 HD
BRANCH   4   7
ATOM      7  C   UNL A   1      32.174  28.483  25.456  1.00  0.00     0.091 C 
ATOM      8  C   UNL A   1      32.030  27.145  24.685  1.00  0.00     0.092 C 
ATOM      9  C   UNL A   1      31.282  27.363  23.346  1.00  0.00     0.014 C 
ATOM     10  C   UNL A   1      30.020  28.205  23.502  1.00  0.00     0.001 C 
ATOM     11  C   UNL A   1      31.255  29.690  25.143  1.00  0.00     0.014 C 
ATOM     12  C   UNL A   1      30.394  29.620  23.893  1.00  0.00     0.001 C 
BRANCH   8  13
ATOM     13  C   UNL A   1      31.484  25.888  25.399  1.00  0.00     0.242 C 
ATOM     14  N   UNL A   1      32.258  24.973  26.075  1.00  0.00    -0.267 N 
ATOM     15  H   UNL A   1      31.769  24.291  26.590  1.00  0.00     0.191 HD
ATOM     16  O   UNL A   1      30.276  25.618  25.336  1.00  0.00    -0.273 OA
BRANCH  14  17
ATOM     17  N   UNL A   1      33.643  24.892  26.122  1.00  0.00    -0.264 N 
ATOM     18  C   UNL A   1      34.502  24.259  25.245  1.00  0.00     0.279 C 
ATOM     19  O   UNL A   1      35.713  24.451  25.438  1.00  0.00    -0.269 OA
ATOM     20  H   UNL A   1      34.072  25.348  26.882  1.00  0.00     0.191 HD
BRANCH  18  21
ATOM     21  C   UNL A   1      34.087  23.316  24.073  1.00  0.00     0.260 C 
ATOM     22  C   UNL A   1      33.454  24.014  22.875  1.00  0.00     0.064 C 
BRANCH  21  23
ATOM     23  O   UNL A   1      33.289  22.267  24.636  1.00  0.00    -0.479 OA
BRANCH  23  24
ATOM     24  C   UNL A   1      33.379  20.954  24.252  1.00  0.00     0.139 A 
ATOM     25  C   UNL A   1      32.437  20.267  23.486  1.00  0.00     0.049 A 
ATOM     26  C   UNL A   1      34.467  20.221  24.772  1.00  0.00     0.084 A 
ATOM     27  C   UNL A   1      32.525  18.873  23.329  1.00  0.00     0.024 A 
ATOM     28  C   UNL A   1      34.551  18.830  24.626  1.00  0.00     0.045 A 
ATOM     29  Cl  UNL A   1      35.735  21.002  25.661  1.00  0.00    -0.080 Cl
ATOM     30  C   UNL A   1      33.564  18.158  23.919  1.00  0.00     0.042 A 
ATOM     31  Cl  UNL A   1      33.620  16.443  23.790  1.00  0.00    -0.084 Cl
ENDBRANCH  23  24
ENDBRANCH  21  23
ENDBRANCH  18  21
ENDBRANCH  14  17
ENDBRANCH   8  13
ENDBRANCH   4   7
ENDBRANCH   2   3
ENDBRANCH   1   2
BRANCH   1  32
ATOM     32  C   UNL A   1      34.252  31.774  27.769  1.00  0.00     0.002 C 
BRANCH  32  33
ATOM     33  C   UNL A   1      34.400  32.823  28.857  1.00  0.00     0.002 C 
BRANCH  33  34
ATOM     34  C   UNL A   1      33.397  33.961  28.750  1.00  0.00     0.021 C 
BRANCH  34  35
ATOM     35  C   UNL A   1      33.852  35.257  29.408  1.00  0.00     0.116 C 
BRANCH  35  36
ATOM     36  N   UNL A   1      32.830  35.878  30.248  1.00  0.00    -0.352 N 
ATOM     37  C   UNL A   1      32.759  35.870  31.620  1.00  0.00     0.251 C 
ATOM     38  H   UNL A   1      32.110  36.357  29.777  1.00  0.00     0.163 HD
ATOM     39  O   UNL A   1      31.860  36.420  32.244  1.00  0.00    -0.269 OA
BRANCH  37  40
ATOM     40  C   UNL A   1      33.821  35.152  32.328  1.00  0.00     0.039 A 
ATOM     41  C   UNL A   1      33.576  33.857  32.785  1.00  0.00     0.014 A 
ATOM     42  C   UNL A   1      35.102  35.708  32.333  1.00  0.00     0.014 A 
ATOM     43  C   UNL A   1      34.652  33.077  33.203  1.00  0.00     0.010 A 
ATOM     44  C   UNL A   1      36.175  34.901  32.666  1.00  0.00     0.010 A 
ATOM     45  C   UNL A   1      35.958  33.582  33.106  1.00  0.00    -0.014 A 
BRANCH  45  46
ATOM     46  C   UNL A   1      37.136  32.772  33.487  1.00  0.00     0.031 A 
ATOM     47  C   UNL A   1      37.831  33.082  34.779  1.00  0.00     0.074 A 
ATOM     48  C   UNL A   1      37.627  31.855  32.633  1.00  0.00     0.049 A 
ATOM     49  N   UNL A   1      38.969  32.631  35.238  1.00  0.00    -0.248 NA
ATOM     50  C   UNL A   1      37.179  34.073  35.654  1.00  0.00     0.031 C 
ATOM     51  C   UNL A   1      37.055  31.516  31.328  1.00  0.00     0.029 A 
ATOM     52  N   UNL A   1      38.739  31.058  32.724  1.00  0.00    -0.354 N 
ATOM     53  C   UNL A   1      39.182  33.308  36.431  1.00  0.00     0.074 A 
ATOM     54  C   UNL A   1      38.088  34.236  36.601  1.00  0.00     0.031 C 
ATOM     55  C   UNL A   1      37.815  30.575  30.745  1.00  0.00     0.029 A 
ATOM     56  C   UNL A   1      38.949  30.274  31.615  1.00  0.00     0.049 A 
ATOM     57  H   UNL A   1      39.331  31.048  33.510  1.00  0.00     0.167 HD
ATOM     58  C   UNL A   1      40.195  33.149  37.314  1.00  0.00     0.037 A 
ATOM     59  C   UNL A   1      39.954  29.425  31.333  1.00  0.00     0.037 A 
ATOM     60  C   UNL A   1      41.249  32.186  37.149  1.00  0.00     0.049 A 
ATOM     61  C   UNL A   1      41.051  29.244  32.350  1.00  0.00     0.074 A 
ATOM     62  C   UNL A   1      42.281  31.880  38.017  1.00  0.00     0.029 A 
ATOM     63  N   UNL A   1      41.398  31.368  36.039  1.00  0.00    -0.354 N 
ATOM     64  N   UNL A   1      41.212  29.838  33.507  1.00  0.00    -0.248 NA
ATOM     65  C   UNL A   1      42.100  28.268  32.025  1.00  0.00     0.031 C 
ATOM     66  C   UNL A   1      43.080  30.904  37.412  1.00  0.00     0.029 A 
ATOM     67  C   UNL A   1      42.517  30.568  36.191  1.00  0.00     0.049 A 
ATOM     68  H   UNL A   1      40.797  31.357  35.260  1.00  0.00     0.167 HD
ATOM     69  C   UNL A   1      42.363  29.296  34.059  1.00  0.00     0.074 A 
ATOM     70  C   UNL A   1      42.850  28.309  33.117  1.00  0.00     0.031 C 
ATOM     71  C   UNL A   1      42.970  29.588  35.237  1.00  0.00     0.037 A 
BRANCH  58  72
ATOM     72  C   UNL A   1      40.203  34.027  38.530  1.00  0.00     0.064 A 
ATOM     73  C   UNL A   1      40.879  35.257  38.549  1.00  0.00     0.173 A 
ATOM     74  C   UNL A   1      39.501  33.648  39.684  1.00  0.00     0.173 A 
ATOM     75  F   UNL A   1      41.581  35.658  37.479  1.00  0.00    -0.203 F 
ATOM     76  C   UNL A   1      40.875  36.061  39.686  1.00  0.00     0.198 A 
ATOM     77  C   UNL A   1      39.472  34.470  40.808  1.00  0.00     0.198 A 
ATOM     78  F   UNL A   1      38.839  32.481  39.721  1.00  0.00    -0.203 F 
ATOM     79  F   UNL A   1      41.570  37.206  39.697  1.00  0.00    -0.200 F 
ATOM     80  C   UNL A   1      40.164  35.671  40.811  1.00  0.00     0.200 A 
ATOM     81  F   UNL A   1      38.776  34.096  41.891  1.00  0.00    -0.200 F 
ATOM     82  F   UNL A   1      40.151  36.451  41.901  1.00  0.00    -0.200 F 
ENDBRANCH  58  72
BRANCH  59  83
ATOM     83  C   UNL A   1      39.964  28.674  30.050  1.00  0.00     0.064 A 
ATOM     84  C   UNL A   1      39.385  27.400  29.956  1.00  0.00     0.173 A 
ATOM     85  C   UNL A   1      40.553  29.206  28.893  1.00  0.00     0.173 A 
ATOM     86  F   UNL A   1      38.826  26.838  31.038  1.00  0.00    -0.203 F 
ATOM     87  C   UNL A   1      39.418  26.679  28.764  1.00  0.00     0.198 A 
ATOM     88  C   UNL A   1      40.559  28.496  27.695  1.00  0.00     0.198 A 
ATOM     89  F   UNL A   1      41.114  30.424  28.926  1.00  0.00    -0.203 F 
ATOM     90  F   UNL A   1      38.900  25.443  28.717  1.00  0.00    -0.200 F 
ATOM     91  C   UNL A   1      40.000  27.229  27.632  1.00  0.00     0.200 A 
ATOM     92  F   UNL A   1      41.108  29.039  26.599  1.00  0.00    -0.200 F 
ATOM     93  F   UNL A   1      40.028  26.536  26.486  1.00  0.00    -0.200 F 
ENDBRANCH  59  83
BRANCH  71  94
ATOM     94  C   UNL A   1      44.205  28.810  35.580  1.00  0.00     0.064 A 
ATOM     95  C   UNL A   1      44.137  27.607  36.298  1.00  0.00     0.173 A 
ATOM     96  C   UNL A   1      45.463  29.249  35.145  1.00  0.00     0.173 A 
ATOM     97  F   UNL A   1      42.957  27.154  36.747  1.00  0.00    -0.203 F 
ATOM     98  C   UNL A   1      45.290  26.885  36.589  1.00  0.00     0.198 A 
ATOM     99  C   UNL A   1      46.611  28.509  35.411  1.00  0.00     0.198 A 
ATOM    100  F   UNL A   1      45.577  30.390  34.447  1.00  0.00    -0.203 F 
ATOM    101  F   UNL A   1      45.210  25.763  37.317  1.00  0.00    -0.200 F 
ATOM    102  C   UNL A   1      46.524  27.332  36.139  1.00  0.00     0.200 A 
ATOM    103  F   UNL A   1      47.799  28.934  34.963  1.00  0.00    -0.200 F 
ATOM    104  F   UNL A   1      47.633  26.631  36.414  1.00  0.00    -0.200 F 
ENDBRANCH  71  94
ENDBRANCH  45  46
ENDBRANCH  37  40
ENDBRANCH  35  36
ENDBRANCH  34  35
ENDBRANCH  33  34
ENDBRANCH  32  33
ENDBRANCH   1  32
TORSDOF 18
ENDMDL
MODEL 2
REMARK VINA RESULT:     -12.4      6.563     12.265
REMARK SMILES C[C@H](Oc1ccc(Cl)cc1Cl)C(=O)NNC(=O)[C@H]1CCCC[C@H]1C(=O)NCCCCCCNC(=O)c1ccc(-c2c3nc(c(-c4c(F)c(F)c(F)c(F)c4F)c4ccc([nH]4)c(-c4c(F)c(F)c(F)c(F)c4F)c4nc(c(-c5c(F)c(F)c(F)c(F)c5F)c5ccc2[nH]5)C=C4)C=C3)cc1
REMARK SMILES IDX 28 1 27 2 26 3 24 4 25 5 23 7 18 8 19 9 20 10 22 11 21 12
REMARK SMILES IDX 16 13 15 14 17 16 14 17 12 18 13 19 2 21 1 22 3 23 4 24 5 25
REMARK SMILES IDX 10 26 6 27 9 28 11 29 7 30 8 31 29 32 30 33 31 34 32 35
REMARK SMILES IDX 33 36 34 37 35 39 36 40 37 41 98 42 38 43 97 44 39 45 40 46
REMARK SMILES IDX 41 47 91 48 42 49 96 50 90 51 92 52 43 53 95 54 89 55 88 56
REMARK SMILES IDX 44 58 76 59 56 60 75 61 57 62 60 63 74 64 93 65 58 66 59 67
REMARK SMILES IDX 73 69 94 70 61 71 45 72 46 73 54 74 47 75 48 76 52 77 55 78
REMARK SMILES IDX 49 79 50 80 53 81 51 82 77 83 78 84 86 85 79 86 80 87 84 88
REMARK SMILES IDX 87 89 81 90 82 91 85 92 83 93 62 94 63 95 71 96 64 97 65 98
REMARK SMILES IDX 69 99 72 100 66 101 67 102 70 103 68 104
REMARK H PARENT 26 6 15 15 14 20 33 38 92 57 60 68
REMARK Flexibility Score: inf
ROOT
ATOM      1  C   UNL A   1      39.063  23.416  26.578  1.00  0.00     0.021 C 
ENDROOT
BRANCH   1   2
ATOM      2  C   UNL A   1      37.680  23.868  26.116  1.00  0.00     0.116 C 
BRANCH   2   3
ATOM      3  N   UNL A   1      37.409  23.613  24.707  1.00  0.00    -0.356 N 
ATOM      4  C   UNL A   1      36.378  23.004  24.069  1.00  0.00     0.223 C 
ATOM      5  O   UNL A   1      36.412  22.925  22.838  1.00  0.00    -0.275 OA
ATOM      6  H   UNL A   1      38.110  23.946  24.101  1.00  0.00     0.163 HD
BRANCH   4   7
ATOM      7  C   UNL A   1      35.215  22.396  24.819  1.00  0.00     0.091 C 
ATOM      8  C   UNL A   1      33.893  23.199  24.704  1.00  0.00     0.092 C 
ATOM      9  C   UNL A   1      32.670  22.269  24.905  1.00  0.00     0.014 C 
ATOM     10  C   UNL A   1      32.764  20.981  24.095  1.00  0.00     0.001 C 
ATOM     11  C   UNL A   1      35.236  20.857  24.642  1.00  0.00     0.014 C 
ATOM     12  C   UNL A   1      33.903  20.129  24.618  1.00  0.00     0.001 C 
BRANCH   8  13
ATOM     13  C   UNL A   1      33.653  24.139  23.501  1.00  0.00     0.242 C 
ATOM     14  N   UNL A   1      33.774  25.509  23.541  1.00  0.00    -0.267 N 
ATOM     15  H   UNL A   1      33.717  25.973  22.675  1.00  0.00     0.191 HD
ATOM     16  O   UNL A   1      33.269  23.671  22.419  1.00  0.00    -0.273 OA
BRANCH  14  17
ATOM     17  N   UNL A   1      33.965  26.319  24.653  1.00  0.00    -0.264 N 
ATOM     18  C   UNL A   1      33.026  26.801  25.543  1.00  0.00     0.279 C 
ATOM     19  O   UNL A   1      33.475  27.396  26.535  1.00  0.00    -0.269 OA
ATOM     20  H   UNL A   1      34.896  26.585  24.831  1.00  0.00     0.191 HD
BRANCH  18  21
ATOM     21  C   UNL A   1      31.477  26.690  25.393  1.00  0.00     0.260 C 
ATOM     22  C   UNL A   1      30.848  25.477  26.069  1.00  0.00     0.064 C 
BRANCH  21  23
ATOM     23  O   UNL A   1      31.176  26.811  23.998  1.00  0.00    -0.479 OA
BRANCH  23  24
ATOM     24  C   UNL A   1      30.375  27.794  23.476  1.00  0.00     0.139 A 
ATOM     25  C   UNL A   1      28.981  27.806  23.507  1.00  0.00     0.049 A 
ATOM     26  C   UNL A   1      31.027  28.819  22.756  1.00  0.00     0.084 A 
ATOM     27  C   UNL A   1      28.258  28.752  22.761  1.00  0.00     0.024 A 
ATOM     28  C   UNL A   1      30.309  29.757  22.002  1.00  0.00     0.045 A 
ATOM     29  Cl  UNL A   1      32.757  28.940  22.732  1.00  0.00    -0.080 Cl
ATOM     30  C   UNL A   1      28.922  29.705  21.993  1.00  0.00     0.042 A 
ATOM     31  Cl  UNL A   1      28.031  30.808  21.018  1.00  0.00    -0.084 Cl
ENDBRANCH  23  24
ENDBRANCH  21  23
ENDBRANCH  18  21
ENDBRANCH  14  17
ENDBRANCH   8  13
ENDBRANCH   4   7
ENDBRANCH   2   3
ENDBRANCH   1   2
BRANCH   1  32
ATOM     32  C   UNL A   1      39.433  22.015  26.127  1.00  0.00     0.002 C 
BRANCH  32  33
ATOM     33  C   UNL A   1      40.889  21.665  26.382  1.00  0.00     0.002 C 
BRANCH  33  34
ATOM     34  C   UNL A   1      41.217  20.199  26.144  1.00  0.00     0.021 C 
BRANCH  34  35
ATOM     35  C   UNL A   1      42.635  19.805  26.539  1.00  0.00     0.116 C 
BRANCH  35  36
ATOM     36  N   UNL A   1      43.337  19.038  25.512  1.00  0.00    -0.352 N 
ATOM     37  C   UNL A   1      44.325  19.483  24.668  1.00  0.00     0.251 C 
ATOM     38  H   UNL A   1      43.072  18.095  25.415  1.00  0.00     0.163 HD
ATOM     39  O   UNL A   1      44.861  18.765  23.833  1.00  0.00    -0.269 OA
BRANCH  37  40
ATOM     40  C   UNL A   1      44.720  20.887  24.801  1.00  0.00     0.039 A 
ATOM     41  C   UNL A   1      44.147  21.836  23.952  1.00  0.00     0.014 A 
ATOM     42  C   UNL A   1      45.490  21.253  25.906  1.00  0.00     0.014 A 
ATOM     43  C   UNL A   1      44.303  23.186  24.253  1.00  0.00     0.010 A 
ATOM     44  C   UNL A   1      45.568  22.592  26.248  1.00  0.00     0.010 A 
ATOM     45  C   UNL A   1      44.978  23.567  25.423  1.00  0.00    -0.014 A 
BRANCH  45  46
ATOM     46  C   UNL A   1      45.120  24.988  25.812  1.00  0.00     0.031 A 
ATOM     47  C   UNL A   1      46.473  25.627  25.707  1.00  0.00     0.074 A 
ATOM     48  C   UNL A   1      44.078  25.646  26.350  1.00  0.00     0.049 A 
ATOM     49  N   UNL A   1      46.878  26.790  26.144  1.00  0.00    -0.248 NA
ATOM     50  C   UNL A   1      47.529  24.826  25.061  1.00  0.00     0.031 C 
ATOM     51  C   UNL A   1      42.734  25.098  26.545  1.00  0.00     0.029 A 
ATOM     52  N   UNL A   1      43.993  26.918  26.858  1.00  0.00    -0.354 N 
ATOM     53  C   UNL A   1      48.236  26.841  25.860  1.00  0.00     0.074 A 
ATOM     54  C   UNL A   1      48.599  25.578  25.261  1.00  0.00     0.031 C 
ATOM     55  C   UNL A   1      41.957  26.029  27.122  1.00  0.00     0.029 A 
ATOM     56  C   UNL A   1      42.757  27.224  27.375  1.00  0.00     0.049 A 
ATOM     57  H   UNL A   1      44.747  27.551  26.853  1.00  0.00     0.167 HD
ATOM     58  C   UNL A   1      49.095  27.866  26.063  1.00  0.00     0.037 A 
ATOM     59  C   UNL A   1      42.331  28.339  27.997  1.00  0.00     0.037 A 
ATOM     60  C   UNL A   1      48.703  29.134  26.616  1.00  0.00     0.049 A 
ATOM     61  C   UNL A   1      43.302  29.477  28.180  1.00  0.00     0.074 A 
ATOM     62  C   UNL A   1      49.468  30.271  26.793  1.00  0.00     0.029 A 
ATOM     63  N   UNL A   1      47.428  29.429  27.077  1.00  0.00    -0.354 N 
ATOM     64  N   UNL A   1      44.568  29.545  27.849  1.00  0.00    -0.248 NA
ATOM     65  C   UNL A   1      42.782  30.695  28.816  1.00  0.00     0.031 C 
ATOM     66  C   UNL A   1      48.666  31.243  27.400  1.00  0.00     0.029 A 
ATOM     67  C   UNL A   1      47.389  30.727  27.556  1.00  0.00     0.049 A 
ATOM     68  H   UNL A   1      46.664  28.808  27.065  1.00  0.00     0.167 HD
ATOM     69  C   UNL A   1      44.992  30.814  28.213  1.00  0.00     0.074 A 
ATOM     70  C   UNL A   1      43.840  31.491  28.773  1.00  0.00     0.031 C 
ATOM     71  C   UNL A   1      46.223  31.374  28.100  1.00  0.00     0.037 A 
BRANCH  58  72
ATOM     72  C   UNL A   1      50.530  27.659  25.681  1.00  0.00     0.064 A 
ATOM     73  C   UNL A   1      51.500  27.288  26.625  1.00  0.00     0.173 A 
ATOM     74  C   UNL A   1      50.938  27.804  24.347  1.00  0.00     0.173 A 
ATOM     75  F   UNL A   1      51.167  27.154  27.918  1.00  0.00    -0.203 F 
ATOM     76  C   UNL A   1      52.828  27.097  26.253  1.00  0.00     0.198 A 
ATOM     77  C   UNL A   1      52.260  27.581  23.972  1.00  0.00     0.198 A 
ATOM     78  F   UNL A   1      50.052  28.159  23.403  1.00  0.00    -0.203 F 
ATOM     79  F   UNL A   1      53.745  26.793  27.181  1.00  0.00    -0.200 F 
ATOM     80  C   UNL A   1      53.205  27.234  24.926  1.00  0.00     0.200 A 
ATOM     81  F   UNL A   1      52.620  27.705  22.687  1.00  0.00    -0.200 F 
ATOM     82  F   UNL A   1      54.482  27.040  24.567  1.00  0.00    -0.200 F 
ENDBRANCH  58  72
BRANCH  59  83
ATOM     83  C   UNL A   1      40.928  28.442  28.475  1.00  0.00     0.064 A 
ATOM     84  C   UNL A   1      40.574  28.028  29.767  1.00  0.00     0.173 A 
ATOM     85  C   UNL A   1      39.910  28.952  27.654  1.00  0.00     0.173 A 
ATOM     86  F   UNL A   1      41.506  27.516  30.584  1.00  0.00    -0.203 F 
ATOM     87  C   UNL A   1      39.254  28.095  30.210  1.00  0.00     0.198 A 
ATOM     88  C   UNL A   1      38.596  29.045  28.110  1.00  0.00     0.198 A 
ATOM     89  F   UNL A   1      40.195  29.369  26.412  1.00  0.00    -0.203 F 
ATOM     90  F   UNL A   1      38.937  27.645  31.432  1.00  0.00    -0.200 F 
ATOM     91  C   UNL A   1      38.267  28.609  29.383  1.00  0.00     0.200 A 
ATOM     92  F   UNL A   1      37.648  29.558  27.313  1.00  0.00    -0.200 F 
ATOM     93  F   UNL A   1      36.999  28.676  29.812  1.00  0.00    -0.200 F 
ENDBRANCH  59  83
BRANCH  71  94
ATOM     94  C   UNL A   1      46.373  32.792  28.563  1.00  0.00     0.064 A 
ATOM     95  C   UNL A   1      46.761  33.097  29.876  1.00  0.00     0.173 A 
ATOM     96  C   UNL A   1      46.172  33.853  27.669  1.00  0.00     0.173 A 
ATOM     97  F   UNL A   1      46.952  32.115  30.769  1.00  0.00    -0.203 F 
ATOM     98  C   UNL A   1      46.919  34.418  30.283  1.00  0.00     0.198 A 
ATOM     99  C   UNL A   1      46.360  35.172  28.072  1.00  0.00     0.198 A 
ATOM    100  F   UNL A   1      45.808  33.611  26.401  1.00  0.00    -0.203 F 
ATOM    101  F   UNL A   1      47.245  34.691  31.553  1.00  0.00    -0.200 F 
ATOM    102  C   UNL A   1      46.726  35.454  29.379  1.00  0.00     0.200 A 
ATOM    103  F   UNL A   1      46.189  36.170  27.194  1.00  0.00    -0.200 F 
ATOM    104  F   UNL A   1      46.886  36.725  29.772  1.00  0.00    -0.200 F 
ENDBRANCH  71  94
ENDBRANCH  45  46
ENDBRANCH  37  40
ENDBRANCH  35  36
ENDBRANCH  34  35
ENDBRANCH  33  34
ENDBRANCH  32  33
ENDBRANCH   1  32
TORSDOF 18
ENDMDL
MODEL 3
REMARK VINA RESULT:     -12.3      0.681      2.029
REMARK SMILES C[C@H](Oc1ccc(Cl)cc1Cl)C(=O)NNC(=O)[C@H]1CCCC[C@H]1C(=O)NCCCCCCNC(=O)c1ccc(-c2c3nc(c(-c4c(F)c(F)c(F)c(F)c4F)c4ccc([nH]4)c(-c4c(F)c(F)c(F)c(F)c4F)c4nc(c(-c5c(F)c(F)c(F)c(F)c5F)c5ccc2[nH]5)C=C4)C=C3)cc1
REMARK SMILES IDX 28 1 27 2 26 3 24 4 25 5 23 7 18 8 19 9 20 10 22 11 21 12
REMARK SMILES IDX 16 13 15 14 17 16 14 17 12 18 13 19 2 21 1 22 3 23 4 24 5 25
REMARK SMILES IDX 10 26 6 27 9 28 11 29 7 30 8 31 29 32 30 33 31 34 32 35
REMARK SMILES IDX 33 36 34 37 35 39 36 40 37 41 98 42 38 43 97 44 39 45 40 46
REMARK SMILES IDX 41 47 91 48 42 49 96 50 90 51 92 52 43 53 95 54 89 55 88 56
REMARK SMILES IDX 44 58 76 59 56 60 75 61 57 62 60 63 74 64 93 65 58 66 59 67
REMARK SMILES IDX 73 69 94 70 61 71 45 72 46 73 54 74 47 75 48 76 52 77 55 78
REMARK SMILES IDX 49 79 50 80 53 81 51 82 77 83 78 84 86 85 79 86 80 87 84 88
REMARK SMILES IDX 87 89 81 90 82 91 85 92 83 93 62 94 63 95 71 96 64 97 65 98
REMARK SMILES IDX 69 99 72 100 66 101 67 102 70 103 68 104
REMARK H PARENT 26 6 15 15 14 20 33 38 92 57 60 68
REMARK Flexibility Score: inf
ROOT
ATOM      1  C   UNL A   1      33.625  31.177  27.619  1.00  0.00     0.021 C 
ENDROOT
BRANCH   1   2
ATOM      2  C   UNL A   1      33.880  29.707  27.295  1.00  0.00     0.116 C 
BRANCH   2   3
ATOM      3  N   UNL A   1      32.770  28.822  27.623  1.00  0.00    -0.356 N 
ATOM      4  C   UNL A   1      31.885  28.140  26.854  1.00  0.00     0.223 C 
ATOM      5  O   UNL A   1      31.028  27.452  27.414  1.00  0.00    -0.275 OA
ATOM      6  H   UNL A   1      32.638  28.694  28.591  1.00  0.00     0.163 HD
BRANCH   4   7
ATOM      7  C   UNL A   1      31.898  28.225  25.345  1.00  0.00     0.091 C 
ATOM      8  C   UNL A   1      31.793  26.855  24.628  1.00  0.00     0.092 C 
ATOM      9  C   UNL A   1      31.180  27.022  23.215  1.00  0.00     0.014 C 
ATOM     10  C   UNL A   1      29.932  27.899  23.209  1.00  0.00     0.001 C 
ATOM     11  C   UNL A   1      31.045  29.436  24.890  1.00  0.00     0.014 C 
ATOM     12  C   UNL A   1      30.305  29.323  23.568  1.00  0.00     0.001 C 
BRANCH   8  13
ATOM     13  C   UNL A   1      31.148  25.647  25.345  1.00  0.00     0.242 C 
ATOM     14  N   UNL A   1      31.845  24.691  26.049  1.00  0.00    -0.267 N 
ATOM     15  H   UNL A   1      31.301  24.050  26.562  1.00  0.00     0.191 HD
ATOM     16  O   UNL A   1      29.926  25.457  25.259  1.00  0.00    -0.273 OA
BRANCH  14  17
ATOM     17  N   UNL A   1      33.221  24.518  26.126  1.00  0.00    -0.264 N 
ATOM     18  C   UNL A   1      34.069  23.922  25.215  1.00  0.00     0.279 C 
ATOM     19  O   UNL A   1      35.282  24.017  25.460  1.00  0.00    -0.269 OA
ATOM     20  H   UNL A   1      33.649  24.869  26.941  1.00  0.00     0.191 HD
BRANCH  18  21
ATOM     21  C   UNL A   1      33.639  23.127  23.943  1.00  0.00     0.260 C 
ATOM     22  C   UNL A   1      33.427  23.974  22.693  1.00  0.00     0.064 C 
BRANCH  21  23
ATOM     23  O   UNL A   1      32.513  22.320  24.308  1.00  0.00    -0.479 OA
BRANCH  23  24
ATOM     24  C   UNL A   1      32.550  20.951  24.380  1.00  0.00     0.139 A 
ATOM     25  C   UNL A   1      32.905  20.208  25.505  1.00  0.00     0.049 A 
ATOM     26  C   UNL A   1      32.310  20.252  23.177  1.00  0.00     0.084 A 
ATOM     27  C   UNL A   1      33.112  18.821  25.409  1.00  0.00     0.024 A 
ATOM     28  C   UNL A   1      32.526  18.871  23.076  1.00  0.00     0.045 A 
ATOM     29  Cl  UNL A   1      31.778  21.078  21.748  1.00  0.00    -0.080 Cl
ATOM     30  C   UNL A   1      32.948  18.164  24.193  1.00  0.00     0.042 A 
ATOM     31  Cl  UNL A   1      33.282  16.481  24.064  1.00  0.00    -0.084 Cl
ENDBRANCH  23  24
ENDBRANCH  21  23
ENDBRANCH  18  21
ENDBRANCH  14  17
ENDBRANCH   8  13
ENDBRANCH   4   7
ENDBRANCH   2   3
ENDBRANCH   1   2
BRANCH   1  32
ATOM     32  C   UNL A   1      34.830  31.896  28.197  1.00  0.00     0.002 C 
BRANCH  32  33
ATOM     33  C   UNL A   1      34.475  32.878  29.301  1.00  0.00     0.002 C 
BRANCH  33  34
ATOM     34  C   UNL A   1      33.556  34.002  28.847  1.00  0.00     0.021 C 
BRANCH  34  35
ATOM     35  C   UNL A   1      33.887  35.360  29.452  1.00  0.00     0.116 C 
BRANCH  35  36
ATOM     36  N   UNL A   1      32.817  35.907  30.284  1.00  0.00    -0.352 N 
ATOM     37  C   UNL A   1      32.707  35.842  31.651  1.00  0.00     0.251 C 
ATOM     38  H   UNL A   1      32.093  36.376  29.809  1.00  0.00     0.163 HD
ATOM     39  O   UNL A   1      31.769  36.332  32.268  1.00  0.00    -0.269 OA
BRANCH  37  40
ATOM     40  C   UNL A   1      33.775  35.139  32.364  1.00  0.00     0.039 A 
ATOM     41  C   UNL A   1      33.540  33.846  32.835  1.00  0.00     0.014 A 
ATOM     42  C   UNL A   1      35.053  35.703  32.360  1.00  0.00     0.014 A 
ATOM     43  C   UNL A   1      34.622  33.078  33.257  1.00  0.00     0.010 A 
ATOM     44  C   UNL A   1      36.132  34.907  32.699  1.00  0.00     0.010 A 
ATOM     45  C   UNL A   1      35.925  33.591  33.152  1.00  0.00    -0.014 A 
BRANCH  45  46
ATOM     46  C   UNL A   1      37.109  32.792  33.538  1.00  0.00     0.031 A 
ATOM     47  C   UNL A   1      37.795  33.109  34.834  1.00  0.00     0.074 A 
ATOM     48  C   UNL A   1      37.613  31.882  32.686  1.00  0.00     0.049 A 
ATOM     49  N   UNL A   1      38.935  32.669  35.298  1.00  0.00    -0.248 NA
ATOM     50  C   UNL A   1      37.129  34.092  35.706  1.00  0.00     0.031 C 
ATOM     51  C   UNL A   1      37.051  31.537  31.378  1.00  0.00     0.029 A 
ATOM     52  N   UNL A   1      38.734  31.095  32.781  1.00  0.00    -0.354 N 
ATOM     53  C   UNL A   1      39.136  33.348  36.492  1.00  0.00     0.074 A 
ATOM     54  C   UNL A   1      38.032  34.264  36.658  1.00  0.00     0.031 C 
ATOM     55  C   UNL A   1      37.824  30.604  30.798  1.00  0.00     0.029 A 
ATOM     56  C   UNL A   1      38.956  30.315  31.673  1.00  0.00     0.049 A 
ATOM     57  H   UNL A   1      39.322  31.091  33.571  1.00  0.00     0.167 HD
ATOM     58  C   UNL A   1      40.146  33.199  37.380  1.00  0.00     0.037 A 
ATOM     59  C   UNL A   1      39.971  29.475  31.395  1.00  0.00     0.037 A 
ATOM     60  C   UNL A   1      41.211  32.246  37.219  1.00  0.00     0.049 A 
ATOM     61  C   UNL A   1      41.065  29.305  32.417  1.00  0.00     0.074 A 
ATOM     62  C   UNL A   1      42.242  31.950  38.091  1.00  0.00     0.029 A 
ATOM     63  N   UNL A   1      41.373  31.430  36.109  1.00  0.00    -0.354 N 
ATOM     64  N   UNL A   1      41.215  29.900  33.575  1.00  0.00    -0.248 NA
ATOM     65  C   UNL A   1      42.126  28.340  32.097  1.00  0.00     0.031 C 
ATOM     66  C   UNL A   1      43.053  30.983  37.490  1.00  0.00     0.029 A 
ATOM     67  C   UNL A   1      42.500  30.641  36.265  1.00  0.00     0.049 A 
ATOM     68  H   UNL A   1      40.776  31.413  35.327  1.00  0.00     0.167 HD
ATOM     69  C   UNL A   1      42.369  29.370  34.132  1.00  0.00     0.074 A 
ATOM     70  C   UNL A   1      42.870  28.388  33.192  1.00  0.00     0.031 C 
ATOM     71  C   UNL A   1      42.967  29.667  35.313  1.00  0.00     0.037 A 
BRANCH  58  72
ATOM     72  C   UNL A   1      40.140  34.076  38.596  1.00  0.00     0.064 A 
ATOM     73  C   UNL A   1      39.501  33.688  39.784  1.00  0.00     0.173 A 
ATOM     74  C   UNL A   1      40.807  35.310  38.585  1.00  0.00     0.173 A 
ATOM     75  F   UNL A   1      38.832  32.526  39.842  1.00  0.00    -0.203 F 
ATOM     76  C   UNL A   1      39.506  34.513  40.905  1.00  0.00     0.198 A 
ATOM     77  C   UNL A   1      40.838  36.118  39.718  1.00  0.00     0.198 A 
ATOM     78  F   UNL A   1      41.433  35.731  37.475  1.00  0.00    -0.203 F 
ATOM     79  F   UNL A   1      38.846  34.144  42.010  1.00  0.00    -0.200 F 
ATOM     80  C   UNL A   1      40.183  35.723  40.874  1.00  0.00     0.200 A 
ATOM     81  F   UNL A   1      41.501  37.283  39.689  1.00  0.00    -0.200 F 
ATOM     82  F   UNL A   1      40.197  36.513  41.957  1.00  0.00    -0.200 F 
ENDBRANCH  58  72
BRANCH  59  83
ATOM     83  C   UNL A   1      39.995  28.726  30.112  1.00  0.00     0.064 A 
ATOM     84  C   UNL A   1      40.597  29.272  28.970  1.00  0.00     0.173 A 
ATOM     85  C   UNL A   1      39.416  27.453  29.995  1.00  0.00     0.173 A 
ATOM     86  F   UNL A   1      41.148  30.493  29.023  1.00  0.00    -0.203 F 
ATOM     87  C   UNL A   1      40.597  28.586  27.756  1.00  0.00     0.198 A 
ATOM     88  C   UNL A   1      39.442  26.757  28.789  1.00  0.00     0.198 A 
ATOM     89  F   UNL A   1      38.833  26.881  31.059  1.00  0.00    -0.203 F 
ATOM     90  F   UNL A   1      41.137  29.154  26.669  1.00  0.00    -0.200 F 
ATOM     91  C   UNL A   1      40.025  27.327  27.667  1.00  0.00     0.200 A 
ATOM     92  F   UNL A   1      38.902  25.533  28.712  1.00  0.00    -0.200 F 
ATOM     93  F   UNL A   1      40.028  26.667  26.501  1.00  0.00    -0.200 F 
ENDBRANCH  59  83
BRANCH  71  94
ATOM     94  C   UNL A   1      44.208  28.901  35.662  1.00  0.00     0.064 A 
ATOM     95  C   UNL A   1      45.481  29.364  35.302  1.00  0.00     0.173 A 
ATOM     96  C   UNL A   1      44.122  27.715  36.406  1.00  0.00     0.173 A 
ATOM     97  F   UNL A   1      45.612  30.486  34.579  1.00  0.00    -0.203 F 
ATOM     98  C   UNL A   1      46.624  28.653  35.653  1.00  0.00     0.198 A 
ATOM     99  C   UNL A   1      45.268  27.022  36.782  1.00  0.00     0.198 A 
ATOM    100  F   UNL A   1      42.926  27.237  36.781  1.00  0.00    -0.203 F 
ATOM    101  F   UNL A   1      47.829  29.087  35.260  1.00  0.00    -0.200 F 
ATOM    102  C   UNL A   1      46.518  27.487  36.399  1.00  0.00     0.200 A 
ATOM    103  F   UNL A   1      45.164  25.906  37.515  1.00  0.00    -0.200 F 
ATOM    104  F   UNL A   1      47.620  26.808  36.743  1.00  0.00    -0.200 F 
ENDBRANCH  71  94
ENDBRANCH  45  46
ENDBRANCH  37  40
ENDBRANCH  35  36
ENDBRANCH  34  35
ENDBRANCH  33  34
ENDBRANCH  32  33
ENDBRANCH   1  32
TORSDOF 18
ENDMDL
