MODEL 1
REMARK VINA RESULT:     -12.2      0.000      0.000
REMARK SMILES CCCc1cc(S(F)(F)(F)(F)F)cc2c1O[C@@H](C(F)(F)F)C(C(=O)NCCCCCCNC(=O)c1ccc(-c3c4nc(c(-c5c(F)c(F)c(F)c(F)c5F)c5ccc([nH]5)c(-c5c(F)c(F)c(F)c(F)c5F)c5nc(c(-c6c(F)c(F)c(F)c(F)c6F)c6ccc3[nH]6)C=C5)C=C4)cc1)=C2
REMARK SMILES IDX 28 1 27 2 26 3 25 4 23 5 24 6 22 8 4 9 5 10 15 11 6 12 14 13
REMARK SMILES IDX 16 14 13 15 98 16 17 17 3 18 2 19 1 20 7 21 8 22 9 23 10 24
REMARK SMILES IDX 11 25 12 26 18 27 19 28 20 29 21 30 29 31 30 32 31 33 32 34
REMARK SMILES IDX 33 35 34 37 35 38 36 39 97 40 37 41 96 42 38 43 39 44 40 45
REMARK SMILES IDX 90 46 41 47 95 48 89 49 91 50 42 51 94 52 88 53 87 54 43 56
REMARK SMILES IDX 75 57 55 58 74 59 56 60 59 61 73 62 92 63 57 64 58 65 72 67
REMARK SMILES IDX 93 68 60 69 44 70 45 71 53 72 46 73 47 74 51 75 54 76 48 77
REMARK SMILES IDX 49 78 52 79 50 80 76 81 77 82 85 83 78 84 79 85 83 86 86 87
REMARK SMILES IDX 80 88 81 89 84 90 82 91 61 92 62 93 70 94 63 95 64 96 68 97
REMARK SMILES IDX 71 98 65 99 66 100 69 101 67 102
REMARK H PARENT 25 7 32 36 91 55 59 66
REMARK Flexibility Score: inf
ROOT
ATOM      1  C   UNL A   1      31.665  29.482  26.473  1.00  0.00     0.002 C 
ENDROOT
BRANCH   1   2
ATOM      2  C   UNL A   1      31.427  28.322  27.427  1.00  0.00     0.021 C 
BRANCH   2   3
ATOM      3  C   UNL A   1      31.189  27.052  26.630  1.00  0.00     0.116 C 
BRANCH   3   4
ATOM      4  N   UNL A   1      30.436  27.372  25.408  1.00  0.00    -0.352 N 
ATOM      5  C   UNL A   1      30.708  26.639  24.163  1.00  0.00     0.251 C 
ATOM      6  O   UNL A   1      30.058  26.917  23.108  1.00  0.00    -0.270 OA
ATOM      7  H   UNL A   1      29.751  28.079  25.423  1.00  0.00     0.163 HD
BRANCH   5   8
ATOM      8  C   UNL A   1      31.767  25.548  24.140  1.00  0.00     0.067 C 
ATOM      9  C   UNL A   1      34.665  22.595  23.564  1.00  0.00    -0.004 A 
ATOM     10  C   UNL A   1      34.381  21.280  23.878  1.00  0.00     0.032 A 
ATOM     11  C   UNL A   1      33.676  23.538  23.713  1.00  0.00     0.131 A 
ATOM     12  C   UNL A   1      33.138  20.914  24.324  1.00  0.00     0.108 A 
ATOM     13  C   UNL A   1      32.416  23.209  24.178  1.00  0.00     0.019 A 
ATOM     14  O   UNL A   1      33.938  24.819  23.291  1.00  0.00    -0.475 OA
ATOM     15  C   UNL A   1      32.163  21.876  24.480  1.00  0.00     0.036 A 
ATOM     16  C   UNL A   1      31.427  24.271  24.263  1.00  0.00     0.025 C 
ATOM     17  C   UNL A   1      33.239  25.898  23.974  1.00  0.00     0.314 C 
BRANCH   9  18
ATOM     18  C   UNL A   1      36.105  22.954  23.233  1.00  0.00     0.039 C 
BRANCH  18  19
ATOM     19  C   UNL A   1      37.027  22.376  24.294  1.00  0.00     0.001 C 
ATOM     20  C   UNL A   1      37.343  23.445  25.326  1.00  0.00     0.004 C 
ENDBRANCH  18  19
ENDBRANCH   9  18
BRANCH  12  21
ATOM     21  S   UNL A   1      32.780  19.182  24.706  1.00  0.00     0.310 S 
ATOM     22  F   UNL A   1      34.264  18.730  24.381  1.00  0.00    -0.094 F 
ATOM     23  F   UNL A   1      32.450  18.955  23.182  1.00  0.00    -0.094 F 
ATOM     24  F   UNL A   1      32.462  17.693  25.025  1.00  0.00    -0.094 F 
ATOM     25  F   UNL A   1      33.248  19.393  26.199  1.00  0.00    -0.094 F 
ATOM     26  F   UNL A   1      33.212  20.665  24.376  1.00  0.00    -0.094 F 
ENDBRANCH  12  21
BRANCH  17  27
ATOM     27  C   UNL A   1      33.358  27.167  23.146  1.00  0.00     0.429 C 
ATOM     28  F   UNL A   1      34.640  27.411  22.890  1.00  0.00    -0.167 F 
ATOM     29  F   UNL A   1      32.698  27.012  22.001  1.00  0.00    -0.167 F 
ATOM     30  F   UNL A   1      32.838  28.188  23.822  1.00  0.00    -0.167 F 
ENDBRANCH  17  27
ENDBRANCH   5   8
ENDBRANCH   3   4
ENDBRANCH   2   3
ENDBRANCH   1   2
BRANCH   1  31
ATOM     31  C   UNL A   1      32.526  30.532  27.157  1.00  0.00     0.002 C 
BRANCH  31  32
ATOM     32  C   UNL A   1      31.828  31.881  27.092  1.00  0.00     0.021 C 
BRANCH  32  33
ATOM     33  C   UNL A   1      32.867  32.984  26.972  1.00  0.00     0.116 C 
BRANCH  33  34
ATOM     34  N   UNL A   1      32.346  34.218  27.577  1.00  0.00    -0.352 N 
ATOM     35  C   UNL A   1      32.995  34.784  28.767  1.00  0.00     0.251 C 
ATOM     36  H   UNL A   1      31.560  34.664  27.185  1.00  0.00     0.163 HD
ATOM     37  O   UNL A   1      32.543  35.851  29.291  1.00  0.00    -0.269 OA
BRANCH  35  38
ATOM     38  C   UNL A   1      34.207  34.095  29.373  1.00  0.00     0.039 A 
ATOM     39  C   UNL A   1      35.476  34.546  29.050  1.00  0.00     0.014 A 
ATOM     40  C   UNL A   1      34.029  33.074  30.204  1.00  0.00     0.014 A 
ATOM     41  C   UNL A   1      36.513  33.663  29.432  1.00  0.00     0.010 A 
ATOM     42  C   UNL A   1      35.101  32.338  30.647  1.00  0.00     0.010 A 
ATOM     43  C   UNL A   1      36.381  32.691  30.318  1.00  0.00    -0.014 A 
BRANCH  43  44
ATOM     44  C   UNL A   1      37.586  32.003  30.938  1.00  0.00     0.031 A 
ATOM     45  C   UNL A   1      37.950  32.412  32.221  1.00  0.00     0.074 A 
ATOM     46  C   UNL A   1      38.238  31.009  30.229  1.00  0.00     0.049 A 
ATOM     47  N   UNL A   1      38.927  31.921  32.986  1.00  0.00    -0.248 NA
ATOM     48  C   UNL A   1      37.280  33.491  32.964  1.00  0.00     0.031 C 
ATOM     49  C   UNL A   1      37.871  30.584  28.936  1.00  0.00     0.029 A 
ATOM     50  N   UNL A   1      39.328  30.266  30.623  1.00  0.00    -0.354 N 
ATOM     51  C   UNL A   1      38.957  32.557  34.159  1.00  0.00     0.074 A 
ATOM     52  C   UNL A   1      37.902  33.580  34.159  1.00  0.00     0.031 C 
ATOM     53  C   UNL A   1      38.735  29.608  28.552  1.00  0.00     0.029 A 
ATOM     54  C   UNL A   1      39.655  29.405  29.598  1.00  0.00     0.049 A 
ATOM     55  H   UNL A   1      39.794  30.337  31.487  1.00  0.00     0.167 HD
ATOM     56  C   UNL A   1      39.821  32.321  35.230  1.00  0.00     0.037 A 
ATOM     57  C   UNL A   1      40.695  28.489  29.559  1.00  0.00     0.037 A 
ATOM     58  C   UNL A   1      40.834  31.375  35.207  1.00  0.00     0.049 A 
ATOM     59  C   UNL A   1      41.597  28.295  30.607  1.00  0.00     0.074 A 
ATOM     60  C   UNL A   1      41.709  31.120  36.280  1.00  0.00     0.029 A 
ATOM     61  N   UNL A   1      41.176  30.532  34.172  1.00  0.00    -0.354 N 
ATOM     62  N   UNL A   1      41.602  28.902  31.795  1.00  0.00    -0.248 NA
ATOM     63  C   UNL A   1      42.721  27.350  30.564  1.00  0.00     0.031 C 
ATOM     64  C   UNL A   1      42.574  30.143  35.895  1.00  0.00     0.029 A 
ATOM     65  C   UNL A   1      42.253  29.772  34.576  1.00  0.00     0.049 A 
ATOM     66  H   UNL A   1      40.730  30.480  33.297  1.00  0.00     0.167 HD
ATOM     67  C   UNL A   1      42.606  28.439  32.543  1.00  0.00     0.074 A 
ATOM     68  C   UNL A   1      43.345  27.440  31.760  1.00  0.00     0.031 C 
ATOM     69  C   UNL A   1      42.934  28.808  33.849  1.00  0.00     0.037 A 
BRANCH  56  70
ATOM     70  C   UNL A   1      39.642  33.149  36.492  1.00  0.00     0.064 A 
ATOM     71  C   UNL A   1      38.764  32.713  37.471  1.00  0.00     0.173 A 
ATOM     72  C   UNL A   1      40.330  34.275  36.636  1.00  0.00     0.173 A 
ATOM     73  F   UNL A   1      38.251  31.487  37.491  1.00  0.00    -0.203 F 
ATOM     74  C   UNL A   1      38.463  33.693  38.447  1.00  0.00     0.198 A 
ATOM     75  C   UNL A   1      40.078  35.119  37.689  1.00  0.00     0.198 A 
ATOM     76  F   UNL A   1      41.274  34.588  35.752  1.00  0.00    -0.203 F 
ATOM     77  F   UNL A   1      37.383  33.504  39.199  1.00  0.00    -0.200 F 
ATOM     78  C   UNL A   1      39.179  34.781  38.663  1.00  0.00     0.200 A 
ATOM     79  F   UNL A   1      40.717  36.284  37.764  1.00  0.00    -0.200 F 
ATOM     80  F   UNL A   1      39.034  35.507  39.767  1.00  0.00    -0.200 F 
ENDBRANCH  56  70
BRANCH  57  81
ATOM     81  C   UNL A   1      40.863  27.651  28.302  1.00  0.00     0.064 A 
ATOM     82  C   UNL A   1      40.253  26.409  28.229  1.00  0.00     0.173 A 
ATOM     83  C   UNL A   1      41.593  28.120  27.297  1.00  0.00     0.173 A 
ATOM     84  F   UNL A   1      39.321  26.006  29.086  1.00  0.00    -0.203 F 
ATOM     85  C   UNL A   1      40.713  25.607  27.157  1.00  0.00     0.198 A 
ATOM     86  C   UNL A   1      41.891  27.325  26.217  1.00  0.00     0.198 A 
ATOM     87  F   UNL A   1      42.039  29.373  27.337  1.00  0.00    -0.203 F 
ATOM     88  F   UNL A   1      40.467  24.301  27.211  1.00  0.00    -0.200 F 
ATOM     89  C   UNL A   1      41.371  26.065  26.107  1.00  0.00     0.200 A 
ATOM     90  F   UNL A   1      42.697  27.787  25.266  1.00  0.00    -0.200 F 
ATOM     91  F   UNL A   1      41.518  25.341  25.001  1.00  0.00    -0.200 F 
ENDBRANCH  57  81
BRANCH  69  92
ATOM     92  C   UNL A   1      44.107  28.108  34.516  1.00  0.00     0.064 A 
ATOM     93  C   UNL A   1      45.369  28.668  34.408  1.00  0.00     0.173 A 
ATOM     94  C   UNL A   1      43.905  26.989  35.200  1.00  0.00     0.173 A 
ATOM     95  F   UNL A   1      45.581  29.901  33.958  1.00  0.00    -0.203 F 
ATOM     96  C   UNL A   1      46.414  27.807  34.822  1.00  0.00     0.198 A 
ATOM     97  C   UNL A   1      44.967  26.269  35.693  1.00  0.00     0.198 A 
ATOM     98  F   UNL A   1      42.664  26.560  35.411  1.00  0.00    -0.203 F 
ATOM     99  F   UNL A   1      47.651  28.102  34.429  1.00  0.00    -0.200 F 
ATOM    100  C   UNL A   1      46.248  26.732  35.571  1.00  0.00     0.200 A 
ATOM    101  F   UNL A   1      44.746  25.105  36.298  1.00  0.00    -0.200 F 
ATOM    102  F   UNL A   1      47.270  26.134  36.175  1.00  0.00    -0.200 F 
ENDBRANCH  69  92
ENDBRANCH  43  44
ENDBRANCH  35  38
ENDBRANCH  33  34
ENDBRANCH  32  33
ENDBRANCH  31  32
ENDBRANCH   1  31
TORSDOF 17
ENDMDL
MODEL 2
REMARK VINA RESULT:     -12.2      1.551      7.282
REMARK SMILES CCCc1cc(S(F)(F)(F)(F)F)cc2c1O[C@@H](C(F)(F)F)C(C(=O)NCCCCCCNC(=O)c1ccc(-c3c4nc(c(-c5c(F)c(F)c(F)c(F)c5F)c5ccc([nH]5)c(-c5c(F)c(F)c(F)c(F)c5F)c5nc(c(-c6c(F)c(F)c(F)c(F)c6F)c6ccc3[nH]6)C=C5)C=C4)cc1)=C2
REMARK SMILES IDX 28 1 27 2 26 3 25 4 23 5 24 6 22 8 4 9 5 10 15 11 6 12 14 13
REMARK SMILES IDX 16 14 13 15 98 16 17 17 3 18 2 19 1 20 7 21 8 22 9 23 10 24
REMARK SMILES IDX 11 25 12 26 18 27 19 28 20 29 21 30 29 31 30 32 31 33 32 34
REMARK SMILES IDX 33 35 34 37 35 38 36 39 97 40 37 41 96 42 38 43 39 44 40 45
REMARK SMILES IDX 90 46 41 47 95 48 89 49 91 50 42 51 94 52 88 53 87 54 43 56
REMARK SMILES IDX 75 57 55 58 74 59 56 60 59 61 73 62 92 63 57 64 58 65 72 67
REMARK SMILES IDX 93 68 60 69 44 70 45 71 53 72 46 73 47 74 51 75 54 76 48 77
REMARK SMILES IDX 49 78 52 79 50 80 76 81 77 82 85 83 78 84 79 85 83 86 86 87
REMARK SMILES IDX 80 88 81 89 84 90 82 91 61 92 62 93 70 94 63 95 64 96 68 97
REMARK SMILES IDX 71 98 65 99 66 100 69 101 67 102
REMARK H PARENT 25 7 32 36 91 55 59 66
REMARK Flexibility Score: inf
ROOT
ATOM      1  C   UNL A   1      33.241  30.510  27.368  1.00  0.00     0.002 C 
ENDROOT
BRANCH   1   2
ATOM      2  C   UNL A   1      33.902  29.462  26.488  1.00  0.00     0.021 C 
BRANCH   2   3
ATOM      3  C   UNL A   1      32.833  28.633  25.797  1.00  0.00     0.116 C 
BRANCH   3   4
ATOM      4  N   UNL A   1      32.596  29.164  24.447  1.00  0.00    -0.352 N 
ATOM      5  C   UNL A   1      32.599  28.258  23.289  1.00  0.00     0.251 C 
ATOM      6  O   UNL A   1      32.395  28.717  22.122  1.00  0.00    -0.270 OA
ATOM      7  H   UNL A   1      32.437  30.127  24.317  1.00  0.00     0.163 HD
BRANCH   5   8
ATOM      8  C   UNL A   1      32.845  26.771  23.489  1.00  0.00     0.067 C 
ATOM      9  C   UNL A   1      33.284  22.739  24.488  1.00  0.00    -0.004 A 
ATOM     10  C   UNL A   1      34.541  22.223  24.739  1.00  0.00     0.032 A 
ATOM     11  C   UNL A   1      33.162  24.080  24.213  1.00  0.00     0.131 A 
ATOM     12  C   UNL A   1      35.649  23.029  24.724  1.00  0.00     0.108 A 
ATOM     13  C   UNL A   1      34.260  24.919  24.171  1.00  0.00     0.019 A 
ATOM     14  O   UNL A   1      31.898  24.598  24.077  1.00  0.00    -0.475 OA
ATOM     15  C   UNL A   1      35.509  24.369  24.433  1.00  0.00     0.036 A 
ATOM     16  C   UNL A   1      34.024  26.330  23.911  1.00  0.00     0.025 C 
ATOM     17  C   UNL A   1      31.746  25.756  23.208  1.00  0.00     0.314 C 
BRANCH   9  18
ATOM     18  C   UNL A   1      32.126  21.761  24.360  1.00  0.00     0.039 C 
BRANCH  18  19
ATOM     19  C   UNL A   1      32.536  20.412  24.928  1.00  0.00     0.001 C 
ATOM     20  C   UNL A   1      32.528  19.374  23.819  1.00  0.00     0.004 C 
ENDBRANCH  18  19
ENDBRANCH   9  18
BRANCH  12  21
ATOM     21  S   UNL A   1      37.283  22.338  25.081  1.00  0.00     0.310 S 
ATOM     22  F   UNL A   1      36.666  21.039  25.748  1.00  0.00    -0.094 F 
ATOM     23  F   UNL A   1      37.217  23.017  26.501  1.00  0.00    -0.094 F 
ATOM     24  F   UNL A   1      38.691  21.755  25.394  1.00  0.00    -0.094 F 
ATOM     25  F   UNL A   1      37.272  21.551  23.711  1.00  0.00    -0.094 F 
ATOM     26  F   UNL A   1      35.809  22.830  24.793  1.00  0.00    -0.094 F 
ENDBRANCH  12  21
BRANCH  17  27
ATOM     27  C   UNL A   1      30.395  26.401  23.475  1.00  0.00     0.429 C 
ATOM     28  F   UNL A   1      29.455  25.462  23.516  1.00  0.00    -0.167 F 
ATOM     29  F   UNL A   1      30.433  27.043  24.639  1.00  0.00    -0.167 F 
ATOM     30  F   UNL A   1      30.117  27.265  22.502  1.00  0.00    -0.167 F 
ENDBRANCH  17  27
ENDBRANCH   5   8
ENDBRANCH   3   4
ENDBRANCH   2   3
ENDBRANCH   1   2
BRANCH   1  31
ATOM     31  C   UNL A   1      31.780  30.655  26.973  1.00  0.00     0.002 C 
BRANCH  31  32
ATOM     32  C   UNL A   1      31.455  32.125  26.761  1.00  0.00     0.021 C 
BRANCH  32  33
ATOM     33  C   UNL A   1      32.663  32.969  27.133  1.00  0.00     0.116 C 
BRANCH  33  34
ATOM     34  N   UNL A   1      32.213  34.279  27.626  1.00  0.00    -0.352 N 
ATOM     35  C   UNL A   1      32.923  34.930  28.736  1.00  0.00     0.251 C 
ATOM     36  H   UNL A   1      31.435  34.719  27.214  1.00  0.00     0.163 HD
ATOM     37  O   UNL A   1      32.534  36.062  29.163  1.00  0.00    -0.269 OA
BRANCH  35  38
ATOM     38  C   UNL A   1      34.124  34.249  29.374  1.00  0.00     0.039 A 
ATOM     39  C   UNL A   1      35.393  34.518  28.888  1.00  0.00     0.014 A 
ATOM     40  C   UNL A   1      33.936  33.412  30.388  1.00  0.00     0.014 A 
ATOM     41  C   UNL A   1      36.385  33.624  29.354  1.00  0.00     0.010 A 
ATOM     42  C   UNL A   1      34.980  32.670  30.884  1.00  0.00     0.010 A 
ATOM     43  C   UNL A   1      36.252  32.840  30.409  1.00  0.00    -0.014 A 
BRANCH  43  44
ATOM     44  C   UNL A   1      37.447  32.164  31.061  1.00  0.00     0.031 A 
ATOM     45  C   UNL A   1      38.073  31.155  30.329  1.00  0.00     0.074 A 
ATOM     46  C   UNL A   1      37.866  32.586  32.312  1.00  0.00     0.049 A 
ATOM     47  N   UNL A   1      39.164  30.462  30.664  1.00  0.00    -0.248 NA
ATOM     48  C   UNL A   1      37.611  30.681  29.015  1.00  0.00     0.031 C 
ATOM     49  C   UNL A   1      37.244  33.611  33.053  1.00  0.00     0.029 A 
ATOM     50  N   UNL A   1      38.925  32.113  33.053  1.00  0.00    -0.354 N 
ATOM     51  C   UNL A   1      39.473  29.594  29.699  1.00  0.00     0.074 A 
ATOM     52  C   UNL A   1      38.475  29.718  28.628  1.00  0.00     0.031 C 
ATOM     53  C   UNL A   1      37.912  33.745  34.229  1.00  0.00     0.029 A 
ATOM     54  C   UNL A   1      38.963  32.808  34.241  1.00  0.00     0.049 A 
ATOM     55  H   UNL A   1      39.549  31.402  32.780  1.00  0.00     0.167 HD
ATOM     56  C   UNL A   1      40.549  28.706  29.670  1.00  0.00     0.037 A 
ATOM     57  C   UNL A   1      39.854  32.646  35.291  1.00  0.00     0.037 A 
ATOM     58  C   UNL A   1      41.466  28.575  30.701  1.00  0.00     0.049 A 
ATOM     59  C   UNL A   1      40.896  31.716  35.287  1.00  0.00     0.074 A 
ATOM     60  C   UNL A   1      42.561  27.690  30.684  1.00  0.00     0.029 A 
ATOM     61  N   UNL A   1      41.489  29.252  31.901  1.00  0.00    -0.354 N 
ATOM     62  N   UNL A   1      41.229  30.876  34.305  1.00  0.00    -0.248 NA
ATOM     63  C   UNL A   1      41.827  31.514  36.405  1.00  0.00     0.031 C 
ATOM     64  C   UNL A   1      43.230  27.824  31.861  1.00  0.00     0.029 A 
ATOM     65  C   UNL A   1      42.563  28.795  32.632  1.00  0.00     0.049 A 
ATOM     66  H   UNL A   1      40.849  29.943  32.186  1.00  0.00     0.167 HD
ATOM     67  C   UNL A   1      42.295  30.155  34.659  1.00  0.00     0.074 A 
ATOM     68  C   UNL A   1      42.690  30.549  36.018  1.00  0.00     0.031 C 
ATOM     69  C   UNL A   1      42.956  29.187  33.902  1.00  0.00     0.037 A 
BRANCH  56  70
ATOM     70  C   UNL A   1      40.726  27.833  28.438  1.00  0.00     0.064 A 
ATOM     71  C   UNL A   1      41.591  28.241  27.435  1.00  0.00     0.173 A 
ATOM     72  C   UNL A   1      40.049  26.695  28.343  1.00  0.00     0.173 A 
ATOM     73  F   UNL A   1      42.469  29.227  27.591  1.00  0.00    -0.203 F 
ATOM     74  C   UNL A   1      41.454  27.512  26.230  1.00  0.00     0.198 A 
ATOM     75  C   UNL A   1      40.070  25.964  27.180  1.00  0.00     0.198 A 
ATOM     76  F   UNL A   1      39.346  26.258  29.384  1.00  0.00    -0.203 F 
ATOM     77  F   UNL A   1      41.963  28.047  25.124  1.00  0.00    -0.200 F 
ATOM     78  C   UNL A   1      40.856  26.339  26.127  1.00  0.00     0.200 A 
ATOM     79  F   UNL A   1      39.314  24.874  27.078  1.00  0.00    -0.200 F 
ATOM     80  F   UNL A   1      41.010  25.566  25.056  1.00  0.00    -0.200 F 
ENDBRANCH  56  70
BRANCH  57  81
ATOM     81  C   UNL A   1      39.686  33.531  36.516  1.00  0.00     0.064 A 
ATOM     82  C   UNL A   1      38.918  33.081  37.577  1.00  0.00     0.173 A 
ATOM     83  C   UNL A   1      40.277  34.719  36.548  1.00  0.00     0.173 A 
ATOM     84  F   UNL A   1      38.519  31.819  37.702  1.00  0.00    -0.203 F 
ATOM     85  C   UNL A   1      38.593  34.088  38.517  1.00  0.00     0.198 A 
ATOM     86  C   UNL A   1      40.019  35.601  37.569  1.00  0.00     0.198 A 
ATOM     87  F   UNL A   1      41.128  35.058  35.583  1.00  0.00    -0.203 F 
ATOM     88  F   UNL A   1      37.586  33.853  39.354  1.00  0.00    -0.200 F 
ATOM     89  C   UNL A   1      39.221  35.246  38.620  1.00  0.00     0.200 A 
ATOM     90  F   UNL A   1      40.553  36.819  37.533  1.00  0.00    -0.200 F 
ATOM     91  F   UNL A   1      39.085  36.024  39.691  1.00  0.00    -0.200 F 
ENDBRANCH  57  81
BRANCH  69  92
ATOM     92  C   UNL A   1      44.182  28.522  34.507  1.00  0.00     0.064 A 
ATOM     93  C   UNL A   1      44.024  27.337  35.208  1.00  0.00     0.173 A 
ATOM     94  C   UNL A   1      45.379  29.070  34.343  1.00  0.00     0.173 A 
ATOM     95  F   UNL A   1      42.901  26.624  35.185  1.00  0.00    -0.203 F 
ATOM     96  C   UNL A   1      45.166  26.955  35.952  1.00  0.00     0.198 A 
ATOM     97  C   UNL A   1      46.477  28.562  34.994  1.00  0.00     0.198 A 
ATOM     98  F   UNL A   1      45.517  30.122  33.540  1.00  0.00    -0.203 F 
ATOM     99  F   UNL A   1      45.003  26.057  36.919  1.00  0.00    -0.200 F 
ATOM    100  C   UNL A   1      46.383  27.428  35.752  1.00  0.00     0.200 A 
ATOM    101  F   UNL A   1      47.649  29.181  34.884  1.00  0.00    -0.200 F 
ATOM    102  F   UNL A   1      47.458  26.833  36.260  1.00  0.00    -0.200 F 
ENDBRANCH  69  92
ENDBRANCH  43  44
ENDBRANCH  35  38
ENDBRANCH  33  34
ENDBRANCH  32  33
ENDBRANCH  31  32
ENDBRANCH   1  31
TORSDOF 17
ENDMDL
MODEL 3
REMARK VINA RESULT:     -12.1      4.912     10.221
REMARK SMILES CCCc1cc(S(F)(F)(F)(F)F)cc2c1O[C@@H](C(F)(F)F)C(C(=O)NCCCCCCNC(=O)c1ccc(-c3c4nc(c(-c5c(F)c(F)c(F)c(F)c5F)c5ccc([nH]5)c(-c5c(F)c(F)c(F)c(F)c5F)c5nc(c(-c6c(F)c(F)c(F)c(F)c6F)c6ccc3[nH]6)C=C5)C=C4)cc1)=C2
REMARK SMILES IDX 28 1 27 2 26 3 25 4 23 5 24 6 22 8 4 9 5 10 15 11 6 12 14 13
REMARK SMILES IDX 16 14 13 15 98 16 17 17 3 18 2 19 1 20 7 21 8 22 9 23 10 24
REMARK SMILES IDX 11 25 12 26 18 27 19 28 20 29 21 30 29 31 30 32 31 33 32 34
REMARK SMILES IDX 33 35 34 37 35 38 36 39 97 40 37 41 96 42 38 43 39 44 40 45
REMARK SMILES IDX 90 46 41 47 95 48 89 49 91 50 42 51 94 52 88 53 87 54 43 56
REMARK SMILES IDX 75 57 55 58 74 59 56 60 59 61 73 62 92 63 57 64 58 65 72 67
REMARK SMILES IDX 93 68 60 69 44 70 45 71 53 72 46 73 47 74 51 75 54 76 48 77
REMARK SMILES IDX 49 78 52 79 50 80 76 81 77 82 85 83 78 84 79 85 83 86 86 87
REMARK SMILES IDX 80 88 81 89 84 90 82 91 61 92 62 93 70 94 63 95 64 96 68 97
REMARK SMILES IDX 71 98 65 99 66 100 69 101 67 102
REMARK H PARENT 25 7 32 36 91 55 59 66
REMARK Flexibility Score: inf
ROOT
ATOM      1  C   UNL A   1      38.091  22.894  25.778  1.00  0.00     0.002 C 
ENDROOT
BRANCH   1   2
ATOM      2  C   UNL A   1      37.407  22.064  24.703  1.00  0.00     0.021 C 
BRANCH   2   3
ATOM      3  C   UNL A   1      35.923  22.386  24.682  1.00  0.00     0.116 C 
BRANCH   3   4
ATOM      4  N   UNL A   1      35.197  21.413  25.511  1.00  0.00    -0.352 N 
ATOM      5  C   UNL A   1      33.838  21.716  25.981  1.00  0.00     0.251 C 
ATOM      6  O   UNL A   1      33.211  20.875  26.698  1.00  0.00    -0.270 OA
ATOM      7  H   UNL A   1      35.622  20.558  25.753  1.00  0.00     0.163 HD
BRANCH   5   8
ATOM      8  C   UNL A   1      33.182  23.037  25.609  1.00  0.00     0.067 C 
ATOM      9  C   UNL A   1      31.693  26.669  24.181  1.00  0.00    -0.004 A 
ATOM     10  C   UNL A   1      31.913  27.832  24.893  1.00  0.00     0.032 A 
ATOM     11  C   UNL A   1      32.239  25.496  24.645  1.00  0.00     0.131 A 
ATOM     12  C   UNL A   1      32.664  27.826  26.039  1.00  0.00     0.108 A 
ATOM     13  C   UNL A   1      32.987  25.449  25.807  1.00  0.00     0.019 A 
ATOM     14  O   UNL A   1      32.108  24.372  23.868  1.00  0.00    -0.475 OA
ATOM     15  C   UNL A   1      33.192  26.637  26.498  1.00  0.00     0.036 A 
ATOM     16  C   UNL A   1      33.555  24.168  26.195  1.00  0.00     0.025 C 
ATOM     17  C   UNL A   1      32.083  23.089  24.556  1.00  0.00     0.314 C 
BRANCH   9  18
ATOM     18  C   UNL A   1      30.719  26.721  23.015  1.00  0.00     0.039 C 
BRANCH  18  19
ATOM     19  C   UNL A   1      29.397  27.307  23.484  1.00  0.00     0.001 C 
ATOM     20  C   UNL A   1      29.130  28.608  22.744  1.00  0.00     0.004 C 
ENDBRANCH  18  19
ENDBRANCH   9  18
BRANCH  12  21
ATOM     21  S   UNL A   1      32.960  29.365  26.944  1.00  0.00     0.310 S 
ATOM     22  F   UNL A   1      32.461  30.256  25.731  1.00  0.00    -0.094 F 
ATOM     23  F   UNL A   1      34.398  29.419  26.304  1.00  0.00    -0.094 F 
ATOM     24  F   UNL A   1      33.227  30.684  27.724  1.00  0.00    -0.094 F 
ATOM     25  F   UNL A   1      31.469  29.368  27.465  1.00  0.00    -0.094 F 
ATOM     26  F   UNL A   1      32.637  28.087  26.073  1.00  0.00    -0.094 F 
ENDBRANCH  12  21
BRANCH  17  27
ATOM     27  C   UNL A   1      32.312  21.979  23.544  1.00  0.00     0.429 C 
ATOM     28  F   UNL A   1      31.411  22.074  22.570  1.00  0.00    -0.167 F 
ATOM     29  F   UNL A   1      33.534  22.092  23.031  1.00  0.00    -0.167 F 
ATOM     30  F   UNL A   1      32.192  20.798  24.145  1.00  0.00    -0.167 F 
ENDBRANCH  17  27
ENDBRANCH   5   8
ENDBRANCH   3   4
ENDBRANCH   2   3
ENDBRANCH   1   2
BRANCH   1  31
ATOM     31  C   UNL A   1      39.275  22.122  26.336  1.00  0.00     0.002 C 
BRANCH  31  32
ATOM     32  C   UNL A   1      39.386  20.781  25.629  1.00  0.00     0.021 C 
BRANCH  32  33
ATOM     33  C   UNL A   1      39.930  19.742  26.595  1.00  0.00     0.116 C 
BRANCH  33  34
ATOM     34  N   UNL A   1      40.977  18.953  25.930  1.00  0.00    -0.352 N 
ATOM     35  C   UNL A   1      42.327  19.511  25.768  1.00  0.00     0.251 C 
ATOM     36  H   UNL A   1      40.773  18.052  25.591  1.00  0.00     0.163 HD
ATOM     37  O   UNL A   1      43.232  18.829  25.192  1.00  0.00    -0.269 OA
BRANCH  35  38
ATOM     38  C   UNL A   1      42.642  20.904  26.290  1.00  0.00     0.039 A 
ATOM     39  C   UNL A   1      42.657  21.128  27.657  1.00  0.00     0.014 A 
ATOM     40  C   UNL A   1      42.900  21.880  25.428  1.00  0.00     0.014 A 
ATOM     41  C   UNL A   1      42.672  22.497  28.012  1.00  0.00     0.010 A 
ATOM     42  C   UNL A   1      43.038  23.176  25.861  1.00  0.00     0.010 A 
ATOM     43  C   UNL A   1      43.004  23.481  27.195  1.00  0.00    -0.014 A 
BRANCH  43  44
ATOM     44  C   UNL A   1      43.331  24.873  27.707  1.00  0.00     0.031 A 
ATOM     45  C   UNL A   1      44.684  25.189  27.842  1.00  0.00     0.074 A 
ATOM     46  C   UNL A   1      42.299  25.753  27.987  1.00  0.00     0.049 A 
ATOM     47  N   UNL A   1      45.214  26.356  28.216  1.00  0.00    -0.248 NA
ATOM     48  C   UNL A   1      45.782  24.247  27.578  1.00  0.00     0.031 C 
ATOM     49  C   UNL A   1      40.932  25.443  27.844  1.00  0.00     0.029 A 
ATOM     50  N   UNL A   1      42.393  27.049  28.441  1.00  0.00    -0.354 N 
ATOM     51  C   UNL A   1      46.546  26.280  28.209  1.00  0.00     0.074 A 
ATOM     52  C   UNL A   1      46.930  24.920  27.805  1.00  0.00     0.031 C 
ATOM     53  C   UNL A   1      40.213  26.534  28.218  1.00  0.00     0.029 A 
ATOM     54  C   UNL A   1      41.117  27.543  28.599  1.00  0.00     0.049 A 
ATOM     55  H   UNL A   1      43.228  27.539  28.621  1.00  0.00     0.167 HD
ATOM     56  C   UNL A   1      47.455  27.292  28.521  1.00  0.00     0.037 A 
ATOM     57  C   UNL A   1      40.743  28.798  29.053  1.00  0.00     0.037 A 
ATOM     58  C   UNL A   1      47.082  28.561  28.932  1.00  0.00     0.049 A 
ATOM     59  C   UNL A   1      41.653  29.792  29.422  1.00  0.00     0.074 A 
ATOM     60  C   UNL A   1      47.986  29.595  29.244  1.00  0.00     0.029 A 
ATOM     61  N   UNL A   1      45.805  29.047  29.115  1.00  0.00    -0.354 N 
ATOM     62  N   UNL A   1      42.985  29.729  29.377  1.00  0.00    -0.248 NA
ATOM     63  C   UNL A   1      41.268  31.114  29.933  1.00  0.00     0.031 C 
ATOM     64  C   UNL A   1      47.265  30.686  29.619  1.00  0.00     0.029 A 
ATOM     65  C   UNL A   1      45.900  30.352  29.548  1.00  0.00     0.049 A 
ATOM     66  H   UNL A   1      44.971  28.548  28.963  1.00  0.00     0.167 HD
ATOM     67  C   UNL A   1      43.514  30.882  29.790  1.00  0.00     0.074 A 
ATOM     68  C   UNL A   1      42.418  31.788  30.162  1.00  0.00     0.031 C 
ATOM     69  C   UNL A   1      44.866  31.218  29.870  1.00  0.00     0.037 A 
BRANCH  56  70
ATOM     70  C   UNL A   1      48.939  26.984  28.404  1.00  0.00     0.064 A 
ATOM     71  C   UNL A   1      49.584  27.199  27.197  1.00  0.00     0.173 A 
ATOM     72  C   UNL A   1      49.593  26.515  29.460  1.00  0.00     0.173 A 
ATOM     73  F   UNL A   1      49.045  27.895  26.200  1.00  0.00    -0.203 F 
ATOM     74  C   UNL A   1      50.870  26.611  27.121  1.00  0.00     0.198 A 
ATOM     75  C   UNL A   1      50.892  26.084  29.344  1.00  0.00     0.198 A 
ATOM     76  F   UNL A   1      48.985  26.462  30.641  1.00  0.00    -0.203 F 
ATOM     77  F   UNL A   1      51.405  26.451  25.915  1.00  0.00    -0.200 F 
ATOM     78  C   UNL A   1      51.573  26.211  28.165  1.00  0.00     0.200 A 
ATOM     79  F   UNL A   1      51.498  25.535  30.394  1.00  0.00    -0.200 F 
ATOM     80  F   UNL A   1      52.873  25.946  28.073  1.00  0.00    -0.200 F 
ENDBRANCH  56  70
BRANCH  57  81
ATOM     81  C   UNL A   1      39.259  29.110  29.154  1.00  0.00     0.064 A 
ATOM     82  C   UNL A   1      38.584  29.568  28.034  1.00  0.00     0.173 A 
ATOM     83  C   UNL A   1      38.635  28.941  30.314  1.00  0.00     0.173 A 
ATOM     84  F   UNL A   1      39.093  29.514  26.807  1.00  0.00    -0.203 F 
ATOM     85  C   UNL A   1      37.302  30.099  28.314  1.00  0.00     0.198 A 
ATOM     86  C   UNL A   1      37.337  29.360  30.477  1.00  0.00     0.198 A 
ATOM     87  F   UNL A   1      39.273  28.361  31.326  1.00  0.00    -0.203 F 
ATOM     88  F   UNL A   1      36.738  30.874  27.393  1.00  0.00    -0.200 F 
ATOM     89  C   UNL A   1      36.627  29.877  29.429  1.00  0.00     0.200 A 
ATOM     90  F   UNL A   1      36.762  29.262  31.672  1.00  0.00    -0.200 F 
ATOM     91  F   UNL A   1      35.327  30.142  29.525  1.00  0.00    -0.200 F 
ENDBRANCH  57  81
BRANCH  69  92
ATOM     92  C   UNL A   1      45.229  32.618  30.337  1.00  0.00     0.064 A 
ATOM     93  C   UNL A   1      45.312  33.635  29.401  1.00  0.00     0.173 A 
ATOM     94  C   UNL A   1      45.441  32.850  31.627  1.00  0.00     0.173 A 
ATOM     95  F   UNL A   1      44.868  33.513  28.154  1.00  0.00    -0.203 F 
ATOM     96  C   UNL A   1      45.916  34.818  29.892  1.00  0.00     0.198 A 
ATOM     97  C   UNL A   1      45.902  34.072  32.051  1.00  0.00     0.198 A 
ATOM     98  F   UNL A   1      45.206  31.888  32.516  1.00  0.00    -0.203 F 
ATOM     99  F   UNL A   1      46.364  35.700  29.003  1.00  0.00    -0.200 F 
ATOM    100  C   UNL A   1      46.065  35.107  31.172  1.00  0.00     0.200 A 
ATOM    101  F   UNL A   1      46.192  34.253  33.337  1.00  0.00    -0.200 F 
ATOM    102  F   UNL A   1      46.358  36.337  31.584  1.00  0.00    -0.200 F 
ENDBRANCH  69  92
ENDBRANCH  43  44
ENDBRANCH  35  38
ENDBRANCH  33  34
ENDBRANCH  32  33
ENDBRANCH  31  32
ENDBRANCH   1  31
TORSDOF 17
ENDMDL
