MODEL 1
REMARK VINA RESULT:     -11.9      0.000      0.000
REMARK SMILES CC1=C(C(=O)NCCCCCCNC(=O)c2ccc(-c3c4nc(c(-c5c(F)c(F)c(F)c(F)c5F)c5ccc([nH]5)c(-c5c(F)c(F)c(F)c(F)c5F)c5nc(c(-c6c(F)c(F)c(F)c(F)c6F)c6ccc3[nH]6)C=C5)C=C4)cc2)N2C(=O)[C@@H](NC(=O)c3ccn(C)n3)[C@H]2SC1
REMARK SMILES IDX 9 1 8 2 7 3 6 4 4 5 5 6 3 8 1 9 2 10 94 11 79 12 93 13 80 14
REMARK SMILES IDX 92 15 81 16 82 17 83 18 84 19 85 21 86 22 87 23 91 24 88 25
REMARK SMILES IDX 89 26 90 27 10 28 11 29 12 30 13 31 14 32 15 34 16 35 17 36
REMARK SMILES IDX 78 37 18 38 77 39 19 40 20 41 21 42 71 43 22 44 76 45 70 46
REMARK SMILES IDX 72 47 23 48 75 49 69 50 68 51 24 53 56 54 36 55 55 56 37 57
REMARK SMILES IDX 40 58 54 59 73 60 38 61 39 62 53 64 74 65 41 66 25 67 26 68
REMARK SMILES IDX 34 69 27 70 28 71 32 72 35 73 29 74 30 75 33 76 31 77 57 78
REMARK SMILES IDX 58 79 66 80 59 81 60 82 64 83 67 84 61 85 62 86 65 87 63 88
REMARK SMILES IDX 42 89 43 90 51 91 44 92 45 93 49 94 52 95 46 96 47 97 50 98
REMARK SMILES IDX 48 99
REMARK H PARENT 6 7 83 20 13 33 72 52 40 63
REMARK Flexibility Score: inf
ROOT
ATOM      1  C   UNL A   1      33.879  31.630  27.662  1.00  0.00     0.002 C 
ENDROOT
BRANCH   1   2
ATOM      2  C   UNL A   1      34.910  30.497  27.680  1.00  0.00     0.021 C 
BRANCH   2   3
ATOM      3  C   UNL A   1      34.413  29.117  27.278  1.00  0.00     0.116 C 
BRANCH   3   4
ATOM      4  N   UNL A   1      33.167  28.694  27.875  1.00  0.00    -0.351 N 
ATOM      5  C   UNL A   1      32.035  28.217  27.271  1.00  0.00     0.268 C 
ATOM      6  O   UNL A   1      31.158  27.711  27.972  1.00  0.00    -0.268 OA
ATOM      7  H   UNL A   1      33.127  28.756  28.857  1.00  0.00     0.163 HD
BRANCH   5   8
ATOM      8  C   UNL A   1      31.823  28.340  25.778  1.00  0.00     0.110 C 
ATOM      9  C   UNL A   1      31.253  30.806  25.695  1.00  0.00     0.043 C 
ATOM     10  C   UNL A   1      31.372  29.428  25.102  1.00  0.00    -0.034 C 
ATOM     11  C   UNL A   1      30.988  29.410  23.618  1.00  0.00     0.104 C 
ATOM     12  N   UNL A   1      32.312  27.312  25.033  1.00  0.00    -0.290 N 
ATOM     13  S   UNL A   1      31.292  27.842  22.732  1.00  0.00    -0.129 SA
ATOM     14  C   UNL A   1      32.695  26.027  25.153  1.00  0.00     0.253 C 
ATOM     15  C   UNL A   1      32.790  27.523  23.685  1.00  0.00     0.181 C 
ATOM     16  O   UNL A   1      32.550  25.186  26.011  1.00  0.00    -0.272 OA
ATOM     17  C   UNL A   1      33.395  26.110  23.765  1.00  0.00     0.206 C 
BRANCH  17  18
ATOM     18  N   UNL A   1      33.042  25.139  22.708  1.00  0.00    -0.336 N 
ATOM     19  C   UNL A   1      33.604  23.888  22.516  1.00  0.00     0.272 C 
ATOM     20  H   UNL A   1      32.338  25.409  22.075  1.00  0.00     0.164 HD
ATOM     21  O   UNL A   1      33.349  23.272  21.483  1.00  0.00    -0.267 OA
BRANCH  19  22
ATOM     22  C   UNL A   1      34.498  23.367  23.566  1.00  0.00     0.150 A 
ATOM     23  C   UNL A   1      35.917  23.479  23.633  1.00  0.00     0.056 A 
ATOM     24  N   UNL A   1      34.034  22.648  24.607  1.00  0.00    -0.168 NA
ATOM     25  C   UNL A   1      36.293  22.759  24.740  1.00  0.00     0.109 A 
ATOM     26  N   UNL A   1      35.133  22.328  25.311  1.00  0.00    -0.275 N 
ATOM     27  C   UNL A   1      35.018  21.570  26.535  1.00  0.00     0.173 C 
ENDBRANCH  19  22
ENDBRANCH  17  18
ENDBRANCH   5   8
ENDBRANCH   3   4
ENDBRANCH   2   3
ENDBRANCH   1   2
BRANCH   1  28
ATOM     28  C   UNL A   1      34.285  32.960  28.305  1.00  0.00     0.002 C 
BRANCH  28  29
ATOM     29  C   UNL A   1      33.250  34.088  28.278  1.00  0.00     0.021 C 
BRANCH  29  30
ATOM     30  C   UNL A   1      33.657  35.387  28.963  1.00  0.00     0.116 C 
BRANCH  30  31
ATOM     31  N   UNL A   1      32.795  35.741  30.076  1.00  0.00    -0.352 N 
ATOM     32  C   UNL A   1      32.904  35.426  31.408  1.00  0.00     0.251 C 
ATOM     33  H   UNL A   1      32.012  36.289  29.839  1.00  0.00     0.163 HD
ATOM     34  O   UNL A   1      31.995  35.708  32.182  1.00  0.00    -0.269 OA
BRANCH  32  35
ATOM     35  C   UNL A   1      34.103  34.719  31.913  1.00  0.00     0.039 A 
ATOM     36  C   UNL A   1      34.022  33.342  32.137  1.00  0.00     0.014 A 
ATOM     37  C   UNL A   1      35.294  35.401  32.174  1.00  0.00     0.014 A 
ATOM     38  C   UNL A   1      35.153  32.640  32.561  1.00  0.00     0.010 A 
ATOM     39  C   UNL A   1      36.441  34.688  32.517  1.00  0.00     0.010 A 
ATOM     40  C   UNL A   1      36.382  33.301  32.718  1.00  0.00    -0.014 A 
BRANCH  40  41
ATOM     41  C   UNL A   1      37.614  32.552  33.085  1.00  0.00     0.031 A 
ATOM     42  C   UNL A   1      38.333  32.856  34.370  1.00  0.00     0.074 A 
ATOM     43  C   UNL A   1      38.115  31.636  32.233  1.00  0.00     0.049 A 
ATOM     44  N   UNL A   1      39.449  32.351  34.834  1.00  0.00    -0.248 NA
ATOM     45  C   UNL A   1      37.736  33.884  35.235  1.00  0.00     0.031 C 
ATOM     46  C   UNL A   1      37.532  31.281  30.938  1.00  0.00     0.029 A 
ATOM     47  N   UNL A   1      39.230  30.841  32.324  1.00  0.00    -0.354 N 
ATOM     48  C   UNL A   1      39.687  33.002  36.038  1.00  0.00     0.074 A 
ATOM     49  C   UNL A   1      38.636  33.983  36.200  1.00  0.00     0.031 C 
ATOM     50  C   UNL A   1      38.280  30.322  30.369  1.00  0.00     0.029 A 
ATOM     51  C   UNL A   1      39.419  30.028  31.234  1.00  0.00     0.049 A 
ATOM     52  H   UNL A   1      39.838  30.853  33.098  1.00  0.00     0.167 HD
ATOM     53  C   UNL A   1      40.677  32.783  36.937  1.00  0.00     0.037 A 
ATOM     54  C   UNL A   1      40.404  29.153  30.955  1.00  0.00     0.037 A 
ATOM     55  C   UNL A   1      41.715  31.800  36.773  1.00  0.00     0.049 A 
ATOM     56  C   UNL A   1      41.511  28.953  31.954  1.00  0.00     0.074 A 
ATOM     57  C   UNL A   1      42.735  31.468  37.648  1.00  0.00     0.029 A 
ATOM     58  N   UNL A   1      41.873  30.995  35.653  1.00  0.00    -0.354 N 
ATOM     59  N   UNL A   1      41.688  29.525  33.121  1.00  0.00    -0.248 NA
ATOM     60  C   UNL A   1      42.553  27.980  31.601  1.00  0.00     0.031 C 
ATOM     61  C   UNL A   1      43.547  30.511  37.030  1.00  0.00     0.029 A 
ATOM     62  C   UNL A   1      42.993  30.191  35.801  1.00  0.00     0.049 A 
ATOM     63  H   UNL A   1      41.278  30.994  34.869  1.00  0.00     0.167 HD
ATOM     64  C   UNL A   1      42.839  28.961  33.654  1.00  0.00     0.074 A 
ATOM     65  C   UNL A   1      43.310  27.987  32.689  1.00  0.00     0.031 C 
ATOM     66  C   UNL A   1      43.450  29.223  34.836  1.00  0.00     0.037 A 
BRANCH  53  67
ATOM     67  C   UNL A   1      40.689  33.633  38.177  1.00  0.00     0.064 A 
ATOM     68  C   UNL A   1      39.856  33.355  39.272  1.00  0.00     0.173 A 
ATOM     69  C   UNL A   1      41.568  34.722  38.287  1.00  0.00     0.173 A 
ATOM     70  F   UNL A   1      38.990  32.332  39.220  1.00  0.00    -0.203 F 
ATOM     71  C   UNL A   1      39.874  34.157  40.411  1.00  0.00     0.198 A 
ATOM     72  C   UNL A   1      41.611  35.498  39.443  1.00  0.00     0.198 A 
ATOM     73  F   UNL A   1      42.393  35.030  37.275  1.00  0.00    -0.203 F 
ATOM     74  F   UNL A   1      39.025  33.908  41.418  1.00  0.00    -0.200 F 
ATOM     75  C   UNL A   1      40.757  35.222  40.499  1.00  0.00     0.200 A 
ATOM     76  F   UNL A   1      42.477  36.517  39.531  1.00  0.00    -0.200 F 
ATOM     77  F   UNL A   1      40.778  35.988  41.598  1.00  0.00    -0.200 F 
ENDBRANCH  53  67
BRANCH  54  78
ATOM     78  C   UNL A   1      40.381  28.389  29.678  1.00  0.00     0.064 A 
ATOM     79  C   UNL A   1      39.658  27.194  29.564  1.00  0.00     0.173 A 
ATOM     80  C   UNL A   1      41.084  28.834  28.549  1.00  0.00     0.173 A 
ATOM     81  F   UNL A   1      38.984  26.715  30.621  1.00  0.00    -0.203 F 
ATOM     82  C   UNL A   1      39.660  26.460  28.378  1.00  0.00     0.198 A 
ATOM     83  C   UNL A   1      41.057  28.119  27.353  1.00  0.00     0.198 A 
ATOM     84  F   UNL A   1      41.787  29.976  28.601  1.00  0.00    -0.203 F 
ATOM     85  F   UNL A   1      39.003  25.294  28.314  1.00  0.00    -0.200 F 
ATOM     86  C   UNL A   1      40.353  26.927  27.272  1.00  0.00     0.200 A 
ATOM     87  F   UNL A   1      41.713  28.584  26.282  1.00  0.00    -0.200 F 
ATOM     88  F   UNL A   1      40.350  26.225  26.131  1.00  0.00    -0.200 F 
ENDBRANCH  54  78
BRANCH  66  89
ATOM     89  C   UNL A   1      44.673  28.418  35.176  1.00  0.00     0.064 A 
ATOM     90  C   UNL A   1      44.595  27.213  35.888  1.00  0.00     0.173 A 
ATOM     91  C   UNL A   1      45.942  28.843  34.745  1.00  0.00     0.173 A 
ATOM     92  F   UNL A   1      43.411  26.768  36.335  1.00  0.00    -0.203 F 
ATOM     93  C   UNL A   1      45.741  26.479  36.185  1.00  0.00     0.198 A 
ATOM     94  C   UNL A   1      47.081  28.088  35.010  1.00  0.00     0.198 A 
ATOM     95  F   UNL A   1      46.074  29.984  34.054  1.00  0.00    -0.203 F 
ATOM     96  F   UNL A   1      45.648  25.360  36.916  1.00  0.00    -0.200 F 
ATOM     97  C   UNL A   1      46.981  26.912  35.739  1.00  0.00     0.200 A 
ATOM     98  F   UNL A   1      48.274  28.499  34.562  1.00  0.00    -0.200 F 
ATOM     99  F   UNL A   1      48.082  26.199  36.017  1.00  0.00    -0.200 F 
ENDBRANCH  66  89
ENDBRANCH  40  41
ENDBRANCH  32  35
ENDBRANCH  30  31
ENDBRANCH  29  30
ENDBRANCH  28  29
ENDBRANCH   1  28
TORSDOF 15
ENDMDL
MODEL 2
REMARK VINA RESULT:     -11.9      5.978     11.669
REMARK SMILES CC1=C(C(=O)NCCCCCCNC(=O)c2ccc(-c3c4nc(c(-c5c(F)c(F)c(F)c(F)c5F)c5ccc([nH]5)c(-c5c(F)c(F)c(F)c(F)c5F)c5nc(c(-c6c(F)c(F)c(F)c(F)c6F)c6ccc3[nH]6)C=C5)C=C4)cc2)N2C(=O)[C@@H](NC(=O)c3ccn(C)n3)[C@H]2SC1
REMARK SMILES IDX 9 1 8 2 7 3 6 4 4 5 5 6 3 8 1 9 2 10 94 11 79 12 93 13 80 14
REMARK SMILES IDX 92 15 81 16 82 17 83 18 84 19 85 21 86 22 87 23 91 24 88 25
REMARK SMILES IDX 89 26 90 27 10 28 11 29 12 30 13 31 14 32 15 34 16 35 17 36
REMARK SMILES IDX 78 37 18 38 77 39 19 40 20 41 21 42 71 43 22 44 76 45 70 46
REMARK SMILES IDX 72 47 23 48 75 49 69 50 68 51 24 53 56 54 36 55 55 56 37 57
REMARK SMILES IDX 40 58 54 59 73 60 38 61 39 62 53 64 74 65 41 66 25 67 26 68
REMARK SMILES IDX 34 69 27 70 28 71 32 72 35 73 29 74 30 75 33 76 31 77 57 78
REMARK SMILES IDX 58 79 66 80 59 81 60 82 64 83 67 84 61 85 62 86 65 87 63 88
REMARK SMILES IDX 42 89 43 90 51 91 44 92 45 93 49 94 52 95 46 96 47 97 50 98
REMARK SMILES IDX 48 99
REMARK H PARENT 6 7 83 20 13 33 72 52 40 63
REMARK Flexibility Score: inf
ROOT
ATOM      1  C   UNL A   1      39.980  22.484  26.121  1.00  0.00     0.002 C 
ENDROOT
BRANCH   1   2
ATOM      2  C   UNL A   1      39.057  23.512  26.783  1.00  0.00     0.021 C 
BRANCH   2   3
ATOM      3  C   UNL A   1      37.684  23.698  26.156  1.00  0.00     0.116 C 
BRANCH   3   4
ATOM      4  N   UNL A   1      37.616  23.539  24.721  1.00  0.00    -0.351 N 
ATOM      5  C   UNL A   1      36.598  23.045  23.952  1.00  0.00     0.268 C 
ATOM      6  O   UNL A   1      36.655  23.191  22.730  1.00  0.00    -0.268 OA
ATOM      7  H   UNL A   1      38.417  23.828  24.226  1.00  0.00     0.163 HD
BRANCH   5   8
ATOM      8  C   UNL A   1      35.438  22.290  24.563  1.00  0.00     0.110 C 
ATOM      9  C   UNL A   1      36.611  20.080  24.955  1.00  0.00     0.043 C 
ATOM     10  C   UNL A   1      35.402  20.973  24.893  1.00  0.00    -0.034 C 
ATOM     11  C   UNL A   1      34.126  20.236  25.316  1.00  0.00     0.104 C 
ATOM     12  N   UNL A   1      34.401  23.060  24.989  1.00  0.00    -0.290 N 
ATOM     13  S   UNL A   1      32.626  21.266  25.487  1.00  0.00    -0.129 SA
ATOM     14  C   UNL A   1      33.873  24.286  24.816  1.00  0.00     0.253 C 
ATOM     15  C   UNL A   1      33.583  22.662  26.111  1.00  0.00     0.181 C 
ATOM     16  O   UNL A   1      34.038  25.162  23.998  1.00  0.00    -0.272 OA
ATOM     17  C   UNL A   1      33.007  24.090  26.095  1.00  0.00     0.206 C 
BRANCH  17  18
ATOM     18  N   UNL A   1      31.540  24.250  26.018  1.00  0.00    -0.336 N 
ATOM     19  C   UNL A   1      30.833  25.436  26.127  1.00  0.00     0.272 C 
ATOM     20  H   UNL A   1      31.012  23.432  25.877  1.00  0.00     0.164 HD
ATOM     21  O   UNL A   1      29.609  25.392  26.238  1.00  0.00    -0.267 OA
BRANCH  19  22
ATOM     22  C   UNL A   1      31.598  26.696  26.120  1.00  0.00     0.150 A 
ATOM     23  C   UNL A   1      32.053  27.443  27.245  1.00  0.00     0.056 A 
ATOM     24  N   UNL A   1      31.922  27.328  24.975  1.00  0.00    -0.168 NA
ATOM     25  C   UNL A   1      32.630  28.576  26.728  1.00  0.00     0.109 A 
ATOM     26  N   UNL A   1      32.570  28.436  25.374  1.00  0.00    -0.275 N 
ATOM     27  C   UNL A   1      33.102  29.359  24.399  1.00  0.00     0.173 C 
ENDBRANCH  19  22
ENDBRANCH  17  18
ENDBRANCH   5   8
ENDBRANCH   3   4
ENDBRANCH   2   3
ENDBRANCH   1   2
BRANCH   1  28
ATOM     28  C   UNL A   1      40.635  21.439  27.030  1.00  0.00     0.002 C 
BRANCH  28  29
ATOM     29  C   UNL A   1      40.800  20.029  26.459  1.00  0.00     0.021 C 
BRANCH  29  30
ATOM     30  C   UNL A   1      42.065  19.284  26.869  1.00  0.00     0.116 C 
BRANCH  30  31
ATOM     31  N   UNL A   1      42.869  18.858  25.737  1.00  0.00    -0.352 N 
ATOM     32  C   UNL A   1      43.742  19.576  24.958  1.00  0.00     0.251 C 
ATOM     33  H   UNL A   1      42.772  17.910  25.491  1.00  0.00     0.163 HD
ATOM     34  O   UNL A   1      44.232  19.067  23.955  1.00  0.00    -0.269 OA
BRANCH  32  35
ATOM     35  C   UNL A   1      44.074  20.977  25.304  1.00  0.00     0.039 A 
ATOM     36  C   UNL A   1      43.668  21.995  24.437  1.00  0.00     0.014 A 
ATOM     37  C   UNL A   1      44.786  21.291  26.465  1.00  0.00     0.014 A 
ATOM     38  C   UNL A   1      43.920  23.329  24.767  1.00  0.00     0.010 A 
ATOM     39  C   UNL A   1      44.963  22.622  26.832  1.00  0.00     0.010 A 
ATOM     40  C   UNL A   1      44.536  23.656  25.985  1.00  0.00    -0.014 A 
BRANCH  40  41
ATOM     41  C   UNL A   1      44.733  25.074  26.389  1.00  0.00     0.031 A 
ATOM     42  C   UNL A   1      46.086  25.719  26.264  1.00  0.00     0.074 A 
ATOM     43  C   UNL A   1      43.704  25.765  26.919  1.00  0.00     0.049 A 
ATOM     44  N   UNL A   1      46.465  26.922  26.614  1.00  0.00    -0.248 NA
ATOM     45  C   UNL A   1      47.162  24.893  25.696  1.00  0.00     0.031 C 
ATOM     46  C   UNL A   1      42.355  25.238  27.130  1.00  0.00     0.029 A 
ATOM     47  N   UNL A   1      43.634  27.054  27.384  1.00  0.00    -0.354 N 
ATOM     48  C   UNL A   1      47.820  26.994  26.315  1.00  0.00     0.074 A 
ATOM     49  C   UNL A   1      48.210  25.693  25.816  1.00  0.00     0.031 C 
ATOM     50  C   UNL A   1      41.585  26.204  27.658  1.00  0.00     0.029 A 
ATOM     51  C   UNL A   1      42.395  27.400  27.866  1.00  0.00     0.049 A 
ATOM     52  H   UNL A   1      44.399  27.673  27.373  1.00  0.00     0.167 HD
ATOM     53  C   UNL A   1      48.656  28.055  26.423  1.00  0.00     0.037 A 
ATOM     54  C   UNL A   1      41.963  28.547  28.425  1.00  0.00     0.037 A 
ATOM     55  C   UNL A   1      48.260  29.349  26.913  1.00  0.00     0.049 A 
ATOM     56  C   UNL A   1      42.920  29.699  28.566  1.00  0.00     0.074 A 
ATOM     57  C   UNL A   1      49.018  30.502  27.016  1.00  0.00     0.029 A 
ATOM     58  N   UNL A   1      46.995  29.660  27.394  1.00  0.00    -0.354 N 
ATOM     59  N   UNL A   1      44.181  29.777  28.216  1.00  0.00    -0.248 NA
ATOM     60  C   UNL A   1      42.391  30.927  29.173  1.00  0.00     0.031 C 
ATOM     61  C   UNL A   1      48.233  31.490  27.620  1.00  0.00     0.029 A 
ATOM     62  C   UNL A   1      46.963  30.978  27.825  1.00  0.00     0.049 A 
ATOM     63  H   UNL A   1      46.232  29.038  27.424  1.00  0.00     0.167 HD
ATOM     64  C   UNL A   1      44.587  31.067  28.529  1.00  0.00     0.074 A 
ATOM     65  C   UNL A   1      43.431  31.743  29.084  1.00  0.00     0.031 C 
ATOM     66  C   UNL A   1      45.805  31.641  28.372  1.00  0.00     0.037 A 
BRANCH  53  67
ATOM     67  C   UNL A   1      50.088  27.856  26.012  1.00  0.00     0.064 A 
ATOM     68  C   UNL A   1      51.110  27.672  26.956  1.00  0.00     0.173 A 
ATOM     69  C   UNL A   1      50.441  27.819  24.654  1.00  0.00     0.173 A 
ATOM     70  F   UNL A   1      50.833  27.707  28.268  1.00  0.00    -0.203 F 
ATOM     71  C   UNL A   1      52.433  27.496  26.559  1.00  0.00     0.198 A 
ATOM     72  C   UNL A   1      51.759  27.605  24.259  1.00  0.00     0.198 A 
ATOM     73  F   UNL A   1      49.505  27.982  23.707  1.00  0.00    -0.203 F 
ATOM     74  F   UNL A   1      53.399  27.384  27.481  1.00  0.00    -0.200 F 
ATOM     75  C   UNL A   1      52.756  27.455  25.211  1.00  0.00     0.200 A 
ATOM     76  F   UNL A   1      52.065  27.548  22.955  1.00  0.00    -0.200 F 
ATOM     77  F   UNL A   1      54.028  27.279  24.829  1.00  0.00    -0.200 F 
ENDBRANCH  53  67
BRANCH  54  78
ATOM     78  C   UNL A   1      40.552  28.665  28.882  1.00  0.00     0.064 A 
ATOM     79  C   UNL A   1      40.193  28.375  30.205  1.00  0.00     0.173 A 
ATOM     80  C   UNL A   1      39.532  29.065  28.004  1.00  0.00     0.173 A 
ATOM     81  F   UNL A   1      41.128  27.969  31.078  1.00  0.00    -0.203 F 
ATOM     82  C   UNL A   1      38.867  28.455  30.628  1.00  0.00     0.198 A 
ATOM     83  C   UNL A   1      38.213  29.179  28.437  1.00  0.00     0.198 A 
ATOM     84  F   UNL A   1      39.821  29.362  26.728  1.00  0.00    -0.203 F 
ATOM     85  F   UNL A   1      38.546  28.120  31.885  1.00  0.00    -0.200 F 
ATOM     86  C   UNL A   1      37.879  28.864  29.745  1.00  0.00     0.200 A 
ATOM     87  F   UNL A   1      37.265  29.593  27.585  1.00  0.00    -0.200 F 
ATOM     88  F   UNL A   1      36.605  28.947  30.152  1.00  0.00    -0.200 F 
ENDBRANCH  54  78
BRANCH  66  89
ATOM     89  C   UNL A   1      45.946  33.085  28.765  1.00  0.00     0.064 A 
ATOM     90  C   UNL A   1      45.687  34.129  27.864  1.00  0.00     0.173 A 
ATOM     91  C   UNL A   1      46.308  33.429  30.078  1.00  0.00     0.173 A 
ATOM     92  F   UNL A   1      45.352  33.857  26.593  1.00  0.00    -0.203 F 
ATOM     93  C   UNL A   1      45.816  35.460  28.252  1.00  0.00     0.198 A 
ATOM     94  C   UNL A   1      46.398  34.761  30.474  1.00  0.00     0.198 A 
ATOM     95  F   UNL A   1      46.559  32.472  30.983  1.00  0.00    -0.203 F 
ATOM     96  F   UNL A   1      45.620  36.439  27.358  1.00  0.00    -0.200 F 
ATOM     97  C   UNL A   1      46.162  35.775  29.558  1.00  0.00     0.200 A 
ATOM     98  F   UNL A   1      46.715  35.062  31.740  1.00  0.00    -0.200 F 
ATOM     99  F   UNL A   1      46.276  37.057  29.932  1.00  0.00    -0.200 F 
ENDBRANCH  66  89
ENDBRANCH  40  41
ENDBRANCH  32  35
ENDBRANCH  30  31
ENDBRANCH  29  30
ENDBRANCH  28  29
ENDBRANCH   1  28
TORSDOF 15
ENDMDL
MODEL 3
REMARK VINA RESULT:     -11.9      6.025     10.664
REMARK SMILES CC1=C(C(=O)NCCCCCCNC(=O)c2ccc(-c3c4nc(c(-c5c(F)c(F)c(F)c(F)c5F)c5ccc([nH]5)c(-c5c(F)c(F)c(F)c(F)c5F)c5nc(c(-c6c(F)c(F)c(F)c(F)c6F)c6ccc3[nH]6)C=C5)C=C4)cc2)N2C(=O)[C@@H](NC(=O)c3ccn(C)n3)[C@H]2SC1
REMARK SMILES IDX 9 1 8 2 7 3 6 4 4 5 5 6 3 8 1 9 2 10 94 11 79 12 93 13 80 14
REMARK SMILES IDX 92 15 81 16 82 17 83 18 84 19 85 21 86 22 87 23 91 24 88 25
REMARK SMILES IDX 89 26 90 27 10 28 11 29 12 30 13 31 14 32 15 34 16 35 17 36
REMARK SMILES IDX 78 37 18 38 77 39 19 40 20 41 21 42 71 43 22 44 76 45 70 46
REMARK SMILES IDX 72 47 23 48 75 49 69 50 68 51 24 53 56 54 36 55 55 56 37 57
REMARK SMILES IDX 40 58 54 59 73 60 38 61 39 62 53 64 74 65 41 66 25 67 26 68
REMARK SMILES IDX 34 69 27 70 28 71 32 72 35 73 29 74 30 75 33 76 31 77 57 78
REMARK SMILES IDX 58 79 66 80 59 81 60 82 64 83 67 84 61 85 62 86 65 87 63 88
REMARK SMILES IDX 42 89 43 90 51 91 44 92 45 93 49 94 52 95 46 96 47 97 50 98
REMARK SMILES IDX 48 99
REMARK H PARENT 6 7 83 20 13 33 72 52 40 63
REMARK Flexibility Score: inf
ROOT
ATOM      1  C   UNL A   1      38.366  23.218  26.142  1.00  0.00     0.002 C 
ENDROOT
BRANCH   1   2
ATOM      2  C   UNL A   1      37.323  22.812  25.097  1.00  0.00     0.021 C 
BRANCH   2   3
ATOM      3  C   UNL A   1      36.460  21.603  25.428  1.00  0.00     0.116 C 
BRANCH   3   4
ATOM      4  N   UNL A   1      35.524  21.773  26.515  1.00  0.00    -0.351 N 
ATOM      5  C   UNL A   1      34.182  21.503  26.553  1.00  0.00     0.268 C 
ATOM      6  O   UNL A   1      33.605  21.518  27.641  1.00  0.00    -0.268 OA
ATOM      7  H   UNL A   1      35.904  22.134  27.349  1.00  0.00     0.163 HD
BRANCH   5   8
ATOM      8  C   UNL A   1      33.393  21.235  25.290  1.00  0.00     0.110 C 
ATOM      9  C   UNL A   1      32.853  18.796  25.712  1.00  0.00     0.043 C 
ATOM     10  C   UNL A   1      32.913  20.037  24.863  1.00  0.00    -0.034 C 
ATOM     11  C   UNL A   1      32.303  19.810  23.476  1.00  0.00     0.104 C 
ATOM     12  N   UNL A   1      32.971  22.341  24.620  1.00  0.00    -0.290 N 
ATOM     13  S   UNL A   1      32.124  21.296  22.427  1.00  0.00    -0.129 SA
ATOM     14  C   UNL A   1      33.237  23.655  24.506  1.00  0.00     0.253 C 
ATOM     15  C   UNL A   1      31.745  22.331  23.854  1.00  0.00     0.181 C 
ATOM     16  O   UNL A   1      34.161  24.356  24.850  1.00  0.00    -0.272 OA
ATOM     17  C   UNL A   1      31.875  23.864  23.780  1.00  0.00     0.206 C 
BRANCH  17  18
ATOM     18  N   UNL A   1      31.845  24.503  22.448  1.00  0.00    -0.336 N 
ATOM     19  C   UNL A   1      31.692  25.854  22.185  1.00  0.00     0.272 C 
ATOM     20  H   UNL A   1      31.942  23.909  21.669  1.00  0.00     0.164 HD
ATOM     21  O   UNL A   1      31.491  26.217  21.027  1.00  0.00    -0.267 OA
BRANCH  19  22
ATOM     22  C   UNL A   1      31.764  26.789  23.322  1.00  0.00     0.150 A 
ATOM     23  C   UNL A   1      30.682  27.306  24.092  1.00  0.00     0.056 A 
ATOM     24  N   UNL A   1      32.932  27.314  23.743  1.00  0.00    -0.168 NA
ATOM     25  C   UNL A   1      31.246  28.200  24.968  1.00  0.00     0.109 A 
ATOM     26  N   UNL A   1      32.589  28.131  24.754  1.00  0.00    -0.275 N 
ATOM     27  C   UNL A   1      33.605  28.856  25.480  1.00  0.00     0.173 C 
ENDBRANCH  19  22
ENDBRANCH  17  18
ENDBRANCH   5   8
ENDBRANCH   3   4
ENDBRANCH   2   3
ENDBRANCH   1   2
BRANCH   1  28
ATOM     28  C   UNL A   1      39.691  22.449  26.147  1.00  0.00     0.002 C 
BRANCH  28  29
ATOM     29  C   UNL A   1      39.653  21.004  26.650  1.00  0.00     0.021 C 
BRANCH  29  30
ATOM     30  C   UNL A   1      39.749  19.921  25.583  1.00  0.00     0.116 C 
BRANCH  30  31
ATOM     31  N   UNL A   1      40.759  18.919  25.874  1.00  0.00    -0.352 N 
ATOM     32  C   UNL A   1      42.071  19.077  26.249  1.00  0.00     0.251 C 
ATOM     33  H   UNL A   1      40.458  17.986  25.789  1.00  0.00     0.163 HD
ATOM     34  O   UNL A   1      42.810  18.100  26.321  1.00  0.00    -0.269 OA
BRANCH  32  35
ATOM     35  C   UNL A   1      42.609  20.425  26.537  1.00  0.00     0.039 A 
ATOM     36  C   UNL A   1      43.100  21.191  25.476  1.00  0.00     0.014 A 
ATOM     37  C   UNL A   1      42.642  20.933  27.839  1.00  0.00     0.014 A 
ATOM     38  C   UNL A   1      43.563  22.487  25.712  1.00  0.00     0.010 A 
ATOM     39  C   UNL A   1      43.026  22.253  28.059  1.00  0.00     0.010 A 
ATOM     40  C   UNL A   1      43.495  23.044  26.999  1.00  0.00    -0.014 A 
BRANCH  40  41
ATOM     41  C   UNL A   1      43.903  24.452  27.249  1.00  0.00     0.031 A 
ATOM     42  C   UNL A   1      42.895  25.464  27.720  1.00  0.00     0.074 A 
ATOM     43  C   UNL A   1      45.172  24.832  26.998  1.00  0.00     0.049 A 
ATOM     44  N   UNL A   1      43.049  26.746  27.938  1.00  0.00    -0.248 NA
ATOM     45  C   UNL A   1      41.527  24.976  27.949  1.00  0.00     0.031 C 
ATOM     46  C   UNL A   1      46.232  23.954  26.500  1.00  0.00     0.029 A 
ATOM     47  N   UNL A   1      45.783  26.054  27.121  1.00  0.00    -0.354 N 
ATOM     48  C   UNL A   1      41.799  27.216  28.323  1.00  0.00     0.074 A 
ATOM     49  C   UNL A   1      40.886  26.096  28.246  1.00  0.00     0.031 C 
ATOM     50  C   UNL A   1      47.368  24.661  26.385  1.00  0.00     0.029 A 
ATOM     51  C   UNL A   1      47.107  26.048  26.755  1.00  0.00     0.049 A 
ATOM     52  H   UNL A   1      45.317  26.860  27.442  1.00  0.00     0.167 HD
ATOM     53  C   UNL A   1      41.451  28.462  28.728  1.00  0.00     0.037 A 
ATOM     54  C   UNL A   1      48.007  27.050  26.710  1.00  0.00     0.037 A 
ATOM     55  C   UNL A   1      42.366  29.570  28.809  1.00  0.00     0.049 A 
ATOM     56  C   UNL A   1      47.587  28.432  27.131  1.00  0.00     0.074 A 
ATOM     57  C   UNL A   1      42.123  30.858  29.253  1.00  0.00     0.029 A 
ATOM     58  N   UNL A   1      43.700  29.524  28.428  1.00  0.00    -0.354 N 
ATOM     59  N   UNL A   1      46.420  28.849  27.559  1.00  0.00    -0.248 NA
ATOM     60  C   UNL A   1      48.612  29.482  27.071  1.00  0.00     0.031 C 
ATOM     61  C   UNL A   1      43.291  31.609  29.078  1.00  0.00     0.029 A 
ATOM     62  C   UNL A   1      44.284  30.772  28.596  1.00  0.00     0.049 A 
ATOM     63  H   UNL A   1      44.165  28.725  28.089  1.00  0.00     0.167 HD
ATOM     64  C   UNL A   1      46.577  30.198  27.849  1.00  0.00     0.074 A 
ATOM     65  C   UNL A   1      47.960  30.525  27.563  1.00  0.00     0.031 C 
ATOM     66  C   UNL A   1      45.661  31.084  28.311  1.00  0.00     0.037 A 
BRANCH  53  67
ATOM     67  C   UNL A   1      40.014  28.694  29.105  1.00  0.00     0.064 A 
ATOM     68  C   UNL A   1      39.551  28.489  30.414  1.00  0.00     0.173 A 
ATOM     69  C   UNL A   1      39.094  29.158  28.153  1.00  0.00     0.173 A 
ATOM     70  F   UNL A   1      40.385  28.037  31.364  1.00  0.00    -0.203 F 
ATOM     71  C   UNL A   1      38.215  28.701  30.746  1.00  0.00     0.198 A 
ATOM     72  C   UNL A   1      37.767  29.406  28.498  1.00  0.00     0.198 A 
ATOM     73  F   UNL A   1      39.481  29.379  26.888  1.00  0.00    -0.203 F 
ATOM     74  F   UNL A   1      37.785  28.439  31.987  1.00  0.00    -0.200 F 
ATOM     75  C   UNL A   1      37.326  29.167  29.790  1.00  0.00     0.200 A 
ATOM     76  F   UNL A   1      36.914  29.873  27.575  1.00  0.00    -0.200 F 
ATOM     77  F   UNL A   1      36.043  29.378  30.111  1.00  0.00    -0.200 F 
ENDBRANCH  53  67
BRANCH  54  78
ATOM     78  C   UNL A   1      49.399  26.779  26.259  1.00  0.00     0.064 A 
ATOM     79  C   UNL A   1      49.777  26.970  24.924  1.00  0.00     0.173 A 
ATOM     80  C   UNL A   1      50.378  26.318  27.153  1.00  0.00     0.173 A 
ATOM     81  F   UNL A   1      48.873  27.390  24.026  1.00  0.00    -0.203 F 
ATOM     82  C   UNL A   1      51.072  26.687  24.492  1.00  0.00     0.198 A 
ATOM     83  C   UNL A   1      51.681  26.069  26.728  1.00  0.00     0.198 A 
ATOM     84  F   UNL A   1      50.072  26.124  28.445  1.00  0.00    -0.203 F 
ATOM     85  F   UNL A   1      51.391  26.829  23.198  1.00  0.00    -0.200 F 
ATOM     86  C   UNL A   1      52.025  26.244  25.397  1.00  0.00     0.200 A 
ATOM     87  F   UNL A   1      52.603  25.659  27.610  1.00  0.00    -0.200 F 
ATOM     88  F   UNL A   1      53.271  25.977  24.984  1.00  0.00    -0.200 F 
ENDBRANCH  54  78
BRANCH  66  89
ATOM     89  C   UNL A   1      46.130  32.488  28.577  1.00  0.00     0.064 A 
ATOM     90  C   UNL A   1      46.054  33.494  27.603  1.00  0.00     0.173 A 
ATOM     91  C   UNL A   1      46.628  32.839  29.843  1.00  0.00     0.173 A 
ATOM     92  F   UNL A   1      45.599  33.210  26.373  1.00  0.00    -0.203 F 
ATOM     93  C   UNL A   1      46.487  34.790  27.874  1.00  0.00     0.198 A 
ATOM     94  C   UNL A   1      47.025  34.144  30.123  1.00  0.00     0.198 A 
ATOM     95  F   UNL A   1      46.717  31.919  30.814  1.00  0.00    -0.203 F 
ATOM     96  F   UNL A   1      46.458  35.719  26.910  1.00  0.00    -0.200 F 
ATOM     97  C   UNL A   1      46.963  35.116  29.135  1.00  0.00     0.200 A 
ATOM     98  F   UNL A   1      47.467  34.460  31.347  1.00  0.00    -0.200 F 
ATOM     99  F   UNL A   1      47.370  36.365  29.398  1.00  0.00    -0.200 F 
ENDBRANCH  66  89
ENDBRANCH  40  41
ENDBRANCH  32  35
ENDBRANCH  30  31
ENDBRANCH  29  30
ENDBRANCH  28  29
ENDBRANCH   1  28
TORSDOF 15
ENDMDL
