MODEL 1
REMARK VINA RESULT:     -13.4      0.000      0.000
REMARK SMILES Cc1cc(C(=O)N[C@@H]2C(=O)N3C(C(=O)NCCCCCCNC(=O)c4ccc(-c5c6nc(c(-c7c(F)c(F)c(F)c(F)c7F)c7ccc([nH]7)c(-c7c(F)c(F)c(F)c(F)c7F)c7nc(c(-c8c(F)c(F)c(F)c(F)c8F)c8ccc5[nH]8)C=C7)C=C6)cc4)=C(CSc4nnc(C)s4)CS[C@H]23)n(C)n1
REMARK SMILES IDX 18 1 17 2 16 3 15 4 13 5 14 6 12 8 8 9 9 10 99 11 10 12
REMARK SMILES IDX 11 13 98 14 97 15 88 16 7 17 5 18 6 19 4 21 1 22 2 23 3 24
REMARK SMILES IDX 102 25 100 26 101 27 89 28 90 29 91 30 92 31 96 32 93 33
REMARK SMILES IDX 94 34 95 35 19 36 20 37 21 38 22 39 23 40 24 42 25 43 26 44
REMARK SMILES IDX 87 45 27 46 86 47 28 48 29 49 30 50 80 51 31 52 85 53 79 54
REMARK SMILES IDX 81 55 32 56 84 57 78 58 77 59 33 61 65 62 45 63 64 64 46 65
REMARK SMILES IDX 49 66 63 67 82 68 47 69 48 70 62 72 83 73 50 74 34 75 35 76
REMARK SMILES IDX 43 77 36 78 37 79 41 80 44 81 38 82 39 83 42 84 40 85 66 86
REMARK SMILES IDX 67 87 75 88 68 89 69 90 73 91 76 92 70 93 71 94 74 95 72 96
REMARK SMILES IDX 51 97 52 98 60 99 53 100 54 101 58 102 61 103 55 104 56 105
REMARK SMILES IDX 59 106 57 107
REMARK H PARENT 15 7 7 20 22 41 81 60 49 71
REMARK Flexibility Score: inf
ROOT
ATOM      1  C   UNL A   1      32.290  30.401  26.811  1.00  0.00     0.002 C 
ENDROOT
BRANCH   1   2
ATOM      2  C   UNL A   1      31.798  29.047  27.303  1.00  0.00     0.021 C 
BRANCH   2   3
ATOM      3  C   UNL A   1      32.778  27.871  27.179  1.00  0.00     0.116 C 
BRANCH   3   4
ATOM      4  N   UNL A   1      33.615  28.028  26.007  1.00  0.00    -0.351 N 
ATOM      5  C   UNL A   1      33.628  27.675  24.703  1.00  0.00     0.268 C 
ATOM      6  O   UNL A   1      34.528  28.259  24.083  1.00  0.00    -0.268 OA
ATOM      7  H   UNL A   1      34.421  28.551  26.229  1.00  0.00     0.163 HD
BRANCH   5   8
ATOM      8  C   UNL A   1      32.592  26.846  23.918  1.00  0.00     0.111 C 
ATOM      9  C   UNL A   1      33.022  23.419  23.965  1.00  0.00     0.206 C 
ATOM     10  C   UNL A   1      33.202  24.628  24.926  1.00  0.00     0.253 C 
ATOM     11  C   UNL A   1      32.338  24.482  23.059  1.00  0.00     0.181 C 
ATOM     12  O   UNL A   1      33.364  24.739  26.127  1.00  0.00    -0.272 OA
ATOM     13  N   UNL A   1      32.940  25.497  23.900  1.00  0.00    -0.290 N 
ATOM     14  S   UNL A   1      30.530  24.628  23.177  1.00  0.00    -0.129 SA
ATOM     15  C   UNL A   1      30.618  26.259  22.441  1.00  0.00     0.106 C 
ATOM     16  C   UNL A   1      31.394  27.201  23.352  1.00  0.00    -0.020 C 
BRANCH   9  17
ATOM     17  N   UNL A   1      32.249  22.246  24.460  1.00  0.00    -0.336 N 
ATOM     18  C   UNL A   1      32.682  21.137  25.164  1.00  0.00     0.270 C 
ATOM     19  O   UNL A   1      31.839  20.300  25.481  1.00  0.00    -0.268 OA
ATOM     20  H   UNL A   1      31.287  22.263  24.256  1.00  0.00     0.164 HD
BRANCH  18  21
ATOM     21  C   UNL A   1      34.095  20.978  25.418  1.00  0.00     0.126 A 
ATOM     22  C   UNL A   1      37.526  22.193  25.548  1.00  0.00     0.069 C 
ATOM     23  C   UNL A   1      36.265  21.414  25.558  1.00  0.00     0.060 A 
ATOM     24  C   UNL A   1      35.005  21.802  26.064  1.00  0.00     0.059 A 
ATOM     25  N   UNL A   1      36.192  20.232  24.944  1.00  0.00    -0.178 NA
ATOM     26  N   UNL A   1      34.872  19.933  24.964  1.00  0.00    -0.263 N 
ATOM     27  C   UNL A   1      34.473  18.645  24.446  1.00  0.00     0.174 C 
ENDBRANCH  18  21
ENDBRANCH   9  17
BRANCH  16  28
ATOM     28  C   UNL A   1      30.541  28.410  23.662  1.00  0.00     0.111 C 
BRANCH  28  29
ATOM     29  S   UNL A   1      28.876  28.163  23.069  1.00  0.00    -0.089 SA
BRANCH  29  30
ATOM     30  C   UNL A   1      28.174  29.709  22.832  1.00  0.00     0.174 A 
ATOM     31  N   UNL A   1      27.165  30.196  23.514  1.00  0.00    -0.132 NA
ATOM     32  S   UNL A   1      29.024  30.861  21.894  1.00  0.00    -0.091 S 
ATOM     33  N   UNL A   1      27.228  31.584  23.550  1.00  0.00    -0.143 NA
ATOM     34  C   UNL A   1      28.280  32.034  22.893  1.00  0.00     0.115 A 
ATOM     35  C   UNL A   1      28.905  33.367  23.043  1.00  0.00     0.081 C 
ENDBRANCH  29  30
ENDBRANCH  28  29
ENDBRANCH  16  28
ENDBRANCH   5   8
ENDBRANCH   3   4
ENDBRANCH   2   3
ENDBRANCH   1   2
BRANCH   1  36
ATOM     36  C   UNL A   1      31.222  31.262  26.146  1.00  0.00     0.002 C 
BRANCH  36  37
ATOM     37  C   UNL A   1      31.327  32.764  26.427  1.00  0.00     0.021 C 
BRANCH  37  38
ATOM     38  C   UNL A   1      32.513  33.177  27.295  1.00  0.00     0.116 C 
BRANCH  38  39
ATOM     39  N   UNL A   1      32.377  34.539  27.789  1.00  0.00    -0.352 N 
ATOM     40  C   UNL A   1      33.007  35.149  28.844  1.00  0.00     0.251 C 
ATOM     41  H   UNL A   1      31.741  35.103  27.294  1.00  0.00     0.163 HD
ATOM     42  O   UNL A   1      32.595  36.217  29.284  1.00  0.00    -0.269 OA
BRANCH  40  43
ATOM     43  C   UNL A   1      34.191  34.509  29.448  1.00  0.00     0.039 A 
ATOM     44  C   UNL A   1      35.427  34.607  28.806  1.00  0.00     0.014 A 
ATOM     45  C   UNL A   1      34.067  33.798  30.644  1.00  0.00     0.014 A 
ATOM     46  C   UNL A   1      36.556  34.032  29.395  1.00  0.00     0.010 A 
ATOM     47  C   UNL A   1      35.201  33.293  31.265  1.00  0.00     0.010 A 
ATOM     48  C   UNL A   1      36.455  33.395  30.641  1.00  0.00    -0.014 A 
BRANCH  48  49
ATOM     49  C   UNL A   1      37.631  32.784  31.306  1.00  0.00     0.031 A 
ATOM     50  C   UNL A   1      38.334  31.630  30.645  1.00  0.00     0.074 A 
ATOM     51  C   UNL A   1      38.003  33.196  32.532  1.00  0.00     0.049 A 
ATOM     52  N   UNL A   1      39.273  30.850  31.115  1.00  0.00    -0.248 NA
ATOM     53  C   UNL A   1      37.893  31.287  29.283  1.00  0.00     0.031 C 
ATOM     54  C   UNL A   1      37.380  34.285  33.284  1.00  0.00     0.029 A 
ATOM     55  N   UNL A   1      38.985  32.731  33.370  1.00  0.00    -0.354 N 
ATOM     56  C   UNL A   1      39.514  29.911  30.120  1.00  0.00     0.074 A 
ATOM     57  C   UNL A   1      38.588  30.186  29.044  1.00  0.00     0.031 C 
ATOM     58  C   UNL A   1      38.000  34.411  34.469  1.00  0.00     0.029 A 
ATOM     59  C   UNL A   1      39.032  33.382  34.578  1.00  0.00     0.049 A 
ATOM     60  H   UNL A   1      39.597  31.998  33.130  1.00  0.00     0.167 HD
ATOM     61  C   UNL A   1      40.441  28.924  30.099  1.00  0.00     0.037 A 
ATOM     62  C   UNL A   1      39.807  33.162  35.657  1.00  0.00     0.037 A 
ATOM     63  C   UNL A   1      41.378  28.678  31.163  1.00  0.00     0.049 A 
ATOM     64  C   UNL A   1      40.820  32.048  35.614  1.00  0.00     0.074 A 
ATOM     65  C   UNL A   1      42.391  27.737  31.221  1.00  0.00     0.029 A 
ATOM     66  N   UNL A   1      41.415  29.382  32.359  1.00  0.00    -0.354 N 
ATOM     67  N   UNL A   1      41.076  31.198  34.650  1.00  0.00    -0.248 NA
ATOM     68  C   UNL A   1      41.657  31.867  36.809  1.00  0.00     0.031 C 
ATOM     69  C   UNL A   1      43.009  27.838  32.471  1.00  0.00     0.029 A 
ATOM     70  C   UNL A   1      42.422  28.883  33.168  1.00  0.00     0.049 A 
ATOM     71  H   UNL A   1      40.814  30.124  32.596  1.00  0.00     0.167 HD
ATOM     72  C   UNL A   1      42.127  30.410  35.102  1.00  0.00     0.074 A 
ATOM     73  C   UNL A   1      42.463  30.886  36.428  1.00  0.00     0.031 C 
ATOM     74  C   UNL A   1      42.758  29.387  34.476  1.00  0.00     0.037 A 
BRANCH  61  75
ATOM     75  C   UNL A   1      40.481  28.036  28.888  1.00  0.00     0.064 A 
ATOM     76  C   UNL A   1      41.254  28.358  27.762  1.00  0.00     0.173 A 
ATOM     77  C   UNL A   1      39.758  26.834  28.863  1.00  0.00     0.173 A 
ATOM     78  F   UNL A   1      41.955  29.503  27.728  1.00  0.00    -0.203 F 
ATOM     79  C   UNL A   1      41.272  27.530  26.642  1.00  0.00     0.198 A 
ATOM     80  C   UNL A   1      39.807  25.990  27.756  1.00  0.00     0.198 A 
ATOM     81  F   UNL A   1      39.008  26.473  29.914  1.00  0.00    -0.203 F 
ATOM     82  F   UNL A   1      41.969  27.889  25.556  1.00  0.00    -0.200 F 
ATOM     83  C   UNL A   1      40.555  26.344  26.643  1.00  0.00     0.200 A 
ATOM     84  F   UNL A   1      39.124  24.837  27.764  1.00  0.00    -0.200 F 
ATOM     85  F   UNL A   1      40.577  25.544  25.567  1.00  0.00    -0.200 F 
ENDBRANCH  61  75
BRANCH  62  86
ATOM     86  C   UNL A   1      39.672  34.023  36.860  1.00  0.00     0.064 A 
ATOM     87  C   UNL A   1      40.334  35.257  36.938  1.00  0.00     0.173 A 
ATOM     88  C   UNL A   1      38.886  33.636  37.956  1.00  0.00     0.173 A 
ATOM     89  F   UNL A   1      41.111  35.664  35.924  1.00  0.00    -0.203 F 
ATOM     90  C   UNL A   1      40.235  36.058  38.074  1.00  0.00     0.198 A 
ATOM     91  C   UNL A   1      38.764  34.452  39.079  1.00  0.00     0.198 A 
ATOM     92  F   UNL A   1      38.225  32.469  37.930  1.00  0.00    -0.203 F 
ATOM     93  F   UNL A   1      40.917  37.210  38.140  1.00  0.00    -0.200 F 
ATOM     94  C   UNL A   1      39.446  35.658  39.141  1.00  0.00     0.200 A 
ATOM     95  F   UNL A   1      37.986  34.069  40.101  1.00  0.00    -0.200 F 
ATOM     96  F   UNL A   1      39.346  36.430  40.231  1.00  0.00    -0.200 F 
ENDBRANCH  62  86
BRANCH  74  97
ATOM     97  C   UNL A   1      43.918  28.751  35.184  1.00  0.00     0.064 A 
ATOM     98  C   UNL A   1      45.236  29.188  34.991  1.00  0.00     0.173 A 
ATOM     99  C   UNL A   1      43.695  27.724  36.116  1.00  0.00     0.173 A 
ATOM    100  F   UNL A   1      45.502  30.156  34.101  1.00  0.00    -0.203 F 
ATOM    101  C   UNL A   1      46.291  28.608  35.691  1.00  0.00     0.198 A 
ATOM    102  C   UNL A   1      44.748  27.169  36.837  1.00  0.00     0.198 A 
ATOM    103  F   UNL A   1      42.452  27.274  36.343  1.00  0.00    -0.203 F 
ATOM    104  F   UNL A   1      47.548  29.013  35.459  1.00  0.00    -0.200 F 
ATOM    105  C   UNL A   1      46.046  27.607  36.619  1.00  0.00     0.200 A 
ATOM    106  F   UNL A   1      44.507  26.214  37.746  1.00  0.00    -0.200 F 
ATOM    107  F   UNL A   1      47.062  27.061  37.302  1.00  0.00    -0.200 F 
ENDBRANCH  74  97
ENDBRANCH  48  49
ENDBRANCH  40  43
ENDBRANCH  38  39
ENDBRANCH  37  38
ENDBRANCH  36  37
ENDBRANCH   1  36
TORSDOF 18
ENDMDL
MODEL 2
REMARK VINA RESULT:     -13.0      1.129      6.883
REMARK SMILES Cc1cc(C(=O)N[C@@H]2C(=O)N3C(C(=O)NCCCCCCNC(=O)c4ccc(-c5c6nc(c(-c7c(F)c(F)c(F)c(F)c7F)c7ccc([nH]7)c(-c7c(F)c(F)c(F)c(F)c7F)c7nc(c(-c8c(F)c(F)c(F)c(F)c8F)c8ccc5[nH]8)C=C7)C=C6)cc4)=C(CSc4nnc(C)s4)CS[C@H]23)n(C)n1
REMARK SMILES IDX 18 1 17 2 16 3 15 4 13 5 14 6 12 8 8 9 9 10 99 11 10 12
REMARK SMILES IDX 11 13 98 14 97 15 88 16 7 17 5 18 6 19 4 21 1 22 2 23 3 24
REMARK SMILES IDX 102 25 100 26 101 27 89 28 90 29 91 30 92 31 96 32 93 33
REMARK SMILES IDX 94 34 95 35 19 36 20 37 21 38 22 39 23 40 24 42 25 43 26 44
REMARK SMILES IDX 87 45 27 46 86 47 28 48 29 49 30 50 80 51 31 52 85 53 79 54
REMARK SMILES IDX 81 55 32 56 84 57 78 58 77 59 33 61 65 62 45 63 64 64 46 65
REMARK SMILES IDX 49 66 63 67 82 68 47 69 48 70 62 72 83 73 50 74 34 75 35 76
REMARK SMILES IDX 43 77 36 78 37 79 41 80 44 81 38 82 39 83 42 84 40 85 66 86
REMARK SMILES IDX 67 87 75 88 68 89 69 90 73 91 76 92 70 93 71 94 74 95 72 96
REMARK SMILES IDX 51 97 52 98 60 99 53 100 54 101 58 102 61 103 55 104 56 105
REMARK SMILES IDX 59 106 57 107
REMARK H PARENT 15 7 7 20 22 41 81 60 49 71
REMARK Flexibility Score: inf
ROOT
ATOM      1  C   UNL A   1      33.875  30.694  27.045  1.00  0.00     0.002 C 
ENDROOT
BRANCH   1   2
ATOM      2  C   UNL A   1      32.450  30.197  26.848  1.00  0.00     0.021 C 
BRANCH   2   3
ATOM      3  C   UNL A   1      31.960  30.066  25.399  1.00  0.00     0.116 C 
BRANCH   3   4
ATOM      4  N   UNL A   1      33.049  29.673  24.527  1.00  0.00    -0.351 N 
ATOM      5  C   UNL A   1      33.428  28.615  23.776  1.00  0.00     0.268 C 
ATOM      6  O   UNL A   1      34.393  28.895  23.052  1.00  0.00    -0.268 OA
ATOM      7  H   UNL A   1      33.715  30.395  24.464  1.00  0.00     0.163 HD
BRANCH   5   8
ATOM      8  C   UNL A   1      32.713  27.263  23.583  1.00  0.00     0.111 C 
ATOM      9  C   UNL A   1      33.561  24.755  25.802  1.00  0.00     0.206 C 
ATOM     10  C   UNL A   1      33.361  26.297  25.809  1.00  0.00     0.253 C 
ATOM     11  C   UNL A   1      32.969  24.874  24.368  1.00  0.00     0.181 C 
ATOM     12  O   UNL A   1      33.230  27.129  26.687  1.00  0.00    -0.272 OA
ATOM     13  N   UNL A   1      33.228  26.297  24.446  1.00  0.00    -0.290 N 
ATOM     14  S   UNL A   1      31.178  24.618  24.191  1.00  0.00    -0.129 SA
ATOM     15  C   UNL A   1      31.219  25.462  22.611  1.00  0.00     0.106 C 
ATOM     16  C   UNL A   1      31.639  26.913  22.805  1.00  0.00    -0.020 C 
BRANCH   9  17
ATOM     17  N   UNL A   1      32.855  23.956  26.841  1.00  0.00    -0.336 N 
ATOM     18  C   UNL A   1      33.041  22.639  27.221  1.00  0.00     0.270 C 
ATOM     19  O   UNL A   1      32.339  22.204  28.131  1.00  0.00    -0.268 OA
ATOM     20  H   UNL A   1      32.151  24.437  27.332  1.00  0.00     0.164 HD
BRANCH  18  21
ATOM     21  C   UNL A   1      33.983  21.826  26.485  1.00  0.00     0.126 A 
ATOM     22  C   UNL A   1      37.082  21.314  24.643  1.00  0.00     0.069 C 
ATOM     23  C   UNL A   1      35.756  21.222  25.299  1.00  0.00     0.060 A 
ATOM     24  C   UNL A   1      35.366  21.745  26.551  1.00  0.00     0.059 A 
ATOM     25  N   UNL A   1      34.717  20.685  24.659  1.00  0.00    -0.178 NA
ATOM     26  N   UNL A   1      33.659  20.973  25.452  1.00  0.00    -0.263 N 
ATOM     27  C   UNL A   1      32.374  20.435  25.069  1.00  0.00     0.174 C 
ENDBRANCH  18  21
ENDBRANCH   9  17
BRANCH  16  28
ATOM     28  C   UNL A   1      30.589  27.820  22.207  1.00  0.00     0.111 C 
BRANCH  28  29
ATOM     29  S   UNL A   1      29.171  27.925  23.285  1.00  0.00    -0.089 SA
BRANCH  29  30
ATOM     30  C   UNL A   1      28.346  29.383  22.920  1.00  0.00     0.174 A 
ATOM     31  N   UNL A   1      27.283  29.829  23.545  1.00  0.00    -0.132 NA
ATOM     32  S   UNL A   1      29.118  30.532  21.914  1.00  0.00    -0.091 S 
ATOM     33  N   UNL A   1      27.227  31.216  23.479  1.00  0.00    -0.143 NA
ATOM     34  C   UNL A   1      28.252  31.707  22.809  1.00  0.00     0.115 A 
ATOM     35  C   UNL A   1      28.758  33.096  22.869  1.00  0.00     0.081 C 
ENDBRANCH  29  30
ENDBRANCH  28  29
ENDBRANCH  16  28
ENDBRANCH   5   8
ENDBRANCH   3   4
ENDBRANCH   2   3
ENDBRANCH   1   2
BRANCH   1  36
ATOM     36  C   UNL A   1      34.012  31.868  28.007  1.00  0.00     0.002 C 
BRANCH  36  37
ATOM     37  C   UNL A   1      32.925  32.940  27.887  1.00  0.00     0.021 C 
BRANCH  37  38
ATOM     38  C   UNL A   1      33.439  34.360  27.663  1.00  0.00     0.116 C 
BRANCH  38  39
ATOM     39  N   UNL A   1      32.943  35.283  28.672  1.00  0.00    -0.352 N 
ATOM     40  C   UNL A   1      33.191  35.314  30.021  1.00  0.00     0.251 C 
ATOM     41  H   UNL A   1      32.342  35.987  28.338  1.00  0.00     0.163 HD
ATOM     42  O   UNL A   1      32.497  35.996  30.768  1.00  0.00    -0.269 OA
BRANCH  40  43
ATOM     43  C   UNL A   1      34.303  34.517  30.571  1.00  0.00     0.039 A 
ATOM     44  C   UNL A   1      34.044  33.566  31.560  1.00  0.00     0.014 A 
ATOM     45  C   UNL A   1      35.607  34.728  30.115  1.00  0.00     0.014 A 
ATOM     46  C   UNL A   1      35.091  32.785  32.057  1.00  0.00     0.010 A 
ATOM     47  C   UNL A   1      36.632  33.902  30.554  1.00  0.00     0.010 A 
ATOM     48  C   UNL A   1      36.387  32.930  31.538  1.00  0.00    -0.014 A 
BRANCH  48  49
ATOM     49  C   UNL A   1      37.523  32.113  32.028  1.00  0.00     0.031 A 
ATOM     50  C   UNL A   1      38.141  32.435  33.360  1.00  0.00     0.074 A 
ATOM     51  C   UNL A   1      38.055  31.157  31.243  1.00  0.00     0.049 A 
ATOM     52  N   UNL A   1      39.230  31.960  33.908  1.00  0.00    -0.248 NA
ATOM     53  C   UNL A   1      37.458  33.456  34.171  1.00  0.00     0.031 C 
ATOM     54  C   UNL A   1      37.560  30.775  29.921  1.00  0.00     0.029 A 
ATOM     55  N   UNL A   1      39.145  30.346  31.439  1.00  0.00    -0.354 N 
ATOM     56  C   UNL A   1      39.376  32.642  35.108  1.00  0.00     0.074 A 
ATOM     57  C   UNL A   1      38.295  33.600  35.185  1.00  0.00     0.031 C 
ATOM     58  C   UNL A   1      38.338  29.797  29.427  1.00  0.00     0.029 A 
ATOM     59  C   UNL A   1      39.412  29.518  30.377  1.00  0.00     0.049 A 
ATOM     60  H   UNL A   1      39.685  30.358  32.262  1.00  0.00     0.167 HD
ATOM     61  C   UNL A   1      40.314  32.469  36.069  1.00  0.00     0.037 A 
ATOM     62  C   UNL A   1      40.419  28.645  30.185  1.00  0.00     0.037 A 
ATOM     63  C   UNL A   1      41.369  31.493  35.995  1.00  0.00     0.049 A 
ATOM     64  C   UNL A   1      41.459  28.481  31.262  1.00  0.00     0.074 A 
ATOM     65  C   UNL A   1      42.341  31.199  36.935  1.00  0.00     0.029 A 
ATOM     66  N   UNL A   1      41.587  30.648  34.916  1.00  0.00    -0.354 N 
ATOM     67  N   UNL A   1      41.560  29.094  32.416  1.00  0.00    -0.248 NA
ATOM     68  C   UNL A   1      42.523  27.498  31.012  1.00  0.00     0.031 C 
ATOM     69  C   UNL A   1      43.176  30.213  36.405  1.00  0.00     0.029 A 
ATOM     70  C   UNL A   1      42.689  29.847  35.159  1.00  0.00     0.049 A 
ATOM     71  H   UNL A   1      41.039  30.624  34.099  1.00  0.00     0.167 HD
ATOM     72  C   UNL A   1      42.670  28.545  33.046  1.00  0.00     0.074 A 
ATOM     73  C   UNL A   1      43.207  27.546  32.146  1.00  0.00     0.031 C 
ATOM     74  C   UNL A   1      43.195  28.839  34.261  1.00  0.00     0.037 A 
BRANCH  61  75
ATOM     75  C   UNL A   1      40.243  33.358  37.278  1.00  0.00     0.064 A 
ATOM     76  C   UNL A   1      41.054  34.496  37.406  1.00  0.00     0.173 A 
ATOM     77  C   UNL A   1      39.334  33.083  38.311  1.00  0.00     0.173 A 
ATOM     78  F   UNL A   1      41.949  34.798  36.453  1.00  0.00    -0.203 F 
ATOM     79  C   UNL A   1      40.984  35.304  38.538  1.00  0.00     0.198 A 
ATOM     80  C   UNL A   1      39.241  33.913  39.425  1.00  0.00     0.198 A 
ATOM     81  F   UNL A   1      38.530  32.012  38.238  1.00  0.00    -0.203 F 
ATOM     82  F   UNL A   1      41.811  36.351  38.665  1.00  0.00    -0.200 F 
ATOM     83  C   UNL A   1      40.073  35.016  39.543  1.00  0.00     0.200 A 
ATOM     84  F   UNL A   1      38.350  33.641  40.389  1.00  0.00    -0.200 F 
ATOM     85  F   UNL A   1      40.002  35.797  40.630  1.00  0.00    -0.200 F 
ENDBRANCH  61  75
BRANCH  62  86
ATOM     86  C   UNL A   1      40.484  27.846  28.934  1.00  0.00     0.064 A 
ATOM     87  C   UNL A   1      41.245  28.284  27.841  1.00  0.00     0.173 A 
ATOM     88  C   UNL A   1      39.790  26.634  28.800  1.00  0.00     0.173 A 
ATOM     89  F   UNL A   1      41.913  29.446  27.913  1.00  0.00    -0.203 F 
ATOM     90  C   UNL A   1      41.290  27.555  26.654  1.00  0.00     0.198 A 
ATOM     91  C   UNL A   1      39.860  25.890  27.623  1.00  0.00     0.198 A 
ATOM     92  F   UNL A   1      39.054  26.165  29.818  1.00  0.00    -0.203 F 
ATOM     93  F   UNL A   1      41.986  28.023  25.609  1.00  0.00    -0.200 F 
ATOM     94  C   UNL A   1      40.602  26.356  26.549  1.00  0.00     0.200 A 
ATOM     95  F   UNL A   1      39.208  24.724  27.531  1.00  0.00    -0.200 F 
ATOM     96  F   UNL A   1      40.648  25.652  25.409  1.00  0.00    -0.200 F 
ENDBRANCH  62  86
BRANCH  74  97
ATOM     97  C   UNL A   1      44.373  28.031  34.722  1.00  0.00     0.064 A 
ATOM     98  C   UNL A   1      45.692  28.460  34.519  1.00  0.00     0.173 A 
ATOM     99  C   UNL A   1      44.170  26.837  35.432  1.00  0.00     0.173 A 
ATOM    100  F   UNL A   1      45.937  29.587  33.834  1.00  0.00    -0.203 F 
ATOM    101  C   UNL A   1      46.766  27.712  34.993  1.00  0.00     0.198 A 
ATOM    102  C   UNL A   1      45.246  26.109  35.932  1.00  0.00     0.198 A 
ATOM    103  F   UNL A   1      42.927  26.387  35.659  1.00  0.00    -0.203 F 
ATOM    104  F   UNL A   1      48.020  28.118  34.751  1.00  0.00    -0.200 F 
ATOM    105  C   UNL A   1      46.543  26.543  35.707  1.00  0.00     0.200 A 
ATOM    106  F   UNL A   1      45.027  24.990  36.636  1.00  0.00    -0.200 F 
ATOM    107  F   UNL A   1      47.579  25.834  36.174  1.00  0.00    -0.200 F 
ENDBRANCH  74  97
ENDBRANCH  48  49
ENDBRANCH  40  43
ENDBRANCH  38  39
ENDBRANCH  37  38
ENDBRANCH  36  37
ENDBRANCH   1  36
TORSDOF 18
ENDMDL
MODEL 3
REMARK VINA RESULT:     -12.8      1.059      2.184
REMARK SMILES Cc1cc(C(=O)N[C@@H]2C(=O)N3C(C(=O)NCCCCCCNC(=O)c4ccc(-c5c6nc(c(-c7c(F)c(F)c(F)c(F)c7F)c7ccc([nH]7)c(-c7c(F)c(F)c(F)c(F)c7F)c7nc(c(-c8c(F)c(F)c(F)c(F)c8F)c8ccc5[nH]8)C=C7)C=C6)cc4)=C(CSc4nnc(C)s4)CS[C@H]23)n(C)n1
REMARK SMILES IDX 18 1 17 2 16 3 15 4 13 5 14 6 12 8 8 9 9 10 99 11 10 12
REMARK SMILES IDX 11 13 98 14 97 15 88 16 7 17 5 18 6 19 4 21 1 22 2 23 3 24
REMARK SMILES IDX 102 25 100 26 101 27 89 28 90 29 91 30 92 31 96 32 93 33
REMARK SMILES IDX 94 34 95 35 19 36 20 37 21 38 22 39 23 40 24 42 25 43 26 44
REMARK SMILES IDX 87 45 27 46 86 47 28 48 29 49 30 50 80 51 31 52 85 53 79 54
REMARK SMILES IDX 81 55 32 56 84 57 78 58 77 59 33 61 65 62 45 63 64 64 46 65
REMARK SMILES IDX 49 66 63 67 82 68 47 69 48 70 62 72 83 73 50 74 34 75 35 76
REMARK SMILES IDX 43 77 36 78 37 79 41 80 44 81 38 82 39 83 42 84 40 85 66 86
REMARK SMILES IDX 67 87 75 88 68 89 69 90 73 91 76 92 70 93 71 94 74 95 72 96
REMARK SMILES IDX 51 97 52 98 60 99 53 100 54 101 58 102 61 103 55 104 56 105
REMARK SMILES IDX 59 106 57 107
REMARK H PARENT 15 7 7 20 22 41 81 60 49 71
REMARK Flexibility Score: inf
ROOT
ATOM      1  C   UNL A   1      33.854  30.325  27.166  1.00  0.00     0.002 C 
ENDROOT
BRANCH   1   2
ATOM      2  C   UNL A   1      32.379  30.078  26.878  1.00  0.00     0.021 C 
BRANCH   2   3
ATOM      3  C   UNL A   1      31.958  30.065  25.402  1.00  0.00     0.116 C 
BRANCH   3   4
ATOM      4  N   UNL A   1      33.064  29.654  24.561  1.00  0.00    -0.351 N 
ATOM      5  C   UNL A   1      33.445  28.591  23.818  1.00  0.00     0.268 C 
ATOM      6  O   UNL A   1      34.436  28.855  23.122  1.00  0.00    -0.268 OA
ATOM      7  H   UNL A   1      33.745  30.364  24.518  1.00  0.00     0.163 HD
BRANCH   5   8
ATOM      8  C   UNL A   1      32.711  27.252  23.602  1.00  0.00     0.111 C 
ATOM      9  C   UNL A   1      33.498  24.705  25.799  1.00  0.00     0.206 C 
ATOM     10  C   UNL A   1      33.321  26.250  25.822  1.00  0.00     0.253 C 
ATOM     11  C   UNL A   1      32.922  24.850  24.361  1.00  0.00     0.181 C 
ATOM     12  O   UNL A   1      33.194  27.074  26.709  1.00  0.00    -0.272 OA
ATOM     13  N   UNL A   1      33.202  26.269  24.458  1.00  0.00    -0.290 N 
ATOM     14  S   UNL A   1      31.130  24.625  24.163  1.00  0.00    -0.129 SA
ATOM     15  C   UNL A   1      31.200  25.486  22.593  1.00  0.00     0.106 C 
ATOM     16  C   UNL A   1      31.640  26.928  22.809  1.00  0.00    -0.020 C 
BRANCH   9  17
ATOM     17  N   UNL A   1      32.768  23.905  26.821  1.00  0.00    -0.336 N 
ATOM     18  C   UNL A   1      32.939  22.585  27.196  1.00  0.00     0.270 C 
ATOM     19  O   UNL A   1      32.218  22.149  28.092  1.00  0.00    -0.268 OA
ATOM     20  H   UNL A   1      32.059  24.389  27.303  1.00  0.00     0.164 HD
BRANCH  18  21
ATOM     21  C   UNL A   1      33.888  21.769  26.472  1.00  0.00     0.126 A 
ATOM     22  C   UNL A   1      37.028  21.239  24.708  1.00  0.00     0.069 C 
ATOM     23  C   UNL A   1      35.684  21.157  25.325  1.00  0.00     0.060 A 
ATOM     24  C   UNL A   1      35.266  21.664  26.575  1.00  0.00     0.059 A 
ATOM     25  N   UNL A   1      34.654  20.650  24.646  1.00  0.00    -0.178 NA
ATOM     26  N   UNL A   1      33.578  20.941  25.415  1.00  0.00    -0.263 N 
ATOM     27  C   UNL A   1      32.296  20.432  24.986  1.00  0.00     0.174 C 
ENDBRANCH  18  21
ENDBRANCH   9  17
BRANCH  16  28
ATOM     28  C   UNL A   1      30.611  27.859  22.211  1.00  0.00     0.111 C 
BRANCH  28  29
ATOM     29  S   UNL A   1      29.142  27.894  23.224  1.00  0.00    -0.089 SA
BRANCH  29  30
ATOM     30  C   UNL A   1      28.320  29.363  22.897  1.00  0.00     0.174 A 
ATOM     31  N   UNL A   1      27.284  29.815  23.562  1.00  0.00    -0.132 NA
ATOM     32  S   UNL A   1      29.067  30.510  21.871  1.00  0.00    -0.091 S 
ATOM     33  N   UNL A   1      27.240  31.203  23.506  1.00  0.00    -0.143 NA
ATOM     34  C   UNL A   1      28.245  31.688  22.803  1.00  0.00     0.115 A 
ATOM     35  C   UNL A   1      28.767  33.072  22.853  1.00  0.00     0.081 C 
ENDBRANCH  29  30
ENDBRANCH  28  29
ENDBRANCH  16  28
ENDBRANCH   5   8
ENDBRANCH   3   4
ENDBRANCH   2   3
ENDBRANCH   1   2
BRANCH   1  36
ATOM     36  C   UNL A   1      34.154  31.655  27.847  1.00  0.00     0.002 C 
BRANCH  36  37
ATOM     37  C   UNL A   1      32.987  32.646  27.886  1.00  0.00     0.021 C 
BRANCH  37  38
ATOM     38  C   UNL A   1      33.352  34.088  27.540  1.00  0.00     0.116 C 
BRANCH  38  39
ATOM     39  N   UNL A   1      32.871  35.027  28.542  1.00  0.00    -0.352 N 
ATOM     40  C   UNL A   1      33.229  35.151  29.860  1.00  0.00     0.251 C 
ATOM     41  H   UNL A   1      32.189  35.663  28.229  1.00  0.00     0.163 HD
ATOM     42  O   UNL A   1      32.550  35.820  30.632  1.00  0.00    -0.269 OA
BRANCH  40  43
ATOM     43  C   UNL A   1      34.445  34.473  30.347  1.00  0.00     0.039 A 
ATOM     44  C   UNL A   1      35.671  34.736  29.733  1.00  0.00     0.014 A 
ATOM     45  C   UNL A   1      34.362  33.562  31.404  1.00  0.00     0.014 A 
ATOM     46  C   UNL A   1      36.829  34.121  30.215  1.00  0.00     0.010 A 
ATOM     47  C   UNL A   1      35.523  33.011  31.930  1.00  0.00     0.010 A 
ATOM     48  C   UNL A   1      36.766  33.275  31.334  1.00  0.00    -0.014 A 
BRANCH  48  49
ATOM     49  C   UNL A   1      37.973  32.614  31.885  1.00  0.00     0.031 A 
ATOM     50  C   UNL A   1      38.589  31.464  31.138  1.00  0.00     0.074 A 
ATOM     51  C   UNL A   1      38.453  32.979  33.089  1.00  0.00     0.049 A 
ATOM     52  N   UNL A   1      39.540  30.645  31.509  1.00  0.00    -0.248 NA
ATOM     53  C   UNL A   1      38.033  31.174  29.806  1.00  0.00     0.031 C 
ATOM     54  C   UNL A   1      37.922  34.060  33.919  1.00  0.00     0.029 A 
ATOM     55  N   UNL A   1      39.484  32.463  33.833  1.00  0.00    -0.354 N 
ATOM     56  C   UNL A   1      39.676  29.732  30.471  1.00  0.00     0.074 A 
ATOM     57  C   UNL A   1      38.675  30.063  29.481  1.00  0.00     0.031 C 
ATOM     58  C   UNL A   1      38.636  34.134  35.054  1.00  0.00     0.029 A 
ATOM     59  C   UNL A   1      39.644  33.076  35.051  1.00  0.00     0.049 A 
ATOM     60  H   UNL A   1      40.054  31.722  33.523  1.00  0.00     0.167 HD
ATOM     61  C   UNL A   1      40.570  28.723  30.348  1.00  0.00     0.037 A 
ATOM     62  C   UNL A   1      40.495  32.803  36.057  1.00  0.00     0.037 A 
ATOM     63  C   UNL A   1      41.580  28.419  31.327  1.00  0.00     0.049 A 
ATOM     64  C   UNL A   1      41.470  31.665  35.903  1.00  0.00     0.074 A 
ATOM     65  C   UNL A   1      42.567  27.452  31.277  1.00  0.00     0.029 A 
ATOM     66  N   UNL A   1      41.731  29.085  32.535  1.00  0.00    -0.354 N 
ATOM     67  N   UNL A   1      41.625  30.839  34.897  1.00  0.00    -0.248 NA
ATOM     68  C   UNL A   1      42.393  31.425  37.021  1.00  0.00     0.031 C 
ATOM     69  C   UNL A   1      43.285  27.498  32.476  1.00  0.00     0.029 A 
ATOM     70  C   UNL A   1      42.784  28.536  33.247  1.00  0.00     0.049 A 
ATOM     71  H   UNL A   1      41.172  29.835  32.840  1.00  0.00     0.167 HD
ATOM     72  C   UNL A   1      42.686  30.010  35.242  1.00  0.00     0.074 A 
ATOM     73  C   UNL A   1      43.138  30.437  36.549  1.00  0.00     0.031 C 
ATOM     74  C   UNL A   1      43.236  28.991  34.538  1.00  0.00     0.037 A 
BRANCH  61  75
ATOM     75  C   UNL A   1      40.489  27.871  29.113  1.00  0.00     0.064 A 
ATOM     76  C   UNL A   1      39.677  26.728  29.056  1.00  0.00     0.173 A 
ATOM     77  C   UNL A   1      41.214  28.217  27.962  1.00  0.00     0.173 A 
ATOM     78  F   UNL A   1      38.972  26.345  30.132  1.00  0.00    -0.203 F 
ATOM     79  C   UNL A   1      39.622  25.943  27.907  1.00  0.00     0.198 A 
ATOM     80  C   UNL A   1      41.129  27.449  26.803  1.00  0.00     0.198 A 
ATOM     81  F   UNL A   1      42.001  29.302  27.958  1.00  0.00    -0.203 F 
ATOM     82  F   UNL A   1      38.886  24.823  27.897  1.00  0.00    -0.200 F 
ATOM     83  C   UNL A   1      40.342  26.308  26.780  1.00  0.00     0.200 A 
ATOM     84  F   UNL A   1      41.815  27.811  25.710  1.00  0.00    -0.200 F 
ATOM     85  F   UNL A   1      40.284  25.554  25.673  1.00  0.00    -0.200 F 
ENDBRANCH  61  75
BRANCH  62  86
ATOM     86  C   UNL A   1      40.480  33.630  37.292  1.00  0.00     0.064 A 
ATOM     87  C   UNL A   1      39.608  33.327  38.348  1.00  0.00     0.173 A 
ATOM     88  C   UNL A   1      41.326  34.737  37.444  1.00  0.00     0.173 A 
ATOM     89  F   UNL A   1      38.765  32.288  38.243  1.00  0.00    -0.203 F 
ATOM     90  C   UNL A   1      39.567  34.114  39.497  1.00  0.00     0.198 A 
ATOM     91  C   UNL A   1      41.306  35.506  38.607  1.00  0.00     0.198 A 
ATOM     92  F   UNL A   1      42.186  35.066  36.468  1.00  0.00    -0.203 F 
ATOM     93  F   UNL A   1      38.689  33.830  40.470  1.00  0.00    -0.200 F 
ATOM     94  C   UNL A   1      40.420  35.199  39.628  1.00  0.00     0.200 A 
ATOM     95  F   UNL A   1      42.144  36.543  38.737  1.00  0.00    -0.200 F 
ATOM     96  F   UNL A   1      40.384  35.953  40.735  1.00  0.00    -0.200 F 
ENDBRANCH  62  86
BRANCH  74  97
ATOM     97  C   UNL A   1      44.431  28.303  35.133  1.00  0.00     0.064 A 
ATOM     98  C   UNL A   1      44.307  27.161  35.935  1.00  0.00     0.173 A 
ATOM     99  C   UNL A   1      45.725  28.766  34.841  1.00  0.00     0.173 A 
ATOM    100  F   UNL A   1      43.092  26.689  36.253  1.00  0.00    -0.203 F 
ATOM    101  C   UNL A   1      45.434  26.517  36.441  1.00  0.00     0.198 A 
ATOM    102  C   UNL A   1      46.849  28.101  35.322  1.00  0.00     0.198 A 
ATOM    103  F   UNL A   1      45.898  29.851  34.072  1.00  0.00    -0.203 F 
ATOM    104  F   UNL A   1      45.290  25.452  37.241  1.00  0.00    -0.200 F 
ATOM    105  C   UNL A   1      46.703  26.981  36.126  1.00  0.00     0.200 A 
ATOM    106  F   UNL A   1      48.074  28.541  35.003  1.00  0.00    -0.200 F 
ATOM    107  F   UNL A   1      47.785  26.351  36.603  1.00  0.00    -0.200 F 
ENDBRANCH  74  97
ENDBRANCH  48  49
ENDBRANCH  40  43
ENDBRANCH  38  39
ENDBRANCH  37  38
ENDBRANCH  36  37
ENDBRANCH   1  36
TORSDOF 18
ENDMDL
