MODEL 1
REMARK VINA RESULT:     -11.1      0.000      0.000
REMARK SMILES Cc1cscc1CNC(=O)CC(C)(C)C(=O)NCCCCCCNC(=O)c1ccc(-c2c3nc(c(-c4c(F)c(F)c(F)c(F)c4F)c4ccc([nH]4)c(-c4c(F)c(F)c(F)c(F)c4F)c4nc(c(-c5c(F)c(F)c(F)c(F)c5F)c5ccc2[nH]5)C=C4)C=C3)cc1
REMARK SMILES IDX 19 1 18 2 17 3 15 4 16 5 12 7 13 8 14 9 11 10 9 11 8 12
REMARK SMILES IDX 10 14 7 15 6 16 1 17 2 18 3 19 4 20 5 21 20 22 21 23 22 24
REMARK SMILES IDX 23 25 24 26 25 27 26 29 27 30 28 31 89 32 29 33 88 34 30 35
REMARK SMILES IDX 31 36 32 37 82 38 33 39 87 40 81 41 83 42 34 43 86 44 80 45
REMARK SMILES IDX 79 46 35 48 67 49 47 50 66 51 48 52 51 53 65 54 84 55 49 56
REMARK SMILES IDX 50 57 64 59 85 60 52 61 36 62 37 63 45 64 38 65 39 66 43 67
REMARK SMILES IDX 46 68 40 69 41 70 44 71 42 72 68 73 69 74 77 75 70 76 71 77
REMARK SMILES IDX 75 78 78 79 72 80 73 81 76 82 74 83 53 84 54 85 62 86 55 87
REMARK SMILES IDX 56 88 60 89 63 90 57 91 58 92 61 93 59 94
REMARK H PARENT 17 6 8 13 24 28 83 47 51 58
REMARK Flexibility Score: inf
ROOT
ATOM      1  C   UNL A   1      36.659  22.755  23.494  1.00  0.00     0.021 C 
ENDROOT
BRANCH   1   2
ATOM      2  C   UNL A   1      35.401  23.560  23.808  1.00  0.00     0.116 C 
BRANCH   2   3
ATOM      3  N   UNL A   1      34.226  22.971  23.209  1.00  0.00    -0.356 N 
ATOM      4  C   UNL A   1      33.109  22.406  23.728  1.00  0.00     0.226 C 
ATOM      5  O   UNL A   1      32.349  21.918  22.890  1.00  0.00    -0.274 OA
ATOM      6  H   UNL A   1      34.239  22.983  22.225  1.00  0.00     0.163 HD
BRANCH   4   7
ATOM      7  C   UNL A   1      32.839  22.287  25.245  1.00  0.00     0.052 C 
ATOM      8  C   UNL A   1      33.515  23.390  26.078  1.00  0.00     0.022 C 
ATOM      9  C   UNL A   1      33.396  20.925  25.713  1.00  0.00     0.022 C 
BRANCH   7  10
ATOM     10  C   UNL A   1      31.301  22.293  25.538  1.00  0.00     0.116 C 
BRANCH  10  11
ATOM     11  C   UNL A   1      30.638  23.549  26.095  1.00  0.00     0.221 C 
ATOM     12  N   UNL A   1      30.291  24.597  25.307  1.00  0.00    -0.352 N 
ATOM     13  H   UNL A   1      29.682  25.243  25.734  1.00  0.00     0.163 HD
ATOM     14  O   UNL A   1      30.464  23.684  27.309  1.00  0.00    -0.275 OA
BRANCH  12  15
ATOM     15  C   UNL A   1      30.656  24.928  23.954  1.00  0.00     0.152 C 
BRANCH  15  16
ATOM     16  C   UNL A   1      31.783  25.925  23.922  1.00  0.00    -0.015 A 
ATOM     17  C   UNL A   1      32.410  25.540  21.416  1.00  0.00     0.045 C 
ATOM     18  C   UNL A   1      32.571  26.216  22.740  1.00  0.00    -0.035 A 
ATOM     19  C   UNL A   1      33.498  27.214  22.981  1.00  0.00     0.068 A 
ATOM     20  S   UNL A   1      33.455  27.789  24.584  1.00  0.00    -0.152 S 
ATOM     21  C   UNL A   1      32.202  26.706  24.989  1.00  0.00     0.070 A 
ENDBRANCH  15  16
ENDBRANCH  12  15
ENDBRANCH  10  11
ENDBRANCH   7  10
ENDBRANCH   4   7
ENDBRANCH   2   3
ENDBRANCH   1   2
BRANCH   1  22
ATOM     22  C   UNL A   1      37.244  21.969  24.671  1.00  0.00     0.002 C 
BRANCH  22  23
ATOM     23  C   UNL A   1      36.850  20.491  24.748  1.00  0.00     0.002 C 
BRANCH  23  24
ATOM     24  C   UNL A   1      37.998  19.507  24.978  1.00  0.00     0.021 C 
BRANCH  24  25
ATOM     25  C   UNL A   1      39.144  20.026  25.837  1.00  0.00     0.116 C 
BRANCH  25  26
ATOM     26  N   UNL A   1      40.286  19.130  25.852  1.00  0.00    -0.352 N 
ATOM     27  C   UNL A   1      41.610  19.412  26.050  1.00  0.00     0.251 C 
ATOM     28  H   UNL A   1      40.077  18.180  25.698  1.00  0.00     0.163 HD
ATOM     29  O   UNL A   1      42.456  18.529  25.883  1.00  0.00    -0.269 OA
BRANCH  27  30
ATOM     30  C   UNL A   1      42.044  20.771  26.439  1.00  0.00     0.039 A 
ATOM     31  C   UNL A   1      42.248  21.718  25.433  1.00  0.00     0.014 A 
ATOM     32  C   UNL A   1      42.283  21.109  27.775  1.00  0.00     0.014 A 
ATOM     33  C   UNL A   1      42.654  23.011  25.766  1.00  0.00     0.010 A 
ATOM     34  C   UNL A   1      42.613  22.421  28.113  1.00  0.00     0.010 A 
ATOM     35  C   UNL A   1      42.820  23.379  27.112  1.00  0.00    -0.014 A 
BRANCH  35  36
ATOM     36  C   UNL A   1      43.229  24.762  27.469  1.00  0.00     0.031 A 
ATOM     37  C   UNL A   1      44.631  25.233  27.204  1.00  0.00     0.074 A 
ATOM     38  C   UNL A   1      42.337  25.590  28.045  1.00  0.00     0.049 A 
ATOM     39  N   UNL A   1      45.162  26.414  27.410  1.00  0.00    -0.248 NA
ATOM     40  C   UNL A   1      45.571  24.241  26.659  1.00  0.00     0.031 C 
ATOM     41  C   UNL A   1      40.961  25.236  28.395  1.00  0.00     0.029 A 
ATOM     42  N   UNL A   1      42.451  26.902  28.428  1.00  0.00    -0.354 N 
ATOM     43  C   UNL A   1      46.490  26.303  27.020  1.00  0.00     0.074 A 
ATOM     44  C   UNL A   1      46.704  24.925  26.636  1.00  0.00     0.031 C 
ATOM     45  C   UNL A   1      40.343  26.318  28.894  1.00  0.00     0.029 A 
ATOM     46  C   UNL A   1      41.287  27.431  28.928  1.00  0.00     0.049 A 
ATOM     47  H   UNL A   1      43.287  27.416  28.352  1.00  0.00     0.167 HD
ATOM     48  C   UNL A   1      47.439  27.270  26.959  1.00  0.00     0.037 A 
ATOM     49  C   UNL A   1      41.009  28.679  29.351  1.00  0.00     0.037 A 
ATOM     50  C   UNL A   1      47.221  28.642  27.336  1.00  0.00     0.049 A 
ATOM     51  C   UNL A   1      42.083  29.730  29.290  1.00  0.00     0.074 A 
ATOM     52  C   UNL A   1      48.103  29.707  27.278  1.00  0.00     0.029 A 
ATOM     53  N   UNL A   1      46.030  29.138  27.850  1.00  0.00    -0.354 N 
ATOM     54  N   UNL A   1      43.315  29.634  28.855  1.00  0.00    -0.248 NA
ATOM     55  C   UNL A   1      41.720  31.070  29.773  1.00  0.00     0.031 C 
ATOM     56  C   UNL A   1      47.461  30.836  27.799  1.00  0.00     0.029 A 
ATOM     57  C   UNL A   1      46.161  30.489  28.131  1.00  0.00     0.049 A 
ATOM     58  H   UNL A   1      45.213  28.607  27.992  1.00  0.00     0.167 HD
ATOM     59  C   UNL A   1      43.864  30.904  28.974  1.00  0.00     0.074 A 
ATOM     60  C   UNL A   1      42.824  31.755  29.516  1.00  0.00     0.031 C 
ATOM     61  C   UNL A   1      45.114  31.326  28.661  1.00  0.00     0.037 A 
BRANCH  48  62
ATOM     62  C   UNL A   1      48.800  26.865  26.465  1.00  0.00     0.064 A 
ATOM     63  C   UNL A   1      49.776  26.352  27.336  1.00  0.00     0.173 A 
ATOM     64  C   UNL A   1      49.136  26.987  25.109  1.00  0.00     0.173 A 
ATOM     65  F   UNL A   1      49.511  26.224  28.645  1.00  0.00    -0.203 F 
ATOM     66  C   UNL A   1      51.048  26.021  26.875  1.00  0.00     0.198 A 
ATOM     67  C   UNL A   1      50.398  26.622  24.645  1.00  0.00     0.198 A 
ATOM     68  F   UNL A   1      48.242  27.464  24.230  1.00  0.00    -0.203 F 
ATOM     69  F   UNL A   1      51.982  25.599  27.739  1.00  0.00    -0.200 F 
ATOM     70  C   UNL A   1      51.356  26.152  25.531  1.00  0.00     0.200 A 
ATOM     71  F   UNL A   1      50.691  26.736  23.342  1.00  0.00    -0.200 F 
ATOM     72  F   UNL A   1      52.582  25.836  25.089  1.00  0.00    -0.200 F 
ENDBRANCH  48  62
BRANCH  49  73
ATOM     73  C   UNL A   1      39.635  29.016  29.805  1.00  0.00     0.064 A 
ATOM     74  C   UNL A   1      38.685  29.510  28.899  1.00  0.00     0.173 A 
ATOM     75  C   UNL A   1      39.239  28.847  31.139  1.00  0.00     0.173 A 
ATOM     76  F   UNL A   1      39.023  29.706  27.615  1.00  0.00    -0.203 F 
ATOM     77  C   UNL A   1      37.396  29.835  29.314  1.00  0.00     0.198 A 
ATOM     78  C   UNL A   1      37.941  29.148  31.546  1.00  0.00     0.198 A 
ATOM     79  F   UNL A   1      40.109  28.374  32.042  1.00  0.00    -0.203 F 
ATOM     80  F   UNL A   1      36.520  30.342  28.435  1.00  0.00    -0.200 F 
ATOM     81  C   UNL A   1      37.024  29.648  30.635  1.00  0.00     0.200 A 
ATOM     82  F   UNL A   1      37.580  28.953  32.822  1.00  0.00    -0.200 F 
ATOM     83  F   UNL A   1      35.781  29.956  31.033  1.00  0.00    -0.200 F 
ENDBRANCH  49  73
BRANCH  61  84
ATOM     84  C   UNL A   1      45.411  32.786  28.852  1.00  0.00     0.064 A 
ATOM     85  C   UNL A   1      45.998  33.274  30.028  1.00  0.00     0.173 A 
ATOM     86  C   UNL A   1      45.122  33.705  27.831  1.00  0.00     0.173 A 
ATOM     87  F   UNL A   1      46.279  32.439  31.040  1.00  0.00    -0.203 F 
ATOM     88  C   UNL A   1      46.253  34.635  30.189  1.00  0.00     0.198 A 
ATOM     89  C   UNL A   1      45.409  35.059  27.983  1.00  0.00     0.198 A 
ATOM     90  F   UNL A   1      44.567  33.289  26.683  1.00  0.00    -0.203 F 
ATOM     91  F   UNL A   1      46.761  35.086  31.344  1.00  0.00    -0.200 F 
ATOM     92  C   UNL A   1      45.965  35.524  29.165  1.00  0.00     0.200 A 
ATOM     93  F   UNL A   1      45.143  35.915  26.986  1.00  0.00    -0.200 F 
ATOM     94  F   UNL A   1      46.214  36.831  29.321  1.00  0.00    -0.200 F 
ENDBRANCH  61  84
ENDBRANCH  35  36
ENDBRANCH  27  30
ENDBRANCH  25  26
ENDBRANCH  24  25
ENDBRANCH  23  24
ENDBRANCH  22  23
ENDBRANCH   1  22
TORSDOF 17
ENDMDL
MODEL 2
REMARK VINA RESULT:     -11.1      5.260     10.667
REMARK SMILES Cc1cscc1CNC(=O)CC(C)(C)C(=O)NCCCCCCNC(=O)c1ccc(-c2c3nc(c(-c4c(F)c(F)c(F)c(F)c4F)c4ccc([nH]4)c(-c4c(F)c(F)c(F)c(F)c4F)c4nc(c(-c5c(F)c(F)c(F)c(F)c5F)c5ccc2[nH]5)C=C4)C=C3)cc1
REMARK SMILES IDX 19 1 18 2 17 3 15 4 16 5 12 7 13 8 14 9 11 10 9 11 8 12
REMARK SMILES IDX 10 14 7 15 6 16 1 17 2 18 3 19 4 20 5 21 20 22 21 23 22 24
REMARK SMILES IDX 23 25 24 26 25 27 26 29 27 30 28 31 89 32 29 33 88 34 30 35
REMARK SMILES IDX 31 36 32 37 82 38 33 39 87 40 81 41 83 42 34 43 86 44 80 45
REMARK SMILES IDX 79 46 35 48 67 49 47 50 66 51 48 52 51 53 65 54 84 55 49 56
REMARK SMILES IDX 50 57 64 59 85 60 52 61 36 62 37 63 45 64 38 65 39 66 43 67
REMARK SMILES IDX 46 68 40 69 41 70 44 71 42 72 68 73 69 74 77 75 70 76 71 77
REMARK SMILES IDX 75 78 78 79 72 80 73 81 76 82 74 83 53 84 54 85 62 86 55 87
REMARK SMILES IDX 56 88 60 89 63 90 57 91 58 92 61 93 59 94
REMARK H PARENT 17 6 8 13 24 28 83 47 51 58
REMARK Flexibility Score: inf
ROOT
ATOM      1  C   UNL A   1      33.547  29.144  26.064  1.00  0.00     0.021 C 
ENDROOT
BRANCH   1   2
ATOM      2  C   UNL A   1      33.925  27.666  26.101  1.00  0.00     0.116 C 
BRANCH   2   3
ATOM      3  N   UNL A   1      32.758  26.816  26.136  1.00  0.00    -0.356 N 
ATOM      4  C   UNL A   1      32.401  25.707  25.444  1.00  0.00     0.226 C 
ATOM      5  O   UNL A   1      31.263  25.300  25.686  1.00  0.00    -0.274 OA
ATOM      6  H   UNL A   1      32.085  27.100  26.797  1.00  0.00     0.163 HD
BRANCH   4   7
ATOM      7  C   UNL A   1      33.293  25.050  24.368  1.00  0.00     0.052 C 
ATOM      8  C   UNL A   1      32.643  23.830  23.691  1.00  0.00     0.022 C 
ATOM      9  C   UNL A   1      34.590  24.577  25.061  1.00  0.00     0.022 C 
BRANCH   7  10
ATOM     10  C   UNL A   1      33.699  26.090  23.271  1.00  0.00     0.116 C 
BRANCH  10  11
ATOM     11  C   UNL A   1      32.788  26.321  22.069  1.00  0.00     0.221 C 
ATOM     12  N   UNL A   1      31.935  27.373  21.995  1.00  0.00    -0.352 N 
ATOM     13  H   UNL A   1      31.568  27.538  21.096  1.00  0.00     0.163 HD
ATOM     14  O   UNL A   1      32.744  25.503  21.145  1.00  0.00    -0.275 OA
BRANCH  12  15
ATOM     15  C   UNL A   1      31.475  28.292  23.004  1.00  0.00     0.152 C 
BRANCH  15  16
ATOM     16  C   UNL A   1      30.098  28.808  22.684  1.00  0.00    -0.015 A 
ATOM     17  C   UNL A   1      28.806  26.843  23.822  1.00  0.00     0.045 C 
ATOM     18  C   UNL A   1      28.873  28.143  23.086  1.00  0.00    -0.035 A 
ATOM     19  C   UNL A   1      27.755  28.867  22.710  1.00  0.00     0.068 A 
ATOM     20  S   UNL A   1      28.142  30.303  21.878  1.00  0.00    -0.152 S 
ATOM     21  C   UNL A   1      29.812  29.977  21.996  1.00  0.00     0.070 A 
ENDBRANCH  15  16
ENDBRANCH  12  15
ENDBRANCH  10  11
ENDBRANCH   7  10
ENDBRANCH   4   7
ENDBRANCH   2   3
ENDBRANCH   1   2
BRANCH   1  22
ATOM     22  C   UNL A   1      32.153  29.477  26.604  1.00  0.00     0.002 C 
BRANCH  22  23
ATOM     23  C   UNL A   1      31.389  30.567  25.848  1.00  0.00     0.002 C 
BRANCH  23  24
ATOM     24  C   UNL A   1      31.283  31.919  26.557  1.00  0.00     0.021 C 
BRANCH  24  25
ATOM     25  C   UNL A   1      32.611  32.563  26.940  1.00  0.00     0.116 C 
BRANCH  25  26
ATOM     26  N   UNL A   1      32.447  33.885  27.516  1.00  0.00    -0.352 N 
ATOM     27  C   UNL A   1      33.129  34.477  28.544  1.00  0.00     0.251 C 
ATOM     28  H   UNL A   1      31.743  34.438  27.106  1.00  0.00     0.163 HD
ATOM     29  O   UNL A   1      32.748  35.562  28.989  1.00  0.00    -0.269 OA
BRANCH  27  30
ATOM     30  C   UNL A   1      34.308  33.817  29.148  1.00  0.00     0.039 A 
ATOM     31  C   UNL A   1      35.580  34.275  28.796  1.00  0.00     0.014 A 
ATOM     32  C   UNL A   1      34.173  32.738  30.027  1.00  0.00     0.014 A 
ATOM     33  C   UNL A   1      36.712  33.677  29.349  1.00  0.00     0.010 A 
ATOM     34  C   UNL A   1      35.301  32.193  30.639  1.00  0.00     0.010 A 
ATOM     35  C   UNL A   1      36.582  32.644  30.293  1.00  0.00    -0.014 A 
BRANCH  35  36
ATOM     36  C   UNL A   1      37.786  32.023  30.901  1.00  0.00     0.031 A 
ATOM     37  C   UNL A   1      38.220  32.404  32.289  1.00  0.00     0.074 A 
ATOM     38  C   UNL A   1      38.498  31.125  30.196  1.00  0.00     0.049 A 
ATOM     39  N   UNL A   1      39.219  31.943  33.002  1.00  0.00    -0.248 NA
ATOM     40  C   UNL A   1      37.446  33.461  32.958  1.00  0.00     0.031 C 
ATOM     41  C   UNL A   1      38.206  30.707  28.824  1.00  0.00     0.029 A 
ATOM     42  N   UNL A   1      39.606  30.392  30.538  1.00  0.00    -0.354 N 
ATOM     43  C   UNL A   1      39.190  32.652  34.196  1.00  0.00     0.074 A 
ATOM     44  C   UNL A   1      38.123  33.623  34.084  1.00  0.00     0.031 C 
ATOM     45  C   UNL A   1      39.079  29.755  28.460  1.00  0.00     0.029 A 
ATOM     46  C   UNL A   1      40.011  29.520  29.559  1.00  0.00     0.049 A 
ATOM     47  H   UNL A   1      40.067  30.482  31.404  1.00  0.00     0.167 HD
ATOM     48  C   UNL A   1      39.962  32.488  35.298  1.00  0.00     0.037 A 
ATOM     49  C   UNL A   1      41.013  28.619  29.555  1.00  0.00     0.037 A 
ATOM     50  C   UNL A   1      41.018  31.516  35.408  1.00  0.00     0.049 A 
ATOM     51  C   UNL A   1      41.868  28.468  30.783  1.00  0.00     0.074 A 
ATOM     52  C   UNL A   1      41.835  31.244  36.491  1.00  0.00     0.029 A 
ATOM     53  N   UNL A   1      41.407  30.657  34.389  1.00  0.00    -0.354 N 
ATOM     54  N   UNL A   1      41.788  29.093  31.932  1.00  0.00    -0.248 NA
ATOM     55  C   UNL A   1      42.948  27.475  30.713  1.00  0.00     0.031 C 
ATOM     56  C   UNL A   1      42.749  30.253  36.112  1.00  0.00     0.029 A 
ATOM     57  C   UNL A   1      42.466  29.868  34.811  1.00  0.00     0.049 A 
ATOM     58  H   UNL A   1      40.992  30.615  33.497  1.00  0.00     0.167 HD
ATOM     59  C   UNL A   1      42.780  28.546  32.735  1.00  0.00     0.074 A 
ATOM     60  C   UNL A   1      43.442  27.530  31.942  1.00  0.00     0.031 C 
ATOM     61  C   UNL A   1      43.109  28.855  34.014  1.00  0.00     0.037 A 
BRANCH  48  62
ATOM     62  C   UNL A   1      39.685  33.389  36.469  1.00  0.00     0.064 A 
ATOM     63  C   UNL A   1      40.337  34.624  36.619  1.00  0.00     0.173 A 
ATOM     64  C   UNL A   1      38.757  33.018  37.454  1.00  0.00     0.173 A 
ATOM     65  F   UNL A   1      41.242  35.022  35.712  1.00  0.00    -0.203 F 
ATOM     66  C   UNL A   1      40.105  35.430  37.730  1.00  0.00     0.198 A 
ATOM     67  C   UNL A   1      38.501  33.843  38.548  1.00  0.00     0.198 A 
ATOM     68  F   UNL A   1      38.098  31.853  37.360  1.00  0.00    -0.203 F 
ATOM     69  F   UNL A   1      40.791  36.570  37.883  1.00  0.00    -0.200 F 
ATOM     70  C   UNL A   1      39.185  35.041  38.691  1.00  0.00     0.200 A 
ATOM     71  F   UNL A   1      37.601  33.473  39.469  1.00  0.00    -0.200 F 
ATOM     72  F   UNL A   1      38.964  35.816  39.762  1.00  0.00    -0.200 F 
ENDBRANCH  48  62
BRANCH  49  73
ATOM     73  C   UNL A   1      41.215  27.745  28.371  1.00  0.00     0.064 A 
ATOM     74  C   UNL A   1      42.084  28.131  27.339  1.00  0.00     0.173 A 
ATOM     75  C   UNL A   1      40.560  26.512  28.246  1.00  0.00     0.173 A 
ATOM     76  F   UNL A   1      42.719  29.310  27.404  1.00  0.00    -0.203 F 
ATOM     77  C   UNL A   1      42.277  27.323  26.221  1.00  0.00     0.198 A 
ATOM     78  C   UNL A   1      40.775  25.694  27.139  1.00  0.00     0.198 A 
ATOM     79  F   UNL A   1      39.724  26.097  29.208  1.00  0.00    -0.203 F 
ATOM     80  F   UNL A   1      43.081  27.733  25.231  1.00  0.00    -0.200 F 
ATOM     81  C   UNL A   1      41.627  26.103  26.125  1.00  0.00     0.200 A 
ATOM     82  F   UNL A   1      40.156  24.508  27.057  1.00  0.00    -0.200 F 
ATOM     83  F   UNL A   1      41.818  25.322  25.053  1.00  0.00    -0.200 F 
ENDBRANCH  49  73
BRANCH  61  84
ATOM     84  C   UNL A   1      44.206  28.050  34.651  1.00  0.00     0.064 A 
ATOM     85  C   UNL A   1      45.544  28.469  34.621  1.00  0.00     0.173 A 
ATOM     86  C   UNL A   1      43.907  26.854  35.321  1.00  0.00     0.173 A 
ATOM     87  F   UNL A   1      45.885  29.598  33.981  1.00  0.00    -0.203 F 
ATOM     88  C   UNL A   1      46.548  27.701  35.208  1.00  0.00     0.198 A 
ATOM     89  C   UNL A   1      44.908  26.106  35.934  1.00  0.00     0.198 A 
ATOM     90  F   UNL A   1      42.642  26.412  35.385  1.00  0.00    -0.203 F 
ATOM     91  F   UNL A   1      47.826  28.092  35.117  1.00  0.00    -0.200 F 
ATOM     92  C   UNL A   1      46.229  26.524  35.869  1.00  0.00     0.200 A 
ATOM     93  F   UNL A   1      44.595  24.976  36.585  1.00  0.00    -0.200 F 
ATOM     94  F   UNL A   1      47.195  25.789  36.435  1.00  0.00    -0.200 F 
ENDBRANCH  61  84
ENDBRANCH  35  36
ENDBRANCH  27  30
ENDBRANCH  25  26
ENDBRANCH  24  25
ENDBRANCH  23  24
ENDBRANCH  22  23
ENDBRANCH   1  22
TORSDOF 17
ENDMDL
MODEL 3
REMARK VINA RESULT:     -11.1      0.451      2.003
REMARK SMILES Cc1cscc1CNC(=O)CC(C)(C)C(=O)NCCCCCCNC(=O)c1ccc(-c2c3nc(c(-c4c(F)c(F)c(F)c(F)c4F)c4ccc([nH]4)c(-c4c(F)c(F)c(F)c(F)c4F)c4nc(c(-c5c(F)c(F)c(F)c(F)c5F)c5ccc2[nH]5)C=C4)C=C3)cc1
REMARK SMILES IDX 19 1 18 2 17 3 15 4 16 5 12 7 13 8 14 9 11 10 9 11 8 12
REMARK SMILES IDX 10 14 7 15 6 16 1 17 2 18 3 19 4 20 5 21 20 22 21 23 22 24
REMARK SMILES IDX 23 25 24 26 25 27 26 29 27 30 28 31 89 32 29 33 88 34 30 35
REMARK SMILES IDX 31 36 32 37 82 38 33 39 87 40 81 41 83 42 34 43 86 44 80 45
REMARK SMILES IDX 79 46 35 48 67 49 47 50 66 51 48 52 51 53 65 54 84 55 49 56
REMARK SMILES IDX 50 57 64 59 85 60 52 61 36 62 37 63 45 64 38 65 39 66 43 67
REMARK SMILES IDX 46 68 40 69 41 70 44 71 42 72 68 73 69 74 77 75 70 76 71 77
REMARK SMILES IDX 75 78 78 79 72 80 73 81 76 82 74 83 53 84 54 85 62 86 55 87
REMARK SMILES IDX 56 88 60 89 63 90 57 91 58 92 61 93 59 94
REMARK H PARENT 17 6 8 13 24 28 83 47 51 58
REMARK Flexibility Score: inf
ROOT
ATOM      1  C   UNL A   1      36.669  22.596  23.491  1.00  0.00     0.021 C 
ENDROOT
BRANCH   1   2
ATOM      2  C   UNL A   1      35.550  23.631  23.564  1.00  0.00     0.116 C 
BRANCH   2   3
ATOM      3  N   UNL A   1      34.330  23.141  22.965  1.00  0.00    -0.356 N 
ATOM      4  C   UNL A   1      33.090  22.901  23.458  1.00  0.00     0.226 C 
ATOM      5  O   UNL A   1      32.313  22.386  22.652  1.00  0.00    -0.274 OA
ATOM      6  H   UNL A   1      34.416  22.942  22.005  1.00  0.00     0.163 HD
BRANCH   4   7
ATOM      7  C   UNL A   1      32.694  23.155  24.929  1.00  0.00     0.052 C 
ATOM      8  C   UNL A   1      33.308  24.436  25.520  1.00  0.00     0.022 C 
ATOM      9  C   UNL A   1      33.197  21.955  25.762  1.00  0.00     0.022 C 
BRANCH   7  10
ATOM     10  C   UNL A   1      31.137  23.214  25.083  1.00  0.00     0.116 C 
BRANCH  10  11
ATOM     11  C   UNL A   1      30.507  24.191  26.072  1.00  0.00     0.221 C 
ATOM     12  N   UNL A   1      29.850  25.308  25.671  1.00  0.00    -0.352 N 
ATOM     13  H   UNL A   1      29.307  25.735  26.373  1.00  0.00     0.163 HD
ATOM     14  O   UNL A   1      30.645  24.033  27.288  1.00  0.00    -0.275 OA
BRANCH  12  15
ATOM     15  C   UNL A   1      29.807  25.976  24.395  1.00  0.00     0.152 C 
BRANCH  15  16
ATOM     16  C   UNL A   1      30.966  26.923  24.238  1.00  0.00    -0.015 A 
ATOM     17  C   UNL A   1      31.750  26.004  21.921  1.00  0.00     0.045 C 
ATOM     18  C   UNL A   1      31.842  26.942  23.081  1.00  0.00    -0.035 A 
ATOM     19  C   UNL A   1      32.783  27.952  23.175  1.00  0.00     0.068 A 
ATOM     20  S   UNL A   1      32.650  28.855  24.613  1.00  0.00    -0.152 S 
ATOM     21  C   UNL A   1      31.337  27.905  25.144  1.00  0.00     0.070 A 
ENDBRANCH  15  16
ENDBRANCH  12  15
ENDBRANCH  10  11
ENDBRANCH   7  10
ENDBRANCH   4   7
ENDBRANCH   2   3
ENDBRANCH   1   2
BRANCH   1  22
ATOM     22  C   UNL A   1      37.017  21.912  24.816  1.00  0.00     0.002 C 
BRANCH  22  23
ATOM     23  C   UNL A   1      36.704  20.416  24.895  1.00  0.00     0.002 C 
BRANCH  23  24
ATOM     24  C   UNL A   1      37.912  19.489  25.044  1.00  0.00     0.021 C 
BRANCH  24  25
ATOM     25  C   UNL A   1      39.099  20.077  25.798  1.00  0.00     0.116 C 
BRANCH  25  26
ATOM     26  N   UNL A   1      40.235  19.174  25.848  1.00  0.00    -0.352 N 
ATOM     27  C   UNL A   1      41.556  19.451  26.072  1.00  0.00     0.251 C 
ATOM     28  H   UNL A   1      40.023  18.224  25.701  1.00  0.00     0.163 HD
ATOM     29  O   UNL A   1      42.400  18.561  25.933  1.00  0.00    -0.269 OA
BRANCH  27  30
ATOM     30  C   UNL A   1      41.990  20.812  26.454  1.00  0.00     0.039 A 
ATOM     31  C   UNL A   1      42.157  21.765  25.447  1.00  0.00     0.014 A 
ATOM     32  C   UNL A   1      42.263  21.147  27.784  1.00  0.00     0.014 A 
ATOM     33  C   UNL A   1      42.562  23.059  25.773  1.00  0.00     0.010 A 
ATOM     34  C   UNL A   1      42.592  22.460  28.118  1.00  0.00     0.010 A 
ATOM     35  C   UNL A   1      42.762  23.424  27.116  1.00  0.00    -0.014 A 
BRANCH  35  36
ATOM     36  C   UNL A   1      43.170  24.809  27.467  1.00  0.00     0.031 A 
ATOM     37  C   UNL A   1      44.568  25.285  27.185  1.00  0.00     0.074 A 
ATOM     38  C   UNL A   1      42.282  25.633  28.052  1.00  0.00     0.049 A 
ATOM     39  N   UNL A   1      45.096  26.468  27.383  1.00  0.00    -0.248 NA
ATOM     40  C   UNL A   1      45.505  24.297  26.630  1.00  0.00     0.031 C 
ATOM     41  C   UNL A   1      40.912  25.275  28.418  1.00  0.00     0.029 A 
ATOM     42  N   UNL A   1      42.395  26.947  28.433  1.00  0.00    -0.354 N 
ATOM     43  C   UNL A   1      46.420  26.363  26.979  1.00  0.00     0.074 A 
ATOM     44  C   UNL A   1      46.635  24.985  26.593  1.00  0.00     0.031 C 
ATOM     45  C   UNL A   1      40.294  26.355  28.923  1.00  0.00     0.029 A 
ATOM     46  C   UNL A   1      41.235  27.472  28.945  1.00  0.00     0.049 A 
ATOM     47  H   UNL A   1      43.228  27.464  28.346  1.00  0.00     0.167 HD
ATOM     48  C   UNL A   1      47.364  27.333  26.906  1.00  0.00     0.037 A 
ATOM     49  C   UNL A   1      40.957  28.719  29.370  1.00  0.00     0.037 A 
ATOM     50  C   UNL A   1      47.145  28.705  27.284  1.00  0.00     0.049 A 
ATOM     51  C   UNL A   1      42.026  29.774  29.296  1.00  0.00     0.074 A 
ATOM     52  C   UNL A   1      48.022  29.773  27.215  1.00  0.00     0.029 A 
ATOM     53  N   UNL A   1      45.958  29.196  27.811  1.00  0.00    -0.354 N 
ATOM     54  N   UNL A   1      43.253  29.682  28.847  1.00  0.00    -0.248 NA
ATOM     55  C   UNL A   1      41.662  31.113  29.782  1.00  0.00     0.031 C 
ATOM     56  C   UNL A   1      47.381  30.900  27.742  1.00  0.00     0.029 A 
ATOM     57  C   UNL A   1      46.087  30.548  28.089  1.00  0.00     0.049 A 
ATOM     58  H   UNL A   1      45.145  28.662  27.963  1.00  0.00     0.167 HD
ATOM     59  C   UNL A   1      43.798  30.954  28.959  1.00  0.00     0.074 A 
ATOM     60  C   UNL A   1      42.761  31.802  29.511  1.00  0.00     0.031 C 
ATOM     61  C   UNL A   1      45.042  31.381  28.631  1.00  0.00     0.037 A 
BRANCH  48  62
ATOM     62  C   UNL A   1      48.721  26.933  26.397  1.00  0.00     0.064 A 
ATOM     63  C   UNL A   1      49.069  27.069  25.043  1.00  0.00     0.173 A 
ATOM     64  C   UNL A   1      49.687  26.409  27.268  1.00  0.00     0.173 A 
ATOM     65  F   UNL A   1      48.179  27.554  24.163  1.00  0.00    -0.203 F 
ATOM     66  C   UNL A   1      50.313  26.654  24.574  1.00  0.00     0.198 A 
ATOM     67  C   UNL A   1      50.945  26.028  26.803  1.00  0.00     0.198 A 
ATOM     68  F   UNL A   1      49.414  26.263  28.574  1.00  0.00    -0.203 F 
ATOM     69  F   UNL A   1      50.594  26.732  23.267  1.00  0.00    -0.200 F 
ATOM     70  C   UNL A   1      51.251  26.140  25.455  1.00  0.00     0.200 A 
ATOM     71  F   UNL A   1      51.855  25.543  27.658  1.00  0.00    -0.200 F 
ATOM     72  F   UNL A   1      52.447  25.738  25.004  1.00  0.00    -0.200 F 
ENDBRANCH  48  62
BRANCH  49  73
ATOM     73  C   UNL A   1      39.586  29.051  29.839  1.00  0.00     0.064 A 
ATOM     74  C   UNL A   1      39.229  28.872  31.184  1.00  0.00     0.173 A 
ATOM     75  C   UNL A   1      38.613  29.557  28.967  1.00  0.00     0.173 A 
ATOM     76  F   UNL A   1      40.121  28.373  32.053  1.00  0.00    -0.203 F 
ATOM     77  C   UNL A   1      37.946  29.174  31.634  1.00  0.00     0.198 A 
ATOM     78  C   UNL A   1      37.338  29.883  29.425  1.00  0.00     0.198 A 
ATOM     79  F   UNL A   1      38.907  29.750  27.674  1.00  0.00    -0.203 F 
ATOM     80  F   UNL A   1      37.620  28.956  32.916  1.00  0.00    -0.200 F 
ATOM     81  C   UNL A   1      37.004  29.684  30.756  1.00  0.00     0.200 A 
ATOM     82  F   UNL A   1      36.434  30.390  28.576  1.00  0.00    -0.200 F 
ATOM     83  F   UNL A   1      35.772  29.981  31.190  1.00  0.00    -0.200 F 
ENDBRANCH  49  73
BRANCH  61  84
ATOM     84  C   UNL A   1      45.336  32.843  28.817  1.00  0.00     0.064 A 
ATOM     85  C   UNL A   1      45.021  33.792  27.833  1.00  0.00     0.173 A 
ATOM     86  C   UNL A   1      45.920  33.300  30.008  1.00  0.00     0.173 A 
ATOM     87  F   UNL A   1      44.476  33.405  26.670  1.00  0.00    -0.203 F 
ATOM     88  C   UNL A   1      45.313  35.141  28.022  1.00  0.00     0.198 A 
ATOM     89  C   UNL A   1      46.180  34.653  30.206  1.00  0.00     0.198 A 
ATOM     90  F   UNL A   1      46.233  32.435  30.984  1.00  0.00    -0.203 F 
ATOM     91  F   UNL A   1      45.057  36.022  27.045  1.00  0.00    -0.200 F 
ATOM     92  C   UNL A   1      45.886  35.572  29.209  1.00  0.00     0.200 A 
ATOM     93  F   UNL A   1      46.720  35.069  31.361  1.00  0.00    -0.200 F 
ATOM     94  F   UNL A   1      46.164  36.870  29.389  1.00  0.00    -0.200 F 
ENDBRANCH  61  84
ENDBRANCH  35  36
ENDBRANCH  27  30
ENDBRANCH  25  26
ENDBRANCH  24  25
ENDBRANCH  23  24
ENDBRANCH  22  23
ENDBRANCH   1  22
TORSDOF 17
ENDMDL
