MODEL 1
REMARK VINA RESULT:     -12.4      0.000      0.000
REMARK SMILES O=CN[C@@H](CCS[C@@H]1CCO[C@]2(CCOC2)C1)C(=O)NCCCCCCNC(=O)c1ccc(-c2c3nc(c(-c4c(F)c(F)c(F)c(F)c4F)c4ccc([nH]4)c(-c4c(F)c(F)c(F)c(F)c4F)c4nc(c(-c5c(F)c(F)c(F)c(F)c5F)c5ccc2[nH]5)C=C4)C=C3)cc1
REMARK SMILES IDX 22 1 21 2 20 3 18 4 19 5 4 7 3 8 1 9 2 10 5 12 6 13 7 14
REMARK SMILES IDX 8 15 9 16 17 17 10 18 12 19 11 20 13 21 16 22 14 23 15 24
REMARK SMILES IDX 23 25 24 26 25 27 26 28 27 29 28 30 29 32 30 33 31 34 92 35
REMARK SMILES IDX 32 36 91 37 33 38 34 39 35 40 85 41 36 42 90 43 84 44 86 45
REMARK SMILES IDX 37 46 89 47 83 48 82 49 38 51 70 52 50 53 69 54 51 55 54 56
REMARK SMILES IDX 68 57 87 58 52 59 53 60 67 62 88 63 55 64 39 65 40 66 48 67
REMARK SMILES IDX 41 68 42 69 46 70 49 71 43 72 44 73 47 74 45 75 71 76 72 77
REMARK SMILES IDX 80 78 73 79 74 80 78 81 81 82 75 83 76 84 79 85 77 86 56 87
REMARK SMILES IDX 57 88 65 89 58 90 59 91 63 92 66 93 60 94 61 95 64 96 62 97
REMARK H PARENT 20 6 3 11 27 31 86 50 54 61
REMARK Flexibility Score: inf
ROOT
ATOM      1  C   UNL A   1      35.755  22.878  25.885  1.00  0.00     0.021 C 
ENDROOT
BRANCH   1   2
ATOM      2  C   UNL A   1      35.407  24.114  25.036  1.00  0.00     0.116 C 
BRANCH   2   3
ATOM      3  N   UNL A   1      34.911  23.717  23.726  1.00  0.00    -0.354 N 
ATOM      4  C   UNL A   1      33.837  23.943  22.904  1.00  0.00     0.242 C 
ATOM      5  O   UNL A   1      33.660  23.352  21.849  1.00  0.00    -0.273 OA
ATOM      6  H   UNL A   1      35.542  23.094  23.298  1.00  0.00     0.163 HD
BRANCH   4   7
ATOM      7  C   UNL A   1      32.923  25.069  23.104  1.00  0.00     0.171 C 
BRANCH   7   8
ATOM      8  N   UNL A   1      33.311  25.959  22.039  1.00  0.00    -0.347 N 
ATOM      9  O   UNL A   1      34.188  28.068  21.746  1.00  0.00    -0.279 OA
ATOM     10  C   UNL A   1      33.465  27.303  22.367  1.00  0.00     0.337 C 
ATOM     11  H   UNL A   1      33.459  25.633  21.122  1.00  0.00     0.164 HD
ENDBRANCH   7   8
BRANCH   7  12
ATOM     12  C   UNL A   1      31.643  24.290  23.287  1.00  0.00     0.046 C 
BRANCH  12  13
ATOM     13  C   UNL A   1      31.613  23.330  24.615  1.00  0.00     0.072 C 
BRANCH  13  14
ATOM     14  S   UNL A   1      32.262  21.454  25.288  1.00  0.00    -0.158 SA
BRANCH  14  15
ATOM     15  C   UNL A   1      33.085  19.933  24.077  1.00  0.00     0.052 C 
ATOM     16  C   UNL A   1      32.541  19.809  22.649  1.00  0.00     0.043 C 
ATOM     17  C   UNL A   1      33.877  18.607  24.447  1.00  0.00     0.052 C 
ATOM     18  C   UNL A   1      32.061  18.400  22.248  1.00  0.00     0.162 C 
ATOM     19  C   UNL A   1      33.340  17.214  23.982  1.00  0.00     0.095 C 
ATOM     20  O   UNL A   1      32.890  17.308  22.629  1.00  0.00    -0.372 OA
ATOM     21  C   UNL A   1      32.467  16.321  24.905  1.00  0.00     0.066 C 
ATOM     22  C   UNL A   1      34.521  16.206  23.929  1.00  0.00     0.195 C 
ATOM     23  C   UNL A   1      33.416  15.498  25.779  1.00  0.00     0.163 C 
ATOM     24  O   UNL A   1      34.726  15.725  25.263  1.00  0.00    -0.378 OA
ENDBRANCH  14  15
ENDBRANCH  13  14
ENDBRANCH  12  13
ENDBRANCH   7  12
ENDBRANCH   4   7
ENDBRANCH   2   3
ENDBRANCH   1   2
BRANCH   1  25
ATOM     25  C   UNL A   1      37.120  22.187  25.631  1.00  0.00     0.002 C 
BRANCH  25  26
ATOM     26  C   UNL A   1      37.153  21.069  24.601  1.00  0.00     0.002 C 
BRANCH  26  27
ATOM     27  C   UNL A   1      38.046  19.895  24.980  1.00  0.00     0.021 C 
BRANCH  27  28
ATOM     28  C   UNL A   1      39.315  20.281  25.735  1.00  0.00     0.116 C 
BRANCH  28  29
ATOM     29  N   UNL A   1      40.207  19.148  25.919  1.00  0.00    -0.352 N 
ATOM     30  C   UNL A   1      41.566  19.181  26.107  1.00  0.00     0.251 C 
ATOM     31  H   UNL A   1      39.789  18.257  25.907  1.00  0.00     0.163 HD
ATOM     32  O   UNL A   1      42.249  18.162  26.027  1.00  0.00    -0.269 OA
BRANCH  30  33
ATOM     33  C   UNL A   1      42.201  20.483  26.385  1.00  0.00     0.039 A 
ATOM     34  C   UNL A   1      42.648  21.267  25.321  1.00  0.00     0.014 A 
ATOM     35  C   UNL A   1      42.272  20.953  27.700  1.00  0.00     0.014 A 
ATOM     36  C   UNL A   1      43.120  22.555  25.574  1.00  0.00     0.010 A 
ATOM     37  C   UNL A   1      42.664  22.265  27.939  1.00  0.00     0.010 A 
ATOM     38  C   UNL A   1      43.102  23.076  26.880  1.00  0.00    -0.014 A 
BRANCH  38  39
ATOM     39  C   UNL A   1      43.558  24.461  27.160  1.00  0.00     0.031 A 
ATOM     40  C   UNL A   1      42.585  25.476  27.695  1.00  0.00     0.074 A 
ATOM     41  C   UNL A   1      44.828  24.819  26.887  1.00  0.00     0.049 A 
ATOM     42  N   UNL A   1      42.774  26.743  27.966  1.00  0.00    -0.248 NA
ATOM     43  C   UNL A   1      41.209  25.010  27.931  1.00  0.00     0.031 C 
ATOM     44  C   UNL A   1      45.851  23.941  26.319  1.00  0.00     0.029 A 
ATOM     45  N   UNL A   1      45.473  26.021  27.045  1.00  0.00    -0.354 N 
ATOM     46  C   UNL A   1      41.542  27.224  28.390  1.00  0.00     0.074 A 
ATOM     47  C   UNL A   1      40.599  26.132  28.282  1.00  0.00     0.031 C 
ATOM     48  C   UNL A   1      47.002  24.624  26.202  1.00  0.00     0.029 A 
ATOM     49  C   UNL A   1      46.789  25.997  26.651  1.00  0.00     0.049 A 
ATOM     50  H   UNL A   1      45.034  26.824  27.407  1.00  0.00     0.167 HD
ATOM     51  C   UNL A   1      41.230  28.456  28.857  1.00  0.00     0.037 A 
ATOM     52  C   UNL A   1      47.716  26.974  26.648  1.00  0.00     0.037 A 
ATOM     53  C   UNL A   1      42.177  29.533  28.983  1.00  0.00     0.049 A 
ATOM     54  C   UNL A   1      47.342  28.340  27.162  1.00  0.00     0.074 A 
ATOM     55  C   UNL A   1      41.977  30.802  29.497  1.00  0.00     0.029 A 
ATOM     56  N   UNL A   1      43.504  29.467  28.584  1.00  0.00    -0.354 N 
ATOM     57  N   UNL A   1      46.194  28.761  27.633  1.00  0.00    -0.248 NA
ATOM     58  C   UNL A   1      48.397  29.363  27.151  1.00  0.00     0.031 C 
ATOM     59  C   UNL A   1      43.168  31.521  29.359  1.00  0.00     0.029 A 
ATOM     60  C   UNL A   1      44.128  30.682  28.817  1.00  0.00     0.049 A 
ATOM     61  H   UNL A   1      43.938  28.674  28.194  1.00  0.00     0.167 HD
ATOM     62  C   UNL A   1      46.394  30.084  28.004  1.00  0.00     0.074 A 
ATOM     63  C   UNL A   1      47.781  30.390  27.717  1.00  0.00     0.031 C 
ATOM     64  C   UNL A   1      45.512  30.967  28.534  1.00  0.00     0.037 A 
BRANCH  51  65
ATOM     65  C   UNL A   1      39.807  28.704  29.268  1.00  0.00     0.064 A 
ATOM     66  C   UNL A   1      39.366  28.468  30.580  1.00  0.00     0.173 A 
ATOM     67  C   UNL A   1      38.878  29.214  28.349  1.00  0.00     0.173 A 
ATOM     68  F   UNL A   1      40.210  27.970  31.497  1.00  0.00    -0.203 F 
ATOM     69  C   UNL A   1      38.043  28.701  30.947  1.00  0.00     0.198 A 
ATOM     70  C   UNL A   1      37.565  29.479  28.728  1.00  0.00     0.198 A 
ATOM     71  F   UNL A   1      39.246  29.463  27.083  1.00  0.00    -0.203 F 
ATOM     72  F   UNL A   1      37.635  28.417  32.191  1.00  0.00    -0.200 F 
ATOM     73  C   UNL A   1      37.147  29.215  30.023  1.00  0.00     0.200 A 
ATOM     74  F   UNL A   1      36.703  29.989  27.838  1.00  0.00    -0.200 F 
ATOM     75  F   UNL A   1      35.876  29.448  30.379  1.00  0.00    -0.200 F 
ENDBRANCH  51  65
BRANCH  52  76
ATOM     76  C   UNL A   1      49.095  26.693  26.166  1.00  0.00     0.064 A 
ATOM     77  C   UNL A   1      50.066  26.164  27.028  1.00  0.00     0.173 A 
ATOM     78  C   UNL A   1      49.474  26.958  24.843  1.00  0.00     0.173 A 
ATOM     79  F   UNL A   1      49.760  25.912  28.309  1.00  0.00    -0.203 F 
ATOM     80  C   UNL A   1      51.370  25.934  26.591  1.00  0.00     0.198 A 
ATOM     81  C   UNL A   1      50.769  26.698  24.398  1.00  0.00     0.198 A 
ATOM     82  F   UNL A   1      48.583  27.459  23.975  1.00  0.00    -0.203 F 
ATOM     83  F   UNL A   1      52.291  25.476  27.450  1.00  0.00    -0.200 F 
ATOM     84  C   UNL A   1      51.718  26.196  25.275  1.00  0.00     0.200 A 
ATOM     85  F   UNL A   1      51.098  26.936  23.121  1.00  0.00    -0.200 F 
ATOM     86  F   UNL A   1      52.971  25.971  24.854  1.00  0.00    -0.200 F 
ENDBRANCH  52  76
BRANCH  64  87
ATOM     87  C   UNL A   1      46.027  32.335  28.878  1.00  0.00     0.064 A 
ATOM     88  C   UNL A   1      46.609  32.615  30.123  1.00  0.00     0.173 A 
ATOM     89  C   UNL A   1      45.974  33.371  27.932  1.00  0.00     0.173 A 
ATOM     90  F   UNL A   1      46.673  31.664  31.067  1.00  0.00    -0.203 F 
ATOM     91  C   UNL A   1      47.090  33.887  30.420  1.00  0.00     0.198 A 
ATOM     92  C   UNL A   1      46.486  34.633  28.219  1.00  0.00     0.198 A 
ATOM     93  F   UNL A   1      45.435  33.155  26.723  1.00  0.00    -0.203 F 
ATOM     94  F   UNL A   1      47.592  34.145  31.634  1.00  0.00    -0.200 F 
ATOM     95  C   UNL A   1      47.035  34.892  29.465  1.00  0.00     0.200 A 
ATOM     96  F   UNL A   1      46.447  35.597  27.290  1.00  0.00    -0.200 F 
ATOM     97  F   UNL A   1      47.506  36.114  29.749  1.00  0.00    -0.200 F 
ENDBRANCH  64  87
ENDBRANCH  38  39
ENDBRANCH  30  33
ENDBRANCH  28  29
ENDBRANCH  27  28
ENDBRANCH  26  27
ENDBRANCH  25  26
ENDBRANCH   1  25
TORSDOF 18
ENDMDL
MODEL 2
REMARK VINA RESULT:     -12.4      1.829      8.298
REMARK SMILES O=CN[C@@H](CCS[C@@H]1CCO[C@]2(CCOC2)C1)C(=O)NCCCCCCNC(=O)c1ccc(-c2c3nc(c(-c4c(F)c(F)c(F)c(F)c4F)c4ccc([nH]4)c(-c4c(F)c(F)c(F)c(F)c4F)c4nc(c(-c5c(F)c(F)c(F)c(F)c5F)c5ccc2[nH]5)C=C4)C=C3)cc1
REMARK SMILES IDX 22 1 21 2 20 3 18 4 19 5 4 7 3 8 1 9 2 10 5 12 6 13 7 14
REMARK SMILES IDX 8 15 9 16 17 17 10 18 12 19 11 20 13 21 16 22 14 23 15 24
REMARK SMILES IDX 23 25 24 26 25 27 26 28 27 29 28 30 29 32 30 33 31 34 92 35
REMARK SMILES IDX 32 36 91 37 33 38 34 39 35 40 85 41 36 42 90 43 84 44 86 45
REMARK SMILES IDX 37 46 89 47 83 48 82 49 38 51 70 52 50 53 69 54 51 55 54 56
REMARK SMILES IDX 68 57 87 58 52 59 53 60 67 62 88 63 55 64 39 65 40 66 48 67
REMARK SMILES IDX 41 68 42 69 46 70 49 71 43 72 44 73 47 74 45 75 71 76 72 77
REMARK SMILES IDX 80 78 73 79 74 80 78 81 81 82 75 83 76 84 79 85 77 86 56 87
REMARK SMILES IDX 57 88 65 89 58 90 59 91 63 92 66 93 60 94 61 95 64 96 62 97
REMARK H PARENT 20 6 3 11 27 31 86 50 54 61
REMARK Flexibility Score: inf
ROOT
ATOM      1  C   UNL A   1      37.019  23.303  25.121  1.00  0.00     0.021 C 
ENDROOT
BRANCH   1   2
ATOM      2  C   UNL A   1      35.685  23.832  25.679  1.00  0.00     0.116 C 
BRANCH   2   3
ATOM      3  N   UNL A   1      35.165  22.939  26.704  1.00  0.00    -0.354 N 
ATOM      4  C   UNL A   1      34.105  22.092  26.910  1.00  0.00     0.242 C 
ATOM      5  O   UNL A   1      33.892  21.528  27.974  1.00  0.00    -0.273 OA
ATOM      6  H   UNL A   1      35.756  22.944  27.492  1.00  0.00     0.163 HD
BRANCH   4   7
ATOM      7  C   UNL A   1      33.264  21.611  25.814  1.00  0.00     0.171 C 
BRANCH   7   8
ATOM      8  N   UNL A   1      33.268  20.187  26.038  1.00  0.00    -0.347 N 
ATOM      9  O   UNL A   1      33.719  18.234  24.905  1.00  0.00    -0.279 OA
ATOM     10  C   UNL A   1      33.276  19.373  24.910  1.00  0.00     0.337 C 
ATOM     11  H   UNL A   1      33.265  19.808  26.947  1.00  0.00     0.164 HD
ENDBRANCH   7   8
BRANCH   7  12
ATOM     12  C   UNL A   1      32.132  22.601  25.949  1.00  0.00     0.046 C 
BRANCH  12  13
ATOM     13  C   UNL A   1      31.448  23.051  24.528  1.00  0.00     0.072 C 
BRANCH  13  14
ATOM     14  S   UNL A   1      30.616  24.721  23.574  1.00  0.00    -0.158 SA
BRANCH  14  15
ATOM     15  C   UNL A   1      30.414  26.645  24.421  1.00  0.00     0.052 C 
ATOM     16  C   UNL A   1      29.776  27.728  23.545  1.00  0.00     0.043 C 
ATOM     17  C   UNL A   1      31.149  27.336  25.647  1.00  0.00     0.052 C 
ATOM     18  C   UNL A   1      30.588  29.031  23.415  1.00  0.00     0.162 C 
ATOM     19  C   UNL A   1      31.933  28.674  25.442  1.00  0.00     0.095 C 
ATOM     20  O   UNL A   1      31.169  29.546  24.608  1.00  0.00    -0.372 OA
ATOM     21  C   UNL A   1      33.465  28.696  25.191  1.00  0.00     0.066 C 
ATOM     22  C   UNL A   1      32.027  29.420  26.802  1.00  0.00     0.195 C 
ATOM     23  C   UNL A   1      34.155  28.673  26.558  1.00  0.00     0.163 C 
ATOM     24  O   UNL A   1      33.122  28.845  27.526  1.00  0.00    -0.378 OA
ENDBRANCH  14  15
ENDBRANCH  13  14
ENDBRANCH  12  13
ENDBRANCH   7  12
ENDBRANCH   4   7
ENDBRANCH   2   3
ENDBRANCH   1   2
BRANCH   1  25
ATOM     25  C   UNL A   1      36.981  22.020  24.251  1.00  0.00     0.002 C 
BRANCH  25  26
ATOM     26  C   UNL A   1      36.894  20.687  24.979  1.00  0.00     0.002 C 
BRANCH  26  27
ATOM     27  C   UNL A   1      38.145  19.828  24.862  1.00  0.00     0.021 C 
BRANCH  27  28
ATOM     28  C   UNL A   1      39.267  20.206  25.825  1.00  0.00     0.116 C 
BRANCH  28  29
ATOM     29  N   UNL A   1      40.250  19.144  25.962  1.00  0.00    -0.352 N 
ATOM     30  C   UNL A   1      41.607  19.281  26.118  1.00  0.00     0.251 C 
ATOM     31  H   UNL A   1      39.903  18.222  25.941  1.00  0.00     0.163 HD
ATOM     32  O   UNL A   1      42.366  18.321  26.000  1.00  0.00    -0.269 OA
BRANCH  30  33
ATOM     33  C   UNL A   1      42.145  20.623  26.409  1.00  0.00     0.039 A 
ATOM     34  C   UNL A   1      42.469  21.474  25.352  1.00  0.00     0.014 A 
ATOM     35  C   UNL A   1      42.245  21.058  27.734  1.00  0.00     0.014 A 
ATOM     36  C   UNL A   1      42.844  22.790  25.625  1.00  0.00     0.010 A 
ATOM     37  C   UNL A   1      42.537  22.390  27.998  1.00  0.00     0.010 A 
ATOM     38  C   UNL A   1      42.850  23.267  26.948  1.00  0.00    -0.014 A 
BRANCH  38  39
ATOM     39  C   UNL A   1      43.203  24.677  27.252  1.00  0.00     0.031 A 
ATOM     40  C   UNL A   1      44.604  25.167  27.003  1.00  0.00     0.074 A 
ATOM     41  C   UNL A   1      42.285  25.499  27.796  1.00  0.00     0.049 A 
ATOM     42  N   UNL A   1      45.123  26.346  27.239  1.00  0.00    -0.248 NA
ATOM     43  C   UNL A   1      45.555  24.194  26.442  1.00  0.00     0.031 C 
ATOM     44  C   UNL A   1      40.910  25.127  28.130  1.00  0.00     0.029 A 
ATOM     45  N   UNL A   1      42.372  26.818  28.168  1.00  0.00    -0.354 N 
ATOM     46  C   UNL A   1      46.458  26.250  26.865  1.00  0.00     0.074 A 
ATOM     47  C   UNL A   1      46.685  24.884  26.449  1.00  0.00     0.031 C 
ATOM     48  C   UNL A   1      40.275  26.198  28.632  1.00  0.00     0.029 A 
ATOM     49  C   UNL A   1      41.206  27.321  28.691  1.00  0.00     0.049 A 
ATOM     50  H   UNL A   1      43.193  27.351  28.071  1.00  0.00     0.167 HD
ATOM     51  C   UNL A   1      47.402  27.220  26.843  1.00  0.00     0.037 A 
ATOM     52  C   UNL A   1      40.923  28.549  29.167  1.00  0.00     0.037 A 
ATOM     53  C   UNL A   1      47.165  28.584  27.240  1.00  0.00     0.049 A 
ATOM     54  C   UNL A   1      41.994  29.609  29.142  1.00  0.00     0.074 A 
ATOM     55  C   UNL A   1      48.037  29.657  27.202  1.00  0.00     0.029 A 
ATOM     56  N   UNL A   1      45.967  29.060  27.752  1.00  0.00    -0.354 N 
ATOM     57  N   UNL A   1      43.230  29.527  28.714  1.00  0.00    -0.248 NA
ATOM     58  C   UNL A   1      41.624  30.934  29.658  1.00  0.00     0.031 C 
ATOM     59  C   UNL A   1      47.384  30.769  27.742  1.00  0.00     0.029 A 
ATOM     60  C   UNL A   1      46.085  30.406  28.058  1.00  0.00     0.049 A 
ATOM     61  H   UNL A   1      45.153  28.521  27.879  1.00  0.00     0.167 HD
ATOM     62  C   UNL A   1      43.777  30.793  28.879  1.00  0.00     0.074 A 
ATOM     63  C   UNL A   1      42.730  31.628  29.431  1.00  0.00     0.031 C 
ATOM     64  C   UNL A   1      45.031  31.225  28.599  1.00  0.00     0.037 A 
BRANCH  51  65
ATOM     65  C   UNL A   1      48.777  26.841  26.373  1.00  0.00     0.064 A 
ATOM     66  C   UNL A   1      49.733  26.303  27.249  1.00  0.00     0.173 A 
ATOM     67  C   UNL A   1      49.135  26.986  25.025  1.00  0.00     0.173 A 
ATOM     68  F   UNL A   1      49.447  26.153  28.551  1.00  0.00    -0.203 F 
ATOM     69  C   UNL A   1      51.005  25.956  26.799  1.00  0.00     0.198 A 
ATOM     70  C   UNL A   1      50.395  26.606  24.571  1.00  0.00     0.198 A 
ATOM     71  F   UNL A   1      48.258  27.490  24.143  1.00  0.00    -0.203 F 
ATOM     72  F   UNL A   1      51.917  25.495  27.666  1.00  0.00    -0.200 F 
ATOM     73  C   UNL A   1      51.332  26.100  25.460  1.00  0.00     0.200 A 
ATOM     74  F   UNL A   1      50.705  26.732  23.274  1.00  0.00    -0.200 F 
ATOM     75  F   UNL A   1      52.552  25.757  25.026  1.00  0.00    -0.200 F 
ENDBRANCH  51  65
BRANCH  52  76
ATOM     76  C   UNL A   1      39.562  28.854  29.684  1.00  0.00     0.064 A 
ATOM     77  C   UNL A   1      39.215  28.574  31.013  1.00  0.00     0.173 A 
ATOM     78  C   UNL A   1      38.578  29.420  28.860  1.00  0.00     0.173 A 
ATOM     79  F   UNL A   1      40.114  28.014  31.836  1.00  0.00    -0.203 F 
ATOM     80  C   UNL A   1      37.930  28.823  31.492  1.00  0.00     0.198 A 
ATOM     81  C   UNL A   1      37.302  29.699  29.348  1.00  0.00     0.198 A 
ATOM     82  F   UNL A   1      38.857  29.713  27.582  1.00  0.00    -0.203 F 
ATOM     83  F   UNL A   1      37.612  28.498  32.752  1.00  0.00    -0.200 F 
ATOM     84  C   UNL A   1      36.977  29.391  30.661  1.00  0.00     0.200 A 
ATOM     85  F   UNL A   1      36.389  30.263  28.547  1.00  0.00    -0.200 F 
ATOM     86  F   UNL A   1      35.742  29.635  31.122  1.00  0.00    -0.200 F 
ENDBRANCH  52  76
BRANCH  64  87
ATOM     87  C   UNL A   1      45.331  32.676  28.845  1.00  0.00     0.064 A 
ATOM     88  C   UNL A   1      45.895  33.121  30.050  1.00  0.00     0.173 A 
ATOM     89  C   UNL A   1      45.086  33.630  27.844  1.00  0.00     0.173 A 
ATOM     90  F   UNL A   1      46.136  32.252  31.044  1.00  0.00    -0.203 F 
ATOM     91  C   UNL A   1      46.175  34.469  30.255  1.00  0.00     0.198 A 
ATOM     92  C   UNL A   1      45.399  34.972  28.039  1.00  0.00     0.198 A 
ATOM     93  F   UNL A   1      44.556  33.256  26.670  1.00  0.00    -0.203 F 
ATOM     94  F   UNL A   1      46.663  34.879  31.433  1.00  0.00    -0.200 F 
ATOM     95  C   UNL A   1      45.935  35.391  29.247  1.00  0.00     0.200 A 
ATOM     96  F   UNL A   1      45.182  35.858  27.058  1.00  0.00    -0.200 F 
ATOM     97  F   UNL A   1      46.212  36.688  29.443  1.00  0.00    -0.200 F 
ENDBRANCH  64  87
ENDBRANCH  38  39
ENDBRANCH  30  33
ENDBRANCH  28  29
ENDBRANCH  27  28
ENDBRANCH  26  27
ENDBRANCH  25  26
ENDBRANCH   1  25
TORSDOF 18
ENDMDL
MODEL 3
REMARK VINA RESULT:     -12.4      5.393      9.614
REMARK SMILES O=CN[C@@H](CCS[C@@H]1CCO[C@]2(CCOC2)C1)C(=O)NCCCCCCNC(=O)c1ccc(-c2c3nc(c(-c4c(F)c(F)c(F)c(F)c4F)c4ccc([nH]4)c(-c4c(F)c(F)c(F)c(F)c4F)c4nc(c(-c5c(F)c(F)c(F)c(F)c5F)c5ccc2[nH]5)C=C4)C=C3)cc1
REMARK SMILES IDX 22 1 21 2 20 3 18 4 19 5 4 7 3 8 1 9 2 10 5 12 6 13 7 14
REMARK SMILES IDX 8 15 9 16 17 17 10 18 12 19 11 20 13 21 16 22 14 23 15 24
REMARK SMILES IDX 23 25 24 26 25 27 26 28 27 29 28 30 29 32 30 33 31 34 92 35
REMARK SMILES IDX 32 36 91 37 33 38 34 39 35 40 85 41 36 42 90 43 84 44 86 45
REMARK SMILES IDX 37 46 89 47 83 48 82 49 38 51 70 52 50 53 69 54 51 55 54 56
REMARK SMILES IDX 68 57 87 58 52 59 53 60 67 62 88 63 55 64 39 65 40 66 48 67
REMARK SMILES IDX 41 68 42 69 46 70 49 71 43 72 44 73 47 74 45 75 71 76 72 77
REMARK SMILES IDX 80 78 73 79 74 80 78 81 81 82 75 83 76 84 79 85 77 86 56 87
REMARK SMILES IDX 57 88 65 89 58 90 59 91 63 92 66 93 60 94 61 95 64 96 62 97
REMARK H PARENT 20 6 3 11 27 31 86 50 54 61
REMARK Flexibility Score: inf
ROOT
ATOM      1  C   UNL A   1      33.669  29.235  26.906  1.00  0.00     0.021 C 
ENDROOT
BRANCH   1   2
ATOM      2  C   UNL A   1      33.960  28.092  25.915  1.00  0.00     0.116 C 
BRANCH   2   3
ATOM      3  N   UNL A   1      34.061  28.602  24.556  1.00  0.00    -0.354 N 
ATOM      4  C   UNL A   1      33.672  28.268  23.283  1.00  0.00     0.242 C 
ATOM      5  O   UNL A   1      34.014  28.892  22.289  1.00  0.00    -0.273 OA
ATOM      6  H   UNL A   1      34.564  29.450  24.546  1.00  0.00     0.163 HD
BRANCH   4   7
ATOM      7  C   UNL A   1      32.633  27.272  23.020  1.00  0.00     0.171 C 
BRANCH   7   8
ATOM      8  N   UNL A   1      33.303  26.044  23.370  1.00  0.00    -0.347 N 
ATOM      9  O   UNL A   1      34.378  24.280  22.352  1.00  0.00    -0.279 OA
ATOM     10  C   UNL A   1      33.484  25.115  22.350  1.00  0.00     0.337 C 
ATOM     11  H   UNL A   1      33.617  25.871  24.287  1.00  0.00     0.164 HD
ENDBRANCH   7   8
BRANCH   7  12
ATOM     12  C   UNL A   1      31.478  27.964  23.704  1.00  0.00     0.046 C 
BRANCH  12  13
ATOM     13  C   UNL A   1      30.347  26.951  24.323  1.00  0.00     0.072 C 
BRANCH  13  14
ATOM     14  S   UNL A   1      30.117  25.448  25.766  1.00  0.00    -0.158 SA
BRANCH  14  15
ATOM     15  C   UNL A   1      31.587  24.034  26.311  1.00  0.00     0.052 C 
ATOM     16  C   UNL A   1      32.980  24.574  26.653  1.00  0.00     0.043 C 
ATOM     17  C   UNL A   1      31.686  22.470  26.060  1.00  0.00     0.052 C 
ATOM     18  C   UNL A   1      34.147  23.914  25.892  1.00  0.00     0.162 C 
ATOM     19  C   UNL A   1      32.915  21.870  25.300  1.00  0.00     0.095 C 
ATOM     20  O   UNL A   1      34.110  22.498  25.767  1.00  0.00    -0.372 OA
ATOM     21  C   UNL A   1      32.875  21.580  23.775  1.00  0.00     0.066 C 
ATOM     22  C   UNL A   1      33.079  20.377  25.698  1.00  0.00     0.195 C 
ATOM     23  C   UNL A   1      32.268  20.187  23.588  1.00  0.00     0.163 C 
ATOM     24  O   UNL A   1      32.164  19.622  24.893  1.00  0.00    -0.378 OA
ENDBRANCH  14  15
ENDBRANCH  13  14
ENDBRANCH  12  13
ENDBRANCH   7  12
ENDBRANCH   4   7
ENDBRANCH   2   3
ENDBRANCH   1   2
BRANCH   1  25
ATOM     25  C   UNL A   1      32.196  29.688  27.076  1.00  0.00     0.002 C 
BRANCH  25  26
ATOM     26  C   UNL A   1      31.685  30.764  26.130  1.00  0.00     0.002 C 
BRANCH  26  27
ATOM     27  C   UNL A   1      31.434  32.111  26.792  1.00  0.00     0.021 C 
BRANCH  27  28
ATOM     28  C   UNL A   1      32.692  32.814  27.297  1.00  0.00     0.116 C 
BRANCH  28  29
ATOM     29  N   UNL A   1      32.446  34.211  27.615  1.00  0.00    -0.352 N 
ATOM     30  C   UNL A   1      33.017  34.948  28.622  1.00  0.00     0.251 C 
ATOM     31  H   UNL A   1      31.796  34.681  27.044  1.00  0.00     0.163 HD
ATOM     32  O   UNL A   1      32.574  36.050  28.941  1.00  0.00    -0.269 OA
BRANCH  30  33
ATOM     33  C   UNL A   1      34.171  34.374  29.339  1.00  0.00     0.039 A 
ATOM     34  C   UNL A   1      33.950  33.525  30.424  1.00  0.00     0.014 A 
ATOM     35  C   UNL A   1      35.468  34.619  28.874  1.00  0.00     0.014 A 
ATOM     36  C   UNL A   1      35.034  32.874  31.013  1.00  0.00     0.010 A 
ATOM     37  C   UNL A   1      36.533  33.904  29.408  1.00  0.00     0.010 A 
ATOM     38  C   UNL A   1      36.329  33.033  30.490  1.00  0.00    -0.014 A 
BRANCH  38  39
ATOM     39  C   UNL A   1      37.487  32.311  31.077  1.00  0.00     0.031 A 
ATOM     40  C   UNL A   1      37.987  32.687  32.445  1.00  0.00     0.074 A 
ATOM     41  C   UNL A   1      38.117  31.358  30.364  1.00  0.00     0.049 A 
ATOM     42  N   UNL A   1      39.004  32.209  33.116  1.00  0.00    -0.248 NA
ATOM     43  C   UNL A   1      37.263  33.764  33.140  1.00  0.00     0.031 C 
ATOM     44  C   UNL A   1      37.759  30.940  29.008  1.00  0.00     0.029 A 
ATOM     45  N   UNL A   1      39.197  30.571  30.680  1.00  0.00    -0.354 N 
ATOM     46  C   UNL A   1      39.047  32.932  34.301  1.00  0.00     0.074 A 
ATOM     47  C   UNL A   1      37.996  33.923  34.231  1.00  0.00     0.031 C 
ATOM     48  C   UNL A   1      38.586  29.955  28.619  1.00  0.00     0.029 A 
ATOM     49  C   UNL A   1      39.555  29.698  29.681  1.00  0.00     0.049 A 
ATOM     50  H   UNL A   1      39.671  30.627  31.540  1.00  0.00     0.167 HD
ATOM     51  C   UNL A   1      39.869  32.766  35.364  1.00  0.00     0.037 A 
ATOM     52  C   UNL A   1      40.553  28.796  29.628  1.00  0.00     0.037 A 
ATOM     53  C   UNL A   1      40.900  31.765  35.436  1.00  0.00     0.049 A 
ATOM     54  C   UNL A   1      41.462  28.638  30.819  1.00  0.00     0.074 A 
ATOM     55  C   UNL A   1      41.750  31.476  36.490  1.00  0.00     0.029 A 
ATOM     56  N   UNL A   1      41.224  30.891  34.409  1.00  0.00    -0.354 N 
ATOM     57  N   UNL A   1      41.444  29.275  31.964  1.00  0.00    -0.248 NA
ATOM     58  C   UNL A   1      42.524  27.628  30.712  1.00  0.00     0.031 C 
ATOM     59  C   UNL A   1      42.623  30.464  36.080  1.00  0.00     0.029 A 
ATOM     60  C   UNL A   1      42.279  30.078  34.795  1.00  0.00     0.049 A 
ATOM     61  H   UNL A   1      40.771  30.852  33.536  1.00  0.00     0.167 HD
ATOM     62  C   UNL A   1      42.467  28.725  32.725  1.00  0.00     0.074 A 
ATOM     63  C   UNL A   1      43.074  27.689  31.915  1.00  0.00     0.031 C 
ATOM     64  C   UNL A   1      42.867  29.046  33.979  1.00  0.00     0.037 A 
BRANCH  51  65
ATOM     65  C   UNL A   1      39.684  33.689  36.535  1.00  0.00     0.064 A 
ATOM     66  C   UNL A   1      40.315  34.941  36.594  1.00  0.00     0.173 A 
ATOM     67  C   UNL A   1      38.841  33.332  37.598  1.00  0.00     0.173 A 
ATOM     68  F   UNL A   1      41.141  35.328  35.610  1.00  0.00    -0.203 F 
ATOM     69  C   UNL A   1      40.135  35.785  37.687  1.00  0.00     0.198 A 
ATOM     70  C   UNL A   1      38.635  34.193  38.672  1.00  0.00     0.198 A 
ATOM     71  F   UNL A   1      38.208  32.148  37.590  1.00  0.00    -0.203 F 
ATOM     72  F   UNL A   1      40.791  36.953  37.744  1.00  0.00    -0.200 F 
ATOM     73  C   UNL A   1      39.289  35.415  38.720  1.00  0.00     0.200 A 
ATOM     74  F   UNL A   1      37.806  33.839  39.663  1.00  0.00    -0.200 F 
ATOM     75  F   UNL A   1      39.109  36.232  39.766  1.00  0.00    -0.200 F 
ENDBRANCH  51  65
BRANCH  52  76
ATOM     76  C   UNL A   1      40.734  27.953  28.415  1.00  0.00     0.064 A 
ATOM     77  C   UNL A   1      41.508  28.399  27.335  1.00  0.00     0.173 A 
ATOM     78  C   UNL A   1      40.130  26.693  28.306  1.00  0.00     0.173 A 
ATOM     79  F   UNL A   1      42.091  29.606  27.381  1.00  0.00    -0.203 F 
ATOM     80  C   UNL A   1      41.650  27.629  26.182  1.00  0.00     0.198 A 
ATOM     81  C   UNL A   1      40.298  25.908  27.166  1.00  0.00     0.198 A 
ATOM     82  F   UNL A   1      39.384  26.214  29.312  1.00  0.00    -0.203 F 
ATOM     83  F   UNL A   1      42.353  28.103  25.145  1.00  0.00    -0.200 F 
ATOM     84  C   UNL A   1      41.050  26.382  26.101  1.00  0.00     0.200 A 
ATOM     85  F   UNL A   1      39.731  24.697  27.098  1.00  0.00    -0.200 F 
ATOM     86  F   UNL A   1      41.189  25.639  24.994  1.00  0.00    -0.200 F 
ENDBRANCH  52  76
BRANCH  64  87
ATOM     87  C   UNL A   1      43.989  28.243  34.573  1.00  0.00     0.064 A 
ATOM     88  C   UNL A   1      45.326  28.658  34.478  1.00  0.00     0.173 A 
ATOM     89  C   UNL A   1      43.718  27.061  35.280  1.00  0.00     0.173 A 
ATOM     90  F   UNL A   1      45.640  29.773  33.802  1.00  0.00    -0.203 F 
ATOM     91  C   UNL A   1      46.351  27.905  35.043  1.00  0.00     0.198 A 
ATOM     92  C   UNL A   1      44.741  26.328  35.873  1.00  0.00     0.198 A 
ATOM     93  F   UNL A   1      42.456  26.624  35.407  1.00  0.00    -0.203 F 
ATOM     94  F   UNL A   1      47.625  28.292  34.895  1.00  0.00    -0.200 F 
ATOM     95  C   UNL A   1      46.057  26.745  35.747  1.00  0.00     0.200 A 
ATOM     96  F   UNL A   1      44.454  25.218  36.566  1.00  0.00    -0.200 F 
ATOM     97  F   UNL A   1      47.044  26.025  36.297  1.00  0.00    -0.200 F 
ENDBRANCH  64  87
ENDBRANCH  38  39
ENDBRANCH  30  33
ENDBRANCH  28  29
ENDBRANCH  27  28
ENDBRANCH  26  27
ENDBRANCH  25  26
ENDBRANCH   1  25
TORSDOF 18
ENDMDL
