MODEL 1
REMARK VINA RESULT:     -11.9      0.000      0.000
REMARK SMILES C=CC[N@H+](CC(=O)NCCCCCCNC(=O)c1ccc(-c2c3nc(c(-c4c(F)c(F)c(F)c(F)c4F)c4ccc([nH]4)c(-c4c(F)c(F)c(F)c(F)c4F)c4nc(c(-c5c(F)c(F)c(F)c(F)c5F)c5ccc2[nH]5)C=C4)C=C3)cc1)[C@H]1CC(=O)N(c2ccccc2)C1=O
REMARK SMILES IDX 11 1 10 2 9 3 8 4 6 5 7 6 5 8 4 9 3 11 2 12 1 13 81 14 82 15
REMARK SMILES IDX 92 16 83 17 85 18 93 19 84 20 86 21 87 22 91 23 88 24 90 25
REMARK SMILES IDX 89 26 12 27 13 28 14 29 15 30 16 31 17 33 18 34 19 35 80 36
REMARK SMILES IDX 20 37 79 38 21 39 22 40 23 41 73 42 24 43 78 44 72 45 74 46
REMARK SMILES IDX 25 47 77 48 71 49 70 50 26 52 58 53 38 54 57 55 39 56 42 57
REMARK SMILES IDX 56 58 75 59 40 60 41 61 55 63 76 64 43 65 27 66 28 67 36 68
REMARK SMILES IDX 29 69 30 70 34 71 37 72 31 73 32 74 35 75 33 76 59 77 60 78
REMARK SMILES IDX 68 79 61 80 62 81 66 82 69 83 63 84 64 85 67 86 65 87 44 88
REMARK SMILES IDX 45 89 53 90 46 91 47 92 51 93 54 94 48 95 49 96 52 97 50 98
REMARK H PARENT 8 7 4 10 15 32 74 51 42 62
REMARK Flexibility Score: inf
ROOT
ATOM      1  C   UNL A   1      32.335  29.510  26.911  1.00  0.00     0.002 C 
ENDROOT
BRANCH   1   2
ATOM      2  C   UNL A   1      31.586  28.225  27.263  1.00  0.00     0.021 C 
BRANCH   2   3
ATOM      3  C   UNL A   1      31.974  27.017  26.403  1.00  0.00     0.116 C 
BRANCH   3   4
ATOM      4  N   UNL A   1      31.640  25.786  27.097  1.00  0.00    -0.351 N 
ATOM      5  C   UNL A   1      31.709  24.488  26.670  1.00  0.00     0.275 C 
ATOM      6  O   UNL A   1      31.162  23.625  27.361  1.00  0.00    -0.269 OA
ATOM      7  H   UNL A   1      31.312  25.904  28.018  1.00  0.00     0.163 HD
BRANCH   5   8
ATOM      8  C   UNL A   1      32.516  24.117  25.418  1.00  0.00     0.364 C 
BRANCH   8   9
ATOM      9  N   UNL A   1      31.865  23.059  24.566  1.00  0.00    -0.313 N 
ATOM     10  H   UNL A   1      31.451  22.296  25.101  1.00  0.00     0.349 HD
BRANCH   9  11
ATOM     11  C   UNL A   1      30.757  23.681  23.823  1.00  0.00     0.291 C 
BRANCH  11  12
ATOM     12  C   UNL A   1      31.099  24.734  22.809  1.00  0.00     0.025 C 
ATOM     13  C   UNL A   1      30.959  26.055  22.999  1.00  0.00     0.010 C 
ENDBRANCH  11  12
ENDBRANCH   9  11
BRANCH   9  14
ATOM     14  C   UNL A   1      32.938  22.469  23.705  1.00  0.00     0.285 C 
ATOM     15  C   UNL A   1      34.299  22.585  24.374  1.00  0.00     0.176 C 
ATOM     16  C   UNL A   1      32.854  20.967  23.495  1.00  0.00     0.292 C 
ATOM     17  C   UNL A   1      34.526  21.237  24.985  1.00  0.00     0.240 C 
ATOM     18  N   UNL A   1      33.638  20.340  24.435  1.00  0.00    -0.245 N 
ATOM     19  O   UNL A   1      32.194  20.482  22.582  1.00  0.00    -0.267 OA
ATOM     20  O   UNL A   1      35.473  21.030  25.733  1.00  0.00    -0.274 OA
BRANCH  18  21
ATOM     21  C   UNL A   1      33.622  18.941  24.732  1.00  0.00     0.052 A 
ATOM     22  C   UNL A   1      34.602  18.064  24.242  1.00  0.00     0.027 A 
ATOM     23  C   UNL A   1      32.592  18.380  25.506  1.00  0.00     0.027 A 
ATOM     24  C   UNL A   1      34.566  16.693  24.533  1.00  0.00     0.002 A 
ATOM     25  C   UNL A   1      32.547  17.010  25.788  1.00  0.00     0.002 A 
ATOM     26  C   UNL A   1      33.538  16.166  25.304  1.00  0.00     0.000 A 
ENDBRANCH  18  21
ENDBRANCH   9  14
ENDBRANCH   8   9
ENDBRANCH   5   8
ENDBRANCH   3   4
ENDBRANCH   2   3
ENDBRANCH   1   2
BRANCH   1  27
ATOM     27  C   UNL A   1      31.573  30.467  25.992  1.00  0.00     0.002 C 
BRANCH  27  28
ATOM     28  C   UNL A   1      31.415  31.901  26.511  1.00  0.00     0.021 C 
BRANCH  28  29
ATOM     29  C   UNL A   1      32.672  32.518  27.122  1.00  0.00     0.116 C 
BRANCH  29  30
ATOM     30  N   UNL A   1      32.470  33.903  27.514  1.00  0.00    -0.352 N 
ATOM     31  C   UNL A   1      33.081  34.632  28.503  1.00  0.00     0.251 C 
ATOM     32  H   UNL A   1      31.793  34.391  26.992  1.00  0.00     0.163 HD
ATOM     33  O   UNL A   1      32.643  35.736  28.816  1.00  0.00    -0.269 OA
BRANCH  31  34
ATOM     34  C   UNL A   1      34.260  34.088  29.207  1.00  0.00     0.039 A 
ATOM     35  C   UNL A   1      34.065  33.129  30.205  1.00  0.00     0.014 A 
ATOM     36  C   UNL A   1      35.550  34.537  28.907  1.00  0.00     0.014 A 
ATOM     37  C   UNL A   1      35.166  32.575  30.861  1.00  0.00     0.010 A 
ATOM     38  C   UNL A   1      36.650  33.943  29.519  1.00  0.00     0.010 A 
ATOM     39  C   UNL A   1      36.469  32.957  30.502  1.00  0.00    -0.014 A 
BRANCH  39  40
ATOM     40  C   UNL A   1      37.655  32.337  31.143  1.00  0.00     0.031 A 
ATOM     41  C   UNL A   1      38.422  31.260  30.429  1.00  0.00     0.074 A 
ATOM     42  C   UNL A   1      37.998  32.693  32.395  1.00  0.00     0.049 A 
ATOM     43  N   UNL A   1      39.429  30.539  30.855  1.00  0.00    -0.248 NA
ATOM     44  C   UNL A   1      37.985  30.933  29.064  1.00  0.00     0.031 C 
ATOM     45  C   UNL A   1      37.307  33.696  33.207  1.00  0.00     0.029 A 
ATOM     46  N   UNL A   1      39.006  32.241  33.211  1.00  0.00    -0.354 N 
ATOM     47  C   UNL A   1      39.731  29.663  29.820  1.00  0.00     0.074 A 
ATOM     48  C   UNL A   1      38.776  29.914  28.762  1.00  0.00     0.031 C 
ATOM     49  C   UNL A   1      37.918  33.792  34.400  1.00  0.00     0.029 A 
ATOM     50  C   UNL A   1      39.021  32.837  34.448  1.00  0.00     0.049 A 
ATOM     51  H   UNL A   1      39.657  31.557  32.934  1.00  0.00     0.167 HD
ATOM     52  C   UNL A   1      40.726  28.747  29.752  1.00  0.00     0.037 A 
ATOM     53  C   UNL A   1      39.829  32.628  35.506  1.00  0.00     0.037 A 
ATOM     54  C   UNL A   1      41.694  28.522  30.794  1.00  0.00     0.049 A 
ATOM     55  C   UNL A   1      40.928  31.609  35.402  1.00  0.00     0.074 A 
ATOM     56  C   UNL A   1      42.779  27.663  30.793  1.00  0.00     0.029 A 
ATOM     57  N   UNL A   1      41.692  29.162  32.025  1.00  0.00    -0.354 N 
ATOM     58  N   UNL A   1      41.243  30.831  34.395  1.00  0.00    -0.248 NA
ATOM     59  C   UNL A   1      41.790  31.441  36.581  1.00  0.00     0.031 C 
ATOM     60  C   UNL A   1      43.413  27.756  32.037  1.00  0.00     0.029 A 
ATOM     61  C   UNL A   1      42.746  28.703  32.798  1.00  0.00     0.049 A 
ATOM     62  H   UNL A   1      41.037  29.841  32.306  1.00  0.00     0.167 HD
ATOM     63  C   UNL A   1      42.350  30.101  34.808  1.00  0.00     0.074 A 
ATOM     64  C   UNL A   1      42.661  30.538  36.153  1.00  0.00     0.031 C 
ATOM     65  C   UNL A   1      43.045  29.154  34.133  1.00  0.00     0.037 A 
BRANCH  52  66
ATOM     66  C   UNL A   1      40.823  27.921  28.504  1.00  0.00     0.064 A 
ATOM     67  C   UNL A   1      41.603  28.329  27.412  1.00  0.00     0.173 A 
ATOM     68  C   UNL A   1      40.159  26.688  28.413  1.00  0.00     0.173 A 
ATOM     69  F   UNL A   1      42.248  29.504  27.445  1.00  0.00    -0.203 F 
ATOM     70  C   UNL A   1      41.692  27.547  26.263  1.00  0.00     0.198 A 
ATOM     71  C   UNL A   1      40.272  25.896  27.274  1.00  0.00     0.198 A 
ATOM     72  F   UNL A   1      39.405  26.249  29.433  1.00  0.00    -0.203 F 
ATOM     73  F   UNL A   1      42.406  27.978  25.214  1.00  0.00    -0.200 F 
ATOM     74  C   UNL A   1      41.032  26.329  26.198  1.00  0.00     0.200 A 
ATOM     75  F   UNL A   1      39.643  24.714  27.217  1.00  0.00    -0.200 F 
ATOM     76  F   UNL A   1      41.123  25.575  25.094  1.00  0.00    -0.200 F 
ENDBRANCH  52  66
BRANCH  53  77
ATOM     77  C   UNL A   1      39.639  33.421  36.747  1.00  0.00     0.064 A 
ATOM     78  C   UNL A   1      40.307  34.640  36.928  1.00  0.00     0.173 A 
ATOM     79  C   UNL A   1      38.789  32.981  37.772  1.00  0.00     0.173 A 
ATOM     80  F   UNL A   1      41.146  35.090  35.983  1.00  0.00    -0.203 F 
ATOM     81  C   UNL A   1      40.145  35.382  38.096  1.00  0.00     0.198 A 
ATOM     82  C   UNL A   1      38.609  33.736  38.929  1.00  0.00     0.198 A 
ATOM     83  F   UNL A   1      38.125  31.824  37.644  1.00  0.00    -0.203 F 
ATOM     84  F   UNL A   1      40.825  36.524  38.261  1.00  0.00    -0.200 F 
ATOM     85  C   UNL A   1      39.292  34.932  39.093  1.00  0.00     0.200 A 
ATOM     86  F   UNL A   1      37.774  33.306  39.885  1.00  0.00    -0.200 F 
ATOM     87  F   UNL A   1      39.132  35.649  40.214  1.00  0.00    -0.200 F 
ENDBRANCH  53  77
BRANCH  65  88
ATOM     88  C   UNL A   1      44.229  28.548  34.825  1.00  0.00     0.064 A 
ATOM     89  C   UNL A   1      44.114  27.370  35.579  1.00  0.00     0.173 A 
ATOM     90  C   UNL A   1      45.500  29.127  34.698  1.00  0.00     0.173 A 
ATOM     91  F   UNL A   1      42.916  26.789  35.744  1.00  0.00    -0.203 F 
ATOM     92  C   UNL A   1      45.226  26.807  36.197  1.00  0.00     0.198 A 
ATOM     93  C   UNL A   1      46.615  28.547  35.295  1.00  0.00     0.198 A 
ATOM     94  F   UNL A   1      45.662  30.251  33.983  1.00  0.00    -0.203 F 
ATOM     95  F   UNL A   1      45.088  25.704  36.945  1.00  0.00    -0.200 F 
ATOM     96  C   UNL A   1      46.477  27.391  36.048  1.00  0.00     0.200 A 
ATOM     97  F   UNL A   1      47.823  29.106  35.142  1.00  0.00    -0.200 F 
ATOM     98  F   UNL A   1      47.547  26.842  36.638  1.00  0.00    -0.200 F 
ENDBRANCH  65  88
ENDBRANCH  39  40
ENDBRANCH  31  34
ENDBRANCH  29  30
ENDBRANCH  28  29
ENDBRANCH  27  28
ENDBRANCH   1  27
TORSDOF 18
ENDMDL
MODEL 2
REMARK VINA RESULT:     -11.9      1.286      2.181
REMARK SMILES C=CC[N@H+](CC(=O)NCCCCCCNC(=O)c1ccc(-c2c3nc(c(-c4c(F)c(F)c(F)c(F)c4F)c4ccc([nH]4)c(-c4c(F)c(F)c(F)c(F)c4F)c4nc(c(-c5c(F)c(F)c(F)c(F)c5F)c5ccc2[nH]5)C=C4)C=C3)cc1)[C@H]1CC(=O)N(c2ccccc2)C1=O
REMARK SMILES IDX 11 1 10 2 9 3 8 4 6 5 7 6 5 8 4 9 3 11 2 12 1 13 81 14 82 15
REMARK SMILES IDX 92 16 83 17 85 18 93 19 84 20 86 21 87 22 91 23 88 24 90 25
REMARK SMILES IDX 89 26 12 27 13 28 14 29 15 30 16 31 17 33 18 34 19 35 80 36
REMARK SMILES IDX 20 37 79 38 21 39 22 40 23 41 73 42 24 43 78 44 72 45 74 46
REMARK SMILES IDX 25 47 77 48 71 49 70 50 26 52 58 53 38 54 57 55 39 56 42 57
REMARK SMILES IDX 56 58 75 59 40 60 41 61 55 63 76 64 43 65 27 66 28 67 36 68
REMARK SMILES IDX 29 69 30 70 34 71 37 72 31 73 32 74 35 75 33 76 59 77 60 78
REMARK SMILES IDX 68 79 61 80 62 81 66 82 69 83 63 84 64 85 67 86 65 87 44 88
REMARK SMILES IDX 45 89 53 90 46 91 47 92 51 93 54 94 48 95 49 96 52 97 50 98
REMARK H PARENT 8 7 4 10 15 32 74 51 42 62
REMARK Flexibility Score: inf
ROOT
ATOM      1  C   UNL A   1      32.457  30.025  26.788  1.00  0.00     0.002 C 
ENDROOT
BRANCH   1   2
ATOM      2  C   UNL A   1      31.843  28.803  27.469  1.00  0.00     0.021 C 
BRANCH   2   3
ATOM      3  C   UNL A   1      32.305  27.462  26.887  1.00  0.00     0.116 C 
BRANCH   3   4
ATOM      4  N   UNL A   1      31.220  26.499  26.936  1.00  0.00    -0.351 N 
ATOM      5  C   UNL A   1      30.321  26.138  25.970  1.00  0.00     0.275 C 
ATOM      6  O   UNL A   1      29.351  25.458  26.313  1.00  0.00    -0.269 OA
ATOM      7  H   UNL A   1      31.115  26.034  27.797  1.00  0.00     0.163 HD
BRANCH   5   8
ATOM      8  C   UNL A   1      30.564  26.498  24.498  1.00  0.00     0.364 C 
BRANCH   8   9
ATOM      9  N   UNL A   1      31.482  25.543  23.781  1.00  0.00    -0.313 N 
ATOM     10  H   UNL A   1      31.256  25.415  22.795  1.00  0.00     0.349 HD
BRANCH   9  11
ATOM     11  C   UNL A   1      32.845  26.100  23.815  1.00  0.00     0.291 C 
BRANCH  11  12
ATOM     12  C   UNL A   1      33.096  27.379  23.071  1.00  0.00     0.025 C 
ATOM     13  C   UNL A   1      33.776  28.428  23.556  1.00  0.00     0.010 C 
ENDBRANCH  11  12
ENDBRANCH   9  11
BRANCH   9  14
ATOM     14  C   UNL A   1      31.337  24.212  24.449  1.00  0.00     0.285 C 
ATOM     15  C   UNL A   1      31.020  23.124  23.433  1.00  0.00     0.176 C 
ATOM     16  C   UNL A   1      32.604  23.653  25.073  1.00  0.00     0.292 C 
ATOM     17  C   UNL A   1      32.340  22.465  23.174  1.00  0.00     0.240 C 
ATOM     18  N   UNL A   1      33.225  22.828  24.164  1.00  0.00    -0.245 N 
ATOM     19  O   UNL A   1      32.925  23.923  26.226  1.00  0.00    -0.267 OA
ATOM     20  O   UNL A   1      32.471  21.634  22.284  1.00  0.00    -0.274 OA
BRANCH  18  21
ATOM     21  C   UNL A   1      34.558  22.324  24.274  1.00  0.00     0.052 A 
ATOM     22  C   UNL A   1      35.665  23.023  23.767  1.00  0.00     0.027 A 
ATOM     23  C   UNL A   1      34.810  21.076  24.870  1.00  0.00     0.027 A 
ATOM     24  C   UNL A   1      36.965  22.509  23.873  1.00  0.00     0.002 A 
ATOM     25  C   UNL A   1      36.105  20.554  24.967  1.00  0.00     0.002 A 
ATOM     26  C   UNL A   1      37.184  21.274  24.471  1.00  0.00     0.000 A 
ENDBRANCH  18  21
ENDBRANCH   9  14
ENDBRANCH   8   9
ENDBRANCH   5   8
ENDBRANCH   3   4
ENDBRANCH   2   3
ENDBRANCH   1   2
BRANCH   1  27
ATOM     27  C   UNL A   1      31.464  30.901  26.020  1.00  0.00     0.002 C 
BRANCH  27  28
ATOM     28  C   UNL A   1      31.324  32.342  26.522  1.00  0.00     0.021 C 
BRANCH  28  29
ATOM     29  C   UNL A   1      32.537  32.898  27.265  1.00  0.00     0.116 C 
BRANCH  29  30
ATOM     30  N   UNL A   1      32.366  34.294  27.632  1.00  0.00    -0.352 N 
ATOM     31  C   UNL A   1      33.001  35.031  28.599  1.00  0.00     0.251 C 
ATOM     32  H   UNL A   1      31.692  34.784  27.108  1.00  0.00     0.163 HD
ATOM     33  O   UNL A   1      32.588  36.148  28.895  1.00  0.00    -0.269 OA
BRANCH  31  34
ATOM     34  C   UNL A   1      34.178  34.477  29.302  1.00  0.00     0.039 A 
ATOM     35  C   UNL A   1      33.985  33.807  30.513  1.00  0.00     0.014 A 
ATOM     36  C   UNL A   1      35.467  34.640  28.786  1.00  0.00     0.014 A 
ATOM     37  C   UNL A   1      35.078  33.247  31.178  1.00  0.00     0.010 A 
ATOM     38  C   UNL A   1      36.548  34.030  29.418  1.00  0.00     0.010 A 
ATOM     39  C   UNL A   1      36.364  33.329  30.620  1.00  0.00    -0.014 A 
BRANCH  39  40
ATOM     40  C   UNL A   1      37.529  32.687  31.279  1.00  0.00     0.031 A 
ATOM     41  C   UNL A   1      38.253  31.560  30.599  1.00  0.00     0.074 A 
ATOM     42  C   UNL A   1      37.890  33.073  32.517  1.00  0.00     0.049 A 
ATOM     43  N   UNL A   1      39.235  30.817  31.047  1.00  0.00    -0.248 NA
ATOM     44  C   UNL A   1      37.799  31.204  29.247  1.00  0.00     0.031 C 
ATOM     45  C   UNL A   1      37.238  34.127  33.297  1.00  0.00     0.029 A 
ATOM     46  N   UNL A   1      38.884  32.612  33.345  1.00  0.00    -0.354 N 
ATOM     47  C   UNL A   1      39.501  29.897  30.041  1.00  0.00     0.074 A 
ATOM     48  C   UNL A   1      38.552  30.146  28.978  1.00  0.00     0.031 C 
ATOM     49  C   UNL A   1      37.857  34.241  34.484  1.00  0.00     0.029 A 
ATOM     50  C   UNL A   1      38.924  33.248  34.561  1.00  0.00     0.049 A 
ATOM     51  H   UNL A   1      39.507  31.895  33.089  1.00  0.00     0.167 HD
ATOM     52  C   UNL A   1      40.462  28.944  30.002  1.00  0.00     0.037 A 
ATOM     53  C   UNL A   1      39.729  33.046  35.623  1.00  0.00     0.037 A 
ATOM     54  C   UNL A   1      41.424  28.718  31.048  1.00  0.00     0.049 A 
ATOM     55  C   UNL A   1      40.790  31.984  35.552  1.00  0.00     0.074 A 
ATOM     56  C   UNL A   1      42.478  27.820  31.073  1.00  0.00     0.029 A 
ATOM     57  N   UNL A   1      41.450  29.399  32.257  1.00  0.00    -0.354 N 
ATOM     58  N   UNL A   1      41.072  31.161  34.570  1.00  0.00    -0.248 NA
ATOM     59  C   UNL A   1      41.649  31.825  36.733  1.00  0.00     0.031 C 
ATOM     60  C   UNL A   1      43.119  27.932  32.312  1.00  0.00     0.029 A 
ATOM     61  C   UNL A   1      42.490  28.928  33.042  1.00  0.00     0.049 A 
ATOM     62  H   UNL A   1      40.822  30.111  32.517  1.00  0.00     0.167 HD
ATOM     63  C   UNL A   1      42.153  30.406  35.005  1.00  0.00     0.074 A 
ATOM     64  C   UNL A   1      42.485  30.876  36.334  1.00  0.00     0.031 C 
ATOM     65  C   UNL A   1      42.810  29.413  34.360  1.00  0.00     0.037 A 
BRANCH  52  66
ATOM     66  C   UNL A   1      40.524  28.072  28.782  1.00  0.00     0.064 A 
ATOM     67  C   UNL A   1      41.284  28.433  27.660  1.00  0.00     0.173 A 
ATOM     68  C   UNL A   1      39.845  26.845  28.749  1.00  0.00     0.173 A 
ATOM     69  F   UNL A   1      41.942  29.602  27.638  1.00  0.00    -0.203 F 
ATOM     70  C   UNL A   1      41.341  27.610  26.538  1.00  0.00     0.198 A 
ATOM     71  C   UNL A   1      39.926  26.012  27.636  1.00  0.00     0.198 A 
ATOM     72  F   UNL A   1      39.109  26.450  29.799  1.00  0.00    -0.203 F 
ATOM     73  F   UNL A   1      42.036  27.997  25.460  1.00  0.00    -0.200 F 
ATOM     74  C   UNL A   1      40.667  26.398  26.530  1.00  0.00     0.200 A 
ATOM     75  F   UNL A   1      39.284  24.835  27.634  1.00  0.00    -0.200 F 
ATOM     76  F   UNL A   1      40.727  25.605  25.452  1.00  0.00    -0.200 F 
ENDBRANCH  52  66
BRANCH  53  77
ATOM     77  C   UNL A   1      39.572  33.886  36.838  1.00  0.00     0.064 A 
ATOM     78  C   UNL A   1      38.797  33.444  37.919  1.00  0.00     0.173 A 
ATOM     79  C   UNL A   1      40.192  35.139  36.945  1.00  0.00     0.173 A 
ATOM     80  F   UNL A   1      38.170  32.261  37.853  1.00  0.00    -0.203 F 
ATOM     81  C   UNL A   1      38.634  34.233  39.056  1.00  0.00     0.198 A 
ATOM     82  C   UNL A   1      40.048  35.915  38.092  1.00  0.00     0.198 A 
ATOM     83  F   UNL A   1      40.947  35.604  35.939  1.00  0.00    -0.203 F 
ATOM     84  F   UNL A   1      37.857  33.804  40.060  1.00  0.00    -0.200 F 
ATOM     85  C   UNL A   1      39.265  35.465  39.144  1.00  0.00     0.200 A 
ATOM     86  F   UNL A   1      40.669  37.101  38.180  1.00  0.00    -0.200 F 
ATOM     87  F   UNL A   1      39.112  36.221  40.240  1.00  0.00    -0.200 F 
ENDBRANCH  53  77
BRANCH  65  88
ATOM     88  C   UNL A   1      43.974  28.787  35.069  1.00  0.00     0.064 A 
ATOM     89  C   UNL A   1      43.813  27.663  35.893  1.00  0.00     0.173 A 
ATOM     90  C   UNL A   1      45.270  29.291  34.889  1.00  0.00     0.173 A 
ATOM     91  F   UNL A   1      42.590  27.155  36.110  1.00  0.00    -0.203 F 
ATOM     92  C   UNL A   1      44.906  27.079  36.526  1.00  0.00     0.198 A 
ATOM     93  C   UNL A   1      46.365  28.689  35.503  1.00  0.00     0.198 A 
ATOM     94  F   UNL A   1      45.476  30.361  34.107  1.00  0.00    -0.203 F 
ATOM     95  F   UNL A   1      44.725  26.031  37.341  1.00  0.00    -0.200 F 
ATOM     96  C   UNL A   1      46.181  27.588  36.325  1.00  0.00     0.200 A 
ATOM     97  F   UNL A   1      47.597  29.175  35.299  1.00  0.00    -0.200 F 
ATOM     98  F   UNL A   1      47.233  27.019  36.930  1.00  0.00    -0.200 F 
ENDBRANCH  65  88
ENDBRANCH  39  40
ENDBRANCH  31  34
ENDBRANCH  29  30
ENDBRANCH  28  29
ENDBRANCH  27  28
ENDBRANCH   1  27
TORSDOF 18
ENDMDL
MODEL 3
REMARK VINA RESULT:     -11.8      1.493      2.470
REMARK SMILES C=CC[N@H+](CC(=O)NCCCCCCNC(=O)c1ccc(-c2c3nc(c(-c4c(F)c(F)c(F)c(F)c4F)c4ccc([nH]4)c(-c4c(F)c(F)c(F)c(F)c4F)c4nc(c(-c5c(F)c(F)c(F)c(F)c5F)c5ccc2[nH]5)C=C4)C=C3)cc1)[C@H]1CC(=O)N(c2ccccc2)C1=O
REMARK SMILES IDX 11 1 10 2 9 3 8 4 6 5 7 6 5 8 4 9 3 11 2 12 1 13 81 14 82 15
REMARK SMILES IDX 92 16 83 17 85 18 93 19 84 20 86 21 87 22 91 23 88 24 90 25
REMARK SMILES IDX 89 26 12 27 13 28 14 29 15 30 16 31 17 33 18 34 19 35 80 36
REMARK SMILES IDX 20 37 79 38 21 39 22 40 23 41 73 42 24 43 78 44 72 45 74 46
REMARK SMILES IDX 25 47 77 48 71 49 70 50 26 52 58 53 38 54 57 55 39 56 42 57
REMARK SMILES IDX 56 58 75 59 40 60 41 61 55 63 76 64 43 65 27 66 28 67 36 68
REMARK SMILES IDX 29 69 30 70 34 71 37 72 31 73 32 74 35 75 33 76 59 77 60 78
REMARK SMILES IDX 68 79 61 80 62 81 66 82 69 83 63 84 64 85 67 86 65 87 44 88
REMARK SMILES IDX 45 89 53 90 46 91 47 92 51 93 54 94 48 95 49 96 52 97 50 98
REMARK H PARENT 8 7 4 10 15 32 74 51 42 62
REMARK Flexibility Score: inf
ROOT
ATOM      1  C   UNL A   1      32.156  30.026  25.603  1.00  0.00     0.002 C 
ENDROOT
BRANCH   1   2
ATOM      2  C   UNL A   1      31.386  28.852  25.001  1.00  0.00     0.021 C 
BRANCH   2   3
ATOM      3  C   UNL A   1      31.139  28.970  23.493  1.00  0.00     0.116 C 
BRANCH   3   4
ATOM      4  N   UNL A   1      32.405  29.051  22.788  1.00  0.00    -0.351 N 
ATOM      5  C   UNL A   1      33.235  28.054  22.352  1.00  0.00     0.275 C 
ATOM      6  O   UNL A   1      34.364  28.371  21.972  1.00  0.00    -0.269 OA
ATOM      7  H   UNL A   1      32.715  29.964  22.593  1.00  0.00     0.163 HD
BRANCH   5   8
ATOM      8  C   UNL A   1      32.738  26.604  22.261  1.00  0.00     0.364 C 
BRANCH   8   9
ATOM      9  N   UNL A   1      32.723  25.881  23.582  1.00  0.00    -0.313 N 
ATOM     10  H   UNL A   1      32.530  26.486  24.380  1.00  0.00     0.349 HD
BRANCH   9  11
ATOM     11  C   UNL A   1      31.637  24.888  23.553  1.00  0.00     0.291 C 
BRANCH  11  12
ATOM     12  C   UNL A   1      30.658  24.889  24.692  1.00  0.00     0.025 C 
ATOM     13  C   UNL A   1      30.656  24.005  25.701  1.00  0.00     0.010 C 
ENDBRANCH  11  12
ENDBRANCH   9  11
BRANCH   9  14
ATOM     14  C   UNL A   1      34.089  25.303  23.780  1.00  0.00     0.285 C 
ATOM     15  C   UNL A   1      34.447  25.244  25.258  1.00  0.00     0.176 C 
ATOM     16  C   UNL A   1      34.242  23.842  23.395  1.00  0.00     0.292 C 
ATOM     17  C   UNL A   1      34.166  23.826  25.649  1.00  0.00     0.240 C 
ATOM     18  N   UNL A   1      34.044  23.062  24.511  1.00  0.00    -0.245 N 
ATOM     19  O   UNL A   1      34.532  23.506  22.251  1.00  0.00    -0.267 OA
ATOM     20  O   UNL A   1      34.207  23.471  26.821  1.00  0.00    -0.274 OA
BRANCH  18  21
ATOM     21  C   UNL A   1      33.849  21.646  24.512  1.00  0.00     0.052 A 
ATOM     22  C   UNL A   1      32.593  21.066  24.270  1.00  0.00     0.027 A 
ATOM     23  C   UNL A   1      34.913  20.772  24.792  1.00  0.00     0.027 A 
ATOM     24  C   UNL A   1      32.416  19.675  24.285  1.00  0.00     0.002 A 
ATOM     25  C   UNL A   1      34.737  19.383  24.820  1.00  0.00     0.002 A 
ATOM     26  C   UNL A   1      33.487  18.834  24.562  1.00  0.00     0.000 A 
ENDBRANCH  18  21
ENDBRANCH   9  14
ENDBRANCH   8   9
ENDBRANCH   5   8
ENDBRANCH   3   4
ENDBRANCH   2   3
ENDBRANCH   1   2
BRANCH   1  27
ATOM     27  C   UNL A   1      31.439  30.748  26.747  1.00  0.00     0.002 C 
BRANCH  27  28
ATOM     28  C   UNL A   1      31.434  32.278  26.666  1.00  0.00     0.021 C 
BRANCH  28  29
ATOM     29  C   UNL A   1      32.699  32.966  27.177  1.00  0.00     0.116 C 
BRANCH  29  30
ATOM     30  N   UNL A   1      32.439  34.315  27.651  1.00  0.00    -0.352 N 
ATOM     31  C   UNL A   1      32.998  34.999  28.701  1.00  0.00     0.251 C 
ATOM     32  H   UNL A   1      31.760  34.813  27.141  1.00  0.00     0.163 HD
ATOM     33  O   UNL A   1      32.515  36.064  29.071  1.00  0.00    -0.269 OA
BRANCH  31  34
ATOM     34  C   UNL A   1      34.176  34.448  29.403  1.00  0.00     0.039 A 
ATOM     35  C   UNL A   1      33.990  33.815  30.635  1.00  0.00     0.014 A 
ATOM     36  C   UNL A   1      35.461  34.577  28.866  1.00  0.00     0.014 A 
ATOM     37  C   UNL A   1      35.084  33.257  31.301  1.00  0.00     0.010 A 
ATOM     38  C   UNL A   1      36.541  33.970  29.500  1.00  0.00     0.010 A 
ATOM     39  C   UNL A   1      36.363  33.305  30.724  1.00  0.00    -0.014 A 
BRANCH  39  40
ATOM     40  C   UNL A   1      37.528  32.665  31.385  1.00  0.00     0.031 A 
ATOM     41  C   UNL A   1      38.236  31.517  30.722  1.00  0.00     0.074 A 
ATOM     42  C   UNL A   1      37.903  33.071  32.613  1.00  0.00     0.049 A 
ATOM     43  N   UNL A   1      39.214  30.774  31.175  1.00  0.00    -0.248 NA
ATOM     44  C   UNL A   1      37.766  31.139  29.381  1.00  0.00     0.031 C 
ATOM     45  C   UNL A   1      37.269  34.146  33.377  1.00  0.00     0.029 A 
ATOM     46  N   UNL A   1      38.900  32.617  33.441  1.00  0.00    -0.354 N 
ATOM     47  C   UNL A   1      39.462  29.832  30.186  1.00  0.00     0.074 A 
ATOM     48  C   UNL A   1      38.506  30.070  29.126  1.00  0.00     0.031 C 
ATOM     49  C   UNL A   1      37.899  34.277  34.556  1.00  0.00     0.029 A 
ATOM     50  C   UNL A   1      38.957  33.276  34.644  1.00  0.00     0.049 A 
ATOM     51  H   UNL A   1      39.515  31.889  33.194  1.00  0.00     0.167 HD
ATOM     52  C   UNL A   1      40.414  28.869  30.157  1.00  0.00     0.037 A 
ATOM     53  C   UNL A   1      39.769  33.087  35.703  1.00  0.00     0.037 A 
ATOM     54  C   UNL A   1      41.383  28.654  31.199  1.00  0.00     0.049 A 
ATOM     55  C   UNL A   1      40.819  32.014  35.643  1.00  0.00     0.074 A 
ATOM     56  C   UNL A   1      42.428  27.747  31.232  1.00  0.00     0.029 A 
ATOM     57  N   UNL A   1      41.426  29.358  32.394  1.00  0.00    -0.354 N 
ATOM     58  N   UNL A   1      41.085  31.169  34.675  1.00  0.00    -0.248 NA
ATOM     59  C   UNL A   1      41.688  31.869  36.820  1.00  0.00     0.031 C 
ATOM     60  C   UNL A   1      43.082  27.876  32.463  1.00  0.00     0.029 A 
ATOM     61  C   UNL A   1      42.468  28.893  33.179  1.00  0.00     0.049 A 
ATOM     62  H   UNL A   1      40.807  30.081  32.645  1.00  0.00     0.167 HD
ATOM     63  C   UNL A   1      42.163  30.412  35.115  1.00  0.00     0.074 A 
ATOM     64  C   UNL A   1      42.511  30.905  36.432  1.00  0.00     0.031 C 
ATOM     65  C   UNL A   1      42.805  29.400  34.484  1.00  0.00     0.037 A 
BRANCH  52  66
ATOM     66  C   UNL A   1      40.456  27.973  28.954  1.00  0.00     0.064 A 
ATOM     67  C   UNL A   1      41.239  28.287  27.832  1.00  0.00     0.173 A 
ATOM     68  C   UNL A   1      39.736  26.770  28.936  1.00  0.00     0.173 A 
ATOM     69  F   UNL A   1      41.937  29.432  27.796  1.00  0.00    -0.203 F 
ATOM     70  C   UNL A   1      41.277  27.441  26.727  1.00  0.00     0.198 A 
ATOM     71  C   UNL A   1      39.798  25.914  27.840  1.00  0.00     0.198 A 
ATOM     72  F   UNL A   1      38.977  26.420  29.986  1.00  0.00    -0.203 F 
ATOM     73  F   UNL A   1      41.996  27.784  25.648  1.00  0.00    -0.200 F 
ATOM     74  C   UNL A   1      40.563  26.253  26.734  1.00  0.00     0.200 A 
ATOM     75  F   UNL A   1      39.116  24.760  27.853  1.00  0.00    -0.200 F 
ATOM     76  F   UNL A   1      40.605  25.439  25.671  1.00  0.00    -0.200 F 
ENDBRANCH  52  66
BRANCH  53  77
ATOM     77  C   UNL A   1      39.632  33.952  36.902  1.00  0.00     0.064 A 
ATOM     78  C   UNL A   1      38.854  33.543  37.995  1.00  0.00     0.173 A 
ATOM     79  C   UNL A   1      40.271  35.197  36.983  1.00  0.00     0.173 A 
ATOM     80  F   UNL A   1      38.208  32.369  37.954  1.00  0.00    -0.203 F 
ATOM     81  C   UNL A   1      38.709  34.355  39.117  1.00  0.00     0.198 A 
ATOM     82  C   UNL A   1      40.145  35.997  38.116  1.00  0.00     0.198 A 
ATOM     83  F   UNL A   1      41.029  35.631  35.965  1.00  0.00    -0.203 F 
ATOM     84  F   UNL A   1      37.930  33.958  40.132  1.00  0.00    -0.200 F 
ATOM     85  C   UNL A   1      39.359  35.579  39.179  1.00  0.00     0.200 A 
ATOM     86  F   UNL A   1      40.785  37.174  38.179  1.00  0.00    -0.200 F 
ATOM     87  F   UNL A   1      39.223  36.357  40.261  1.00  0.00    -0.200 F 
ENDBRANCH  53  77
BRANCH  65  88
ATOM     88  C   UNL A   1      43.969  28.777  35.195  1.00  0.00     0.064 A 
ATOM     89  C   UNL A   1      45.276  29.256  35.022  1.00  0.00     0.173 A 
ATOM     90  C   UNL A   1      43.769  27.717  36.092  1.00  0.00     0.173 A 
ATOM     91  F   UNL A   1      45.519  30.256  34.163  1.00  0.00    -0.203 F 
ATOM     92  C   UNL A   1      46.343  28.682  35.707  1.00  0.00     0.198 A 
ATOM     93  C   UNL A   1      44.835  27.162  36.794  1.00  0.00     0.198 A 
ATOM     94  F   UNL A   1      42.537  27.227  36.295  1.00  0.00    -0.203 F 
ATOM     95  F   UNL A   1      47.589  29.128  35.497  1.00  0.00    -0.200 F 
ATOM     96  C   UNL A   1      46.121  27.641  36.598  1.00  0.00     0.200 A 
ATOM     97  F   UNL A   1      44.617  26.164  37.662  1.00  0.00    -0.200 F 
ATOM     98  F   UNL A   1      47.149  27.095  37.261  1.00  0.00    -0.200 F 
ENDBRANCH  65  88
ENDBRANCH  39  40
ENDBRANCH  31  34
ENDBRANCH  29  30
ENDBRANCH  28  29
ENDBRANCH  27  28
ENDBRANCH   1  27
TORSDOF 18
ENDMDL
