MODEL 1
REMARK VINA RESULT:     -12.8      0.000      0.000
REMARK SMILES O=C(NCCCCCCNC(=O)c1sccc1S(=O)(=O)Nc1ccc(Cn2cncn2)cc1)c1ccc(-c2c3nc(c(-c4c(F)c(F)c(F)c(F)c4F)c4ccc([nH]4)c(-c4c(F)c(F)c(F)c(F)c4F)c4nc(c(-c5c(F)c(F)c(F)c(F)c5F)c5ccc2[nH]5)C=C4)C=C3)cc1
REMARK SMILES IDX 8 1 7 2 6 3 5 4 4 5 3 6 1 7 2 8 34 10 35 11 96 12 36 13
REMARK SMILES IDX 95 14 37 15 38 16 39 17 89 18 40 19 94 20 88 21 90 22 41 23
REMARK SMILES IDX 93 24 87 25 86 26 42 28 74 29 54 30 73 31 55 32 58 33 72 34
REMARK SMILES IDX 91 35 56 36 57 37 71 39 92 40 59 41 43 42 44 43 52 44 45 45
REMARK SMILES IDX 46 46 50 47 53 48 47 49 48 50 51 51 49 52 75 53 76 54 84 55
REMARK SMILES IDX 77 56 78 57 82 58 85 59 79 60 80 61 83 62 81 63 60 64 61 65
REMARK SMILES IDX 69 66 62 67 63 68 67 69 70 70 64 71 65 72 68 73 66 74 9 75
REMARK SMILES IDX 10 76 11 77 12 79 13 80 14 81 17 82 15 83 16 84 18 85 19 86
REMARK SMILES IDX 20 87 21 88 22 90 23 91 33 92 24 93 32 94 25 95 26 96 27 97
REMARK SMILES IDX 28 98 31 99 29 100 30 101
REMARK H PARENT 3 9 90 27 58 38 10 78 21 89
REMARK Flexibility Score: inf
ROOT
ATOM      1  C   UNL A   1      34.273  23.341  22.744  1.00  0.00     0.021 C 
ENDROOT
BRANCH   1   2
ATOM      2  C   UNL A   1      35.312  23.392  23.874  1.00  0.00     0.002 C 
BRANCH   2   3
ATOM      3  C   UNL A   1      36.617  22.650  23.579  1.00  0.00     0.002 C 
BRANCH   3   4
ATOM      4  C   UNL A   1      37.019  21.608  24.624  1.00  0.00     0.021 C 
BRANCH   4   5
ATOM      5  C   UNL A   1      37.893  22.146  25.761  1.00  0.00     0.116 C 
BRANCH   5   6
ATOM      6  N   UNL A   1      39.292  21.815  25.629  1.00  0.00    -0.352 N 
ATOM      7  O   UNL A   1      41.485  21.745  25.899  1.00  0.00    -0.269 OA
ATOM      8  C   UNL A   1      40.441  22.364  26.118  1.00  0.00     0.251 C 
ATOM      9  H   UNL A   1      39.451  21.023  25.065  1.00  0.00     0.163 HD
BRANCH   8  10
ATOM     10  C   UNL A   1      40.511  23.667  26.829  1.00  0.00     0.039 A 
ATOM     11  C   UNL A   1      39.768  24.809  26.514  1.00  0.00     0.014 A 
ATOM     12  C   UNL A   1      41.440  23.740  27.880  1.00  0.00     0.014 A 
ATOM     13  C   UNL A   1      40.015  26.018  27.148  1.00  0.00     0.010 A 
ATOM     14  C   UNL A   1      41.664  24.935  28.548  1.00  0.00     0.010 A 
ATOM     15  C   UNL A   1      40.979  26.081  28.146  1.00  0.00    -0.014 A 
BRANCH  15  16
ATOM     16  C   UNL A   1      41.164  27.358  28.824  1.00  0.00     0.031 A 
ATOM     17  C   UNL A   1      42.338  28.174  28.379  1.00  0.00     0.074 A 
ATOM     18  C   UNL A   1      40.225  27.831  29.664  1.00  0.00     0.049 A 
ATOM     19  N   UNL A   1      43.201  28.830  29.092  1.00  0.00    -0.248 NA
ATOM     20  C   UNL A   1      42.607  28.227  26.930  1.00  0.00     0.031 C 
ATOM     21  C   UNL A   1      38.908  27.253  29.951  1.00  0.00     0.029 A 
ATOM     22  N   UNL A   1      40.195  29.017  30.332  1.00  0.00    -0.354 N 
ATOM     23  C   UNL A   1      44.027  29.497  28.183  1.00  0.00     0.074 A 
ATOM     24  C   UNL A   1      43.677  29.015  26.875  1.00  0.00     0.031 C 
ATOM     25  C   UNL A   1      38.128  28.196  30.522  1.00  0.00     0.029 A 
ATOM     26  C   UNL A   1      38.926  29.390  30.741  1.00  0.00     0.049 A 
ATOM     27  H   UNL A   1      40.999  29.558  30.506  1.00  0.00     0.167 HD
ATOM     28  C   UNL A   1      44.820  30.543  28.545  1.00  0.00     0.037 A 
ATOM     29  C   UNL A   1      38.535  30.629  31.123  1.00  0.00     0.037 A 
ATOM     30  C   UNL A   1      45.149  30.509  29.941  1.00  0.00     0.049 A 
ATOM     31  C   UNL A   1      39.750  31.409  31.458  1.00  0.00     0.074 A 
ATOM     32  C   UNL A   1      45.827  29.623  30.757  1.00  0.00     0.029 A 
ATOM     33  N   UNL A   1      44.521  31.376  30.797  1.00  0.00    -0.354 N 
ATOM     34  N   UNL A   1      40.519  31.171  32.484  1.00  0.00    -0.248 NA
ATOM     35  C   UNL A   1      40.347  32.215  30.404  1.00  0.00     0.031 C 
ATOM     36  C   UNL A   1      45.164  29.697  32.017  1.00  0.00     0.029 A 
ATOM     37  C   UNL A   1      44.144  30.640  31.888  1.00  0.00     0.049 A 
ATOM     38  H   UNL A   1      44.370  32.339  30.655  1.00  0.00     0.167 HD
ATOM     39  C   UNL A   1      41.803  31.443  32.036  1.00  0.00     0.074 A 
ATOM     40  C   UNL A   1      41.625  32.173  30.785  1.00  0.00     0.031 C 
ATOM     41  C   UNL A   1      42.888  30.813  32.573  1.00  0.00     0.037 A 
BRANCH  28  42
ATOM     42  C   UNL A   1      45.028  31.773  27.692  1.00  0.00     0.064 A 
ATOM     43  C   UNL A   1      46.272  31.977  27.059  1.00  0.00     0.173 A 
ATOM     44  C   UNL A   1      44.175  32.898  27.727  1.00  0.00     0.173 A 
ATOM     45  F   UNL A   1      47.169  30.982  26.975  1.00  0.00    -0.203 F 
ATOM     46  C   UNL A   1      46.665  33.233  26.587  1.00  0.00     0.198 A 
ATOM     47  C   UNL A   1      44.551  34.136  27.209  1.00  0.00     0.198 A 
ATOM     48  F   UNL A   1      42.996  32.877  28.359  1.00  0.00    -0.203 F 
ATOM     49  F   UNL A   1      47.907  33.407  26.115  1.00  0.00    -0.200 F 
ATOM     50  C   UNL A   1      45.808  34.314  26.673  1.00  0.00     0.200 A 
ATOM     51  F   UNL A   1      43.710  35.176  27.312  1.00  0.00    -0.200 F 
ATOM     52  F   UNL A   1      46.208  35.532  26.286  1.00  0.00    -0.200 F 
ENDBRANCH  28  42
BRANCH  29  53
ATOM     53  C   UNL A   1      37.218  31.258  30.874  1.00  0.00     0.064 A 
ATOM     54  C   UNL A   1      36.354  31.577  31.931  1.00  0.00     0.173 A 
ATOM     55  C   UNL A   1      36.882  31.781  29.609  1.00  0.00     0.173 A 
ATOM     56  F   UNL A   1      36.634  31.166  33.177  1.00  0.00    -0.203 F 
ATOM     57  C   UNL A   1      35.221  32.373  31.733  1.00  0.00     0.198 A 
ATOM     58  C   UNL A   1      35.745  32.562  29.409  1.00  0.00     0.198 A 
ATOM     59  F   UNL A   1      37.700  31.621  28.557  1.00  0.00    -0.203 F 
ATOM     60  F   UNL A   1      34.445  32.702  32.775  1.00  0.00    -0.200 F 
ATOM     61  C   UNL A   1      34.919  32.866  30.473  1.00  0.00     0.200 A 
ATOM     62  F   UNL A   1      35.489  33.063  28.192  1.00  0.00    -0.200 F 
ATOM     63  F   UNL A   1      33.861  33.667  30.293  1.00  0.00    -0.200 F 
ENDBRANCH  29  53
BRANCH  41  64
ATOM     64  C   UNL A   1      42.680  30.001  33.818  1.00  0.00     0.064 A 
ATOM     65  C   UNL A   1      42.224  28.672  33.802  1.00  0.00     0.173 A 
ATOM     66  C   UNL A   1      43.107  30.524  35.044  1.00  0.00     0.173 A 
ATOM     67  F   UNL A   1      41.910  28.066  32.652  1.00  0.00    -0.203 F 
ATOM     68  C   UNL A   1      42.153  27.918  34.971  1.00  0.00     0.198 A 
ATOM     69  C   UNL A   1      43.069  29.756  36.205  1.00  0.00     0.198 A 
ATOM     70  F   UNL A   1      43.616  31.764  35.106  1.00  0.00    -0.203 F 
ATOM     71  F   UNL A   1      41.708  26.653  34.929  1.00  0.00    -0.200 F 
ATOM     72  C   UNL A   1      42.582  28.459  36.171  1.00  0.00     0.200 A 
ATOM     73  F   UNL A   1      43.537  30.263  37.354  1.00  0.00    -0.200 F 
ATOM     74  F   UNL A   1      42.557  27.719  37.288  1.00  0.00    -0.200 F 
ENDBRANCH  41  64
ENDBRANCH  15  16
ENDBRANCH   8  10
ENDBRANCH   5   6
ENDBRANCH   4   5
ENDBRANCH   3   4
ENDBRANCH   2   3
ENDBRANCH   1   2
BRANCH   1  75
ATOM     75  C   UNL A   1      33.431  24.605  22.635  1.00  0.00     0.116 C 
BRANCH  75  76
ATOM     76  N   UNL A   1      32.034  24.254  22.563  1.00  0.00    -0.351 N 
ATOM     77  C   UNL A   1      30.948  24.876  23.103  1.00  0.00     0.262 C 
ATOM     78  H   UNL A   1      31.834  23.440  22.045  1.00  0.00     0.163 HD
ATOM     79  O   UNL A   1      29.902  24.225  23.125  1.00  0.00    -0.268 OA
BRANCH  77  80
ATOM     80  C   UNL A   1      31.082  26.189  23.682  1.00  0.00     0.112 A 
ATOM     81  S   UNL A   1      30.703  27.473  22.581  1.00  0.00    -0.137 S 
ATOM     82  C   UNL A   1      31.477  26.686  24.914  1.00  0.00     0.111 A 
ATOM     83  C   UNL A   1      30.936  28.669  23.761  1.00  0.00     0.067 A 
ATOM     84  C   UNL A   1      31.339  28.125  24.953  1.00  0.00     0.035 A 
BRANCH  82  85
ATOM     85  S   UNL A   1      32.014  25.898  26.367  1.00  0.00     0.263 S 
ATOM     86  O   UNL A   1      33.430  25.714  26.117  1.00  0.00    -0.201 OA
ATOM     87  O   UNL A   1      31.582  26.830  27.390  1.00  0.00    -0.201 OA
BRANCH  85  88
ATOM     88  N   UNL A   1      31.447  24.421  26.875  1.00  0.00    -0.280 N 
ATOM     89  H   UNL A   1      30.638  24.424  27.436  1.00  0.00     0.180 HD
BRANCH  88  90
ATOM     90  C   UNL A   1      32.010  23.166  26.582  1.00  0.00     0.049 A 
ATOM     91  C   UNL A   1      31.398  22.423  25.571  1.00  0.00     0.027 A 
ATOM     92  C   UNL A   1      33.128  22.666  27.232  1.00  0.00     0.027 A 
ATOM     93  C   UNL A   1      32.027  21.295  25.052  1.00  0.00     0.008 A 
ATOM     94  C   UNL A   1      33.749  21.518  26.729  1.00  0.00     0.008 A 
ATOM     95  C   UNL A   1      33.251  20.874  25.581  1.00  0.00    -0.026 A 
BRANCH  95  96
ATOM     96  C   UNL A   1      34.104  19.862  24.852  1.00  0.00     0.181 C 
BRANCH  96  97
ATOM     97  N   UNL A   1      33.507  18.545  24.803  1.00  0.00    -0.249 N 
ATOM     98  C   UNL A   1      33.794  17.533  23.938  1.00  0.00     0.220 A 
ATOM     99  N   UNL A   1      32.646  18.135  25.754  1.00  0.00    -0.160 NA
ATOM    100  N   UNL A   1      33.109  16.464  24.268  1.00  0.00    -0.224 NA
ATOM    101  C   UNL A   1      32.427  16.872  25.380  1.00  0.00     0.246 A 
ENDBRANCH  96  97
ENDBRANCH  95  96
ENDBRANCH  88  90
ENDBRANCH  85  88
ENDBRANCH  82  85
ENDBRANCH  77  80
ENDBRANCH  75  76
ENDBRANCH   1  75
TORSDOF 18
ENDMDL
MODEL 2
REMARK VINA RESULT:     -12.7      3.229      8.804
REMARK SMILES O=C(NCCCCCCNC(=O)c1sccc1S(=O)(=O)Nc1ccc(Cn2cncn2)cc1)c1ccc(-c2c3nc(c(-c4c(F)c(F)c(F)c(F)c4F)c4ccc([nH]4)c(-c4c(F)c(F)c(F)c(F)c4F)c4nc(c(-c5c(F)c(F)c(F)c(F)c5F)c5ccc2[nH]5)C=C4)C=C3)cc1
REMARK SMILES IDX 8 1 7 2 6 3 5 4 4 5 3 6 1 7 2 8 34 10 35 11 96 12 36 13
REMARK SMILES IDX 95 14 37 15 38 16 39 17 89 18 40 19 94 20 88 21 90 22 41 23
REMARK SMILES IDX 93 24 87 25 86 26 42 28 74 29 54 30 73 31 55 32 58 33 72 34
REMARK SMILES IDX 91 35 56 36 57 37 71 39 92 40 59 41 43 42 44 43 52 44 45 45
REMARK SMILES IDX 46 46 50 47 53 48 47 49 48 50 51 51 49 52 75 53 76 54 84 55
REMARK SMILES IDX 77 56 78 57 82 58 85 59 79 60 80 61 83 62 81 63 60 64 61 65
REMARK SMILES IDX 69 66 62 67 63 68 67 69 70 70 64 71 65 72 68 73 66 74 9 75
REMARK SMILES IDX 10 76 11 77 12 79 13 80 14 81 17 82 15 83 16 84 18 85 19 86
REMARK SMILES IDX 20 87 21 88 22 90 23 91 33 92 24 93 32 94 25 95 26 96 27 97
REMARK SMILES IDX 28 98 31 99 29 100 30 101
REMARK H PARENT 3 9 90 27 58 38 10 78 21 89
REMARK Flexibility Score: inf
ROOT
ATOM      1  C   UNL A   1      33.592  27.604  25.435  1.00  0.00     0.021 C 
ENDROOT
BRANCH   1   2
ATOM      2  C   UNL A   1      33.263  28.049  26.867  1.00  0.00     0.002 C 
BRANCH   2   3
ATOM      3  C   UNL A   1      32.032  28.950  26.991  1.00  0.00     0.002 C 
BRANCH   3   4
ATOM      4  C   UNL A   1      32.312  30.448  26.857  1.00  0.00     0.021 C 
BRANCH   4   5
ATOM      5  C   UNL A   1      33.730  30.872  27.250  1.00  0.00     0.116 C 
BRANCH   5   6
ATOM      6  N   UNL A   1      33.793  31.647  28.467  1.00  0.00    -0.352 N 
ATOM      7  O   UNL A   1      34.520  32.713  30.261  1.00  0.00    -0.269 OA
ATOM      8  C   UNL A   1      34.778  31.892  29.378  1.00  0.00     0.251 C 
ATOM      9  H   UNL A   1      32.943  32.094  28.686  1.00  0.00     0.163 HD
BRANCH   8  10
ATOM     10  C   UNL A   1      36.091  31.196  29.402  1.00  0.00     0.039 A 
ATOM     11  C   UNL A   1      36.280  29.816  29.527  1.00  0.00     0.014 A 
ATOM     12  C   UNL A   1      37.223  32.024  29.331  1.00  0.00     0.014 A 
ATOM     13  C   UNL A   1      37.550  29.282  29.686  1.00  0.00     0.010 A 
ATOM     14  C   UNL A   1      38.499  31.494  29.447  1.00  0.00     0.010 A 
ATOM     15  C   UNL A   1      38.653  30.126  29.669  1.00  0.00    -0.014 A 
BRANCH  15  16
ATOM     16  C   UNL A   1      39.971  29.515  29.781  1.00  0.00     0.031 A 
ATOM     17  C   UNL A   1      40.540  29.429  31.163  1.00  0.00     0.074 A 
ATOM     18  C   UNL A   1      40.541  28.912  28.721  1.00  0.00     0.049 A 
ATOM     19  N   UNL A   1      41.744  29.680  31.574  1.00  0.00    -0.248 NA
ATOM     20  C   UNL A   1      39.614  29.047  32.246  1.00  0.00     0.031 C 
ATOM     21  C   UNL A   1      39.951  28.686  27.398  1.00  0.00     0.029 A 
ATOM     22  N   UNL A   1      41.724  28.242  28.652  1.00  0.00    -0.354 N 
ATOM     23  C   UNL A   1      41.769  29.345  32.931  1.00  0.00     0.074 A 
ATOM     24  C   UNL A   1      40.412  29.055  33.310  1.00  0.00     0.031 C 
ATOM     25  C   UNL A   1      40.661  27.733  26.756  1.00  0.00     0.029 A 
ATOM     26  C   UNL A   1      41.808  27.377  27.574  1.00  0.00     0.049 A 
ATOM     27  H   UNL A   1      42.449  28.361  29.307  1.00  0.00     0.167 HD
ATOM     28  C   UNL A   1      42.928  29.147  33.617  1.00  0.00     0.037 A 
ATOM     29  C   UNL A   1      42.691  26.362  27.424  1.00  0.00     0.037 A 
ATOM     30  C   UNL A   1      44.032  29.840  33.016  1.00  0.00     0.049 A 
ATOM     31  C   UNL A   1      43.818  26.593  28.360  1.00  0.00     0.074 A 
ATOM     32  C   UNL A   1      44.325  31.167  32.768  1.00  0.00     0.029 A 
ATOM     33  N   UNL A   1      44.955  29.127  32.295  1.00  0.00    -0.354 N 
ATOM     34  N   UNL A   1      44.682  27.563  28.247  1.00  0.00    -0.248 NA
ATOM     35  C   UNL A   1      43.741  25.974  29.675  1.00  0.00     0.031 C 
ATOM     36  C   UNL A   1      45.055  31.164  31.543  1.00  0.00     0.029 A 
ATOM     37  C   UNL A   1      45.176  29.833  31.142  1.00  0.00     0.049 A 
ATOM     38  H   UNL A   1      45.377  28.275  32.554  1.00  0.00     0.167 HD
ATOM     39  C   UNL A   1      44.960  27.944  29.552  1.00  0.00     0.074 A 
ATOM     40  C   UNL A   1      44.430  26.870  30.385  1.00  0.00     0.031 C 
ATOM     41  C   UNL A   1      45.345  29.219  29.850  1.00  0.00     0.037 A 
BRANCH  28  42
ATOM     42  C   UNL A   1      43.117  28.058  34.648  1.00  0.00     0.064 A 
ATOM     43  C   UNL A   1      43.501  28.404  35.960  1.00  0.00     0.173 A 
ATOM     44  C   UNL A   1      43.243  26.690  34.321  1.00  0.00     0.173 A 
ATOM     45  F   UNL A   1      43.435  29.677  36.380  1.00  0.00    -0.203 F 
ATOM     46  C   UNL A   1      44.055  27.470  36.840  1.00  0.00     0.198 A 
ATOM     47  C   UNL A   1      43.748  25.752  35.220  1.00  0.00     0.198 A 
ATOM     48  F   UNL A   1      42.989  26.225  33.093  1.00  0.00    -0.203 F 
ATOM     49  F   UNL A   1      44.528  27.873  38.027  1.00  0.00    -0.200 F 
ATOM     50  C   UNL A   1      44.189  26.146  36.465  1.00  0.00     0.200 A 
ATOM     51  F   UNL A   1      43.881  24.474  34.833  1.00  0.00    -0.200 F 
ATOM     52  F   UNL A   1      44.783  25.264  37.278  1.00  0.00    -0.200 F 
ENDBRANCH  28  42
BRANCH  29  53
ATOM     53  C   UNL A   1      42.436  25.053  26.780  1.00  0.00     0.064 A 
ATOM     54  C   UNL A   1      43.140  24.657  25.635  1.00  0.00     0.173 A 
ATOM     55  C   UNL A   1      41.665  24.061  27.418  1.00  0.00     0.173 A 
ATOM     56  F   UNL A   1      43.943  25.527  25.004  1.00  0.00    -0.203 F 
ATOM     57  C   UNL A   1      43.077  23.344  25.156  1.00  0.00     0.198 A 
ATOM     58  C   UNL A   1      41.590  22.756  26.933  1.00  0.00     0.198 A 
ATOM     59  F   UNL A   1      41.039  24.312  28.578  1.00  0.00    -0.203 F 
ATOM     60  F   UNL A   1      43.805  22.986  24.090  1.00  0.00    -0.200 F 
ATOM     61  C   UNL A   1      42.304  22.395  25.807  1.00  0.00     0.200 A 
ATOM     62  F   UNL A   1      40.869  21.841  27.595  1.00  0.00    -0.200 F 
ATOM     63  F   UNL A   1      42.281  21.127  25.376  1.00  0.00    -0.200 F 
ENDBRANCH  29  53
BRANCH  41  64
ATOM     64  C   UNL A   1      45.690  30.130  28.709  1.00  0.00     0.064 A 
ATOM     65  C   UNL A   1      44.732  30.886  28.012  1.00  0.00     0.173 A 
ATOM     66  C   UNL A   1      47.037  30.371  28.420  1.00  0.00     0.173 A 
ATOM     67  F   UNL A   1      43.432  30.797  28.314  1.00  0.00    -0.203 F 
ATOM     68  C   UNL A   1      45.107  31.804  27.034  1.00  0.00     0.198 A 
ATOM     69  C   UNL A   1      47.412  31.316  27.468  1.00  0.00     0.198 A 
ATOM     70  F   UNL A   1      47.997  29.728  29.104  1.00  0.00    -0.203 F 
ATOM     71  F   UNL A   1      44.171  32.509  26.379  1.00  0.00    -0.200 F 
ATOM     72  C   UNL A   1      46.447  32.023  26.768  1.00  0.00     0.200 A 
ATOM     73  F   UNL A   1      48.711  31.566  27.253  1.00  0.00    -0.200 F 
ATOM     74  F   UNL A   1      46.811  32.940  25.860  1.00  0.00    -0.200 F 
ENDBRANCH  41  64
ENDBRANCH  15  16
ENDBRANCH   8  10
ENDBRANCH   5   6
ENDBRANCH   4   5
ENDBRANCH   3   4
ENDBRANCH   2   3
ENDBRANCH   1   2
BRANCH   1  75
ATOM     75  C   UNL A   1      33.494  26.098  25.229  1.00  0.00     0.116 C 
BRANCH  75  76
ATOM     76  N   UNL A   1      32.613  25.529  26.219  1.00  0.00    -0.351 N 
ATOM     77  C   UNL A   1      32.398  24.225  26.549  1.00  0.00     0.262 C 
ATOM     78  H   UNL A   1      32.086  26.182  26.735  1.00  0.00     0.163 HD
ATOM     79  O   UNL A   1      31.398  23.993  27.233  1.00  0.00    -0.268 OA
BRANCH  77  80
ATOM     80  C   UNL A   1      33.267  23.196  26.033  1.00  0.00     0.112 A 
ATOM     81  S   UNL A   1      34.404  22.603  27.199  1.00  0.00    -0.137 S 
ATOM     82  C   UNL A   1      33.440  22.578  24.806  1.00  0.00     0.111 A 
ATOM     83  C   UNL A   1      35.034  21.451  26.126  1.00  0.00     0.067 A 
ATOM     84  C   UNL A   1      34.438  21.535  24.895  1.00  0.00     0.035 A 
BRANCH  82  85
ATOM     85  S   UNL A   1      32.645  22.791  23.275  1.00  0.00     0.263 S 
ATOM     86  O   UNL A   1      33.564  23.660  22.565  1.00  0.00    -0.201 OA
ATOM     87  O   UNL A   1      32.471  21.420  22.835  1.00  0.00    -0.201 OA
BRANCH  85  88
ATOM     88  N   UNL A   1      31.144  23.483  23.107  1.00  0.00    -0.280 N 
ATOM     89  H   UNL A   1      30.373  22.871  23.075  1.00  0.00     0.180 HD
BRANCH  88  90
ATOM     90  C   UNL A   1      30.867  24.858  23.007  1.00  0.00     0.049 A 
ATOM     91  C   UNL A   1      29.903  25.371  23.877  1.00  0.00     0.027 A 
ATOM     92  C   UNL A   1      31.511  25.699  22.111  1.00  0.00     0.027 A 
ATOM     93  C   UNL A   1      29.745  26.746  24.016  1.00  0.00     0.008 A 
ATOM     94  C   UNL A   1      31.336  27.081  22.231  1.00  0.00     0.008 A 
ATOM     95  C   UNL A   1      30.517  27.618  23.241  1.00  0.00    -0.026 A 
BRANCH  95  96
ATOM     96  C   UNL A   1      30.602  29.088  23.580  1.00  0.00     0.181 C 
BRANCH  96  97
ATOM     97  N   UNL A   1      29.557  29.876  22.961  1.00  0.00    -0.249 N 
ATOM     98  C   UNL A   1      28.875  30.923  23.500  1.00  0.00     0.220 A 
ATOM     99  N   UNL A   1      29.236  29.709  21.663  1.00  0.00    -0.160 NA
ATOM    100  N   UNL A   1      28.072  31.437  22.597  1.00  0.00    -0.224 NA
ATOM    101  C   UNL A   1      28.326  30.671  21.494  1.00  0.00     0.246 A 
ENDBRANCH  96  97
ENDBRANCH  95  96
ENDBRANCH  88  90
ENDBRANCH  85  88
ENDBRANCH  82  85
ENDBRANCH  77  80
ENDBRANCH  75  76
ENDBRANCH   1  75
TORSDOF 18
ENDMDL
MODEL 3
REMARK VINA RESULT:     -12.5      1.153      1.788
REMARK SMILES O=C(NCCCCCCNC(=O)c1sccc1S(=O)(=O)Nc1ccc(Cn2cncn2)cc1)c1ccc(-c2c3nc(c(-c4c(F)c(F)c(F)c(F)c4F)c4ccc([nH]4)c(-c4c(F)c(F)c(F)c(F)c4F)c4nc(c(-c5c(F)c(F)c(F)c(F)c5F)c5ccc2[nH]5)C=C4)C=C3)cc1
REMARK SMILES IDX 8 1 7 2 6 3 5 4 4 5 3 6 1 7 2 8 34 10 35 11 96 12 36 13
REMARK SMILES IDX 95 14 37 15 38 16 39 17 89 18 40 19 94 20 88 21 90 22 41 23
REMARK SMILES IDX 93 24 87 25 86 26 42 28 74 29 54 30 73 31 55 32 58 33 72 34
REMARK SMILES IDX 91 35 56 36 57 37 71 39 92 40 59 41 43 42 44 43 52 44 45 45
REMARK SMILES IDX 46 46 50 47 53 48 47 49 48 50 51 51 49 52 75 53 76 54 84 55
REMARK SMILES IDX 77 56 78 57 82 58 85 59 79 60 80 61 83 62 81 63 60 64 61 65
REMARK SMILES IDX 69 66 62 67 63 68 67 69 70 70 64 71 65 72 68 73 66 74 9 75
REMARK SMILES IDX 10 76 11 77 12 79 13 80 14 81 17 82 15 83 16 84 18 85 19 86
REMARK SMILES IDX 20 87 21 88 22 90 23 91 33 92 24 93 32 94 25 95 26 96 27 97
REMARK SMILES IDX 28 98 31 99 29 100 30 101
REMARK H PARENT 3 9 90 27 58 38 10 78 21 89
REMARK Flexibility Score: inf
ROOT
ATOM      1  C   UNL A   1      35.860  23.811  24.307  1.00  0.00     0.021 C 
ENDROOT
BRANCH   1   2
ATOM      2  C   UNL A   1      36.207  23.301  25.713  1.00  0.00     0.002 C 
BRANCH   2   3
ATOM      3  C   UNL A   1      37.705  23.161  25.993  1.00  0.00     0.002 C 
BRANCH   3   4
ATOM      4  C   UNL A   1      38.306  21.801  25.631  1.00  0.00     0.021 C 
BRANCH   4   5
ATOM      5  C   UNL A   1      39.588  21.446  26.390  1.00  0.00     0.116 C 
BRANCH   5   6
ATOM      6  N   UNL A   1      40.797  21.667  25.632  1.00  0.00    -0.352 N 
ATOM      7  O   UNL A   1      42.739  22.453  24.929  1.00  0.00    -0.269 OA
ATOM      8  C   UNL A   1      41.756  22.637  25.651  1.00  0.00     0.251 C 
ATOM      9  H   UNL A   1      40.964  20.969  24.958  1.00  0.00     0.163 HD
BRANCH   8  10
ATOM     10  C   UNL A   1      41.656  23.901  26.426  1.00  0.00     0.039 A 
ATOM     11  C   UNL A   1      40.934  25.036  26.045  1.00  0.00     0.014 A 
ATOM     12  C   UNL A   1      42.393  23.945  27.620  1.00  0.00     0.014 A 
ATOM     13  C   UNL A   1      41.025  26.215  26.769  1.00  0.00     0.010 A 
ATOM     14  C   UNL A   1      42.457  25.108  28.374  1.00  0.00     0.010 A 
ATOM     15  C   UNL A   1      41.805  26.253  27.918  1.00  0.00    -0.014 A 
BRANCH  15  16
ATOM     16  C   UNL A   1      41.825  27.496  28.679  1.00  0.00     0.031 A 
ATOM     17  C   UNL A   1      42.973  28.417  28.401  1.00  0.00     0.074 A 
ATOM     18  C   UNL A   1      40.775  27.851  29.441  1.00  0.00     0.049 A 
ATOM     19  N   UNL A   1      43.709  29.087  29.233  1.00  0.00    -0.248 NA
ATOM     20  C   UNL A   1      43.379  28.576  26.992  1.00  0.00     0.031 C 
ATOM     21  C   UNL A   1      39.484  27.166  29.559  1.00  0.00     0.029 A 
ATOM     22  N   UNL A   1      40.590  28.989  30.165  1.00  0.00    -0.354 N 
ATOM     23  C   UNL A   1      44.568  29.864  28.451  1.00  0.00     0.074 A 
ATOM     24  C   UNL A   1      44.387  29.439  27.090  1.00  0.00     0.031 C 
ATOM     25  C   UNL A   1      38.582  28.016  30.096  1.00  0.00     0.029 A 
ATOM     26  C   UNL A   1      39.261  29.248  30.460  1.00  0.00     0.049 A 
ATOM     27  H   UNL A   1      41.330  29.573  30.450  1.00  0.00     0.167 HD
ATOM     28  C   UNL A   1      45.241  30.939  28.948  1.00  0.00     0.037 A 
ATOM     29  C   UNL A   1      38.743  30.430  30.865  1.00  0.00     0.037 A 
ATOM     30  C   UNL A   1      45.432  30.843  30.367  1.00  0.00     0.049 A 
ATOM     31  C   UNL A   1      39.856  31.272  31.365  1.00  0.00     0.074 A 
ATOM     32  C   UNL A   1      46.090  29.958  31.200  1.00  0.00     0.029 A 
ATOM     33  N   UNL A   1      44.658  31.611  31.198  1.00  0.00    -0.354 N 
ATOM     34  N   UNL A   1      40.536  31.026  32.451  1.00  0.00    -0.248 NA
ATOM     35  C   UNL A   1      40.492  32.180  30.422  1.00  0.00     0.031 C 
ATOM     36  C   UNL A   1      45.302  29.910  32.387  1.00  0.00     0.029 A 
ATOM     37  C   UNL A   1      44.232  30.785  32.204  1.00  0.00     0.049 A 
ATOM     38  H   UNL A   1      44.450  32.568  31.093  1.00  0.00     0.167 HD
ATOM     39  C   UNL A   1      41.834  31.413  32.152  1.00  0.00     0.074 A 
ATOM     40  C   UNL A   1      41.726  32.203  30.930  1.00  0.00     0.031 C 
ATOM     41  C   UNL A   1      42.905  30.829  32.764  1.00  0.00     0.037 A 
BRANCH  28  42
ATOM     42  C   UNL A   1      45.439  32.230  28.188  1.00  0.00     0.064 A 
ATOM     43  C   UNL A   1      44.317  33.008  27.835  1.00  0.00     0.173 A 
ATOM     44  C   UNL A   1      46.641  32.567  27.527  1.00  0.00     0.173 A 
ATOM     45  F   UNL A   1      43.118  32.771  28.390  1.00  0.00    -0.203 F 
ATOM     46  C   UNL A   1      44.375  33.980  26.832  1.00  0.00     0.198 A 
ATOM     47  C   UNL A   1      46.706  33.573  26.564  1.00  0.00     0.198 A 
ATOM     48  F   UNL A   1      47.769  31.871  27.703  1.00  0.00    -0.203 F 
ATOM     49  F   UNL A   1      43.253  34.599  26.439  1.00  0.00    -0.200 F 
ATOM     50  C   UNL A   1      45.568  34.254  26.189  1.00  0.00     0.200 A 
ATOM     51  F   UNL A   1      47.870  33.816  25.943  1.00  0.00    -0.200 F 
ATOM     52  F   UNL A   1      45.612  35.134  25.181  1.00  0.00    -0.200 F 
ENDBRANCH  28  42
BRANCH  29  53
ATOM     53  C   UNL A   1      37.413  30.980  30.516  1.00  0.00     0.064 A 
ATOM     54  C   UNL A   1      36.489  31.334  31.509  1.00  0.00     0.173 A 
ATOM     55  C   UNL A   1      37.114  31.396  29.203  1.00  0.00     0.173 A 
ATOM     56  F   UNL A   1      36.730  31.027  32.793  1.00  0.00    -0.203 F 
ATOM     57  C   UNL A   1      35.334  32.063  31.206  1.00  0.00     0.198 A 
ATOM     58  C   UNL A   1      35.955  32.109  28.899  1.00  0.00     0.198 A 
ATOM     59  F   UNL A   1      37.984  31.199  28.201  1.00  0.00    -0.203 F 
ATOM     60  F   UNL A   1      34.499  32.430  32.188  1.00  0.00    -0.200 F 
ATOM     61  C   UNL A   1      35.069  32.450  29.902  1.00  0.00     0.200 A 
ATOM     62  F   UNL A   1      35.733  32.510  27.639  1.00  0.00    -0.200 F 
ATOM     63  F   UNL A   1      33.988  33.188  29.619  1.00  0.00    -0.200 F 
ENDBRANCH  29  53
BRANCH  41  64
ATOM     64  C   UNL A   1      42.637  29.931  33.936  1.00  0.00     0.064 A 
ATOM     65  C   UNL A   1      42.217  28.596  33.801  1.00  0.00     0.173 A 
ATOM     66  C   UNL A   1      42.968  30.378  35.219  1.00  0.00     0.173 A 
ATOM     67  F   UNL A   1      41.995  28.063  32.595  1.00  0.00    -0.203 F 
ATOM     68  C   UNL A   1      42.088  27.763  34.911  1.00  0.00     0.198 A 
ATOM     69  C   UNL A   1      42.874  29.533  36.322  1.00  0.00     0.198 A 
ATOM     70  F   UNL A   1      43.440  31.622  35.397  1.00  0.00    -0.203 F 
ATOM     71  F   UNL A   1      41.680  26.495  34.755  1.00  0.00    -0.200 F 
ATOM     72  C   UNL A   1      42.423  28.231  36.170  1.00  0.00     0.200 A 
ATOM     73  F   UNL A   1      43.252  29.971  37.531  1.00  0.00    -0.200 F 
ATOM     74  F   UNL A   1      42.344  27.417  37.232  1.00  0.00    -0.200 F 
ENDBRANCH  41  64
ENDBRANCH  15  16
ENDBRANCH   8  10
ENDBRANCH   5   6
ENDBRANCH   4   5
ENDBRANCH   3   4
ENDBRANCH   2   3
ENDBRANCH   1   2
BRANCH   1  75
ATOM     75  C   UNL A   1      34.556  24.595  24.250  1.00  0.00     0.116 C 
BRANCH  75  76
ATOM     76  N   UNL A   1      34.252  24.934  22.881  1.00  0.00    -0.351 N 
ATOM     77  C   UNL A   1      33.450  25.915  22.382  1.00  0.00     0.262 C 
ATOM     78  H   UNL A   1      34.691  24.368  22.203  1.00  0.00     0.163 HD
ATOM     79  O   UNL A   1      33.144  25.817  21.191  1.00  0.00    -0.268 OA
BRANCH  77  80
ATOM     80  C   UNL A   1      32.939  26.943  23.254  1.00  0.00     0.112 A 
ATOM     81  S   UNL A   1      34.022  28.282  23.453  1.00  0.00    -0.137 S 
ATOM     82  C   UNL A   1      31.790  27.112  24.008  1.00  0.00     0.111 A 
ATOM     83  C   UNL A   1      32.927  29.134  24.428  1.00  0.00     0.067 A 
ATOM     84  C   UNL A   1      31.782  28.412  24.644  1.00  0.00     0.035 A 
BRANCH  82  85
ATOM     85  S   UNL A   1      30.396  26.101  24.246  1.00  0.00     0.263 S 
ATOM     86  O   UNL A   1      30.405  25.892  25.681  1.00  0.00    -0.201 OA
ATOM     87  O   UNL A   1      29.343  26.896  23.644  1.00  0.00    -0.201 OA
BRANCH  85  88
ATOM     88  N   UNL A   1      30.228  24.594  23.568  1.00  0.00    -0.280 N 
ATOM     89  H   UNL A   1      29.583  24.508  22.829  1.00  0.00     0.180 HD
BRANCH  88  90
ATOM     90  C   UNL A   1      30.918  23.428  23.947  1.00  0.00     0.049 A 
ATOM     91  C   UNL A   1      31.497  22.679  22.922  1.00  0.00     0.027 A 
ATOM     92  C   UNL A   1      31.050  23.020  25.266  1.00  0.00     0.027 A 
ATOM     93  C   UNL A   1      32.396  21.660  23.221  1.00  0.00     0.008 A 
ATOM     94  C   UNL A   1      31.934  21.979  25.569  1.00  0.00     0.008 A 
ATOM     95  C   UNL A   1      32.679  21.348  24.555  1.00  0.00    -0.026 A 
BRANCH  95  96
ATOM     96  C   UNL A   1      33.862  20.481  24.915  1.00  0.00     0.181 C 
BRANCH  96  97
ATOM     97  N   UNL A   1      33.568  19.065  24.854  1.00  0.00    -0.249 N 
ATOM     98  C   UNL A   1      34.385  18.064  24.426  1.00  0.00     0.220 A 
ATOM     99  N   UNL A   1      32.428  18.568  25.371  1.00  0.00    -0.160 NA
ATOM    100  N   UNL A   1      33.796  16.906  24.609  1.00  0.00    -0.224 NA
ATOM    101  C   UNL A   1      32.610  17.257  25.190  1.00  0.00     0.246 A 
ENDBRANCH  96  97
ENDBRANCH  95  96
ENDBRANCH  88  90
ENDBRANCH  85  88
ENDBRANCH  82  85
ENDBRANCH  77  80
ENDBRANCH  75  76
ENDBRANCH   1  75
TORSDOF 18
ENDMDL
