MODEL 1
REMARK VINA RESULT:     -11.5      0.000      0.000
REMARK SMILES CC(C)[C@@H](NC(=O)[C@@H]1CC[C@H]2CCCC[C@@H]2[NH2+]1)C(=O)NCCCCCCNC(=O)c1ccc(-c2c3nc(c(-c4c(F)c(F)c(F)c(F)c4F)c4ccc([nH]4)c(-c4c(F)c(F)c(F)c(F)c4F)c4nc(c(-c5c(F)c(F)c(F)c(F)c5F)c5ccc2[nH]5)C=C4)C=C3)cc1
REMARK SMILES IDX 23 1 22 2 21 3 20 4 18 5 19 6 4 8 2 9 1 10 3 11 5 12 6 13
REMARK SMILES IDX 7 15 8 16 9 17 17 18 10 19 16 20 11 23 15 24 12 25 14 26
REMARK SMILES IDX 13 27 24 28 25 29 26 30 27 31 28 32 29 34 30 35 31 36 92 37
REMARK SMILES IDX 32 38 91 39 33 40 34 41 35 42 85 43 36 44 90 45 84 46 86 47
REMARK SMILES IDX 37 48 89 49 83 50 82 51 38 53 70 54 50 55 69 56 51 57 54 58
REMARK SMILES IDX 68 59 87 60 52 61 53 62 67 64 88 65 55 66 39 67 40 68 48 69
REMARK SMILES IDX 41 70 42 71 46 72 49 73 43 74 44 75 47 76 45 77 71 78 72 79
REMARK SMILES IDX 80 80 73 81 74 82 78 83 81 84 75 85 76 86 79 87 77 88 56 89
REMARK SMILES IDX 57 90 65 91 58 92 59 93 63 94 66 95 60 96 61 97 64 98 62 99
REMARK H PARENT 20 7 5 14 17 21 17 22 27 33 86 52 54 63
REMARK Flexibility Score: inf
ROOT
ATOM      1  C   UNL A   1      35.248  33.435  29.188  1.00  0.00     0.002 C 
ENDROOT
BRANCH   1   2
ATOM      2  C   UNL A   1      34.404  32.150  29.118  1.00  0.00     0.021 C 
BRANCH   2   3
ATOM      3  C   UNL A   1      34.402  31.409  27.761  1.00  0.00     0.116 C 
BRANCH   3   4
ATOM      4  N   UNL A   1      33.188  30.597  27.623  1.00  0.00    -0.354 N 
ATOM      5  C   UNL A   1      33.180  29.303  27.128  1.00  0.00     0.242 C 
ATOM      6  O   UNL A   1      34.167  28.574  27.236  1.00  0.00    -0.273 OA
ATOM      7  H   UNL A   1      32.330  30.994  27.897  1.00  0.00     0.163 HD
BRANCH   5   8
ATOM      8  C   UNL A   1      31.906  28.827  26.325  1.00  0.00     0.174 C 
BRANCH   8   9
ATOM      9  C   UNL A   1      31.775  29.214  24.808  1.00  0.00     0.015 C 
ATOM     10  C   UNL A   1      33.067  28.963  24.010  1.00  0.00     0.010 C 
ATOM     11  C   UNL A   1      30.653  28.433  24.101  1.00  0.00     0.010 C 
ENDBRANCH   8   9
BRANCH   8  12
ATOM     12  N   UNL A   1      31.425  27.422  26.610  1.00  0.00    -0.339 N 
ATOM     13  C   UNL A   1      31.726  26.116  26.352  1.00  0.00     0.278 C 
ATOM     14  H   UNL A   1      30.619  27.464  27.174  1.00  0.00     0.164 HD
ATOM     15  O   UNL A   1      30.719  25.390  26.277  1.00  0.00    -0.268 OA
BRANCH  13  16
ATOM     16  C   UNL A   1      33.141  25.446  26.351  1.00  0.00     0.272 C 
ATOM     17  C   UNL A   1      34.047  25.798  25.209  1.00  0.00     0.076 C 
ATOM     18  N   UNL A   1      33.065  23.944  26.478  1.00  0.00    -0.333 N 
ATOM     19  C   UNL A   1      33.487  25.248  23.904  1.00  0.00     0.016 C 
ATOM     20  C   UNL A   1      33.370  23.212  25.226  1.00  0.00     0.186 C 
ATOM     21  H   UNL A   1      32.121  23.694  26.771  1.00  0.00     0.347 HD
ATOM     22  H   UNL A   1      33.775  23.670  27.157  1.00  0.00     0.347 HD
ATOM     23  C   UNL A   1      32.688  23.962  24.083  1.00  0.00     0.048 C 
ATOM     24  C   UNL A   1      33.015  21.730  25.294  1.00  0.00     0.065 C 
ATOM     25  C   UNL A   1      32.527  23.226  22.751  1.00  0.00     0.010 C 
ATOM     26  C   UNL A   1      33.109  21.086  23.907  1.00  0.00     0.006 C 
ATOM     27  C   UNL A   1      32.149  21.767  22.939  1.00  0.00     0.001 C 
ENDBRANCH  13  16
ENDBRANCH   8  12
ENDBRANCH   5   8
ENDBRANCH   3   4
ENDBRANCH   2   3
ENDBRANCH   1   2
BRANCH   1  28
ATOM     28  C   UNL A   1      34.788  34.672  28.394  1.00  0.00     0.002 C 
BRANCH  28  29
ATOM     29  C   UNL A   1      33.459  35.367  28.752  1.00  0.00     0.021 C 
BRANCH  29  30
ATOM     30  C   UNL A   1      33.484  36.556  29.706  1.00  0.00     0.116 C 
BRANCH  30  31
ATOM     31  N   UNL A   1      32.494  36.444  30.757  1.00  0.00    -0.352 N 
ATOM     32  C   UNL A   1      32.488  35.709  31.916  1.00  0.00     0.251 C 
ATOM     33  H   UNL A   1      31.686  36.989  30.614  1.00  0.00     0.163 HD
ATOM     34  O   UNL A   1      31.456  35.660  32.578  1.00  0.00    -0.269 OA
BRANCH  32  35
ATOM     35  C   UNL A   1      33.684  34.964  32.394  1.00  0.00     0.039 A 
ATOM     36  C   UNL A   1      34.928  35.607  32.322  1.00  0.00     0.014 A 
ATOM     37  C   UNL A   1      33.632  33.629  32.804  1.00  0.00     0.014 A 
ATOM     38  C   UNL A   1      36.102  34.931  32.674  1.00  0.00     0.010 A 
ATOM     39  C   UNL A   1      34.799  32.967  33.207  1.00  0.00     0.010 A 
ATOM     40  C   UNL A   1      36.049  33.605  33.129  1.00  0.00    -0.014 A 
BRANCH  40  41
ATOM     41  C   UNL A   1      37.293  32.866  33.479  1.00  0.00     0.031 A 
ATOM     42  C   UNL A   1      38.004  33.152  34.776  1.00  0.00     0.074 A 
ATOM     43  C   UNL A   1      37.805  31.959  32.626  1.00  0.00     0.049 A 
ATOM     44  N   UNL A   1      39.130  32.660  35.234  1.00  0.00    -0.248 NA
ATOM     45  C   UNL A   1      37.375  34.137  35.669  1.00  0.00     0.031 C 
ATOM     46  C   UNL A   1      37.229  31.599  31.330  1.00  0.00     0.029 A 
ATOM     47  N   UNL A   1      38.931  31.178  32.718  1.00  0.00    -0.354 N 
ATOM     48  C   UNL A   1      39.350  33.286  36.454  1.00  0.00     0.074 A 
ATOM     49  C   UNL A   1      38.264  34.223  36.648  1.00  0.00     0.031 C 
ATOM     50  C   UNL A   1      37.997  30.659  30.755  1.00  0.00     0.029 A 
ATOM     51  C   UNL A   1      39.134  30.371  31.625  1.00  0.00     0.049 A 
ATOM     52  H   UNL A   1      39.537  31.194  33.495  1.00  0.00     0.167 HD
ATOM     53  C   UNL A   1      40.354  33.086  37.342  1.00  0.00     0.037 A 
ATOM     54  C   UNL A   1      40.126  29.501  31.352  1.00  0.00     0.037 A 
ATOM     55  C   UNL A   1      41.419  32.133  37.168  1.00  0.00     0.049 A 
ATOM     56  C   UNL A   1      41.230  29.297  32.355  1.00  0.00     0.074 A 
ATOM     57  C   UNL A   1      42.460  31.832  38.030  1.00  0.00     0.029 A 
ATOM     58  N   UNL A   1      41.576  31.321  36.055  1.00  0.00    -0.354 N 
ATOM     59  N   UNL A   1      41.404  29.867  33.523  1.00  0.00    -0.248 NA
ATOM     60  C   UNL A   1      42.274  28.323  32.002  1.00  0.00     0.031 C 
ATOM     61  C   UNL A   1      43.265  30.861  37.426  1.00  0.00     0.029 A 
ATOM     62  C   UNL A   1      42.702  30.527  36.204  1.00  0.00     0.049 A 
ATOM     63  H   UNL A   1      40.977  31.310  35.275  1.00  0.00     0.167 HD
ATOM     64  C   UNL A   1      42.553  29.299  34.057  1.00  0.00     0.074 A 
ATOM     65  C   UNL A   1      43.032  28.333  33.090  1.00  0.00     0.031 C 
ATOM     66  C   UNL A   1      43.156  29.557  35.243  1.00  0.00     0.037 A 
BRANCH  53  67
ATOM     67  C   UNL A   1      40.348  33.917  38.592  1.00  0.00     0.064 A 
ATOM     68  C   UNL A   1      39.659  33.506  39.744  1.00  0.00     0.173 A 
ATOM     69  C   UNL A   1      41.070  35.118  38.654  1.00  0.00     0.173 A 
ATOM     70  F   UNL A   1      38.945  32.370  39.733  1.00  0.00    -0.203 F 
ATOM     71  C   UNL A   1      39.668  34.281  40.900  1.00  0.00     0.198 A 
ATOM     72  C   UNL A   1      41.101  35.877  39.821  1.00  0.00     0.198 A 
ATOM     73  F   UNL A   1      41.754  35.554  37.585  1.00  0.00    -0.203 F 
ATOM     74  F   UNL A   1      38.964  33.892  41.972  1.00  0.00    -0.200 F 
ATOM     75  C   UNL A   1      40.394  35.462  40.940  1.00  0.00     0.200 A 
ATOM     76  F   UNL A   1      41.811  37.013  39.863  1.00  0.00    -0.200 F 
ATOM     77  F   UNL A   1      40.405  36.205  42.056  1.00  0.00    -0.200 F 
ENDBRANCH  53  67
BRANCH  54  78
ATOM     78  C   UNL A   1      40.109  28.730  30.082  1.00  0.00     0.064 A 
ATOM     79  C   UNL A   1      40.701  29.246  28.920  1.00  0.00     0.173 A 
ATOM     80  C   UNL A   1      39.493  27.473  29.999  1.00  0.00     0.173 A 
ATOM     81  F   UNL A   1      41.280  30.456  28.946  1.00  0.00    -0.203 F 
ATOM     82  C   UNL A   1      40.664  28.542  27.720  1.00  0.00     0.198 A 
ATOM     83  C   UNL A   1      39.479  26.758  28.802  1.00  0.00     0.198 A 
ATOM     84  F   UNL A   1      38.913  26.936  31.081  1.00  0.00    -0.203 F 
ATOM     85  F   UNL A   1      41.200  29.078  26.614  1.00  0.00    -0.200 F 
ATOM     86  C   UNL A   1      40.058  27.296  27.662  1.00  0.00     0.200 A 
ATOM     87  F   UNL A   1      38.901  25.550  28.754  1.00  0.00    -0.200 F 
ATOM     88  F   UNL A   1      40.024  26.617  26.507  1.00  0.00    -0.200 F 
ENDBRANCH  54  78
BRANCH  66  89
ATOM     89  C   UNL A   1      44.376  28.752  35.584  1.00  0.00     0.064 A 
ATOM     90  C   UNL A   1      44.283  27.522  36.251  1.00  0.00     0.173 A 
ATOM     91  C   UNL A   1      45.650  29.200  35.203  1.00  0.00     0.173 A 
ATOM     92  F   UNL A   1      43.088  27.059  36.649  1.00  0.00    -0.203 F 
ATOM     93  C   UNL A   1      45.424  26.780  36.543  1.00  0.00     0.198 A 
ATOM     94  C   UNL A   1      46.786  28.443  35.474  1.00  0.00     0.198 A 
ATOM     95  F   UNL A   1      45.790  30.367  34.557  1.00  0.00    -0.203 F 
ATOM     96  F   UNL A   1      45.318  25.627  37.218  1.00  0.00    -0.200 F 
ATOM     97  C   UNL A   1      46.673  27.237  36.149  1.00  0.00     0.200 A 
ATOM     98  F   UNL A   1      47.991  28.881  35.082  1.00  0.00    -0.200 F 
ATOM     99  F   UNL A   1      47.770  26.518  36.425  1.00  0.00    -0.200 F 
ENDBRANCH  66  89
ENDBRANCH  40  41
ENDBRANCH  32  35
ENDBRANCH  30  31
ENDBRANCH  29  30
ENDBRANCH  28  29
ENDBRANCH   1  28
TORSDOF 16
ENDMDL
MODEL 2
REMARK VINA RESULT:     -11.5      0.108      1.921
REMARK SMILES CC(C)[C@@H](NC(=O)[C@@H]1CC[C@H]2CCCC[C@@H]2[NH2+]1)C(=O)NCCCCCCNC(=O)c1ccc(-c2c3nc(c(-c4c(F)c(F)c(F)c(F)c4F)c4ccc([nH]4)c(-c4c(F)c(F)c(F)c(F)c4F)c4nc(c(-c5c(F)c(F)c(F)c(F)c5F)c5ccc2[nH]5)C=C4)C=C3)cc1
REMARK SMILES IDX 23 1 22 2 21 3 20 4 18 5 19 6 4 8 2 9 1 10 3 11 5 12 6 13
REMARK SMILES IDX 7 15 8 16 9 17 17 18 10 19 16 20 11 23 15 24 12 25 14 26
REMARK SMILES IDX 13 27 24 28 25 29 26 30 27 31 28 32 29 34 30 35 31 36 92 37
REMARK SMILES IDX 32 38 91 39 33 40 34 41 35 42 85 43 36 44 90 45 84 46 86 47
REMARK SMILES IDX 37 48 89 49 83 50 82 51 38 53 70 54 50 55 69 56 51 57 54 58
REMARK SMILES IDX 68 59 87 60 52 61 53 62 67 64 88 65 55 66 39 67 40 68 48 69
REMARK SMILES IDX 41 70 42 71 46 72 49 73 43 74 44 75 47 76 45 77 71 78 72 79
REMARK SMILES IDX 80 80 73 81 74 82 78 83 81 84 75 85 76 86 79 87 77 88 56 89
REMARK SMILES IDX 57 90 65 91 58 92 59 93 63 94 66 95 60 96 61 97 64 98 62 99
REMARK H PARENT 20 7 5 14 17 21 17 22 27 33 86 52 54 63
REMARK Flexibility Score: inf
ROOT
ATOM      1  C   UNL A   1      35.080  33.421  29.115  1.00  0.00     0.002 C 
ENDROOT
BRANCH   1   2
ATOM      2  C   UNL A   1      34.507  31.994  29.073  1.00  0.00     0.021 C 
BRANCH   2   3
ATOM      3  C   UNL A   1      34.426  31.334  27.677  1.00  0.00     0.116 C 
BRANCH   3   4
ATOM      4  N   UNL A   1      33.226  30.497  27.576  1.00  0.00    -0.354 N 
ATOM      5  C   UNL A   1      33.223  29.216  27.047  1.00  0.00     0.242 C 
ATOM      6  O   UNL A   1      34.231  28.508  27.088  1.00  0.00    -0.273 OA
ATOM      7  H   UNL A   1      32.373  30.866  27.901  1.00  0.00     0.163 HD
BRANCH   5   8
ATOM      8  C   UNL A   1      31.923  28.730  26.293  1.00  0.00     0.174 C 
BRANCH   8   9
ATOM      9  C   UNL A   1      31.728  29.122  24.785  1.00  0.00     0.015 C 
ATOM     10  C   UNL A   1      33.008  28.943  23.947  1.00  0.00     0.010 C 
ATOM     11  C   UNL A   1      30.627  28.290  24.103  1.00  0.00     0.010 C 
ENDBRANCH   8   9
BRANCH   8  12
ATOM     12  N   UNL A   1      31.467  27.319  26.591  1.00  0.00    -0.339 N 
ATOM     13  C   UNL A   1      31.779  26.017  26.327  1.00  0.00     0.278 C 
ATOM     14  H   UNL A   1      30.675  27.351  27.175  1.00  0.00     0.164 HD
ATOM     15  O   UNL A   1      30.780  25.278  26.278  1.00  0.00    -0.268 OA
BRANCH  13  16
ATOM     16  C   UNL A   1      33.202  25.366  26.291  1.00  0.00     0.272 C 
ATOM     17  C   UNL A   1      34.068  25.712  25.117  1.00  0.00     0.076 C 
ATOM     18  N   UNL A   1      33.150  23.864  26.441  1.00  0.00    -0.333 N 
ATOM     19  C   UNL A   1      33.475  25.137  23.838  1.00  0.00     0.016 C 
ATOM     20  C   UNL A   1      33.426  23.118  25.191  1.00  0.00     0.186 C 
ATOM     21  H   UNL A   1      32.219  23.607  26.768  1.00  0.00     0.347 HD
ATOM     22  H   UNL A   1      33.884  23.610  27.102  1.00  0.00     0.347 HD
ATOM     23  C   UNL A   1      32.698  23.843  24.059  1.00  0.00     0.048 C 
ATOM     24  C   UNL A   1      33.093  21.633  25.290  1.00  0.00     0.065 C 
ATOM     25  C   UNL A   1      32.506  23.086  22.744  1.00  0.00     0.010 C 
ATOM     26  C   UNL A   1      33.152  20.971  23.911  1.00  0.00     0.006 C 
ATOM     27  C   UNL A   1      32.153  21.625  22.964  1.00  0.00     0.001 C 
ENDBRANCH  13  16
ENDBRANCH   8  12
ENDBRANCH   5   8
ENDBRANCH   3   4
ENDBRANCH   2   3
ENDBRANCH   1   2
BRANCH   1  28
ATOM     28  C   UNL A   1      34.461  34.500  28.206  1.00  0.00     0.002 C 
BRANCH  28  29
ATOM     29  C   UNL A   1      33.237  35.304  28.688  1.00  0.00     0.021 C 
BRANCH  29  30
ATOM     30  C   UNL A   1      33.451  36.461  29.657  1.00  0.00     0.116 C 
BRANCH  30  31
ATOM     31  N   UNL A   1      32.506  36.447  30.755  1.00  0.00    -0.352 N 
ATOM     32  C   UNL A   1      32.529  35.781  31.955  1.00  0.00     0.251 C 
ATOM     33  H   UNL A   1      31.711  37.011  30.615  1.00  0.00     0.163 HD
ATOM     34  O   UNL A   1      31.527  35.808  32.663  1.00  0.00    -0.269 OA
BRANCH  32  35
ATOM     35  C   UNL A   1      33.720  35.023  32.425  1.00  0.00     0.039 A 
ATOM     36  C   UNL A   1      34.972  35.646  32.328  1.00  0.00     0.014 A 
ATOM     37  C   UNL A   1      33.653  33.693  32.849  1.00  0.00     0.014 A 
ATOM     38  C   UNL A   1      36.140  34.955  32.672  1.00  0.00     0.010 A 
ATOM     39  C   UNL A   1      34.816  33.018  33.243  1.00  0.00     0.010 A 
ATOM     40  C   UNL A   1      36.073  33.635  33.142  1.00  0.00    -0.014 A 
BRANCH  40  41
ATOM     41  C   UNL A   1      37.311  32.881  33.483  1.00  0.00     0.031 A 
ATOM     42  C   UNL A   1      38.029  33.150  34.779  1.00  0.00     0.074 A 
ATOM     43  C   UNL A   1      37.811  31.974  32.622  1.00  0.00     0.049 A 
ATOM     44  N   UNL A   1      39.151  32.643  35.230  1.00  0.00    -0.248 NA
ATOM     45  C   UNL A   1      37.412  34.135  35.681  1.00  0.00     0.031 C 
ATOM     46  C   UNL A   1      37.227  31.630  31.325  1.00  0.00     0.029 A 
ATOM     47  N   UNL A   1      38.929  31.181  32.704  1.00  0.00    -0.354 N 
ATOM     48  C   UNL A   1      39.381  33.258  36.454  1.00  0.00     0.074 A 
ATOM     49  C   UNL A   1      38.306  34.205  36.658  1.00  0.00     0.031 C 
ATOM     50  C   UNL A   1      37.983  30.686  30.741  1.00  0.00     0.029 A 
ATOM     51  C   UNL A   1      39.119  30.380  31.605  1.00  0.00     0.049 A 
ATOM     52  H   UNL A   1      39.537  31.185  33.479  1.00  0.00     0.167 HD
ATOM     53  C   UNL A   1      40.386  33.041  37.337  1.00  0.00     0.037 A 
ATOM     54  C   UNL A   1      40.101  29.502  31.323  1.00  0.00     0.037 A 
ATOM     55  C   UNL A   1      41.440  32.079  37.153  1.00  0.00     0.049 A 
ATOM     56  C   UNL A   1      41.207  29.279  32.320  1.00  0.00     0.074 A 
ATOM     57  C   UNL A   1      42.481  31.761  38.009  1.00  0.00     0.029 A 
ATOM     58  N   UNL A   1      41.586  31.273  36.033  1.00  0.00    -0.354 N 
ATOM     59  N   UNL A   1      41.390  29.838  33.492  1.00  0.00    -0.248 NA
ATOM     60  C   UNL A   1      42.239  28.296  31.958  1.00  0.00     0.031 C 
ATOM     61  C   UNL A   1      43.274  30.785  37.396  1.00  0.00     0.029 A 
ATOM     62  C   UNL A   1      42.704  30.466  36.174  1.00  0.00     0.049 A 
ATOM     63  H   UNL A   1      40.983  31.274  35.255  1.00  0.00     0.167 HD
ATOM     64  C   UNL A   1      42.535  29.255  34.018  1.00  0.00     0.074 A 
ATOM     65  C   UNL A   1      43.001  28.291  33.043  1.00  0.00     0.031 C 
ATOM     66  C   UNL A   1      43.145  29.498  35.204  1.00  0.00     0.037 A 
BRANCH  53  67
ATOM     67  C   UNL A   1      40.393  33.863  38.593  1.00  0.00     0.064 A 
ATOM     68  C   UNL A   1      41.125  35.057  38.686  1.00  0.00     0.173 A 
ATOM     69  C   UNL A   1      39.630  33.474  39.705  1.00  0.00     0.173 A 
ATOM     70  F   UNL A   1      41.879  35.467  37.654  1.00  0.00    -0.203 F 
ATOM     71  C   UNL A   1      41.116  35.815  39.853  1.00  0.00     0.198 A 
ATOM     72  C   UNL A   1      39.601  34.249  40.861  1.00  0.00     0.198 A 
ATOM     73  F   UNL A   1      38.905  32.346  39.668  1.00  0.00    -0.203 F 
ATOM     74  F   UNL A   1      41.861  36.927  39.934  1.00  0.00    -0.200 F 
ATOM     75  C   UNL A   1      40.350  35.414  40.937  1.00  0.00     0.200 A 
ATOM     76  F   UNL A   1      38.851  33.868  41.905  1.00  0.00    -0.200 F 
ATOM     77  F   UNL A   1      40.340  36.148  42.059  1.00  0.00    -0.200 F 
ENDBRANCH  53  67
BRANCH  54  78
ATOM     78  C   UNL A   1      40.072  28.740  30.047  1.00  0.00     0.064 A 
ATOM     79  C   UNL A   1      39.458  27.482  29.975  1.00  0.00     0.173 A 
ATOM     80  C   UNL A   1      40.664  29.247  28.881  1.00  0.00     0.173 A 
ATOM     81  F   UNL A   1      38.900  26.948  31.071  1.00  0.00    -0.203 F 
ATOM     82  C   UNL A   1      39.451  26.751  28.790  1.00  0.00     0.198 A 
ATOM     83  C   UNL A   1      40.635  28.524  27.689  1.00  0.00     0.198 A 
ATOM     84  F   UNL A   1      41.264  30.445  28.897  1.00  0.00    -0.203 F 
ATOM     85  F   UNL A   1      38.895  25.532  28.761  1.00  0.00    -0.200 F 
ATOM     86  C   UNL A   1      40.035  27.274  27.646  1.00  0.00     0.200 A 
ATOM     87  F   UNL A   1      41.191  29.038  26.583  1.00  0.00    -0.200 F 
ATOM     88  F   UNL A   1      40.027  26.572  26.505  1.00  0.00    -0.200 F 
ENDBRANCH  54  78
BRANCH  66  89
ATOM     89  C   UNL A   1      44.356  28.678  35.535  1.00  0.00     0.064 A 
ATOM     90  C   UNL A   1      45.648  29.101  35.192  1.00  0.00     0.173 A 
ATOM     91  C   UNL A   1      44.225  27.473  36.242  1.00  0.00     0.173 A 
ATOM     92  F   UNL A   1      45.824  30.239  34.502  1.00  0.00    -0.203 F 
ATOM     93  C   UNL A   1      46.763  28.337  35.524  1.00  0.00     0.198 A 
ATOM     94  C   UNL A   1      45.344  26.724  36.595  1.00  0.00     0.198 A 
ATOM     95  F   UNL A   1      43.011  27.028  36.599  1.00  0.00    -0.203 F 
ATOM     96  F   UNL A   1      47.986  28.739  35.150  1.00  0.00    -0.200 F 
ATOM     97  C   UNL A   1      46.611  27.153  36.231  1.00  0.00     0.200 A 
ATOM     98  F   UNL A   1      45.196  25.586  37.288  1.00  0.00    -0.200 F 
ATOM     99  F   UNL A   1      47.686  26.422  36.556  1.00  0.00    -0.200 F 
ENDBRANCH  66  89
ENDBRANCH  40  41
ENDBRANCH  32  35
ENDBRANCH  30  31
ENDBRANCH  29  30
ENDBRANCH  28  29
ENDBRANCH   1  28
TORSDOF 16
ENDMDL
MODEL 3
REMARK VINA RESULT:     -11.5      4.199      6.252
REMARK SMILES CC(C)[C@@H](NC(=O)[C@@H]1CC[C@H]2CCCC[C@@H]2[NH2+]1)C(=O)NCCCCCCNC(=O)c1ccc(-c2c3nc(c(-c4c(F)c(F)c(F)c(F)c4F)c4ccc([nH]4)c(-c4c(F)c(F)c(F)c(F)c4F)c4nc(c(-c5c(F)c(F)c(F)c(F)c5F)c5ccc2[nH]5)C=C4)C=C3)cc1
REMARK SMILES IDX 23 1 22 2 21 3 20 4 18 5 19 6 4 8 2 9 1 10 3 11 5 12 6 13
REMARK SMILES IDX 7 15 8 16 9 17 17 18 10 19 16 20 11 23 15 24 12 25 14 26
REMARK SMILES IDX 13 27 24 28 25 29 26 30 27 31 28 32 29 34 30 35 31 36 92 37
REMARK SMILES IDX 32 38 91 39 33 40 34 41 35 42 85 43 36 44 90 45 84 46 86 47
REMARK SMILES IDX 37 48 89 49 83 50 82 51 38 53 70 54 50 55 69 56 51 57 54 58
REMARK SMILES IDX 68 59 87 60 52 61 53 62 67 64 88 65 55 66 39 67 40 68 48 69
REMARK SMILES IDX 41 70 42 71 46 72 49 73 43 74 44 75 47 76 45 77 71 78 72 79
REMARK SMILES IDX 80 80 73 81 74 82 78 83 81 84 75 85 76 86 79 87 77 88 56 89
REMARK SMILES IDX 57 90 65 91 58 92 59 93 63 94 66 95 60 96 61 97 64 98 62 99
REMARK H PARENT 20 7 5 14 17 21 17 22 27 33 86 52 54 63
REMARK Flexibility Score: inf
ROOT
ATOM      1  C   UNL A   1      31.485  29.305  24.392  1.00  0.00     0.002 C 
ENDROOT
BRANCH   1   2
ATOM      2  C   UNL A   1      30.203  29.717  23.649  1.00  0.00     0.021 C 
BRANCH   2   3
ATOM      3  C   UNL A   1      29.377  28.568  23.026  1.00  0.00     0.116 C 
BRANCH   3   4
ATOM      4  N   UNL A   1      30.189  27.351  22.925  1.00  0.00    -0.354 N 
ATOM      5  C   UNL A   1      30.203  26.353  23.886  1.00  0.00     0.242 C 
ATOM      6  O   UNL A   1      29.226  26.150  24.608  1.00  0.00    -0.273 OA
ATOM      7  H   UNL A   1      30.757  27.236  22.129  1.00  0.00     0.163 HD
BRANCH   5   8
ATOM      8  C   UNL A   1      31.548  25.553  24.101  1.00  0.00     0.174 C 
BRANCH   8   9
ATOM      9  C   UNL A   1      32.865  26.087  23.432  1.00  0.00     0.015 C 
ATOM     10  C   UNL A   1      34.084  26.023  24.371  1.00  0.00     0.010 C 
ATOM     11  C   UNL A   1      33.236  25.299  22.163  1.00  0.00     0.010 C 
ENDBRANCH   8   9
BRANCH   8  12
ATOM     12  N   UNL A   1      31.783  25.005  25.491  1.00  0.00    -0.339 N 
ATOM     13  C   UNL A   1      31.745  23.840  26.201  1.00  0.00     0.278 C 
ATOM     14  H   UNL A   1      32.058  25.739  26.086  1.00  0.00     0.164 HD
ATOM     15  O   UNL A   1      31.417  24.005  27.389  1.00  0.00    -0.268 OA
BRANCH  13  16
ATOM     16  C   UNL A   1      32.246  22.429  25.746  1.00  0.00     0.272 C 
ATOM     17  C   UNL A   1      32.994  21.623  26.766  1.00  0.00     0.076 C 
ATOM     18  N   UNL A   1      33.057  22.490  24.474  1.00  0.00    -0.333 N 
ATOM     19  C   UNL A   1      34.323  22.289  27.093  1.00  0.00     0.016 C 
ATOM     20  C   UNL A   1      34.512  22.290  24.669  1.00  0.00     0.186 C 
ATOM     21  H   UNL A   1      32.915  23.406  24.047  1.00  0.00     0.347 HD
ATOM     22  H   UNL A   1      32.733  21.725  23.882  1.00  0.00     0.347 HD
ATOM     23  C   UNL A   1      34.914  23.068  25.922  1.00  0.00     0.048 C 
ATOM     24  C   UNL A   1      35.338  22.634  23.435  1.00  0.00     0.065 C 
ATOM     25  C   UNL A   1      36.404  23.339  26.138  1.00  0.00     0.010 C 
ATOM     26  C   UNL A   1      36.833  22.656  23.770  1.00  0.00     0.006 C 
ATOM     27  C   UNL A   1      37.120  23.697  24.847  1.00  0.00     0.001 C 
ENDBRANCH  13  16
ENDBRANCH   8  12
ENDBRANCH   5   8
ENDBRANCH   3   4
ENDBRANCH   2   3
ENDBRANCH   1   2
BRANCH   1  28
ATOM     28  C   UNL A   1      31.458  29.209  25.929  1.00  0.00     0.002 C 
BRANCH  28  29
ATOM     29  C   UNL A   1      32.430  28.261  26.659  1.00  0.00     0.021 C 
BRANCH  29  30
ATOM     30  C   UNL A   1      33.823  28.767  27.016  1.00  0.00     0.116 C 
BRANCH  30  31
ATOM     31  N   UNL A   1      33.796  30.077  27.631  1.00  0.00    -0.352 N 
ATOM     32  C   UNL A   1      34.732  30.737  28.389  1.00  0.00     0.251 C 
ATOM     33  H   UNL A   1      32.963  30.580  27.482  1.00  0.00     0.163 HD
ATOM     34  O   UNL A   1      34.413  31.790  28.934  1.00  0.00    -0.269 OA
BRANCH  32  35
ATOM     35  C   UNL A   1      36.114  30.221  28.577  1.00  0.00     0.039 A 
ATOM     36  C   UNL A   1      36.426  29.614  29.802  1.00  0.00     0.014 A 
ATOM     37  C   UNL A   1      37.130  30.413  27.636  1.00  0.00     0.014 A 
ATOM     38  C   UNL A   1      37.730  29.186  30.074  1.00  0.00     0.010 A 
ATOM     39  C   UNL A   1      38.424  29.938  27.886  1.00  0.00     0.010 A 
ATOM     40  C   UNL A   1      38.742  29.336  29.114  1.00  0.00    -0.014 A 
BRANCH  40  41
ATOM     41  C   UNL A   1      40.140  28.911  29.404  1.00  0.00     0.031 A 
ATOM     42  C   UNL A   1      41.048  29.797  30.216  1.00  0.00     0.074 A 
ATOM     43  C   UNL A   1      40.609  27.746  28.917  1.00  0.00     0.049 A 
ATOM     44  N   UNL A   1      42.311  29.634  30.525  1.00  0.00    -0.248 NA
ATOM     45  C   UNL A   1      40.460  31.042  30.735  1.00  0.00     0.031 C 
ATOM     46  C   UNL A   1      39.844  26.803  28.101  1.00  0.00     0.029 A 
ATOM     47  N   UNL A   1      41.846  27.160  29.032  1.00  0.00    -0.354 N 
ATOM     48  C   UNL A   1      42.672  30.759  31.256  1.00  0.00     0.074 A 
ATOM     49  C   UNL A   1      41.507  31.617  31.311  1.00  0.00     0.031 C 
ATOM     50  C   UNL A   1      40.623  25.750  27.802  1.00  0.00     0.029 A 
ATOM     51  C   UNL A   1      41.949  25.957  28.377  1.00  0.00     0.049 A 
ATOM     52  H   UNL A   1      42.589  27.563  29.538  1.00  0.00     0.167 HD
ATOM     53  C   UNL A   1      43.859  31.044  31.845  1.00  0.00     0.037 A 
ATOM     54  C   UNL A   1      42.995  25.118  28.250  1.00  0.00     0.037 A 
ATOM     55  C   UNL A   1      45.010  30.180  31.819  1.00  0.00     0.049 A 
ATOM     56  C   UNL A   1      44.304  25.458  28.913  1.00  0.00     0.074 A 
ATOM     57  C   UNL A   1      46.245  30.366  32.418  1.00  0.00     0.029 A 
ATOM     58  N   UNL A   1      45.067  28.961  31.161  1.00  0.00    -0.354 N 
ATOM     59  N   UNL A   1      44.618  26.506  29.635  1.00  0.00    -0.248 NA
ATOM     60  C   UNL A   1      45.401  24.493  28.748  1.00  0.00     0.031 C 
ATOM     61  C   UNL A   1      47.059  29.275  32.098  1.00  0.00     0.029 A 
ATOM     62  C   UNL A   1      46.318  28.390  31.331  1.00  0.00     0.049 A 
ATOM     63  H   UNL A   1      44.328  28.562  30.648  1.00  0.00     0.167 HD
ATOM     64  C   UNL A   1      45.934  26.312  30.036  1.00  0.00     0.074 A 
ATOM     65  C   UNL A   1      46.357  25.041  29.485  1.00  0.00     0.031 C 
ATOM     66  C   UNL A   1      46.719  27.116  30.793  1.00  0.00     0.037 A 
BRANCH  53  67
ATOM     67  C   UNL A   1      43.974  32.351  32.574  1.00  0.00     0.064 A 
ATOM     68  C   UNL A   1      43.654  32.463  33.936  1.00  0.00     0.173 A 
ATOM     69  C   UNL A   1      44.444  33.497  31.915  1.00  0.00     0.173 A 
ATOM     70  F   UNL A   1      43.190  31.398  34.609  1.00  0.00    -0.203 F 
ATOM     71  C   UNL A   1      43.773  33.678  34.603  1.00  0.00     0.198 A 
ATOM     72  C   UNL A   1      44.589  34.705  32.592  1.00  0.00     0.198 A 
ATOM     73  F   UNL A   1      44.772  33.445  30.615  1.00  0.00    -0.203 F 
ATOM     74  F   UNL A   1      43.417  33.772  35.892  1.00  0.00    -0.200 F 
ATOM     75  C   UNL A   1      44.246  34.797  33.933  1.00  0.00     0.200 A 
ATOM     76  F   UNL A   1      45.056  35.783  31.947  1.00  0.00    -0.200 F 
ATOM     77  F   UNL A   1      44.363  35.966  34.578  1.00  0.00    -0.200 F 
ENDBRANCH  53  67
BRANCH  54  78
ATOM     78  C   UNL A   1      42.844  23.854  27.484  1.00  0.00     0.064 A 
ATOM     79  C   UNL A   1      43.179  23.794  26.124  1.00  0.00     0.173 A 
ATOM     80  C   UNL A   1      42.354  22.687  28.089  1.00  0.00     0.173 A 
ATOM     81  F   UNL A   1      43.628  24.891  25.497  1.00  0.00    -0.203 F 
ATOM     82  C   UNL A   1      43.013  22.620  25.393  1.00  0.00     0.198 A 
ATOM     83  C   UNL A   1      42.212  21.507  27.362  1.00  0.00     0.198 A 
ATOM     84  F   UNL A   1      42.020  22.693  29.387  1.00  0.00    -0.203 F 
ATOM     85  F   UNL A   1      43.299  22.602  24.084  1.00  0.00    -0.200 F 
ATOM     86  C   UNL A   1      42.535  21.475  26.014  1.00  0.00     0.200 A 
ATOM     87  F   UNL A   1      41.760  20.400  27.968  1.00  0.00    -0.200 F 
ATOM     88  F   UNL A   1      42.377  20.345  25.311  1.00  0.00    -0.200 F 
ENDBRANCH  54  78
BRANCH  66  89
ATOM     89  C   UNL A   1      48.102  26.628  31.110  1.00  0.00     0.064 A 
ATOM     90  C   UNL A   1      48.361  25.823  32.229  1.00  0.00     0.173 A 
ATOM     91  C   UNL A   1      49.174  26.937  30.259  1.00  0.00     0.173 A 
ATOM     92  F   UNL A   1      47.370  25.514  33.080  1.00  0.00    -0.203 F 
ATOM     93  C   UNL A   1      49.647  25.363  32.497  1.00  0.00     0.198 A 
ATOM     94  C   UNL A   1      50.454  26.454  30.516  1.00  0.00     0.198 A 
ATOM     95  F   UNL A   1      48.977  27.698  29.172  1.00  0.00    -0.203 F 
ATOM     96  F   UNL A   1      49.880  24.630  33.594  1.00  0.00    -0.200 F 
ATOM     97  C   UNL A   1      50.691  25.674  31.638  1.00  0.00     0.200 A 
ATOM     98  F   UNL A   1      51.460  26.745  29.679  1.00  0.00    -0.200 F 
ATOM     99  F   UNL A   1      51.927  25.225  31.894  1.00  0.00    -0.200 F 
ENDBRANCH  66  89
ENDBRANCH  40  41
ENDBRANCH  32  35
ENDBRANCH  30  31
ENDBRANCH  29  30
ENDBRANCH  28  29
ENDBRANCH   1  28
TORSDOF 16
ENDMDL
