MODEL 1
REMARK VINA RESULT:     -11.4      0.000      0.000
REMARK SMILES CCCCCCNC(=O)Oc1cccc(-c2ccc([C@@H](C)C(=O)NCCCCCCNC(=O)c3ccc(-c4c5nc(c(-c6c(F)c(F)c(F)c(F)c6F)c6ccc([nH]6)c(-c6c(F)c(F)c(F)c(F)c6F)c6nc(c(-c7c(F)c(F)c(F)c(F)c7F)c7ccc4[nH]7)C=C6)C=C5)cc3)cc2O)c1
REMARK SMILES IDX 22 1 23 2 24 3 20 5 21 6 19 7 16 8 17 9 98 10 18 11 97 12
REMARK SMILES IDX 15 13 11 14 12 15 100 16 13 17 14 18 10 19 8 20 7 21 9 23
REMARK SMILES IDX 6 24 5 25 4 26 3 27 2 28 1 29 99 30 25 32 26 33 27 34 28 35
REMARK SMILES IDX 29 36 30 37 31 38 32 39 33 41 34 42 35 43 96 44 36 45 95 46
REMARK SMILES IDX 37 47 38 48 39 49 89 50 40 51 94 52 88 53 90 54 41 55 93 56
REMARK SMILES IDX 87 57 86 58 42 60 74 61 54 62 73 63 55 64 58 65 72 66 91 67
REMARK SMILES IDX 56 68 57 69 71 71 92 72 59 73 43 74 44 75 52 76 45 77 46 78
REMARK SMILES IDX 50 79 53 80 47 81 48 82 51 83 49 84 75 85 76 86 84 87 77 88
REMARK SMILES IDX 78 89 82 90 85 91 79 92 80 93 83 94 81 95 60 96 61 97 69 98
REMARK SMILES IDX 62 99 63 100 67 101 70 102 64 103 65 104 68 105 66 106
REMARK H PARENT 24 4 7 22 99 31 31 40 90 59 58 70
REMARK Flexibility Score: inf
ROOT
ATOM      1  C   UNL A   1      31.517  23.645  23.126  1.00  0.00     0.227 C 
ATOM      2  O   UNL A   1      30.678  23.407  24.003  1.00  0.00    -0.274 OA
ATOM      3  N   UNL A   1      31.485  24.894  22.587  1.00  0.00    -0.356 N 
ATOM      4  H   UNL A   1      30.832  25.497  23.010  1.00  0.00     0.163 HD
ENDROOT
BRANCH   1   5
ATOM      5  C   UNL A   1      32.535  22.566  22.727  1.00  0.00     0.105 C 
ATOM      6  C   UNL A   1      31.940  21.162  22.607  1.00  0.00     0.023 C 
BRANCH   5   7
ATOM      7  C   UNL A   1      33.860  22.655  23.467  1.00  0.00    -0.032 A 
ATOM      8  C   UNL A   1      36.349  22.690  24.892  1.00  0.00     0.024 A 
ATOM      9  C   UNL A   1      36.201  23.306  23.637  1.00  0.00     0.013 A 
ATOM     10  C   UNL A   1      35.194  22.101  25.434  1.00  0.00     0.123 A 
ATOM     11  C   UNL A   1      34.976  23.325  22.961  1.00  0.00     0.005 A 
ATOM     12  C   UNL A   1      33.989  22.044  24.723  1.00  0.00     0.051 A 
BRANCH   8  13
ATOM     13  C   UNL A   1      37.675  22.684  25.553  1.00  0.00    -0.011 A 
ATOM     14  C   UNL A   1      39.765  21.582  26.131  1.00  0.00     0.133 A 
ATOM     15  C   UNL A   1      40.204  22.701  26.830  1.00  0.00     0.047 A 
ATOM     16  C   UNL A   1      38.526  21.568  25.486  1.00  0.00     0.056 A 
ATOM     17  C   UNL A   1      39.392  23.827  26.881  1.00  0.00     0.004 A 
ATOM     18  C   UNL A   1      38.139  23.811  26.263  1.00  0.00     0.009 A 
BRANCH  14  19
ATOM     19  O   UNL A   1      40.546  20.419  26.243  1.00  0.00    -0.410 OA
BRANCH  19  20
ATOM     20  C   UNL A   1      41.179  20.144  27.445  1.00  0.00     0.412 C 
ATOM     21  N   UNL A   1      42.119  19.157  27.331  1.00  0.00    -0.321 N 
ATOM     22  H   UNL A   1      42.589  18.897  28.157  1.00  0.00     0.167 HD
ATOM     23  O   UNL A   1      40.953  20.688  28.517  1.00  0.00    -0.224 OA
BRANCH  21  24
ATOM     24  C   UNL A   1      42.496  18.453  26.120  1.00  0.00     0.119 C 
BRANCH  24  25
ATOM     25  C   UNL A   1      43.553  19.214  25.320  1.00  0.00     0.021 C 
BRANCH  25  26
ATOM     26  C   UNL A   1      44.999  18.775  25.582  1.00  0.00     0.002 C 
BRANCH  26  27
ATOM     27  C   UNL A   1      46.079  19.602  24.877  1.00  0.00    -0.000 C 
BRANCH  27  28
ATOM     28  C   UNL A   1      45.976  21.117  25.067  1.00  0.00    -0.003 C 
ATOM     29  C   UNL A   1      45.175  21.808  23.976  1.00  0.00     0.004 C 
ENDBRANCH  27  28
ENDBRANCH  26  27
ENDBRANCH  25  26
ENDBRANCH  24  25
ENDBRANCH  21  24
ENDBRANCH  19  20
ENDBRANCH  14  19
ENDBRANCH   8  13
BRANCH  10  30
ATOM     30  O   UNL A   1      35.148  21.579  26.700  1.00  0.00    -0.507 OA
ATOM     31  H   UNL A   1      34.554  20.880  26.898  1.00  0.00     0.293 HD
ENDBRANCH  10  30
ENDBRANCH   5   7
ENDBRANCH   1   5
BRANCH   3  32
ATOM     32  C   UNL A   1      32.235  25.498  21.509  1.00  0.00     0.116 C 
BRANCH  32  33
ATOM     33  C   UNL A   1      33.280  26.487  22.030  1.00  0.00     0.021 C 
BRANCH  33  34
ATOM     34  C   UNL A   1      32.750  27.434  23.112  1.00  0.00     0.002 C 
BRANCH  34  35
ATOM     35  C   UNL A   1      33.512  27.393  24.442  1.00  0.00     0.002 C 
BRANCH  35  36
ATOM     36  C   UNL A   1      33.832  28.757  25.063  1.00  0.00     0.021 C 
BRANCH  36  37
ATOM     37  C   UNL A   1      32.999  29.111  26.294  1.00  0.00     0.116 C 
BRANCH  37  38
ATOM     38  N   UNL A   1      32.841  30.548  26.446  1.00  0.00    -0.352 N 
ATOM     39  C   UNL A   1      33.517  31.428  27.252  1.00  0.00     0.251 C 
ATOM     40  H   UNL A   1      32.141  30.952  25.884  1.00  0.00     0.163 HD
ATOM     41  O   UNL A   1      33.090  32.567  27.417  1.00  0.00    -0.269 OA
BRANCH  39  42
ATOM     42  C   UNL A   1      34.759  31.009  27.937  1.00  0.00     0.039 A 
ATOM     43  C   UNL A   1      35.814  31.920  28.041  1.00  0.00     0.014 A 
ATOM     44  C   UNL A   1      34.900  29.712  28.439  1.00  0.00     0.014 A 
ATOM     45  C   UNL A   1      36.988  31.550  28.700  1.00  0.00     0.010 A 
ATOM     46  C   UNL A   1      36.046  29.365  29.151  1.00  0.00     0.010 A 
ATOM     47  C   UNL A   1      37.101  30.280  29.288  1.00  0.00    -0.014 A 
BRANCH  47  48
ATOM     48  C   UNL A   1      38.312  29.893  30.056  1.00  0.00     0.031 A 
ATOM     49  C   UNL A   1      38.515  30.399  31.457  1.00  0.00     0.074 A 
ATOM     50  C   UNL A   1      39.263  29.148  29.461  1.00  0.00     0.049 A 
ATOM     51  N   UNL A   1      39.542  30.240  32.253  1.00  0.00    -0.248 NA
ATOM     52  C   UNL A   1      37.433  31.215  32.030  1.00  0.00     0.031 C 
ATOM     53  C   UNL A   1      39.205  28.642  28.090  1.00  0.00     0.029 A 
ATOM     54  N   UNL A   1      40.475  28.703  29.928  1.00  0.00    -0.354 N 
ATOM     55  C   UNL A   1      39.240  30.950  33.408  1.00  0.00     0.074 A 
ATOM     56  C   UNL A   1      37.952  31.575  33.195  1.00  0.00     0.031 C 
ATOM     57  C   UNL A   1      40.323  27.948  27.829  1.00  0.00     0.029 A 
ATOM     58  C   UNL A   1      41.193  27.989  29.000  1.00  0.00     0.049 A 
ATOM     59  H   UNL A   1      40.799  28.879  30.841  1.00  0.00     0.167 HD
ATOM     60  C   UNL A   1      39.963  31.054  34.547  1.00  0.00     0.037 A 
ATOM     61  C   UNL A   1      42.420  27.441  29.081  1.00  0.00     0.037 A 
ATOM     62  C   UNL A   1      41.227  30.401  34.769  1.00  0.00     0.049 A 
ATOM     63  C   UNL A   1      43.196  27.561  30.364  1.00  0.00     0.074 A 
ATOM     64  C   UNL A   1      41.996  30.376  35.919  1.00  0.00     0.029 A 
ATOM     65  N   UNL A   1      41.910  29.660  33.815  1.00  0.00    -0.354 N 
ATOM     66  N   UNL A   1      42.864  28.168  31.477  1.00  0.00    -0.248 NA
ATOM     67  C   UNL A   1      44.516  26.914  30.404  1.00  0.00     0.031 C 
ATOM     68  C   UNL A   1      43.166  29.659  35.648  1.00  0.00     0.029 A 
ATOM     69  C   UNL A   1      43.104  29.196  34.344  1.00  0.00     0.049 A 
ATOM     70  H   UNL A   1      41.592  29.488  32.899  1.00  0.00     0.167 HD
ATOM     71  C   UNL A   1      43.918  27.957  32.356  1.00  0.00     0.074 A 
ATOM     72  C   UNL A   1      44.894  27.152  31.652  1.00  0.00     0.031 C 
ATOM     73  C   UNL A   1      44.064  28.393  33.631  1.00  0.00     0.037 A 
BRANCH  60  74
ATOM     74  C   UNL A   1      39.408  31.906  35.652  1.00  0.00     0.064 A 
ATOM     75  C   UNL A   1      39.734  33.266  35.768  1.00  0.00     0.173 A 
ATOM     76  C   UNL A   1      38.498  31.369  36.575  1.00  0.00     0.173 A 
ATOM     77  F   UNL A   1      40.606  33.826  34.916  1.00  0.00    -0.203 F 
ATOM     78  C   UNL A   1      39.189  34.050  36.781  1.00  0.00     0.198 A 
ATOM     79  C   UNL A   1      37.933  32.162  37.570  1.00  0.00     0.198 A 
ATOM     80  F   UNL A   1      38.147  30.076  36.505  1.00  0.00    -0.203 F 
ATOM     81  F   UNL A   1      39.547  35.336  36.897  1.00  0.00    -0.200 F 
ATOM     82  C   UNL A   1      38.283  33.499  37.676  1.00  0.00     0.200 A 
ATOM     83  F   UNL A   1      37.048  31.632  38.425  1.00  0.00    -0.200 F 
ATOM     84  F   UNL A   1      37.750  34.258  38.644  1.00  0.00    -0.200 F 
ENDBRANCH  60  74
BRANCH  61  85
ATOM     85  C   UNL A   1      42.986  26.715  27.914  1.00  0.00     0.064 A 
ATOM     86  C   UNL A   1      43.666  27.403  26.899  1.00  0.00     0.173 A 
ATOM     87  C   UNL A   1      42.856  25.325  27.786  1.00  0.00     0.173 A 
ATOM     88  F   UNL A   1      43.798  28.736  26.967  1.00  0.00    -0.203 F 
ATOM     89  C   UNL A   1      44.176  26.730  25.790  1.00  0.00     0.198 A 
ATOM     90  C   UNL A   1      43.390  24.650  26.691  1.00  0.00     0.198 A 
ATOM     91  F   UNL A   1      42.218  24.620  28.733  1.00  0.00    -0.203 F 
ATOM     92  F   UNL A   1      44.781  27.418  24.813  1.00  0.00    -0.200 F 
ATOM     93  C   UNL A   1      44.042  25.354  25.690  1.00  0.00     0.200 A 
ATOM     94  F   UNL A   1      43.272  23.318  26.605  1.00  0.00    -0.200 F 
ATOM     95  F   UNL A   1      44.535  24.706  24.626  1.00  0.00    -0.200 F 
ENDBRANCH  61  85
BRANCH  73  96
ATOM     96  C   UNL A   1      45.312  27.986  34.357  1.00  0.00     0.064 A 
ATOM     97  C   UNL A   1      46.463  28.788  34.342  1.00  0.00     0.173 A 
ATOM     98  C   UNL A   1      45.344  26.801  35.109  1.00  0.00     0.173 A 
ATOM     99  F   UNL A   1      46.487  29.921  33.625  1.00  0.00    -0.203 F 
ATOM    100  C   UNL A   1      47.609  28.406  35.037  1.00  0.00     0.198 A 
ATOM    101  C   UNL A   1      46.481  26.439  35.824  1.00  0.00     0.198 A 
ATOM    102  F   UNL A   1      44.266  26.004  35.159  1.00  0.00    -0.203 F 
ATOM    103  F   UNL A   1      48.711  29.165  34.973  1.00  0.00    -0.200 F 
ATOM    104  C   UNL A   1      47.614  27.237  35.783  1.00  0.00     0.200 A 
ATOM    105  F   UNL A   1      46.480  25.316  36.556  1.00  0.00    -0.200 F 
ATOM    106  F   UNL A   1      48.714  26.876  36.457  1.00  0.00    -0.200 F 
ENDBRANCH  73  96
ENDBRANCH  47  48
ENDBRANCH  39  42
ENDBRANCH  37  38
ENDBRANCH  36  37
ENDBRANCH  35  36
ENDBRANCH  34  35
ENDBRANCH  33  34
ENDBRANCH  32  33
ENDBRANCH   3  32
TORSDOF 23
ENDMDL
MODEL 2
REMARK VINA RESULT:     -11.2      2.388      7.699
REMARK SMILES CCCCCCNC(=O)Oc1cccc(-c2ccc([C@@H](C)C(=O)NCCCCCCNC(=O)c3ccc(-c4c5nc(c(-c6c(F)c(F)c(F)c(F)c6F)c6ccc([nH]6)c(-c6c(F)c(F)c(F)c(F)c6F)c6nc(c(-c7c(F)c(F)c(F)c(F)c7F)c7ccc4[nH]7)C=C6)C=C5)cc3)cc2O)c1
REMARK SMILES IDX 22 1 23 2 24 3 20 5 21 6 19 7 16 8 17 9 98 10 18 11 97 12
REMARK SMILES IDX 15 13 11 14 12 15 100 16 13 17 14 18 10 19 8 20 7 21 9 23
REMARK SMILES IDX 6 24 5 25 4 26 3 27 2 28 1 29 99 30 25 32 26 33 27 34 28 35
REMARK SMILES IDX 29 36 30 37 31 38 32 39 33 41 34 42 35 43 96 44 36 45 95 46
REMARK SMILES IDX 37 47 38 48 39 49 89 50 40 51 94 52 88 53 90 54 41 55 93 56
REMARK SMILES IDX 87 57 86 58 42 60 74 61 54 62 73 63 55 64 58 65 72 66 91 67
REMARK SMILES IDX 56 68 57 69 71 71 92 72 59 73 43 74 44 75 52 76 45 77 46 78
REMARK SMILES IDX 50 79 53 80 47 81 48 82 51 83 49 84 75 85 76 86 84 87 77 88
REMARK SMILES IDX 78 89 82 90 85 91 79 92 80 93 83 94 81 95 60 96 61 97 69 98
REMARK SMILES IDX 62 99 63 100 67 101 70 102 64 103 65 104 68 105 66 106
REMARK H PARENT 24 4 7 22 99 31 31 40 90 59 58 70
REMARK Flexibility Score: inf
ROOT
ATOM      1  C   UNL A   1      30.289  29.226  22.749  1.00  0.00     0.227 C 
ATOM      2  O   UNL A   1      30.292  29.705  21.608  1.00  0.00    -0.274 OA
ATOM      3  N   UNL A   1      30.806  30.012  23.732  1.00  0.00    -0.356 N 
ATOM      4  H   UNL A   1      31.065  30.913  23.430  1.00  0.00     0.163 HD
ENDROOT
BRANCH   1   5
ATOM      5  C   UNL A   1      29.696  27.830  22.992  1.00  0.00     0.105 C 
ATOM      6  C   UNL A   1      28.243  27.845  23.470  1.00  0.00     0.023 C 
BRANCH   5   7
ATOM      7  C   UNL A   1      30.621  26.881  23.737  1.00  0.00    -0.032 A 
ATOM      8  C   UNL A   1      32.263  25.002  25.151  1.00  0.00     0.024 A 
ATOM      9  C   UNL A   1      32.715  25.664  23.997  1.00  0.00     0.013 A 
ATOM     10  C   UNL A   1      30.979  25.351  25.604  1.00  0.00     0.123 A 
ATOM     11  C   UNL A   1      31.930  26.611  23.331  1.00  0.00     0.005 A 
ATOM     12  C   UNL A   1      30.159  26.235  24.893  1.00  0.00     0.051 A 
BRANCH   8  13
ATOM     13  C   UNL A   1      33.130  23.993  25.804  1.00  0.00    -0.011 A 
ATOM     14  C   UNL A   1      35.326  23.096  26.342  1.00  0.00     0.133 A 
ATOM     15  C   UNL A   1      34.762  22.047  27.060  1.00  0.00     0.047 A 
ATOM     16  C   UNL A   1      34.531  24.068  25.731  1.00  0.00     0.056 A 
ATOM     17  C   UNL A   1      33.379  21.972  27.172  1.00  0.00     0.004 A 
ATOM     18  C   UNL A   1      32.575  22.924  26.539  1.00  0.00     0.009 A 
BRANCH  14  19
ATOM     19  O   UNL A   1      36.712  23.039  26.124  1.00  0.00    -0.410 OA
BRANCH  19  20
ATOM     20  C   UNL A   1      37.200  22.278  25.073  1.00  0.00     0.412 C 
ATOM     21  N   UNL A   1      38.503  21.904  25.254  1.00  0.00    -0.321 N 
ATOM     22  H   UNL A   1      38.917  21.380  24.530  1.00  0.00     0.167 HD
ATOM     23  O   UNL A   1      36.578  21.956  24.070  1.00  0.00    -0.224 OA
BRANCH  21  24
ATOM     24  C   UNL A   1      39.339  22.199  26.403  1.00  0.00     0.119 C 
BRANCH  24  25
ATOM     25  C   UNL A   1      40.792  21.783  26.177  1.00  0.00     0.021 C 
BRANCH  25  26
ATOM     26  C   UNL A   1      41.773  22.257  27.257  1.00  0.00     0.002 C 
BRANCH  26  27
ATOM     27  C   UNL A   1      43.008  23.007  26.745  1.00  0.00    -0.000 C 
BRANCH  27  28
ATOM     28  C   UNL A   1      43.543  24.101  27.671  1.00  0.00    -0.003 C 
ATOM     29  C   UNL A   1      42.871  24.117  29.034  1.00  0.00     0.004 C 
ENDBRANCH  27  28
ENDBRANCH  26  27
ENDBRANCH  25  26
ENDBRANCH  24  25
ENDBRANCH  21  24
ENDBRANCH  19  20
ENDBRANCH  14  19
ENDBRANCH   8  13
BRANCH  10  30
ATOM     30  O   UNL A   1      30.454  24.891  26.784  1.00  0.00    -0.507 OA
ATOM     31  H   UNL A   1      31.018  24.719  27.513  1.00  0.00     0.293 HD
ENDBRANCH  10  30
ENDBRANCH   5   7
ENDBRANCH   1   5
BRANCH   3  32
ATOM     32  C   UNL A   1      31.042  29.768  25.137  1.00  0.00     0.116 C 
BRANCH  32  33
ATOM     33  C   UNL A   1      32.531  29.853  25.483  1.00  0.00     0.021 C 
BRANCH  33  34
ATOM     34  C   UNL A   1      32.824  29.746  26.983  1.00  0.00     0.002 C 
BRANCH  34  35
ATOM     35  C   UNL A   1      33.872  30.732  27.514  1.00  0.00     0.002 C 
BRANCH  35  36
ATOM     36  C   UNL A   1      33.626  32.205  27.172  1.00  0.00     0.021 C 
BRANCH  36  37
ATOM     37  C   UNL A   1      32.257  32.737  27.587  1.00  0.00     0.116 C 
BRANCH  37  38
ATOM     38  N   UNL A   1      32.260  34.184  27.736  1.00  0.00    -0.352 N 
ATOM     39  C   UNL A   1      33.010  34.982  28.562  1.00  0.00     0.251 C 
ATOM     40  H   UNL A   1      31.627  34.664  27.155  1.00  0.00     0.163 HD
ATOM     41  O   UNL A   1      32.711  36.163  28.715  1.00  0.00    -0.269 OA
BRANCH  39  42
ATOM     42  C   UNL A   1      34.176  34.425  29.280  1.00  0.00     0.039 A 
ATOM     43  C   UNL A   1      33.972  33.791  30.510  1.00  0.00     0.014 A 
ATOM     44  C   UNL A   1      35.468  34.560  28.767  1.00  0.00     0.014 A 
ATOM     45  C   UNL A   1      35.058  33.242  31.195  1.00  0.00     0.010 A 
ATOM     46  C   UNL A   1      36.541  33.957  29.420  1.00  0.00     0.010 A 
ATOM     47  C   UNL A   1      36.346  33.293  30.640  1.00  0.00    -0.014 A 
BRANCH  47  48
ATOM     48  C   UNL A   1      37.501  32.651  31.318  1.00  0.00     0.031 A 
ATOM     49  C   UNL A   1      38.206  31.487  30.678  1.00  0.00     0.074 A 
ATOM     50  C   UNL A   1      37.865  33.070  32.545  1.00  0.00     0.049 A 
ATOM     51  N   UNL A   1      39.176  30.745  31.151  1.00  0.00    -0.248 NA
ATOM     52  C   UNL A   1      37.740  31.086  29.341  1.00  0.00     0.031 C 
ATOM     53  C   UNL A   1      37.226  34.154  33.291  1.00  0.00     0.029 A 
ATOM     54  N   UNL A   1      38.850  32.621  33.390  1.00  0.00    -0.354 N 
ATOM     55  C   UNL A   1      39.421  29.781  30.182  1.00  0.00     0.074 A 
ATOM     56  C   UNL A   1      38.473  30.005  29.112  1.00  0.00     0.031 C 
ATOM     57  C   UNL A   1      37.840  34.294  34.477  1.00  0.00     0.029 A 
ATOM     58  C   UNL A   1      38.891  33.288  34.590  1.00  0.00     0.049 A 
ATOM     59  H   UNL A   1      39.468  31.890  33.159  1.00  0.00     0.167 HD
ATOM     60  C   UNL A   1      40.365  28.810  30.179  1.00  0.00     0.037 A 
ATOM     61  C   UNL A   1      39.680  33.101  35.665  1.00  0.00     0.037 A 
ATOM     62  C   UNL A   1      41.330  28.614  31.228  1.00  0.00     0.049 A 
ATOM     63  C   UNL A   1      40.729  32.023  35.629  1.00  0.00     0.074 A 
ATOM     64  C   UNL A   1      42.379  27.713  31.278  1.00  0.00     0.029 A 
ATOM     65  N   UNL A   1      41.361  29.330  32.416  1.00  0.00    -0.354 N 
ATOM     66  N   UNL A   1      41.003  31.169  34.673  1.00  0.00    -0.248 NA
ATOM     67  C   UNL A   1      41.581  31.887  36.818  1.00  0.00     0.031 C 
ATOM     68  C   UNL A   1      43.017  27.851  32.516  1.00  0.00     0.029 A 
ATOM     69  C   UNL A   1      42.396  28.872  33.217  1.00  0.00     0.049 A 
ATOM     70  H   UNL A   1      40.741  30.057  32.654  1.00  0.00     0.167 HD
ATOM     71  C   UNL A   1      42.073  30.412  35.133  1.00  0.00     0.074 A 
ATOM     72  C   UNL A   1      42.408  30.919  36.447  1.00  0.00     0.031 C 
ATOM     73  C   UNL A   1      42.718  29.389  34.522  1.00  0.00     0.037 A 
BRANCH  60  74
ATOM     74  C   UNL A   1      40.406  27.880  29.001  1.00  0.00     0.064 A 
ATOM     75  C   UNL A   1      41.219  28.136  27.888  1.00  0.00     0.173 A 
ATOM     76  C   UNL A   1      39.662  26.690  29.010  1.00  0.00     0.173 A 
ATOM     77  F   UNL A   1      41.943  29.263  27.826  1.00  0.00    -0.203 F 
ATOM     78  C   UNL A   1      41.268  27.249  26.815  1.00  0.00     0.198 A 
ATOM     79  C   UNL A   1      39.734  25.791  27.949  1.00  0.00     0.198 A 
ATOM     80  F   UNL A   1      38.872  26.393  30.054  1.00  0.00    -0.203 F 
ATOM     81  F   UNL A   1      42.020  27.535  25.744  1.00  0.00    -0.200 F 
ATOM     82  C   UNL A   1      40.531  26.074  26.852  1.00  0.00     0.200 A 
ATOM     83  F   UNL A   1      39.032  24.650  27.991  1.00  0.00    -0.200 F 
ATOM     84  F   UNL A   1      40.588  25.215  25.824  1.00  0.00    -0.200 F 
ENDBRANCH  60  74
BRANCH  61  85
ATOM     85  C   UNL A   1      39.516  33.964  36.864  1.00  0.00     0.064 A 
ATOM     86  C   UNL A   1      40.134  35.220  36.937  1.00  0.00     0.173 A 
ATOM     87  C   UNL A   1      38.744  33.551  37.960  1.00  0.00     0.173 A 
ATOM     88  F   UNL A   1      40.899  35.649  35.922  1.00  0.00    -0.203 F 
ATOM     89  C   UNL A   1      40.004  36.020  38.070  1.00  0.00     0.198 A 
ATOM     90  C   UNL A   1      38.593  34.364  39.080  1.00  0.00     0.198 A 
ATOM     91  F   UNL A   1      38.128  32.359  37.937  1.00  0.00    -0.203 F 
ATOM     92  F   UNL A   1      40.644  37.196  38.133  1.00  0.00    -0.200 F 
ATOM     93  C   UNL A   1      39.229  35.595  39.138  1.00  0.00     0.200 A 
ATOM     94  F   UNL A   1      37.831  33.956  40.104  1.00  0.00    -0.200 F 
ATOM     95  F   UNL A   1      39.102  36.366  40.226  1.00  0.00    -0.200 F 
ENDBRANCH  61  85
BRANCH  73  96
ATOM     96  C   UNL A   1      43.868  28.766  35.257  1.00  0.00     0.064 A 
ATOM     97  C   UNL A   1      45.182  29.228  35.091  1.00  0.00     0.173 A 
ATOM     98  C   UNL A   1      43.647  27.721  36.168  1.00  0.00     0.173 A 
ATOM     99  F   UNL A   1      45.446  30.213  34.220  1.00  0.00    -0.203 F 
ATOM    100  C   UNL A   1      46.236  28.651  35.795  1.00  0.00     0.198 A 
ATOM    101  C   UNL A   1      44.699  27.167  36.890  1.00  0.00     0.198 A 
ATOM    102  F   UNL A   1      42.407  27.248  36.366  1.00  0.00    -0.203 F 
ATOM    103  F   UNL A   1      47.489  29.079  35.588  1.00  0.00    -0.200 F 
ATOM    104  C   UNL A   1      45.993  27.628  36.699  1.00  0.00     0.200 A 
ATOM    105  F   UNL A   1      44.462  26.187  37.773  1.00  0.00    -0.200 F 
ATOM    106  F   UNL A   1      47.008  27.080  37.381  1.00  0.00    -0.200 F 
ENDBRANCH  73  96
ENDBRANCH  47  48
ENDBRANCH  39  42
ENDBRANCH  37  38
ENDBRANCH  36  37
ENDBRANCH  35  36
ENDBRANCH  34  35
ENDBRANCH  33  34
ENDBRANCH  32  33
ENDBRANCH   3  32
TORSDOF 23
ENDMDL
MODEL 3
REMARK VINA RESULT:     -11.0      0.814      7.048
REMARK SMILES CCCCCCNC(=O)Oc1cccc(-c2ccc([C@@H](C)C(=O)NCCCCCCNC(=O)c3ccc(-c4c5nc(c(-c6c(F)c(F)c(F)c(F)c6F)c6ccc([nH]6)c(-c6c(F)c(F)c(F)c(F)c6F)c6nc(c(-c7c(F)c(F)c(F)c(F)c7F)c7ccc4[nH]7)C=C6)C=C5)cc3)cc2O)c1
REMARK SMILES IDX 22 1 23 2 24 3 20 5 21 6 19 7 16 8 17 9 98 10 18 11 97 12
REMARK SMILES IDX 15 13 11 14 12 15 100 16 13 17 14 18 10 19 8 20 7 21 9 23
REMARK SMILES IDX 6 24 5 25 4 26 3 27 2 28 1 29 99 30 25 32 26 33 27 34 28 35
REMARK SMILES IDX 29 36 30 37 31 38 32 39 33 41 34 42 35 43 96 44 36 45 95 46
REMARK SMILES IDX 37 47 38 48 39 49 89 50 40 51 94 52 88 53 90 54 41 55 93 56
REMARK SMILES IDX 87 57 86 58 42 60 74 61 54 62 73 63 55 64 58 65 72 66 91 67
REMARK SMILES IDX 56 68 57 69 71 71 92 72 59 73 43 74 44 75 52 76 45 77 46 78
REMARK SMILES IDX 50 79 53 80 47 81 48 82 51 83 49 84 75 85 76 86 84 87 77 88
REMARK SMILES IDX 78 89 82 90 85 91 79 92 80 93 83 94 81 95 60 96 61 97 69 98
REMARK SMILES IDX 62 99 63 100 67 101 70 102 64 103 65 104 68 105 66 106
REMARK H PARENT 24 4 7 22 99 31 31 40 90 59 58 70
REMARK Flexibility Score: inf
ROOT
ATOM      1  C   UNL A   1      31.621  23.501  23.097  1.00  0.00     0.227 C 
ATOM      2  O   UNL A   1      30.815  23.321  24.018  1.00  0.00    -0.274 OA
ATOM      3  N   UNL A   1      31.512  24.678  22.424  1.00  0.00    -0.356 N 
ATOM      4  H   UNL A   1      30.837  25.292  22.796  1.00  0.00     0.163 HD
ENDROOT
BRANCH   1   5
ATOM      5  C   UNL A   1      32.685  22.436  22.791  1.00  0.00     0.105 C 
ATOM      6  C   UNL A   1      32.135  21.011  22.714  1.00  0.00     0.023 C 
BRANCH   5   7
ATOM      7  C   UNL A   1      33.974  22.598  23.580  1.00  0.00    -0.032 A 
ATOM      8  C   UNL A   1      36.396  22.774  25.107  1.00  0.00     0.024 A 
ATOM      9  C   UNL A   1      36.297  23.298  23.806  1.00  0.00     0.013 A 
ATOM     10  C   UNL A   1      35.226  22.206  25.638  1.00  0.00     0.123 A 
ATOM     11  C   UNL A   1      35.103  23.249  23.078  1.00  0.00     0.005 A 
ATOM     12  C   UNL A   1      34.055  22.079  24.881  1.00  0.00     0.051 A 
BRANCH   8  13
ATOM     13  C   UNL A   1      37.691  22.836  25.824  1.00  0.00    -0.011 A 
ATOM     14  C   UNL A   1      39.738  21.794  26.625  1.00  0.00     0.133 A 
ATOM     15  C   UNL A   1      40.161  22.986  27.204  1.00  0.00     0.047 A 
ATOM     16  C   UNL A   1      38.529  21.713  25.930  1.00  0.00     0.056 A 
ATOM     17  C   UNL A   1      39.363  24.116  27.083  1.00  0.00     0.004 A 
ATOM     18  C   UNL A   1      38.138  24.037  26.414  1.00  0.00     0.009 A 
BRANCH  14  19
ATOM     19  O   UNL A   1      40.497  20.647  26.911  1.00  0.00    -0.410 OA
BRANCH  19  20
ATOM     20  C   UNL A   1      40.410  19.552  26.066  1.00  0.00     0.412 C 
ATOM     21  N   UNL A   1      41.542  18.785  26.078  1.00  0.00    -0.321 N 
ATOM     22  H   UNL A   1      41.552  18.003  25.480  1.00  0.00     0.167 HD
ATOM     23  O   UNL A   1      39.452  19.262  25.362  1.00  0.00    -0.224 OA
BRANCH  21  24
ATOM     24  C   UNL A   1      42.730  19.005  26.882  1.00  0.00     0.119 C 
BRANCH  24  25
ATOM     25  C   UNL A   1      44.004  18.584  26.151  1.00  0.00     0.021 C 
BRANCH  25  26
ATOM     26  C   UNL A   1      44.025  18.910  24.652  1.00  0.00     0.002 C 
BRANCH  26  27
ATOM     27  C   UNL A   1      44.563  20.297  24.285  1.00  0.00    -0.000 C 
BRANCH  27  28
ATOM     28  C   UNL A   1      45.791  20.756  25.075  1.00  0.00    -0.003 C 
ATOM     29  C   UNL A   1      46.253  22.156  24.708  1.00  0.00     0.004 C 
ENDBRANCH  27  28
ENDBRANCH  26  27
ENDBRANCH  25  26
ENDBRANCH  24  25
ENDBRANCH  21  24
ENDBRANCH  19  20
ENDBRANCH  14  19
ENDBRANCH   8  13
BRANCH  10  30
ATOM     30  O   UNL A   1      35.130  21.773  26.935  1.00  0.00    -0.507 OA
ATOM     31  H   UNL A   1      35.573  22.238  27.619  1.00  0.00     0.293 HD
ENDBRANCH  10  30
ENDBRANCH   5   7
ENDBRANCH   1   5
BRANCH   3  32
ATOM     32  C   UNL A   1      32.205  25.194  21.265  1.00  0.00     0.116 C 
BRANCH  32  33
ATOM     33  C   UNL A   1      33.278  26.214  21.654  1.00  0.00     0.021 C 
BRANCH  33  34
ATOM     34  C   UNL A   1      32.738  27.406  22.452  1.00  0.00     0.002 C 
BRANCH  34  35
ATOM     35  C   UNL A   1      33.097  27.407  23.943  1.00  0.00     0.002 C 
BRANCH  35  36
ATOM     36  C   UNL A   1      34.086  28.491  24.384  1.00  0.00     0.021 C 
BRANCH  36  37
ATOM     37  C   UNL A   1      34.062  28.810  25.877  1.00  0.00     0.116 C 
BRANCH  37  38
ATOM     38  N   UNL A   1      33.457  30.105  26.146  1.00  0.00    -0.352 N 
ATOM     39  C   UNL A   1      33.752  31.030  27.114  1.00  0.00     0.251 C 
ATOM     40  H   UNL A   1      32.723  30.355  25.540  1.00  0.00     0.163 HD
ATOM     41  O   UNL A   1      32.982  31.962  27.331  1.00  0.00    -0.269 OA
BRANCH  39  42
ATOM     42  C   UNL A   1      34.992  30.908  27.909  1.00  0.00     0.039 A 
ATOM     43  C   UNL A   1      35.219  29.733  28.632  1.00  0.00     0.014 A 
ATOM     44  C   UNL A   1      35.909  31.961  27.977  1.00  0.00     0.014 A 
ATOM     45  C   UNL A   1      36.393  29.590  29.374  1.00  0.00     0.010 A 
ATOM     46  C   UNL A   1      37.108  31.792  28.666  1.00  0.00     0.010 A 
ATOM     47  C   UNL A   1      37.361  30.606  29.372  1.00  0.00    -0.014 A 
BRANCH  47  48
ATOM     48  C   UNL A   1      38.648  30.444  30.095  1.00  0.00     0.031 A 
ATOM     49  C   UNL A   1      39.758  29.628  29.495  1.00  0.00     0.074 A 
ATOM     50  C   UNL A   1      38.785  30.970  31.328  1.00  0.00     0.049 A 
ATOM     51  N   UNL A   1      40.918  29.304  30.009  1.00  0.00    -0.248 NA
ATOM     52  C   UNL A   1      39.524  29.080  28.150  1.00  0.00     0.031 C 
ATOM     53  C   UNL A   1      37.761  31.737  32.038  1.00  0.00     0.029 A 
ATOM     54  N   UNL A   1      39.836  30.923  32.210  1.00  0.00    -0.354 N 
ATOM     55  C   UNL A   1      41.540  28.500  29.062  1.00  0.00     0.074 A 
ATOM     56  C   UNL A   1      40.615  28.352  27.960  1.00  0.00     0.031 C 
ATOM     57  C   UNL A   1      38.236  32.098  33.240  1.00  0.00     0.029 A 
ATOM     58  C   UNL A   1      39.583  31.558  33.401  1.00  0.00     0.049 A 
ATOM     59  H   UNL A   1      40.690  30.476  32.009  1.00  0.00     0.167 HD
ATOM     60  C   UNL A   1      42.778  27.953  29.103  1.00  0.00     0.037 A 
ATOM     61  C   UNL A   1      40.346  31.681  34.503  1.00  0.00     0.037 A 
ATOM     62  C   UNL A   1      43.710  28.134  30.186  1.00  0.00     0.049 A 
ATOM     63  C   UNL A   1      41.723  31.074  34.516  1.00  0.00     0.074 A 
ATOM     64  C   UNL A   1      45.017  27.691  30.282  1.00  0.00     0.029 A 
ATOM     65  N   UNL A   1      43.429  28.810  31.364  1.00  0.00    -0.354 N 
ATOM     66  N   UNL A   1      42.330  30.384  33.582  1.00  0.00    -0.248 NA
ATOM     67  C   UNL A   1      42.522  31.268  35.734  1.00  0.00     0.031 C 
ATOM     68  C   UNL A   1      45.513  28.059  31.538  1.00  0.00     0.029 A 
ATOM     69  C   UNL A   1      44.531  28.774  32.204  1.00  0.00     0.049 A 
ATOM     70  H   UNL A   1      42.574  29.252  31.572  1.00  0.00     0.167 HD
ATOM     71  C   UNL A   1      43.588  30.083  34.087  1.00  0.00     0.074 A 
ATOM     72  C   UNL A   1      43.662  30.680  35.404  1.00  0.00     0.031 C 
ATOM     73  C   UNL A   1      44.590  29.375  33.511  1.00  0.00     0.037 A 
BRANCH  60  74
ATOM     74  C   UNL A   1      43.205  27.104  27.941  1.00  0.00     0.064 A 
ATOM     75  C   UNL A   1      43.009  25.715  27.932  1.00  0.00     0.173 A 
ATOM     76  C   UNL A   1      43.770  27.694  26.800  1.00  0.00     0.173 A 
ATOM     77  F   UNL A   1      42.481  25.101  29.001  1.00  0.00    -0.203 F 
ATOM     78  C   UNL A   1      43.385  24.945  26.835  1.00  0.00     0.198 A 
ATOM     79  C   UNL A   1      44.120  26.925  25.693  1.00  0.00     0.198 A 
ATOM     80  F   UNL A   1      43.974  29.020  26.753  1.00  0.00    -0.203 F 
ATOM     81  F   UNL A   1      43.227  23.615  26.866  1.00  0.00    -0.200 F 
ATOM     82  C   UNL A   1      43.932  25.552  25.714  1.00  0.00     0.200 A 
ATOM     83  F   UNL A   1      44.636  27.514  24.606  1.00  0.00    -0.200 F 
ATOM     84  F   UNL A   1      44.284  24.811  24.653  1.00  0.00    -0.200 F 
ENDBRANCH  60  74
BRANCH  61  85
ATOM     85  C   UNL A   1      39.829  32.421  35.684  1.00  0.00     0.064 A 
ATOM     86  C   UNL A   1      38.925  31.821  36.571  1.00  0.00     0.173 A 
ATOM     87  C   UNL A   1      40.225  33.741  35.948  1.00  0.00     0.173 A 
ATOM     88  F   UNL A   1      38.501  30.569  36.348  1.00  0.00    -0.203 F 
ATOM     89  C   UNL A   1      38.418  32.521  37.664  1.00  0.00     0.198 A 
ATOM     90  C   UNL A   1      39.739  34.429  37.057  1.00  0.00     0.198 A 
ATOM     91  F   UNL A   1      41.093  34.358  35.132  1.00  0.00    -0.203 F 
ATOM     92  F   UNL A   1      37.518  31.940  38.469  1.00  0.00    -0.200 F 
ATOM     93  C   UNL A   1      38.830  33.822  37.910  1.00  0.00     0.200 A 
ATOM     94  F   UNL A   1      40.150  35.681  37.299  1.00  0.00    -0.200 F 
ATOM     95  F   UNL A   1      38.345  34.493  38.963  1.00  0.00    -0.200 F 
ENDBRANCH  61  85
BRANCH  73  96
ATOM     96  C   UNL A   1      45.863  29.228  34.291  1.00  0.00     0.064 A 
ATOM     97  C   UNL A   1      46.896  30.171  34.194  1.00  0.00     0.173 A 
ATOM     98  C   UNL A   1      46.034  28.153  35.177  1.00  0.00     0.173 A 
ATOM     99  F   UNL A   1      46.787  31.208  33.349  1.00  0.00    -0.203 F 
ATOM    100  C   UNL A   1      48.065  30.031  34.940  1.00  0.00     0.198 A 
ATOM    101  C   UNL A   1      47.190  28.032  35.941  1.00  0.00     0.198 A 
ATOM    102  F   UNL A   1      45.071  27.228  35.311  1.00  0.00    -0.203 F 
ATOM    103  F   UNL A   1      49.057  30.920  34.798  1.00  0.00    -0.200 F 
ATOM    104  C   UNL A   1      48.207  28.967  35.818  1.00  0.00     0.200 A 
ATOM    105  F   UNL A   1      47.321  27.011  36.799  1.00  0.00    -0.200 F 
ATOM    106  F   UNL A   1      49.328  28.838  36.540  1.00  0.00    -0.200 F 
ENDBRANCH  73  96
ENDBRANCH  47  48
ENDBRANCH  39  42
ENDBRANCH  37  38
ENDBRANCH  36  37
ENDBRANCH  35  36
ENDBRANCH  34  35
ENDBRANCH  33  34
ENDBRANCH  32  33
ENDBRANCH   3  32
TORSDOF 23
ENDMDL
