MODEL 1
REMARK VINA RESULT:     -12.3      0.000      0.000
REMARK SMILES Cc1nsc(NC(=O)[C@]2([NH3+])CCC[C@@H](C)C2)c1C(=O)NCCCCCCNC(=O)c1ccc(-c2c3nc(c(-c4c(F)c(F)c(F)c(F)c4F)c4ccc([nH]4)c(-c4c(F)c(F)c(F)c(F)c4F)c4nc(c(-c5c(F)c(F)c(F)c(F)c5F)c5ccc2[nH]5)C=C4)C=C3)cc1
REMARK SMILES IDX 23 1 22 2 21 3 20 4 18 5 19 6 17 8 1 9 2 10 3 11 4 12 5 13
REMARK SMILES IDX 6 14 7 15 8 17 9 18 11 19 16 20 12 21 14 22 13 23 15 24
REMARK SMILES IDX 10 25 24 29 25 30 26 31 27 32 28 33 29 35 30 36 31 37 92 38
REMARK SMILES IDX 32 39 91 40 33 41 34 42 35 43 85 44 36 45 90 46 84 47 86 48
REMARK SMILES IDX 37 49 89 50 83 51 82 52 38 54 70 55 50 56 69 57 51 58 54 59
REMARK SMILES IDX 68 60 87 61 52 62 53 63 67 65 88 66 55 67 39 68 40 69 48 70
REMARK SMILES IDX 41 71 42 72 46 73 49 74 43 75 44 76 47 77 45 78 71 79 72 80
REMARK SMILES IDX 80 81 73 82 74 83 78 84 81 85 75 86 76 87 79 88 77 89 56 90
REMARK SMILES IDX 57 91 65 92 58 93 59 94 63 95 66 96 60 97 61 98 64 99 62 100
REMARK H PARENT 20 7 6 16 10 26 10 27 10 28 27 34 86 53 54 64
REMARK Flexibility Score: inf
ROOT
ATOM      1  C   UNL A   1      39.215  21.765  26.292  1.00  0.00     0.002 C 
ENDROOT
BRANCH   1   2
ATOM      2  C   UNL A   1      38.404  20.880  25.353  1.00  0.00     0.021 C 
BRANCH   2   3
ATOM      3  C   UNL A   1      37.083  21.429  24.847  1.00  0.00     0.116 C 
BRANCH   3   4
ATOM      4  N   UNL A   1      36.835  22.836  25.039  1.00  0.00    -0.352 N 
ATOM      5  C   UNL A   1      35.626  23.487  25.156  1.00  0.00     0.256 C 
ATOM      6  O   UNL A   1      35.647  24.701  25.357  1.00  0.00    -0.269 OA
ATOM      7  H   UNL A   1      37.635  23.408  25.092  1.00  0.00     0.163 HD
BRANCH   5   8
ATOM      8  C   UNL A   1      34.369  22.786  24.895  1.00  0.00     0.097 A 
ATOM      9  C   UNL A   1      33.619  21.655  27.199  1.00  0.00     0.069 C 
ATOM     10  C   UNL A   1      33.558  21.906  25.731  1.00  0.00     0.066 A 
ATOM     11  N   UNL A   1      32.628  21.202  25.086  1.00  0.00    -0.195 NA
ATOM     12  S   UNL A   1      32.616  21.675  23.520  1.00  0.00    -0.017 S 
ATOM     13  C   UNL A   1      33.659  23.001  23.709  1.00  0.00     0.129 A 
BRANCH  13  14
ATOM     14  N   UNL A   1      33.850  23.994  22.760  1.00  0.00    -0.310 N 
ATOM     15  C   UNL A   1      33.281  25.228  22.540  1.00  0.00     0.286 C 
ATOM     16  H   UNL A   1      34.543  23.767  22.098  1.00  0.00     0.171 HD
ATOM     17  O   UNL A   1      33.679  25.841  21.540  1.00  0.00    -0.267 OA
BRANCH  15  18
ATOM     18  C   UNL A   1      32.207  25.878  23.478  1.00  0.00     0.174 C 
ATOM     19  C   UNL A   1      32.627  25.843  24.973  1.00  0.00     0.079 C 
ATOM     20  C   UNL A   1      30.889  25.063  23.401  1.00  0.00     0.082 C 
ATOM     21  C   UNL A   1      31.541  26.438  25.887  1.00  0.00     0.007 C 
ATOM     22  C   UNL A   1      29.738  25.573  24.278  1.00  0.00    -0.008 C 
ATOM     23  C   UNL A   1      30.195  25.730  25.732  1.00  0.00     0.004 C 
ATOM     24  C   UNL A   1      29.082  26.838  23.721  1.00  0.00     0.008 C 
BRANCH  18  25
ATOM     25  N   UNL A   1      32.154  27.322  23.162  1.00  0.00    -0.345 N 
ATOM     26  H   UNL A   1      31.350  27.509  22.564  1.00  0.00     0.345 HD
ATOM     27  H   UNL A   1      33.009  27.595  22.679  1.00  0.00     0.345 HD
ATOM     28  H   UNL A   1      32.066  27.855  24.027  1.00  0.00     0.345 HD
ENDBRANCH  18  25
ENDBRANCH  15  18
ENDBRANCH  13  14
ENDBRANCH   5   8
ENDBRANCH   3   4
ENDBRANCH   2   3
ENDBRANCH   1   2
BRANCH   1  29
ATOM     29  C   UNL A   1      40.648  21.336  26.632  1.00  0.00     0.002 C 
BRANCH  29  30
ATOM     30  C   UNL A   1      41.158  19.981  26.118  1.00  0.00     0.021 C 
BRANCH  30  31
ATOM     31  C   UNL A   1      42.496  19.531  26.675  1.00  0.00     0.116 C 
BRANCH  31  32
ATOM     32  N   UNL A   1      43.555  19.431  25.666  1.00  0.00    -0.352 N 
ATOM     33  C   UNL A   1      44.089  20.438  24.871  1.00  0.00     0.251 C 
ATOM     34  H   UNL A   1      43.937  18.534  25.536  1.00  0.00     0.163 HD
ATOM     35  O   UNL A   1      44.678  20.186  23.835  1.00  0.00    -0.269 OA
BRANCH  33  36
ATOM     36  C   UNL A   1      43.944  21.833  25.328  1.00  0.00     0.039 A 
ATOM     37  C   UNL A   1      43.149  22.778  24.671  1.00  0.00     0.014 A 
ATOM     38  C   UNL A   1      44.613  22.165  26.495  1.00  0.00     0.014 A 
ATOM     39  C   UNL A   1      43.014  24.040  25.248  1.00  0.00     0.010 A 
ATOM     40  C   UNL A   1      44.223  23.260  27.200  1.00  0.00     0.010 A 
ATOM     41  C   UNL A   1      43.559  24.262  26.523  1.00  0.00    -0.014 A 
BRANCH  41  42
ATOM     42  C   UNL A   1      43.403  25.511  27.250  1.00  0.00     0.031 A 
ATOM     43  C   UNL A   1      44.406  26.528  26.867  1.00  0.00     0.074 A 
ATOM     44  C   UNL A   1      42.301  25.782  27.990  1.00  0.00     0.049 A 
ATOM     45  N   UNL A   1      45.419  26.926  27.560  1.00  0.00    -0.248 NA
ATOM     46  C   UNL A   1      44.402  27.020  25.480  1.00  0.00     0.031 C 
ATOM     47  C   UNL A   1      41.080  24.972  28.140  1.00  0.00     0.029 A 
ATOM     48  N   UNL A   1      41.996  26.901  28.701  1.00  0.00    -0.354 N 
ATOM     49  C   UNL A   1      46.037  27.902  26.787  1.00  0.00     0.074 A 
ATOM     50  C   UNL A   1      45.523  27.745  25.454  1.00  0.00     0.031 C 
ATOM     51  C   UNL A   1      40.098  25.716  28.697  1.00  0.00     0.029 A 
ATOM     52  C   UNL A   1      40.666  26.983  29.111  1.00  0.00     0.049 A 
ATOM     53  H   UNL A   1      42.659  27.598  28.909  1.00  0.00     0.167 HD
ATOM     54  C   UNL A   1      46.660  28.953  27.390  1.00  0.00     0.037 A 
ATOM     55  C   UNL A   1      40.080  28.030  29.742  1.00  0.00     0.037 A 
ATOM     56  C   UNL A   1      46.835  28.685  28.798  1.00  0.00     0.049 A 
ATOM     57  C   UNL A   1      41.172  28.831  30.339  1.00  0.00     0.074 A 
ATOM     58  C   UNL A   1      47.573  27.805  29.559  1.00  0.00     0.029 A 
ATOM     59  N   UNL A   1      45.809  29.136  29.589  1.00  0.00    -0.354 N 
ATOM     60  N   UNL A   1      41.945  28.397  31.298  1.00  0.00    -0.248 NA
ATOM     61  C   UNL A   1      41.691  29.959  29.582  1.00  0.00     0.031 C 
ATOM     62  C   UNL A   1      46.767  27.519  30.704  1.00  0.00     0.029 A 
ATOM     63  C   UNL A   1      45.601  28.284  30.637  1.00  0.00     0.049 A 
ATOM     64  H   UNL A   1      45.294  29.959  29.423  1.00  0.00     0.167 HD
ATOM     65  C   UNL A   1      43.200  28.895  30.988  1.00  0.00     0.074 A 
ATOM     66  C   UNL A   1      42.953  29.961  30.022  1.00  0.00     0.031 C 
ATOM     67  C   UNL A   1      44.323  28.189  31.316  1.00  0.00     0.037 A 
BRANCH  54  68
ATOM     68  C   UNL A   1      46.642  30.378  26.868  1.00  0.00     0.064 A 
ATOM     69  C   UNL A   1      47.834  31.132  26.933  1.00  0.00     0.173 A 
ATOM     70  C   UNL A   1      45.471  31.128  26.618  1.00  0.00     0.173 A 
ATOM     71  F   UNL A   1      49.007  30.533  27.186  1.00  0.00    -0.203 F 
ATOM     72  C   UNL A   1      47.836  32.527  26.835  1.00  0.00     0.198 A 
ATOM     73  C   UNL A   1      45.485  32.513  26.469  1.00  0.00     0.198 A 
ATOM     74  F   UNL A   1      44.252  30.581  26.622  1.00  0.00    -0.203 F 
ATOM     75  F   UNL A   1      48.974  33.206  27.031  1.00  0.00    -0.200 F 
ATOM     76  C   UNL A   1      46.661  33.217  26.609  1.00  0.00     0.200 A 
ATOM     77  F   UNL A   1      44.328  33.164  26.276  1.00  0.00    -0.200 F 
ATOM     78  F   UNL A   1      46.648  34.556  26.577  1.00  0.00    -0.200 F 
ENDBRANCH  54  68
BRANCH  55  79
ATOM     79  C   UNL A   1      38.701  28.551  29.582  1.00  0.00     0.064 A 
ATOM     80  C   UNL A   1      37.887  28.843  30.690  1.00  0.00     0.173 A 
ATOM     81  C   UNL A   1      38.264  29.049  28.339  1.00  0.00     0.173 A 
ATOM     82  F   UNL A   1      38.259  28.453  31.918  1.00  0.00    -0.203 F 
ATOM     83  C   UNL A   1      36.716  29.600  30.562  1.00  0.00     0.198 A 
ATOM     84  C   UNL A   1      37.097  29.804  28.212  1.00  0.00     0.198 A 
ATOM     85  F   UNL A   1      39.016  28.892  27.240  1.00  0.00    -0.203 F 
ATOM     86  F   UNL A   1      35.994  29.907  31.650  1.00  0.00    -0.200 F 
ATOM     87  C   UNL A   1      36.327  30.089  29.326  1.00  0.00     0.200 A 
ATOM     88  F   UNL A   1      36.758  30.309  27.017  1.00  0.00    -0.200 F 
ATOM     89  F   UNL A   1      35.242  30.866  29.213  1.00  0.00    -0.200 F 
ENDBRANCH  55  79
BRANCH  67  90
ATOM     90  C   UNL A   1      44.184  27.111  32.356  1.00  0.00     0.064 A 
ATOM     91  C   UNL A   1      44.121  25.734  32.084  1.00  0.00     0.173 A 
ATOM     92  C   UNL A   1      44.232  27.498  33.703  1.00  0.00     0.173 A 
ATOM     93  F   UNL A   1      44.151  25.276  30.828  1.00  0.00    -0.203 F 
ATOM     94  C   UNL A   1      44.075  24.794  33.116  1.00  0.00     0.198 A 
ATOM     95  C   UNL A   1      44.224  26.559  34.728  1.00  0.00     0.198 A 
ATOM     96  F   UNL A   1      44.336  28.798  34.021  1.00  0.00    -0.203 F 
ATOM     97  F   UNL A   1      44.002  23.485  32.831  1.00  0.00    -0.200 F 
ATOM     98  C   UNL A   1      44.136  25.209  34.436  1.00  0.00     0.200 A 
ATOM     99  F   UNL A   1      44.328  26.964  36.001  1.00  0.00    -0.200 F 
ATOM    100  F   UNL A   1      44.132  24.306  35.427  1.00  0.00    -0.200 F 
ENDBRANCH  67  90
ENDBRANCH  41  42
ENDBRANCH  33  36
ENDBRANCH  31  32
ENDBRANCH  30  31
ENDBRANCH  29  30
ENDBRANCH   1  29
TORSDOF 16
ENDMDL
MODEL 2
REMARK VINA RESULT:     -12.0      3.022      8.688
REMARK SMILES Cc1nsc(NC(=O)[C@]2([NH3+])CCC[C@@H](C)C2)c1C(=O)NCCCCCCNC(=O)c1ccc(-c2c3nc(c(-c4c(F)c(F)c(F)c(F)c4F)c4ccc([nH]4)c(-c4c(F)c(F)c(F)c(F)c4F)c4nc(c(-c5c(F)c(F)c(F)c(F)c5F)c5ccc2[nH]5)C=C4)C=C3)cc1
REMARK SMILES IDX 23 1 22 2 21 3 20 4 18 5 19 6 17 8 1 9 2 10 3 11 4 12 5 13
REMARK SMILES IDX 6 14 7 15 8 17 9 18 11 19 16 20 12 21 14 22 13 23 15 24
REMARK SMILES IDX 10 25 24 29 25 30 26 31 27 32 28 33 29 35 30 36 31 37 92 38
REMARK SMILES IDX 32 39 91 40 33 41 34 42 35 43 85 44 36 45 90 46 84 47 86 48
REMARK SMILES IDX 37 49 89 50 83 51 82 52 38 54 70 55 50 56 69 57 51 58 54 59
REMARK SMILES IDX 68 60 87 61 52 62 53 63 67 65 88 66 55 67 39 68 40 69 48 70
REMARK SMILES IDX 41 71 42 72 46 73 49 74 43 75 44 76 47 77 45 78 71 79 72 80
REMARK SMILES IDX 80 81 73 82 74 83 78 84 81 85 75 86 76 87 79 88 77 89 56 90
REMARK SMILES IDX 57 91 65 92 58 93 59 94 63 95 66 96 60 97 61 98 64 99 62 100
REMARK H PARENT 20 7 6 16 10 26 10 27 10 28 27 34 86 53 54 64
REMARK Flexibility Score: inf
ROOT
ATOM      1  C   UNL A   1      34.581  28.951  27.373  1.00  0.00     0.002 C 
ENDROOT
BRANCH   1   2
ATOM      2  C   UNL A   1      34.014  28.311  26.111  1.00  0.00     0.021 C 
BRANCH   2   3
ATOM      3  C   UNL A   1      32.794  27.422  26.270  1.00  0.00     0.116 C 
BRANCH   3   4
ATOM      4  N   UNL A   1      31.607  27.793  25.541  1.00  0.00    -0.352 N 
ATOM      5  C   UNL A   1      31.222  27.410  24.274  1.00  0.00     0.256 C 
ATOM      6  O   UNL A   1      30.138  27.818  23.858  1.00  0.00    -0.269 OA
ATOM      7  H   UNL A   1      30.990  28.402  26.009  1.00  0.00     0.163 HD
BRANCH   5   8
ATOM      8  C   UNL A   1      32.139  26.675  23.402  1.00  0.00     0.097 A 
ATOM      9  C   UNL A   1      33.868  28.460  22.417  1.00  0.00     0.069 C 
ATOM     10  C   UNL A   1      33.205  27.128  22.515  1.00  0.00     0.066 A 
ATOM     11  N   UNL A   1      33.648  26.222  21.644  1.00  0.00    -0.195 NA
ATOM     12  S   UNL A   1      32.906  24.799  21.958  1.00  0.00    -0.017 S 
ATOM     13  C   UNL A   1      32.174  25.277  23.413  1.00  0.00     0.129 A 
BRANCH  13  14
ATOM     14  N   UNL A   1      31.595  24.407  24.325  1.00  0.00    -0.310 N 
ATOM     15  C   UNL A   1      32.092  23.463  25.195  1.00  0.00     0.286 C 
ATOM     16  H   UNL A   1      30.614  24.481  24.359  1.00  0.00     0.171 HD
ATOM     17  O   UNL A   1      31.254  22.825  25.845  1.00  0.00    -0.267 OA
BRANCH  15  18
ATOM     18  C   UNL A   1      33.620  23.186  25.408  1.00  0.00     0.174 C 
ATOM     19  C   UNL A   1      34.465  24.490  25.400  1.00  0.00     0.079 C 
ATOM     20  C   UNL A   1      34.163  22.336  24.230  1.00  0.00     0.082 C 
ATOM     21  C   UNL A   1      35.968  24.198  25.559  1.00  0.00     0.007 C 
ATOM     22  C   UNL A   1      35.656  21.989  24.291  1.00  0.00    -0.008 C 
ATOM     23  C   UNL A   1      36.498  23.255  24.479  1.00  0.00     0.004 C 
ATOM     24  C   UNL A   1      35.973  20.905  25.324  1.00  0.00     0.008 C 
BRANCH  18  25
ATOM     25  N   UNL A   1      33.791  22.666  26.782  1.00  0.00    -0.345 N 
ATOM     26  H   UNL A   1      33.135  21.901  26.940  1.00  0.00     0.345 HD
ATOM     27  H   UNL A   1      33.612  23.412  27.453  1.00  0.00     0.345 HD
ATOM     28  H   UNL A   1      34.745  22.325  26.899  1.00  0.00     0.345 HD
ENDBRANCH  18  25
ENDBRANCH  15  18
ENDBRANCH  13  14
ENDBRANCH   5   8
ENDBRANCH   3   4
ENDBRANCH   2   3
ENDBRANCH   1   2
BRANCH   1  29
ATOM     29  C   UNL A   1      35.081  30.399  27.286  1.00  0.00     0.002 C 
BRANCH  29  30
ATOM     30  C   UNL A   1      34.135  31.535  27.701  1.00  0.00     0.021 C 
BRANCH  30  31
ATOM     31  C   UNL A   1      34.808  32.777  28.257  1.00  0.00     0.116 C 
BRANCH  31  32
ATOM     32  N   UNL A   1      34.610  32.965  29.698  1.00  0.00    -0.352 N 
ATOM     33  C   UNL A   1      35.267  32.336  30.749  1.00  0.00     0.251 C 
ATOM     34  H   UNL A   1      33.924  33.622  29.953  1.00  0.00     0.163 HD
ATOM     35  O   UNL A   1      34.780  32.287  31.865  1.00  0.00    -0.269 OA
BRANCH  33  36
ATOM     36  C   UNL A   1      36.591  31.742  30.485  1.00  0.00     0.039 A 
ATOM     37  C   UNL A   1      37.748  32.500  30.285  1.00  0.00     0.014 A 
ATOM     38  C   UNL A   1      36.648  30.357  30.487  1.00  0.00     0.014 A 
ATOM     39  C   UNL A   1      38.960  31.826  30.137  1.00  0.00     0.010 A 
ATOM     40  C   UNL A   1      37.845  29.738  30.663  1.00  0.00     0.010 A 
ATOM     41  C   UNL A   1      38.989  30.437  30.334  1.00  0.00    -0.014 A 
BRANCH  41  42
ATOM     42  C   UNL A   1      40.210  29.650  30.287  1.00  0.00     0.031 A 
ATOM     43  C   UNL A   1      40.807  29.436  31.623  1.00  0.00     0.074 A 
ATOM     44  C   UNL A   1      40.593  28.977  29.176  1.00  0.00     0.049 A 
ATOM     45  N   UNL A   1      41.871  29.988  32.101  1.00  0.00    -0.248 NA
ATOM     46  C   UNL A   1      40.032  28.675  32.617  1.00  0.00     0.031 C 
ATOM     47  C   UNL A   1      39.871  28.837  27.900  1.00  0.00     0.029 A 
ATOM     48  N   UNL A   1      41.682  28.185  28.981  1.00  0.00    -0.354 N 
ATOM     49  C   UNL A   1      42.031  29.448  33.373  1.00  0.00     0.074 A 
ATOM     50  C   UNL A   1      40.769  28.850  33.717  1.00  0.00     0.031 C 
ATOM     51  C   UNL A   1      40.422  27.846  27.164  1.00  0.00     0.029 A 
ATOM     52  C   UNL A   1      41.635  27.410  27.824  1.00  0.00     0.049 A 
ATOM     53  H   UNL A   1      42.442  28.161  29.607  1.00  0.00     0.167 HD
ATOM     54  C   UNL A   1      43.281  29.257  33.878  1.00  0.00     0.037 A 
ATOM     55  C   UNL A   1      42.537  26.469  27.447  1.00  0.00     0.037 A 
ATOM     56  C   UNL A   1      44.252  29.971  33.082  1.00  0.00     0.049 A 
ATOM     57  C   UNL A   1      43.783  26.753  28.195  1.00  0.00     0.074 A 
ATOM     58  C   UNL A   1      44.552  31.291  32.826  1.00  0.00     0.029 A 
ATOM     59  N   UNL A   1      44.799  29.230  32.065  1.00  0.00    -0.354 N 
ATOM     60  N   UNL A   1      44.499  27.831  28.023  1.00  0.00    -0.248 NA
ATOM     61  C   UNL A   1      44.011  26.045  29.444  1.00  0.00     0.031 C 
ATOM     62  C   UNL A   1      45.014  31.323  31.474  1.00  0.00     0.029 A 
ATOM     63  C   UNL A   1      45.046  30.019  30.976  1.00  0.00     0.049 A 
ATOM     64  H   UNL A   1      44.988  28.265  32.114  1.00  0.00     0.167 HD
ATOM     65  C   UNL A   1      44.932  28.171  29.294  1.00  0.00     0.074 A 
ATOM     66  C   UNL A   1      44.732  26.965  30.093  1.00  0.00     0.031 C 
ATOM     67  C   UNL A   1      45.119  29.482  29.632  1.00  0.00     0.037 A 
BRANCH  54  68
ATOM     68  C   UNL A   1      43.695  28.067  34.723  1.00  0.00     0.064 A 
ATOM     69  C   UNL A   1      43.479  26.770  34.210  1.00  0.00     0.173 A 
ATOM     70  C   UNL A   1      43.982  28.125  36.106  1.00  0.00     0.173 A 
ATOM     71  F   UNL A   1      43.176  26.590  32.916  1.00  0.00    -0.203 F 
ATOM     72  C   UNL A   1      43.472  25.638  35.031  1.00  0.00     0.198 A 
ATOM     73  C   UNL A   1      44.026  26.988  36.911  1.00  0.00     0.198 A 
ATOM     74  F   UNL A   1      44.117  29.278  36.766  1.00  0.00    -0.203 F 
ATOM     75  F   UNL A   1      43.135  24.447  34.519  1.00  0.00    -0.200 F 
ATOM     76  C   UNL A   1      43.740  25.748  36.382  1.00  0.00     0.200 A 
ATOM     77  F   UNL A   1      44.263  27.122  38.224  1.00  0.00    -0.200 F 
ATOM     78  F   UNL A   1      43.674  24.677  37.183  1.00  0.00    -0.200 F 
ENDBRANCH  54  68
BRANCH  55  79
ATOM     79  C   UNL A   1      42.294  25.180  26.756  1.00  0.00     0.064 A 
ATOM     80  C   UNL A   1      43.051  24.784  25.641  1.00  0.00     0.173 A 
ATOM     81  C   UNL A   1      41.507  24.182  27.362  1.00  0.00     0.173 A 
ATOM     82  F   UNL A   1      43.870  25.659  25.039  1.00  0.00    -0.203 F 
ATOM     83  C   UNL A   1      43.033  23.465  25.171  1.00  0.00     0.198 A 
ATOM     84  C   UNL A   1      41.489  22.867  26.894  1.00  0.00     0.198 A 
ATOM     85  F   UNL A   1      40.815  24.444  28.481  1.00  0.00    -0.203 F 
ATOM     86  F   UNL A   1      43.811  23.110  24.139  1.00  0.00    -0.200 F 
ATOM     87  C   UNL A   1      42.260  22.505  25.804  1.00  0.00     0.200 A 
ATOM     88  F   UNL A   1      40.772  21.939  27.544  1.00  0.00    -0.200 F 
ATOM     89  F   UNL A   1      42.290  21.229  25.395  1.00  0.00    -0.200 F 
ENDBRANCH  55  79
BRANCH  67  90
ATOM     90  C   UNL A   1      45.250  30.474  28.509  1.00  0.00     0.064 A 
ATOM     91  C   UNL A   1      44.200  31.258  28.000  1.00  0.00     0.173 A 
ATOM     92  C   UNL A   1      46.536  30.718  28.005  1.00  0.00     0.173 A 
ATOM     93  F   UNL A   1      42.958  31.144  28.482  1.00  0.00    -0.203 F 
ATOM     94  C   UNL A   1      44.426  32.215  27.010  1.00  0.00     0.198 A 
ATOM     95  C   UNL A   1      46.765  31.698  27.046  1.00  0.00     0.198 A 
ATOM     96  F   UNL A   1      47.583  30.030  28.485  1.00  0.00    -0.203 F 
ATOM     97  F   UNL A   1      43.406  32.943  26.531  1.00  0.00    -0.200 F 
ATOM     98  C   UNL A   1      45.710  32.440  26.542  1.00  0.00     0.200 A 
ATOM     99  F   UNL A   1      48.015  31.942  26.630  1.00  0.00    -0.200 F 
ATOM    100  F   UNL A   1      45.936  33.388  25.621  1.00  0.00    -0.200 F 
ENDBRANCH  67  90
ENDBRANCH  41  42
ENDBRANCH  33  36
ENDBRANCH  31  32
ENDBRANCH  30  31
ENDBRANCH  29  30
ENDBRANCH   1  29
TORSDOF 16
ENDMDL
MODEL 3
REMARK VINA RESULT:     -12.0      2.118      6.504
REMARK SMILES Cc1nsc(NC(=O)[C@]2([NH3+])CCC[C@@H](C)C2)c1C(=O)NCCCCCCNC(=O)c1ccc(-c2c3nc(c(-c4c(F)c(F)c(F)c(F)c4F)c4ccc([nH]4)c(-c4c(F)c(F)c(F)c(F)c4F)c4nc(c(-c5c(F)c(F)c(F)c(F)c5F)c5ccc2[nH]5)C=C4)C=C3)cc1
REMARK SMILES IDX 23 1 22 2 21 3 20 4 18 5 19 6 17 8 1 9 2 10 3 11 4 12 5 13
REMARK SMILES IDX 6 14 7 15 8 17 9 18 11 19 16 20 12 21 14 22 13 23 15 24
REMARK SMILES IDX 10 25 24 29 25 30 26 31 27 32 28 33 29 35 30 36 31 37 92 38
REMARK SMILES IDX 32 39 91 40 33 41 34 42 35 43 85 44 36 45 90 46 84 47 86 48
REMARK SMILES IDX 37 49 89 50 83 51 82 52 38 54 70 55 50 56 69 57 51 58 54 59
REMARK SMILES IDX 68 60 87 61 52 62 53 63 67 65 88 66 55 67 39 68 40 69 48 70
REMARK SMILES IDX 41 71 42 72 46 73 49 74 43 75 44 76 47 77 45 78 71 79 72 80
REMARK SMILES IDX 80 81 73 82 74 83 78 84 81 85 75 86 76 87 79 88 77 89 56 90
REMARK SMILES IDX 57 91 65 92 58 93 59 94 63 95 66 96 60 97 61 98 64 99 62 100
REMARK H PARENT 20 7 6 16 10 26 10 27 10 28 27 34 86 53 54 64
REMARK Flexibility Score: inf
ROOT
ATOM      1  C   UNL A   1      37.910  22.549  25.333  1.00  0.00     0.002 C 
ENDROOT
BRANCH   1   2
ATOM      2  C   UNL A   1      36.954  23.413  26.146  1.00  0.00     0.021 C 
BRANCH   2   3
ATOM      3  C   UNL A   1      35.485  23.370  25.768  1.00  0.00     0.116 C 
BRANCH   3   4
ATOM      4  N   UNL A   1      34.532  23.193  26.835  1.00  0.00    -0.352 N 
ATOM      5  C   UNL A   1      33.291  22.596  26.787  1.00  0.00     0.256 C 
ATOM      6  O   UNL A   1      32.654  22.518  27.838  1.00  0.00    -0.269 OA
ATOM      7  H   UNL A   1      34.803  23.548  27.712  1.00  0.00     0.163 HD
BRANCH   5   8
ATOM      8  C   UNL A   1      32.692  22.212  25.509  1.00  0.00     0.097 A 
ATOM      9  C   UNL A   1      33.862  19.929  24.759  1.00  0.00     0.069 C 
ATOM     10  C   UNL A   1      33.005  21.134  24.576  1.00  0.00     0.066 A 
ATOM     11  N   UNL A   1      32.457  21.247  23.367  1.00  0.00    -0.195 NA
ATOM     12  S   UNL A   1      31.465  22.548  23.369  1.00  0.00    -0.017 S 
ATOM     13  C   UNL A   1      31.536  22.844  25.039  1.00  0.00     0.129 A 
BRANCH  13  14
ATOM     14  N   UNL A   1      30.678  23.691  25.725  1.00  0.00    -0.310 N 
ATOM     15  C   UNL A   1      30.531  25.058  25.787  1.00  0.00     0.286 C 
ATOM     16  H   UNL A   1      30.032  23.209  26.291  1.00  0.00     0.171 HD
ATOM     17  O   UNL A   1      29.662  25.478  26.562  1.00  0.00    -0.267 OA
BRANCH  15  18
ATOM     18  C   UNL A   1      31.370  26.069  24.934  1.00  0.00     0.174 C 
ATOM     19  C   UNL A   1      32.891  25.752  24.966  1.00  0.00     0.079 C 
ATOM     20  C   UNL A   1      31.234  27.493  25.534  1.00  0.00     0.082 C 
ATOM     21  C   UNL A   1      33.707  26.783  24.165  1.00  0.00     0.007 C 
ATOM     22  C   UNL A   1      32.012  28.599  24.809  1.00  0.00    -0.008 C 
ATOM     23  C   UNL A   1      33.487  28.213  24.659  1.00  0.00     0.004 C 
ATOM     24  C   UNL A   1      31.367  29.009  23.483  1.00  0.00     0.008 C 
BRANCH  18  25
ATOM     25  N   UNL A   1      31.000  25.870  23.516  1.00  0.00    -0.345 N 
ATOM     26  H   UNL A   1      30.075  26.265  23.348  1.00  0.00     0.345 HD
ATOM     27  H   UNL A   1      30.989  24.873  23.304  1.00  0.00     0.345 HD
ATOM     28  H   UNL A   1      31.682  26.338  22.919  1.00  0.00     0.345 HD
ENDBRANCH  18  25
ENDBRANCH  15  18
ENDBRANCH  13  14
ENDBRANCH   5   8
ENDBRANCH   3   4
ENDBRANCH   2   3
ENDBRANCH   1   2
BRANCH   1  29
ATOM     29  C   UNL A   1      37.377  21.234  24.749  1.00  0.00     0.002 C 
BRANCH  29  30
ATOM     30  C   UNL A   1      38.203  19.953  24.930  1.00  0.00     0.021 C 
BRANCH  30  31
ATOM     31  C   UNL A   1      39.196  19.971  26.078  1.00  0.00     0.116 C 
BRANCH  31  32
ATOM     32  N   UNL A   1      40.396  19.165  25.837  1.00  0.00    -0.352 N 
ATOM     33  C   UNL A   1      41.716  19.589  25.735  1.00  0.00     0.251 C 
ATOM     34  H   UNL A   1      40.248  18.198  25.735  1.00  0.00     0.163 HD
ATOM     35  O   UNL A   1      42.560  18.913  25.176  1.00  0.00    -0.269 OA
BRANCH  33  36
ATOM     36  C   UNL A   1      42.079  20.882  26.346  1.00  0.00     0.039 A 
ATOM     37  C   UNL A   1      42.474  21.999  25.604  1.00  0.00     0.014 A 
ATOM     38  C   UNL A   1      41.964  20.958  27.726  1.00  0.00     0.014 A 
ATOM     39  C   UNL A   1      42.701  23.195  26.283  1.00  0.00     0.010 A 
ATOM     40  C   UNL A   1      41.873  22.176  28.322  1.00  0.00     0.010 A 
ATOM     41  C   UNL A   1      42.390  23.265  27.651  1.00  0.00    -0.014 A 
BRANCH  41  42
ATOM     42  C   UNL A   1      42.508  24.484  28.435  1.00  0.00     0.031 A 
ATOM     43  C   UNL A   1      41.399  25.431  28.193  1.00  0.00     0.074 A 
ATOM     44  C   UNL A   1      43.391  24.602  29.455  1.00  0.00     0.049 A 
ATOM     45  N   UNL A   1      41.448  26.540  27.537  1.00  0.00    -0.248 NA
ATOM     46  C   UNL A   1      40.035  25.010  28.552  1.00  0.00     0.031 C 
ATOM     47  C   UNL A   1      44.295  23.577  30.005  1.00  0.00     0.029 A 
ATOM     48  N   UNL A   1      43.605  25.654  30.290  1.00  0.00    -0.354 N 
ATOM     49  C   UNL A   1      40.167  27.075  27.614  1.00  0.00     0.074 A 
ATOM     50  C   UNL A   1      39.307  26.000  28.029  1.00  0.00     0.031 C 
ATOM     51  C   UNL A   1      44.779  23.982  31.200  1.00  0.00     0.029 A 
ATOM     52  C   UNL A   1      44.375  25.356  31.413  1.00  0.00     0.049 A 
ATOM     53  H   UNL A   1      43.244  26.554  30.117  1.00  0.00     0.167 HD
ATOM     54  C   UNL A   1      39.995  28.425  27.650  1.00  0.00     0.037 A 
ATOM     55  C   UNL A   1      44.652  26.190  32.446  1.00  0.00     0.037 A 
ATOM     56  C   UNL A   1      41.219  29.092  27.273  1.00  0.00     0.049 A 
ATOM     57  C   UNL A   1      44.419  27.567  31.953  1.00  0.00     0.074 A 
ATOM     58  C   UNL A   1      41.974  29.214  26.127  1.00  0.00     0.029 A 
ATOM     59  N   UNL A   1      42.040  29.399  28.328  1.00  0.00    -0.354 N 
ATOM     60  N   UNL A   1      45.132  28.129  31.015  1.00  0.00    -0.248 NA
ATOM     61  C   UNL A   1      43.120  28.174  32.197  1.00  0.00     0.031 C 
ATOM     62  C   UNL A   1      43.331  29.292  26.568  1.00  0.00     0.029 A 
ATOM     63  C   UNL A   1      43.353  29.285  27.964  1.00  0.00     0.049 A 
ATOM     64  H   UNL A   1      41.727  29.665  29.223  1.00  0.00     0.167 HD
ATOM     65  C   UNL A   1      44.220  28.861  30.272  1.00  0.00     0.074 A 
ATOM     66  C   UNL A   1      43.042  28.972  31.128  1.00  0.00     0.031 C 
ATOM     67  C   UNL A   1      44.405  29.034  28.929  1.00  0.00     0.037 A 
BRANCH  54  68
ATOM     68  C   UNL A   1      38.951  29.138  28.490  1.00  0.00     0.064 A 
ATOM     69  C   UNL A   1      38.950  28.923  29.885  1.00  0.00     0.173 A 
ATOM     70  C   UNL A   1      37.782  29.744  27.975  1.00  0.00     0.173 A 
ATOM     71  F   UNL A   1      39.995  28.336  30.486  1.00  0.00    -0.203 F 
ATOM     72  C   UNL A   1      37.838  29.218  30.681  1.00  0.00     0.198 A 
ATOM     73  C   UNL A   1      36.697  30.084  28.780  1.00  0.00     0.198 A 
ATOM     74  F   UNL A   1      37.583  29.928  26.667  1.00  0.00    -0.203 F 
ATOM     75  F   UNL A   1      37.838  28.878  31.976  1.00  0.00    -0.200 F 
ATOM     76  C   UNL A   1      36.711  29.793  30.127  1.00  0.00     0.200 A 
ATOM     77  F   UNL A   1      35.604  30.617  28.217  1.00  0.00    -0.200 F 
ATOM     78  F   UNL A   1      35.621  30.020  30.872  1.00  0.00    -0.200 F 
ENDBRANCH  54  68
BRANCH  55  79
ATOM     79  C   UNL A   1      44.776  25.867  33.887  1.00  0.00     0.064 A 
ATOM     80  C   UNL A   1      43.650  25.619  34.690  1.00  0.00     0.173 A 
ATOM     81  C   UNL A   1      46.023  25.509  34.434  1.00  0.00     0.173 A 
ATOM     82  F   UNL A   1      42.421  25.880  34.222  1.00  0.00    -0.203 F 
ATOM     83  C   UNL A   1      43.765  25.033  35.956  1.00  0.00     0.198 A 
ATOM     84  C   UNL A   1      46.138  24.924  35.697  1.00  0.00     0.198 A 
ATOM     85  F   UNL A   1      47.146  25.631  33.711  1.00  0.00    -0.203 F 
ATOM     86  F   UNL A   1      42.664  24.759  36.671  1.00  0.00    -0.200 F 
ATOM     87  C   UNL A   1      45.007  24.676  36.455  1.00  0.00     0.200 A 
ATOM     88  F   UNL A   1      47.342  24.542  36.147  1.00  0.00    -0.200 F 
ATOM     89  F   UNL A   1      45.113  24.058  37.639  1.00  0.00    -0.200 F 
ENDBRANCH  55  79
BRANCH  67  90
ATOM     90  C   UNL A   1      45.785  28.786  28.383  1.00  0.00     0.064 A 
ATOM     91  C   UNL A   1      46.224  27.571  27.830  1.00  0.00     0.173 A 
ATOM     92  C   UNL A   1      46.663  29.876  28.316  1.00  0.00     0.173 A 
ATOM     93  F   UNL A   1      45.421  26.503  27.782  1.00  0.00    -0.203 F 
ATOM     94  C   UNL A   1      47.497  27.450  27.270  1.00  0.00     0.198 A 
ATOM     95  C   UNL A   1      47.915  29.764  27.724  1.00  0.00     0.198 A 
ATOM     96  F   UNL A   1      46.279  31.073  28.789  1.00  0.00    -0.203 F 
ATOM     97  F   UNL A   1      47.900  26.276  26.760  1.00  0.00    -0.200 F 
ATOM     98  C   UNL A   1      48.336  28.549  27.209  1.00  0.00     0.200 A 
ATOM     99  F   UNL A   1      48.705  30.843  27.628  1.00  0.00    -0.200 F 
ATOM    100  F   UNL A   1      49.543  28.445  26.634  1.00  0.00    -0.200 F 
ENDBRANCH  67  90
ENDBRANCH  41  42
ENDBRANCH  33  36
ENDBRANCH  31  32
ENDBRANCH  30  31
ENDBRANCH  29  30
ENDBRANCH   1  29
TORSDOF 16
ENDMDL
