MODEL 1
REMARK VINA RESULT:     -11.4      0.000      0.000
REMARK SMILES CCS(=O)(=O)N[C@H]1C=C[C@@H](C(=O)NCCCCCCNC(=O)c2ccc(-c3c4nc(c(-c5c(F)c(F)c(F)c(F)c5F)c5ccc([nH]5)c(-c5c(F)c(F)c(F)c(F)c5F)c5nc(c(-c6c(F)c(F)c(F)c(F)c6F)c6ccc3[nH]6)C=C5)C=C4)cc2)C1
REMARK SMILES IDX 16 1 15 2 14 3 13 4 11 5 12 6 10 8 7 9 8 10 86 11 9 12 6 13
REMARK SMILES IDX 3 15 4 16 5 17 2 18 1 19 17 20 18 21 19 22 20 23 21 24 22 26
REMARK SMILES IDX 23 27 24 28 85 29 25 30 84 31 26 32 27 33 28 34 78 35 29 36
REMARK SMILES IDX 83 37 77 38 79 39 30 40 82 41 76 42 75 43 31 45 63 46 43 47
REMARK SMILES IDX 62 48 44 49 47 50 61 51 80 52 45 53 46 54 60 56 81 57 48 58
REMARK SMILES IDX 32 59 33 60 41 61 34 62 35 63 39 64 42 65 36 66 37 67 40 68
REMARK SMILES IDX 38 69 64 70 65 71 73 72 66 73 67 74 71 75 74 76 68 77 69 78
REMARK SMILES IDX 72 79 70 80 49 81 50 82 58 83 51 84 52 85 56 86 59 87 53 88
REMARK SMILES IDX 54 89 57 90 55 91
REMARK H PARENT 13 7 6 14 20 25 79 44 47 55
REMARK Flexibility Score: inf
ROOT
ATOM      1  C   UNL A   1      32.178  29.594  27.178  1.00  0.00     0.002 C 
ENDROOT
BRANCH   1   2
ATOM      2  C   UNL A   1      33.060  28.471  26.628  1.00  0.00     0.021 C 
BRANCH   2   3
ATOM      3  C   UNL A   1      32.278  27.251  26.143  1.00  0.00     0.116 C 
BRANCH   3   4
ATOM      4  N   UNL A   1      33.099  26.365  25.360  1.00  0.00    -0.356 N 
ATOM      5  C   UNL A   1      33.148  26.179  24.017  1.00  0.00     0.226 C 
ATOM      6  O   UNL A   1      34.027  25.409  23.609  1.00  0.00    -0.274 OA
ATOM      7  H   UNL A   1      33.722  25.808  25.879  1.00  0.00     0.163 HD
BRANCH   5   8
ATOM      8  C   UNL A   1      32.267  26.921  22.996  1.00  0.00     0.103 C 
ATOM      9  C   UNL A   1      30.253  28.249  22.592  1.00  0.00     0.093 C 
ATOM     10  C   UNL A   1      31.459  29.104  22.685  1.00  0.00    -0.011 C 
ATOM     11  C   UNL A   1      30.726  26.850  23.012  1.00  0.00     0.042 C 
ATOM     12  C   UNL A   1      32.560  28.393  22.951  1.00  0.00    -0.016 C 
BRANCH   9  13
ATOM     13  N   UNL A   1      29.119  28.869  23.267  1.00  0.00    -0.208 NA
ATOM     14  H   UNL A   1      28.749  28.120  23.852  1.00  0.00     0.141 HD
BRANCH  13  15
ATOM     15  S   UNL A   1      27.767  29.614  22.691  1.00  0.00     0.211 S 
ATOM     16  O   UNL A   1      26.594  28.906  23.126  1.00  0.00    -0.212 OA
ATOM     17  O   UNL A   1      28.027  29.706  21.265  1.00  0.00    -0.212 OA
BRANCH  15  18
ATOM     18  C   UNL A   1      27.699  31.312  23.270  1.00  0.00     0.150 C 
ATOM     19  C   UNL A   1      28.966  31.954  23.782  1.00  0.00     0.022 C 
ENDBRANCH  15  18
ENDBRANCH  13  15
ENDBRANCH   9  13
ENDBRANCH   5   8
ENDBRANCH   3   4
ENDBRANCH   2   3
ENDBRANCH   1   2
BRANCH   1  20
ATOM     20  C   UNL A   1      31.541  30.503  26.118  1.00  0.00     0.002 C 
BRANCH  20  21
ATOM     21  C   UNL A   1      31.402  31.981  26.500  1.00  0.00     0.021 C 
BRANCH  21  22
ATOM     22  C   UNL A   1      32.602  32.570  27.238  1.00  0.00     0.116 C 
BRANCH  22  23
ATOM     23  N   UNL A   1      32.392  33.966  27.593  1.00  0.00    -0.352 N 
ATOM     24  C   UNL A   1      32.993  34.731  28.560  1.00  0.00     0.251 C 
ATOM     25  H   UNL A   1      31.711  34.434  27.056  1.00  0.00     0.163 HD
ATOM     26  O   UNL A   1      32.533  35.831  28.851  1.00  0.00    -0.269 OA
BRANCH  24  27
ATOM     27  C   UNL A   1      34.191  34.229  29.264  1.00  0.00     0.039 A 
ATOM     28  C   UNL A   1      34.028  33.470  30.426  1.00  0.00     0.014 A 
ATOM     29  C   UNL A   1      35.472  34.528  28.796  1.00  0.00     0.014 A 
ATOM     30  C   UNL A   1      35.150  32.954  31.082  1.00  0.00     0.010 A 
ATOM     31  C   UNL A   1      36.584  33.956  29.407  1.00  0.00     0.010 A 
ATOM     32  C   UNL A   1      36.435  33.163  30.557  1.00  0.00    -0.014 A 
BRANCH  32  33
ATOM     33  C   UNL A   1      37.646  32.577  31.186  1.00  0.00     0.031 A 
ATOM     34  C   UNL A   1      38.368  31.449  30.501  1.00  0.00     0.074 A 
ATOM     35  C   UNL A   1      38.045  32.998  32.403  1.00  0.00     0.049 A 
ATOM     36  N   UNL A   1      39.334  30.688  30.950  1.00  0.00    -0.248 NA
ATOM     37  C   UNL A   1      37.928  31.117  29.136  1.00  0.00     0.031 C 
ATOM     38  C   UNL A   1      37.419  34.072  33.174  1.00  0.00     0.029 A 
ATOM     39  N   UNL A   1      39.057  32.551  33.218  1.00  0.00    -0.354 N 
ATOM     40  C   UNL A   1      39.609  29.786  29.931  1.00  0.00     0.074 A 
ATOM     41  C   UNL A   1      38.674  30.057  28.860  1.00  0.00     0.031 C 
ATOM     42  C   UNL A   1      38.058  34.202  34.348  1.00  0.00     0.029 A 
ATOM     43  C   UNL A   1      39.102  33.185  34.437  1.00  0.00     0.049 A 
ATOM     44  H   UNL A   1      39.689  31.844  32.954  1.00  0.00     0.167 HD
ATOM     45  C   UNL A   1      40.568  28.833  29.884  1.00  0.00     0.037 A 
ATOM     46  C   UNL A   1      39.876  32.949  35.515  1.00  0.00     0.037 A 
ATOM     47  C   UNL A   1      41.502  28.574  30.949  1.00  0.00     0.049 A 
ATOM     48  C   UNL A   1      40.898  31.842  35.456  1.00  0.00     0.074 A 
ATOM     49  C   UNL A   1      42.522  27.639  30.992  1.00  0.00     0.029 A 
ATOM     50  N   UNL A   1      41.531  29.256  32.156  1.00  0.00    -0.354 N 
ATOM     51  N   UNL A   1      41.173  31.020  34.474  1.00  0.00    -0.248 NA
ATOM     52  C   UNL A   1      41.723  31.631  36.656  1.00  0.00     0.031 C 
ATOM     53  C   UNL A   1      43.136  27.721  32.244  1.00  0.00     0.029 A 
ATOM     54  C   UNL A   1      42.545  28.753  32.954  1.00  0.00     0.049 A 
ATOM     55  H   UNL A   1      40.921  29.986  32.409  1.00  0.00     0.167 HD
ATOM     56  C   UNL A   1      42.231  30.235  34.916  1.00  0.00     0.074 A 
ATOM     57  C   UNL A   1      42.551  30.678  36.254  1.00  0.00     0.031 C 
ATOM     58  C   UNL A   1      42.881  29.240  34.267  1.00  0.00     0.037 A 
BRANCH  45  59
ATOM     59  C   UNL A   1      40.675  28.002  28.639  1.00  0.00     0.064 A 
ATOM     60  C   UNL A   1      41.484  28.399  27.564  1.00  0.00     0.173 A 
ATOM     61  C   UNL A   1      40.025  26.762  28.548  1.00  0.00     0.173 A 
ATOM     62  F   UNL A   1      42.120  29.579  27.597  1.00  0.00    -0.203 F 
ATOM     63  C   UNL A   1      41.625  27.593  26.437  1.00  0.00     0.198 A 
ATOM     64  C   UNL A   1      40.194  25.943  27.435  1.00  0.00     0.198 A 
ATOM     65  F   UNL A   1      39.246  26.331  29.553  1.00  0.00    -0.203 F 
ATOM     66  F   UNL A   1      42.375  28.008  25.408  1.00  0.00    -0.200 F 
ATOM     67  C   UNL A   1      40.990  26.361  26.379  1.00  0.00     0.200 A 
ATOM     68  F   UNL A   1      39.594  24.746  27.388  1.00  0.00    -0.200 F 
ATOM     69  F   UNL A   1      41.143  25.577  25.303  1.00  0.00    -0.200 F 
ENDBRANCH  45  59
BRANCH  46  70
ATOM     70  C   UNL A   1      39.715  33.760  36.753  1.00  0.00     0.064 A 
ATOM     71  C   UNL A   1      38.871  33.336  37.790  1.00  0.00     0.173 A 
ATOM     72  C   UNL A   1      40.354  35.001  36.904  1.00  0.00     0.173 A 
ATOM     73  F   UNL A   1      38.221  32.167  37.689  1.00  0.00    -0.203 F 
ATOM     74  C   UNL A   1      38.638  34.140  38.906  1.00  0.00     0.198 A 
ATOM     75  C   UNL A   1      40.151  35.785  38.038  1.00  0.00     0.198 A 
ATOM     76  F   UNL A   1      41.178  35.453  35.948  1.00  0.00    -0.203 F 
ATOM     77  F   UNL A   1      37.767  33.742  39.843  1.00  0.00    -0.200 F 
ATOM     78  C   UNL A   1      39.279  35.362  39.029  1.00  0.00     0.200 A 
ATOM     79  F   UNL A   1      40.787  36.958  38.161  1.00  0.00    -0.200 F 
ATOM     80  F   UNL A   1      39.047  36.138  40.096  1.00  0.00    -0.200 F 
ENDBRANCH  46  70
BRANCH  58  81
ATOM     81  C   UNL A   1      44.065  28.614  34.947  1.00  0.00     0.064 A 
ATOM     82  C   UNL A   1      45.357  29.142  34.830  1.00  0.00     0.173 A 
ATOM     83  C   UNL A   1      43.878  27.512  35.798  1.00  0.00     0.173 A 
ATOM     84  F   UNL A   1      45.591  30.185  34.019  1.00  0.00    -0.203 F 
ATOM     85  C   UNL A   1      46.423  28.583  35.531  1.00  0.00     0.198 A 
ATOM     86  C   UNL A   1      44.939  26.977  36.521  1.00  0.00     0.198 A 
ATOM     87  F   UNL A   1      42.659  26.973  35.949  1.00  0.00    -0.203 F 
ATOM     88  F   UNL A   1      47.658  29.082  35.378  1.00  0.00    -0.200 F 
ATOM     89  C   UNL A   1      46.211  27.511  36.385  1.00  0.00     0.200 A 
ATOM     90  F   UNL A   1      44.727  25.953  37.359  1.00  0.00    -0.200 F 
ATOM     91  F   UNL A   1      47.234  26.989  37.075  1.00  0.00    -0.200 F 
ENDBRANCH  58  81
ENDBRANCH  32  33
ENDBRANCH  24  27
ENDBRANCH  22  23
ENDBRANCH  21  22
ENDBRANCH  20  21
ENDBRANCH   1  20
TORSDOF 16
ENDMDL
MODEL 2
REMARK VINA RESULT:     -11.4      0.579      1.720
REMARK SMILES CCS(=O)(=O)N[C@H]1C=C[C@@H](C(=O)NCCCCCCNC(=O)c2ccc(-c3c4nc(c(-c5c(F)c(F)c(F)c(F)c5F)c5ccc([nH]5)c(-c5c(F)c(F)c(F)c(F)c5F)c5nc(c(-c6c(F)c(F)c(F)c(F)c6F)c6ccc3[nH]6)C=C5)C=C4)cc2)C1
REMARK SMILES IDX 16 1 15 2 14 3 13 4 11 5 12 6 10 8 7 9 8 10 86 11 9 12 6 13
REMARK SMILES IDX 3 15 4 16 5 17 2 18 1 19 17 20 18 21 19 22 20 23 21 24 22 26
REMARK SMILES IDX 23 27 24 28 85 29 25 30 84 31 26 32 27 33 28 34 78 35 29 36
REMARK SMILES IDX 83 37 77 38 79 39 30 40 82 41 76 42 75 43 31 45 63 46 43 47
REMARK SMILES IDX 62 48 44 49 47 50 61 51 80 52 45 53 46 54 60 56 81 57 48 58
REMARK SMILES IDX 32 59 33 60 41 61 34 62 35 63 39 64 42 65 36 66 37 67 40 68
REMARK SMILES IDX 38 69 64 70 65 71 73 72 66 73 67 74 71 75 74 76 68 77 69 78
REMARK SMILES IDX 72 79 70 80 49 81 50 82 58 83 51 84 52 85 56 86 59 87 53 88
REMARK SMILES IDX 54 89 57 90 55 91
REMARK H PARENT 13 7 6 14 20 25 79 44 47 55
REMARK Flexibility Score: inf
ROOT
ATOM      1  C   UNL A   1      31.884  29.513  27.219  1.00  0.00     0.002 C 
ENDROOT
BRANCH   1   2
ATOM      2  C   UNL A   1      32.381  28.138  26.767  1.00  0.00     0.021 C 
BRANCH   2   3
ATOM      3  C   UNL A   1      31.263  27.177  26.364  1.00  0.00     0.116 C 
BRANCH   3   4
ATOM      4  N   UNL A   1      31.777  26.000  25.714  1.00  0.00    -0.356 N 
ATOM      5  C   UNL A   1      31.926  25.725  24.395  1.00  0.00     0.226 C 
ATOM      6  O   UNL A   1      32.488  24.656  24.123  1.00  0.00    -0.274 OA
ATOM      7  H   UNL A   1      32.066  25.282  26.322  1.00  0.00     0.163 HD
BRANCH   5   8
ATOM      8  C   UNL A   1      31.537  26.680  23.251  1.00  0.00     0.103 C 
ATOM      9  C   UNL A   1      30.371  28.722  22.577  1.00  0.00     0.093 C 
ATOM     10  C   UNL A   1      31.826  28.953  22.733  1.00  0.00    -0.011 C 
ATOM     11  C   UNL A   1      30.133  27.307  23.124  1.00  0.00     0.042 C 
ATOM     12  C   UNL A   1      32.468  27.854  23.146  1.00  0.00    -0.016 C 
BRANCH   9  13
ATOM     13  N   UNL A   1      29.604  29.846  23.103  1.00  0.00    -0.208 NA
ATOM     14  H   UNL A   1      29.284  29.514  24.012  1.00  0.00     0.141 HD
BRANCH  13  15
ATOM     15  S   UNL A   1      28.303  30.665  22.510  1.00  0.00     0.211 S 
ATOM     16  O   UNL A   1      27.263  30.717  23.501  1.00  0.00    -0.212 OA
ATOM     17  O   UNL A   1      28.029  29.981  21.259  1.00  0.00    -0.212 OA
BRANCH  15  18
ATOM     18  C   UNL A   1      28.778  32.332  22.044  1.00  0.00     0.150 C 
ATOM     19  C   UNL A   1      28.909  33.376  23.125  1.00  0.00     0.022 C 
ENDBRANCH  15  18
ENDBRANCH  13  15
ENDBRANCH   9  13
ENDBRANCH   5   8
ENDBRANCH   3   4
ENDBRANCH   2   3
ENDBRANCH   1   2
BRANCH   1  20
ATOM     20  C   UNL A   1      31.574  30.500  26.085  1.00  0.00     0.002 C 
BRANCH  20  21
ATOM     21  C   UNL A   1      31.403  31.965  26.502  1.00  0.00     0.021 C 
BRANCH  21  22
ATOM     22  C   UNL A   1      32.595  32.566  27.241  1.00  0.00     0.116 C 
BRANCH  22  23
ATOM     23  N   UNL A   1      32.391  33.974  27.550  1.00  0.00    -0.352 N 
ATOM     24  C   UNL A   1      32.984  34.764  28.502  1.00  0.00     0.251 C 
ATOM     25  H   UNL A   1      31.723  34.430  26.989  1.00  0.00     0.163 HD
ATOM     26  O   UNL A   1      32.529  35.876  28.752  1.00  0.00    -0.269 OA
BRANCH  24  27
ATOM     27  C   UNL A   1      34.168  34.275  29.239  1.00  0.00     0.039 A 
ATOM     28  C   UNL A   1      33.984  33.607  30.454  1.00  0.00     0.014 A 
ATOM     29  C   UNL A   1      35.456  34.496  28.749  1.00  0.00     0.014 A 
ATOM     30  C   UNL A   1      35.090  33.104  31.144  1.00  0.00     0.010 A 
ATOM     31  C   UNL A   1      36.551  33.933  29.399  1.00  0.00     0.010 A 
ATOM     32  C   UNL A   1      36.379  33.231  30.603  1.00  0.00    -0.014 A 
BRANCH  32  33
ATOM     33  C   UNL A   1      37.573  32.652  31.272  1.00  0.00     0.031 A 
ATOM     34  C   UNL A   1      38.307  31.510  30.625  1.00  0.00     0.074 A 
ATOM     35  C   UNL A   1      37.944  33.093  32.491  1.00  0.00     0.049 A 
ATOM     36  N   UNL A   1      39.259  30.754  31.110  1.00  0.00    -0.248 NA
ATOM     37  C   UNL A   1      37.899  31.155  29.256  1.00  0.00     0.031 C 
ATOM     38  C   UNL A   1      37.303  34.183  33.228  1.00  0.00     0.029 A 
ATOM     39  N   UNL A   1      38.933  32.657  33.338  1.00  0.00    -0.354 N 
ATOM     40  C   UNL A   1      39.555  29.833  30.114  1.00  0.00     0.074 A 
ATOM     41  C   UNL A   1      38.648  30.088  29.016  1.00  0.00     0.031 C 
ATOM     42  C   UNL A   1      37.913  34.330  34.415  1.00  0.00     0.029 A 
ATOM     43  C   UNL A   1      38.951  33.312  34.547  1.00  0.00     0.049 A 
ATOM     44  H   UNL A   1      39.569  31.944  33.102  1.00  0.00     0.167 HD
ATOM     45  C   UNL A   1      40.512  28.877  30.107  1.00  0.00     0.037 A 
ATOM     46  C   UNL A   1      39.697  33.092  35.647  1.00  0.00     0.037 A 
ATOM     47  C   UNL A   1      41.419  28.633  31.199  1.00  0.00     0.049 A 
ATOM     48  C   UNL A   1      40.717  31.981  35.633  1.00  0.00     0.074 A 
ATOM     49  C   UNL A   1      42.433  27.695  31.283  1.00  0.00     0.029 A 
ATOM     50  N   UNL A   1      41.421  29.335  32.394  1.00  0.00    -0.354 N 
ATOM     51  N   UNL A   1      41.013  31.140  34.672  1.00  0.00    -0.248 NA
ATOM     52  C   UNL A   1      41.512  31.788  36.855  1.00  0.00     0.031 C 
ATOM     53  C   UNL A   1      43.017  27.798  32.547  1.00  0.00     0.029 A 
ATOM     54  C   UNL A   1      42.413  28.843  33.225  1.00  0.00     0.049 A 
ATOM     55  H   UNL A   1      40.807  30.072  32.619  1.00  0.00     0.167 HD
ATOM     56  C   UNL A   1      42.056  30.361  35.153  1.00  0.00     0.074 A 
ATOM     57  C   UNL A   1      42.345  30.825  36.491  1.00  0.00     0.031 C 
ATOM     58  C   UNL A   1      42.719  29.352  34.537  1.00  0.00     0.037 A 
BRANCH  45  59
ATOM     59  C   UNL A   1      40.646  28.024  28.879  1.00  0.00     0.064 A 
ATOM     60  C   UNL A   1      39.925  26.828  28.739  1.00  0.00     0.173 A 
ATOM     61  C   UNL A   1      41.440  28.442  27.800  1.00  0.00     0.173 A 
ATOM     62  F   UNL A   1      39.158  26.380  29.743  1.00  0.00    -0.203 F 
ATOM     63  C   UNL A   1      40.008  26.074  27.571  1.00  0.00     0.198 A 
ATOM     64  C   UNL A   1      41.495  27.703  26.622  1.00  0.00     0.198 A 
ATOM     65  F   UNL A   1      42.143  29.583  27.879  1.00  0.00    -0.203 F 
ATOM     66  F   UNL A   1      39.339  24.918  27.474  1.00  0.00    -0.200 F 
ATOM     67  C   UNL A   1      40.783  26.518  26.510  1.00  0.00     0.200 A 
ATOM     68  F   UNL A   1      42.230  28.143  25.591  1.00  0.00    -0.200 F 
ATOM     69  F   UNL A   1      40.845  25.802  25.378  1.00  0.00    -0.200 F 
ENDBRANCH  45  59
BRANCH  46  70
ATOM     70  C   UNL A   1      39.509  33.925  36.866  1.00  0.00     0.064 A 
ATOM     71  C   UNL A   1      40.182  35.147  37.019  1.00  0.00     0.173 A 
ATOM     72  C   UNL A   1      38.699  33.495  37.929  1.00  0.00     0.173 A 
ATOM     73  F   UNL A   1      40.983  35.596  36.041  1.00  0.00    -0.203 F 
ATOM     74  C   UNL A   1      40.089  35.880  38.201  1.00  0.00     0.198 A 
ATOM     75  C   UNL A   1      38.576  34.249  39.094  1.00  0.00     0.198 A 
ATOM     76  F   UNL A   1      38.026  32.339  37.836  1.00  0.00    -0.203 F 
ATOM     77  F   UNL A   1      40.804  37.004  38.345  1.00  0.00    -0.200 F 
ATOM     78  C   UNL A   1      39.285  35.432  39.236  1.00  0.00     0.200 A 
ATOM     79  F   UNL A   1      37.783  33.821  40.086  1.00  0.00    -0.200 F 
ATOM     80  F   UNL A   1      39.203  36.132  40.376  1.00  0.00    -0.200 F 
ENDBRANCH  46  70
BRANCH  58  81
ATOM     81  C   UNL A   1      43.884  28.734  35.257  1.00  0.00     0.064 A 
ATOM     82  C   UNL A   1      45.191  29.215  35.109  1.00  0.00     0.173 A 
ATOM     83  C   UNL A   1      43.664  27.693  36.174  1.00  0.00     0.173 A 
ATOM     84  F   UNL A   1      45.456  30.198  34.236  1.00  0.00    -0.203 F 
ATOM     85  C   UNL A   1      46.239  28.668  35.845  1.00  0.00     0.198 A 
ATOM     86  C   UNL A   1      44.708  27.172  36.931  1.00  0.00     0.198 A 
ATOM     87  F   UNL A   1      42.428  27.202  36.357  1.00  0.00    -0.203 F 
ATOM     88  F   UNL A   1      47.489  29.120  35.664  1.00  0.00    -0.200 F 
ATOM     89  C   UNL A   1      45.996  27.658  36.764  1.00  0.00     0.200 A 
ATOM     90  F   UNL A   1      44.466  26.209  37.831  1.00  0.00    -0.200 F 
ATOM     91  F   UNL A   1      47.003  27.150  37.487  1.00  0.00    -0.200 F 
ENDBRANCH  58  81
ENDBRANCH  32  33
ENDBRANCH  24  27
ENDBRANCH  22  23
ENDBRANCH  21  22
ENDBRANCH  20  21
ENDBRANCH   1  20
TORSDOF 16
ENDMDL
MODEL 3
REMARK VINA RESULT:     -11.2      6.106     11.482
REMARK SMILES CCS(=O)(=O)N[C@H]1C=C[C@@H](C(=O)NCCCCCCNC(=O)c2ccc(-c3c4nc(c(-c5c(F)c(F)c(F)c(F)c5F)c5ccc([nH]5)c(-c5c(F)c(F)c(F)c(F)c5F)c5nc(c(-c6c(F)c(F)c(F)c(F)c6F)c6ccc3[nH]6)C=C5)C=C4)cc2)C1
REMARK SMILES IDX 16 1 15 2 14 3 13 4 11 5 12 6 10 8 7 9 8 10 86 11 9 12 6 13
REMARK SMILES IDX 3 15 4 16 5 17 2 18 1 19 17 20 18 21 19 22 20 23 21 24 22 26
REMARK SMILES IDX 23 27 24 28 85 29 25 30 84 31 26 32 27 33 28 34 78 35 29 36
REMARK SMILES IDX 83 37 77 38 79 39 30 40 82 41 76 42 75 43 31 45 63 46 43 47
REMARK SMILES IDX 62 48 44 49 47 50 61 51 80 52 45 53 46 54 60 56 81 57 48 58
REMARK SMILES IDX 32 59 33 60 41 61 34 62 35 63 39 64 42 65 36 66 37 67 40 68
REMARK SMILES IDX 38 69 64 70 65 71 73 72 66 73 67 74 71 75 74 76 68 77 69 78
REMARK SMILES IDX 72 79 70 80 49 81 50 82 58 83 51 84 52 85 56 86 59 87 53 88
REMARK SMILES IDX 54 89 57 90 55 91
REMARK H PARENT 13 7 6 14 20 25 79 44 47 55
REMARK Flexibility Score: inf
ROOT
ATOM      1  C   UNL A   1      37.324  22.288  24.127  1.00  0.00     0.002 C 
ENDROOT
BRANCH   1   2
ATOM      2  C   UNL A   1      36.415  23.096  23.197  1.00  0.00     0.021 C 
BRANCH   2   3
ATOM      3  C   UNL A   1      34.926  22.954  23.513  1.00  0.00     0.116 C 
BRANCH   3   4
ATOM      4  N   UNL A   1      34.355  24.195  23.966  1.00  0.00    -0.356 N 
ATOM      5  C   UNL A   1      33.687  24.483  25.110  1.00  0.00     0.226 C 
ATOM      6  O   UNL A   1      33.387  25.672  25.279  1.00  0.00    -0.274 OA
ATOM      7  H   UNL A   1      34.467  24.954  23.349  1.00  0.00     0.163 HD
BRANCH   5   8
ATOM      8  C   UNL A   1      33.377  23.466  26.224  1.00  0.00     0.103 C 
ATOM      9  C   UNL A   1      33.215  21.116  26.882  1.00  0.00     0.093 C 
ATOM     10  C   UNL A   1      34.498  21.715  27.317  1.00  0.00    -0.011 C 
ATOM     11  C   UNL A   1      32.569  22.175  25.977  1.00  0.00     0.042 C 
ATOM     12  C   UNL A   1      34.618  22.988  26.923  1.00  0.00    -0.016 C 
BRANCH   9  13
ATOM     13  N   UNL A   1      33.414  19.758  26.389  1.00  0.00    -0.208 NA
ATOM     14  H   UNL A   1      34.419  19.615  26.477  1.00  0.00     0.141 HD
BRANCH  13  15
ATOM     15  S   UNL A   1      33.046  19.043  24.950  1.00  0.00     0.211 S 
ATOM     16  O   UNL A   1      32.837  20.048  23.943  1.00  0.00    -0.212 OA
ATOM     17  O   UNL A   1      31.938  18.171  25.293  1.00  0.00    -0.212 OA
BRANCH  15  18
ATOM     18  C   UNL A   1      34.374  17.946  24.444  1.00  0.00     0.150 C 
ATOM     19  C   UNL A   1      34.161  17.060  23.241  1.00  0.00     0.022 C 
ENDBRANCH  15  18
ENDBRANCH  13  15
ENDBRANCH   9  13
ENDBRANCH   5   8
ENDBRANCH   3   4
ENDBRANCH   2   3
ENDBRANCH   1   2
BRANCH   1  20
ATOM     20  C   UNL A   1      36.729  20.969  24.637  1.00  0.00     0.002 C 
BRANCH  20  21
ATOM     21  C   UNL A   1      37.740  19.873  24.994  1.00  0.00     0.021 C 
BRANCH  21  22
ATOM     22  C   UNL A   1      38.969  20.356  25.759  1.00  0.00     0.116 C 
BRANCH  22  23
ATOM     23  N   UNL A   1      39.984  19.318  25.872  1.00  0.00    -0.352 N 
ATOM     24  C   UNL A   1      41.340  19.425  26.050  1.00  0.00     0.251 C 
ATOM     25  H   UNL A   1      39.644  18.396  25.809  1.00  0.00     0.163 HD
ATOM     26  O   UNL A   1      42.060  18.442  25.908  1.00  0.00    -0.269 OA
BRANCH  24  27
ATOM     27  C   UNL A   1      41.941  20.728  26.403  1.00  0.00     0.039 A 
ATOM     28  C   UNL A   1      42.232  21.641  25.385  1.00  0.00     0.014 A 
ATOM     29  C   UNL A   1      42.241  21.040  27.730  1.00  0.00     0.014 A 
ATOM     30  C   UNL A   1      42.763  22.893  25.705  1.00  0.00     0.010 A 
ATOM     31  C   UNL A   1      42.703  22.312  28.056  1.00  0.00     0.010 A 
ATOM     32  C   UNL A   1      42.969  23.252  27.046  1.00  0.00    -0.014 A 
BRANCH  32  33
ATOM     33  C   UNL A   1      43.470  24.596  27.433  1.00  0.00     0.031 A 
ATOM     34  C   UNL A   1      42.509  25.622  27.966  1.00  0.00     0.074 A 
ATOM     35  C   UNL A   1      44.762  24.920  27.226  1.00  0.00     0.049 A 
ATOM     36  N   UNL A   1      42.701  26.896  28.202  1.00  0.00    -0.248 NA
ATOM     37  C   UNL A   1      41.141  25.159  28.252  1.00  0.00     0.031 C 
ATOM     38  C   UNL A   1      45.787  24.018  26.699  1.00  0.00     0.029 A 
ATOM     39  N   UNL A   1      45.428  26.108  27.406  1.00  0.00    -0.354 N 
ATOM     40  C   UNL A   1      41.481  27.384  28.652  1.00  0.00     0.074 A 
ATOM     41  C   UNL A   1      40.541  26.286  28.607  1.00  0.00     0.031 C 
ATOM     42  C   UNL A   1      46.949  24.682  26.599  1.00  0.00     0.029 A 
ATOM     43  C   UNL A   1      46.741  26.071  27.000  1.00  0.00     0.049 A 
ATOM     44  H   UNL A   1      45.004  26.910  27.789  1.00  0.00     0.167 HD
ATOM     45  C   UNL A   1      41.180  28.631  29.083  1.00  0.00     0.037 A 
ATOM     46  C   UNL A   1      47.661  27.053  26.928  1.00  0.00     0.037 A 
ATOM     47  C   UNL A   1      42.122  29.719  29.134  1.00  0.00     0.049 A 
ATOM     48  C   UNL A   1      47.281  28.447  27.361  1.00  0.00     0.074 A 
ATOM     49  C   UNL A   1      41.918  31.017  29.569  1.00  0.00     0.029 A 
ATOM     50  N   UNL A   1      43.449  29.632  28.738  1.00  0.00    -0.354 N 
ATOM     51  N   UNL A   1      46.135  28.889  27.820  1.00  0.00    -0.248 NA
ATOM     52  C   UNL A   1      48.323  29.481  27.272  1.00  0.00     0.031 C 
ATOM     53  C   UNL A   1      43.106  31.728  29.392  1.00  0.00     0.029 A 
ATOM     54  C   UNL A   1      44.070  30.857  28.910  1.00  0.00     0.049 A 
ATOM     55  H   UNL A   1      43.883  28.821  28.386  1.00  0.00     0.167 HD
ATOM     56  C   UNL A   1      46.334  30.230  28.121  1.00  0.00     0.074 A 
ATOM     57  C   UNL A   1      47.709  30.533  27.795  1.00  0.00     0.031 C 
ATOM     58  C   UNL A   1      45.456  31.128  28.626  1.00  0.00     0.037 A 
BRANCH  45  59
ATOM     59  C   UNL A   1      39.779  28.894  29.552  1.00  0.00     0.064 A 
ATOM     60  C   UNL A   1      38.790  29.359  28.672  1.00  0.00     0.173 A 
ATOM     61  C   UNL A   1      39.399  28.605  30.871  1.00  0.00     0.173 A 
ATOM     62  F   UNL A   1      39.103  29.658  27.402  1.00  0.00    -0.203 F 
ATOM     63  C   UNL A   1      37.478  29.542  29.100  1.00  0.00     0.198 A 
ATOM     64  C   UNL A   1      38.080  28.758  31.288  1.00  0.00     0.198 A 
ATOM     65  F   UNL A   1      40.303  28.148  31.752  1.00  0.00    -0.203 F 
ATOM     66  F   UNL A   1      36.559  30.022  28.251  1.00  0.00    -0.200 F 
ATOM     67  C   UNL A   1      37.121  29.230  30.403  1.00  0.00     0.200 A 
ATOM     68  F   UNL A   1      37.732  28.438  32.542  1.00  0.00    -0.200 F 
ATOM     69  F   UNL A   1      35.853  29.387  30.808  1.00  0.00    -0.200 F 
ENDBRANCH  45  59
BRANCH  46  70
ATOM     70  C   UNL A   1      49.029  26.771  26.416  1.00  0.00     0.064 A 
ATOM     71  C   UNL A   1      49.352  26.977  25.066  1.00  0.00     0.173 A 
ATOM     72  C   UNL A   1      50.027  26.238  27.247  1.00  0.00     0.173 A 
ATOM     73  F   UNL A   1      48.430  27.467  24.224  1.00  0.00    -0.203 F 
ATOM     74  C   UNL A   1      50.601  26.619  24.559  1.00  0.00     0.198 A 
ATOM     75  C   UNL A   1      51.288  25.918  26.747  1.00  0.00     0.198 A 
ATOM     76  F   UNL A   1      49.778  26.028  28.547  1.00  0.00    -0.203 F 
ATOM     77  F   UNL A   1      50.853  26.756  23.251  1.00  0.00    -0.200 F 
ATOM     78  C   UNL A   1      51.568  26.092  25.400  1.00  0.00     0.200 A 
ATOM     79  F   UNL A   1      52.226  25.426  27.568  1.00  0.00    -0.200 F 
ATOM     80  F   UNL A   1      52.764  25.739  24.911  1.00  0.00    -0.200 F 
ENDBRANCH  46  70
BRANCH  58  81
ATOM     81  C   UNL A   1      45.964  32.504  28.950  1.00  0.00     0.064 A 
ATOM     82  C   UNL A   1      46.551  32.810  30.185  1.00  0.00     0.173 A 
ATOM     83  C   UNL A   1      45.936  33.507  27.967  1.00  0.00     0.173 A 
ATOM     84  F   UNL A   1      46.590  31.891  31.162  1.00  0.00    -0.203 F 
ATOM     85  C   UNL A   1      47.080  34.075  30.429  1.00  0.00     0.198 A 
ATOM     86  C   UNL A   1      46.495  34.759  28.204  1.00  0.00     0.198 A 
ATOM     87  F   UNL A   1      45.391  33.261  26.766  1.00  0.00    -0.203 F 
ATOM     88  F   UNL A   1      47.605  34.358  31.629  1.00  0.00    -0.200 F 
ATOM     89  C   UNL A   1      47.063  35.043  29.436  1.00  0.00     0.200 A 
ATOM     90  F   UNL A   1      46.494  35.685  27.235  1.00  0.00    -0.200 F 
ATOM     91  F   UNL A   1      47.594  36.252  29.666  1.00  0.00    -0.200 F 
ENDBRANCH  58  81
ENDBRANCH  32  33
ENDBRANCH  24  27
ENDBRANCH  22  23
ENDBRANCH  21  22
ENDBRANCH  20  21
ENDBRANCH   1  20
TORSDOF 16
ENDMDL
