MODEL 1
REMARK VINA RESULT:     -11.5      0.000      0.000
REMARK SMILES CC(C)C[C@H](CNC(=O)N[C@@H](C)c1ccsc1)C(=O)NCCCCCCNC(=O)c1ccc(-c2c3nc(c(-c4c(F)c(F)c(F)c(F)c4F)c4ccc([nH]4)c(-c4c(F)c(F)c(F)c(F)c4F)c4nc(c(-c5c(F)c(F)c(F)c(F)c5F)c5ccc2[nH]5)C=C4)C=C3)cc1
REMARK SMILES IDX 22 1 21 2 20 3 18 4 19 5 5 7 4 8 2 9 1 10 3 11 6 12 7 13
REMARK SMILES IDX 8 14 9 16 10 17 11 19 12 20 13 21 14 22 17 23 15 24 16 25
REMARK SMILES IDX 23 26 24 27 25 28 26 29 27 30 28 31 29 33 30 34 31 35 92 36
REMARK SMILES IDX 32 37 91 38 33 39 34 40 35 41 85 42 36 43 90 44 84 45 86 46
REMARK SMILES IDX 37 47 89 48 83 49 82 50 38 52 70 53 50 54 69 55 51 56 54 57
REMARK SMILES IDX 68 58 87 59 52 60 53 61 67 63 88 64 55 65 39 66 40 67 48 68
REMARK SMILES IDX 41 69 42 70 46 71 49 72 43 73 44 74 47 75 45 76 71 77 72 78
REMARK SMILES IDX 80 79 73 80 74 81 78 82 81 83 75 84 76 85 79 86 77 87 56 88
REMARK SMILES IDX 57 89 65 90 58 91 59 92 63 93 66 94 60 95 61 96 64 97 62 98
REMARK H PARENT 20 6 7 15 10 18 27 32 86 51 54 62
REMARK Flexibility Score: inf
ROOT
ATOM      1  C   UNL A   1      32.946  28.895  27.229  1.00  0.00     0.021 C 
ENDROOT
BRANCH   1   2
ATOM      2  C   UNL A   1      32.875  27.620  26.401  1.00  0.00     0.116 C 
BRANCH   2   3
ATOM      3  N   UNL A   1      31.708  26.847  26.761  1.00  0.00    -0.356 N 
ATOM      4  C   UNL A   1      30.722  26.370  25.960  1.00  0.00     0.224 C 
ATOM      5  O   UNL A   1      29.758  25.811  26.489  1.00  0.00    -0.275 OA
ATOM      6  H   UNL A   1      31.616  26.639  27.719  1.00  0.00     0.163 HD
BRANCH   4   7
ATOM      7  C   UNL A   1      30.784  26.560  24.450  1.00  0.00     0.098 C 
BRANCH   7   8
ATOM      8  C   UNL A   1      29.573  27.294  23.814  1.00  0.00     0.018 C 
BRANCH   8   9
ATOM      9  C   UNL A   1      29.859  28.547  22.941  1.00  0.00    -0.017 C 
ATOM     10  C   UNL A   1      29.126  29.807  23.397  1.00  0.00     0.007 C 
ATOM     11  C   UNL A   1      31.365  28.826  22.885  1.00  0.00     0.007 C 
ENDBRANCH   8   9
ENDBRANCH   7   8
BRANCH   7  12
ATOM     12  C   UNL A   1      31.264  25.219  23.824  1.00  0.00     0.131 C 
BRANCH  12  13
ATOM     13  N   UNL A   1      31.833  25.264  22.483  1.00  0.00    -0.337 N 
ATOM     14  C   UNL A   1      32.825  24.670  21.820  1.00  0.00     0.315 C 
ATOM     15  H   UNL A   1      31.356  25.910  21.913  1.00  0.00     0.165 HD
ATOM     16  O   UNL A   1      33.147  25.163  20.737  1.00  0.00    -0.249 OA
ATOM     17  N   UNL A   1      33.484  23.594  22.246  1.00  0.00    -0.332 N 
ATOM     18  H   UNL A   1      34.350  23.462  21.797  1.00  0.00     0.165 HD
BRANCH  17  19
ATOM     19  C   UNL A   1      33.189  22.581  23.235  1.00  0.00     0.112 C 
ATOM     20  C   UNL A   1      32.341  21.468  22.628  1.00  0.00     0.036 C 
BRANCH  19  21
ATOM     21  C   UNL A   1      34.499  22.151  23.833  1.00  0.00    -0.015 A 
ATOM     22  C   UNL A   1      35.737  22.816  23.527  1.00  0.00     0.017 A 
ATOM     23  C   UNL A   1      34.721  21.105  24.710  1.00  0.00     0.070 A 
ATOM     24  C   UNL A   1      36.820  22.265  24.169  1.00  0.00     0.065 A 
ATOM     25  S   UNL A   1      36.367  20.946  25.152  1.00  0.00    -0.152 S 
ENDBRANCH  19  21
ENDBRANCH  17  19
ENDBRANCH  12  13
ENDBRANCH   7  12
ENDBRANCH   4   7
ENDBRANCH   2   3
ENDBRANCH   1   2
BRANCH   1  26
ATOM     26  C   UNL A   1      32.819  30.153  26.372  1.00  0.00     0.002 C 
BRANCH  26  27
ATOM     27  C   UNL A   1      31.408  30.750  26.346  1.00  0.00     0.002 C 
BRANCH  27  28
ATOM     28  C   UNL A   1      31.358  32.262  26.583  1.00  0.00     0.021 C 
BRANCH  28  29
ATOM     29  C   UNL A   1      32.606  32.816  27.258  1.00  0.00     0.116 C 
BRANCH  29  30
ATOM     30  N   UNL A   1      32.444  34.223  27.588  1.00  0.00    -0.352 N 
ATOM     31  C   UNL A   1      33.021  34.939  28.599  1.00  0.00     0.251 C 
ATOM     32  H   UNL A   1      31.836  34.730  27.002  1.00  0.00     0.163 HD
ATOM     33  O   UNL A   1      32.580  36.045  28.913  1.00  0.00    -0.269 OA
BRANCH  31  34
ATOM     34  C   UNL A   1      34.177  34.373  29.315  1.00  0.00     0.039 A 
ATOM     35  C   UNL A   1      33.963  33.658  30.494  1.00  0.00     0.014 A 
ATOM     36  C   UNL A   1      35.472  34.558  28.820  1.00  0.00     0.014 A 
ATOM     37  C   UNL A   1      35.050  33.089  31.157  1.00  0.00     0.010 A 
ATOM     38  C   UNL A   1      36.543  33.924  29.436  1.00  0.00     0.010 A 
ATOM     39  C   UNL A   1      36.343  33.197  30.619  1.00  0.00    -0.014 A 
BRANCH  39  40
ATOM     40  C   UNL A   1      37.505  32.565  31.288  1.00  0.00     0.031 A 
ATOM     41  C   UNL A   1      38.256  31.457  30.603  1.00  0.00     0.074 A 
ATOM     42  C   UNL A   1      37.844  32.952  32.532  1.00  0.00     0.049 A 
ATOM     43  N   UNL A   1      39.267  30.750  31.039  1.00  0.00    -0.248 NA
ATOM     44  C   UNL A   1      37.788  31.075  29.262  1.00  0.00     0.031 C 
ATOM     45  C   UNL A   1      37.161  33.984  33.311  1.00  0.00     0.029 A 
ATOM     46  N   UNL A   1      38.846  32.516  33.361  1.00  0.00    -0.354 N 
ATOM     47  C   UNL A   1      39.546  29.834  30.033  1.00  0.00     0.074 A 
ATOM     48  C   UNL A   1      38.560  30.033  28.993  1.00  0.00     0.031 C 
ATOM     49  C   UNL A   1      37.784  34.128  34.491  1.00  0.00     0.029 A 
ATOM     50  C   UNL A   1      38.882  33.169  34.568  1.00  0.00     0.049 A 
ATOM     51  H   UNL A   1      39.479  31.804  33.114  1.00  0.00     0.167 HD
ATOM     52  C   UNL A   1      40.548  28.925  29.974  1.00  0.00     0.037 A 
ATOM     53  C   UNL A   1      39.709  33.007  35.617  1.00  0.00     0.037 A 
ATOM     54  C   UNL A   1      41.535  28.746  31.007  1.00  0.00     0.049 A 
ATOM     55  C   UNL A   1      40.799  31.972  35.536  1.00  0.00     0.074 A 
ATOM     56  C   UNL A   1      42.630  27.902  31.019  1.00  0.00     0.029 A 
ATOM     57  N   UNL A   1      41.538  29.424  32.220  1.00  0.00    -0.354 N 
ATOM     58  N   UNL A   1      41.105  31.166  34.549  1.00  0.00    -0.248 NA
ATOM     59  C   UNL A   1      41.660  31.829  36.718  1.00  0.00     0.031 C 
ATOM     60  C   UNL A   1      43.261  28.022  32.262  1.00  0.00     0.029 A 
ATOM     61  C   UNL A   1      42.597  28.990  33.000  1.00  0.00     0.049 A 
ATOM     62  H   UNL A   1      40.884  30.109  32.485  1.00  0.00     0.167 HD
ATOM     63  C   UNL A   1      42.214  30.447  34.973  1.00  0.00     0.074 A 
ATOM     64  C   UNL A   1      42.533  30.922  36.304  1.00  0.00     0.031 C 
ATOM     65  C   UNL A   1      42.906  29.480  34.320  1.00  0.00     0.037 A 
BRANCH  52  66
ATOM     66  C   UNL A   1      40.618  28.049  28.756  1.00  0.00     0.064 A 
ATOM     67  C   UNL A   1      41.395  28.396  27.637  1.00  0.00     0.173 A 
ATOM     68  C   UNL A   1      39.912  26.838  28.708  1.00  0.00     0.173 A 
ATOM     69  F   UNL A   1      42.082  29.548  27.624  1.00  0.00    -0.203 F 
ATOM     70  C   UNL A   1      41.427  27.586  26.506  1.00  0.00     0.198 A 
ATOM     71  C   UNL A   1      39.976  26.012  27.589  1.00  0.00     0.198 A 
ATOM     72  F   UNL A   1      39.159  26.452  29.750  1.00  0.00    -0.203 F 
ATOM     73  F   UNL A   1      42.125  27.969  25.428  1.00  0.00    -0.200 F 
ATOM     74  C   UNL A   1      40.724  26.390  26.485  1.00  0.00     0.200 A 
ATOM     75  F   UNL A   1      39.307  24.850  27.576  1.00  0.00    -0.200 F 
ATOM     76  F   UNL A   1      40.758  25.610  25.396  1.00  0.00    -0.200 F 
ENDBRANCH  52  66
BRANCH  53  77
ATOM     77  C   UNL A   1      39.563  33.869  36.820  1.00  0.00     0.064 A 
ATOM     78  C   UNL A   1      38.780  33.454  37.907  1.00  0.00     0.173 A 
ATOM     79  C   UNL A   1      40.194  35.118  36.911  1.00  0.00     0.173 A 
ATOM     80  F   UNL A   1      38.142  32.274  37.860  1.00  0.00    -0.203 F 
ATOM     81  C   UNL A   1      38.616  34.264  39.028  1.00  0.00     0.198 A 
ATOM     82  C   UNL A   1      40.053  35.914  38.045  1.00  0.00     0.198 A 
ATOM     83  F   UNL A   1      40.959  35.559  35.902  1.00  0.00    -0.203 F 
ATOM     84  F   UNL A   1      37.822  33.862  40.031  1.00  0.00    -0.200 F 
ATOM     85  C   UNL A   1      39.257  35.491  39.098  1.00  0.00     0.200 A 
ATOM     86  F   UNL A   1      40.687  37.093  38.116  1.00  0.00    -0.200 F 
ATOM     87  F   UNL A   1      39.101  36.269  40.178  1.00  0.00    -0.200 F 
ENDBRANCH  53  77
BRANCH  65  88
ATOM     88  C   UNL A   1      44.104  28.903  35.018  1.00  0.00     0.064 A 
ATOM     89  C   UNL A   1      45.384  29.458  34.874  1.00  0.00     0.173 A 
ATOM     90  C   UNL A   1      43.960  27.798  35.873  1.00  0.00     0.173 A 
ATOM     91  F   UNL A   1      45.579  30.504  34.057  1.00  0.00    -0.203 F 
ATOM     92  C   UNL A   1      46.481  28.910  35.535  1.00  0.00     0.198 A 
ATOM     93  C   UNL A   1      45.052  27.275  36.559  1.00  0.00     0.198 A 
ATOM     94  F   UNL A   1      42.757  27.233  36.052  1.00  0.00    -0.203 F 
ATOM     95  F   UNL A   1      47.704  29.421  35.339  1.00  0.00    -0.200 F 
ATOM     96  C   UNL A   1      46.312  27.825  36.383  1.00  0.00     0.200 A 
ATOM     97  F   UNL A   1      44.885  26.237  37.391  1.00  0.00    -0.200 F 
ATOM     98  F   UNL A   1      47.367  27.304  37.024  1.00  0.00    -0.200 F 
ENDBRANCH  65  88
ENDBRANCH  39  40
ENDBRANCH  31  34
ENDBRANCH  29  30
ENDBRANCH  28  29
ENDBRANCH  27  28
ENDBRANCH  26  27
ENDBRANCH   1  26
TORSDOF 19
ENDMDL
MODEL 2
REMARK VINA RESULT:     -11.5      0.830      7.257
REMARK SMILES CC(C)C[C@H](CNC(=O)N[C@@H](C)c1ccsc1)C(=O)NCCCCCCNC(=O)c1ccc(-c2c3nc(c(-c4c(F)c(F)c(F)c(F)c4F)c4ccc([nH]4)c(-c4c(F)c(F)c(F)c(F)c4F)c4nc(c(-c5c(F)c(F)c(F)c(F)c5F)c5ccc2[nH]5)C=C4)C=C3)cc1
REMARK SMILES IDX 22 1 21 2 20 3 18 4 19 5 5 7 4 8 2 9 1 10 3 11 6 12 7 13
REMARK SMILES IDX 8 14 9 16 10 17 11 19 12 20 13 21 14 22 17 23 15 24 16 25
REMARK SMILES IDX 23 26 24 27 25 28 26 29 27 30 28 31 29 33 30 34 31 35 92 36
REMARK SMILES IDX 32 37 91 38 33 39 34 40 35 41 85 42 36 43 90 44 84 45 86 46
REMARK SMILES IDX 37 47 89 48 83 49 82 50 38 52 70 53 50 54 69 55 51 56 54 57
REMARK SMILES IDX 68 58 87 59 52 60 53 61 67 63 88 64 55 65 39 66 40 67 48 68
REMARK SMILES IDX 41 69 42 70 46 71 49 72 43 73 44 74 47 75 45 76 71 77 72 78
REMARK SMILES IDX 80 79 73 80 74 81 78 82 81 83 75 84 76 85 79 86 77 87 56 88
REMARK SMILES IDX 57 89 65 90 58 91 59 92 63 93 66 94 60 95 61 96 64 97 62 98
REMARK H PARENT 20 6 7 15 10 18 27 32 86 51 54 62
REMARK Flexibility Score: inf
ROOT
ATOM      1  C   UNL A   1      31.779  28.823  27.271  1.00  0.00     0.021 C 
ENDROOT
BRANCH   1   2
ATOM      2  C   UNL A   1      32.150  27.554  26.518  1.00  0.00     0.116 C 
BRANCH   2   3
ATOM      3  N   UNL A   1      31.207  26.498  26.810  1.00  0.00    -0.356 N 
ATOM      4  C   UNL A   1      30.346  25.869  25.972  1.00  0.00     0.224 C 
ATOM      5  O   UNL A   1      29.554  25.055  26.451  1.00  0.00    -0.275 OA
ATOM      6  H   UNL A   1      31.188  26.195  27.746  1.00  0.00     0.163 HD
BRANCH   4   7
ATOM      7  C   UNL A   1      30.329  26.194  24.483  1.00  0.00     0.098 C 
BRANCH   7   8
ATOM      8  C   UNL A   1      29.063  26.932  23.971  1.00  0.00     0.018 C 
BRANCH   8   9
ATOM      9  C   UNL A   1      29.255  28.067  22.927  1.00  0.00    -0.017 C 
ATOM     10  C   UNL A   1      28.089  29.051  22.853  1.00  0.00     0.007 C 
ATOM     11  C   UNL A   1      30.552  28.835  23.207  1.00  0.00     0.007 C 
ENDBRANCH   8   9
ENDBRANCH   7   8
BRANCH   7  12
ATOM     12  C   UNL A   1      30.828  24.935  23.718  1.00  0.00     0.131 C 
BRANCH  12  13
ATOM     13  N   UNL A   1      31.682  25.145  22.557  1.00  0.00    -0.337 N 
ATOM     14  C   UNL A   1      32.644  24.480  21.916  1.00  0.00     0.315 C 
ATOM     15  H   UNL A   1      31.500  26.013  22.129  1.00  0.00     0.165 HD
ATOM     16  O   UNL A   1      33.303  25.112  21.088  1.00  0.00    -0.249 OA
ATOM     17  N   UNL A   1      32.938  23.196  22.111  1.00  0.00    -0.332 N 
ATOM     18  H   UNL A   1      33.833  22.946  21.786  1.00  0.00     0.165 HD
BRANCH  17  19
ATOM     19  C   UNL A   1      32.212  22.095  22.705  1.00  0.00     0.112 C 
ATOM     20  C   UNL A   1      31.870  21.046  21.651  1.00  0.00     0.036 C 
BRANCH  19  21
ATOM     21  C   UNL A   1      33.025  21.607  23.871  1.00  0.00    -0.015 A 
ATOM     22  C   UNL A   1      33.053  20.223  24.260  1.00  0.00     0.017 A 
ATOM     23  C   UNL A   1      33.818  22.359  24.718  1.00  0.00     0.070 A 
ATOM     24  C   UNL A   1      33.849  19.985  25.356  1.00  0.00     0.065 A 
ATOM     25  S   UNL A   1      34.577  21.418  25.929  1.00  0.00    -0.152 S 
ENDBRANCH  19  21
ENDBRANCH  17  19
ENDBRANCH  12  13
ENDBRANCH   7  12
ENDBRANCH   4   7
ENDBRANCH   2   3
ENDBRANCH   1   2
BRANCH   1  26
ATOM     26  C   UNL A   1      32.413  30.071  26.657  1.00  0.00     0.002 C 
BRANCH  26  27
ATOM     27  C   UNL A   1      31.417  30.985  25.934  1.00  0.00     0.002 C 
BRANCH  27  28
ATOM     28  C   UNL A   1      31.320  32.397  26.517  1.00  0.00     0.021 C 
BRANCH  28  29
ATOM     29  C   UNL A   1      32.606  32.875  27.180  1.00  0.00     0.116 C 
BRANCH  29  30
ATOM     30  N   UNL A   1      32.480  34.248  27.642  1.00  0.00    -0.352 N 
ATOM     31  C   UNL A   1      33.086  34.854  28.706  1.00  0.00     0.251 C 
ATOM     32  H   UNL A   1      31.876  34.820  27.115  1.00  0.00     0.163 HD
ATOM     33  O   UNL A   1      32.674  35.935  29.129  1.00  0.00    -0.269 OA
BRANCH  31  34
ATOM     34  C   UNL A   1      34.238  34.199  29.348  1.00  0.00     0.039 A 
ATOM     35  C   UNL A   1      34.013  33.272  30.367  1.00  0.00     0.014 A 
ATOM     36  C   UNL A   1      35.541  34.510  28.945  1.00  0.00     0.014 A 
ATOM     37  C   UNL A   1      35.099  32.623  30.954  1.00  0.00     0.010 A 
ATOM     38  C   UNL A   1      36.614  33.805  29.473  1.00  0.00     0.010 A 
ATOM     39  C   UNL A   1      36.404  32.866  30.494  1.00  0.00    -0.014 A 
BRANCH  39  40
ATOM     40  C   UNL A   1      37.565  32.155  31.078  1.00  0.00     0.031 A 
ATOM     41  C   UNL A   1      38.050  32.514  32.455  1.00  0.00     0.074 A 
ATOM     42  C   UNL A   1      38.214  31.231  30.345  1.00  0.00     0.049 A 
ATOM     43  N   UNL A   1      39.072  32.041  33.122  1.00  0.00    -0.248 NA
ATOM     44  C   UNL A   1      37.303  33.564  33.165  1.00  0.00     0.031 C 
ATOM     45  C   UNL A   1      37.861  30.834  28.983  1.00  0.00     0.029 A 
ATOM     46  N   UNL A   1      39.310  30.462  30.644  1.00  0.00    -0.354 N 
ATOM     47  C   UNL A   1      39.097  32.744  34.319  1.00  0.00     0.074 A 
ATOM     48  C   UNL A   1      38.029  33.717  34.262  1.00  0.00     0.031 C 
ATOM     49  C   UNL A   1      38.701  29.870  28.575  1.00  0.00     0.029 A 
ATOM     50  C   UNL A   1      39.677  29.613  29.630  1.00  0.00     0.049 A 
ATOM     51  H   UNL A   1      39.787  30.514  31.503  1.00  0.00     0.167 HD
ATOM     52  C   UNL A   1      39.925  32.577  35.379  1.00  0.00     0.037 A 
ATOM     53  C   UNL A   1      40.690  28.730  29.562  1.00  0.00     0.037 A 
ATOM     54  C   UNL A   1      40.975  31.593  35.432  1.00  0.00     0.049 A 
ATOM     55  C   UNL A   1      41.610  28.581  30.744  1.00  0.00     0.074 A 
ATOM     56  C   UNL A   1      41.826  31.295  36.481  1.00  0.00     0.029 A 
ATOM     57  N   UNL A   1      41.321  30.752  34.383  1.00  0.00    -0.354 N 
ATOM     58  N   UNL A   1      41.577  29.193  31.902  1.00  0.00    -0.248 NA
ATOM     59  C   UNL A   1      42.707  27.614  30.606  1.00  0.00     0.031 C 
ATOM     60  C   UNL A   1      42.727  30.316  36.047  1.00  0.00     0.029 A 
ATOM     61  C   UNL A   1      42.397  29.959  34.749  1.00  0.00     0.049 A 
ATOM     62  H   UNL A   1      40.871  30.724  33.509  1.00  0.00     0.167 HD
ATOM     63  C   UNL A   1      42.623  28.661  32.645  1.00  0.00     0.074 A 
ATOM     64  C   UNL A   1      43.264  27.667  31.808  1.00  0.00     0.031 C 
ATOM     65  C   UNL A   1      43.017  28.967  33.906  1.00  0.00     0.037 A 
BRANCH  52  66
ATOM     66  C   UNL A   1      39.730  33.484  36.560  1.00  0.00     0.064 A 
ATOM     67  C   UNL A   1      40.408  34.709  36.674  1.00  0.00     0.173 A 
ATOM     68  C   UNL A   1      38.841  33.134  37.587  1.00  0.00     0.173 A 
ATOM     69  F   UNL A   1      41.279  35.089  35.726  1.00  0.00    -0.203 F 
ATOM     70  C   UNL A   1      40.236  35.525  37.788  1.00  0.00     0.198 A 
ATOM     71  C   UNL A   1      38.642  33.970  38.682  1.00  0.00     0.198 A 
ATOM     72  F   UNL A   1      38.159  31.979  37.528  1.00  0.00    -0.203 F 
ATOM     73  F   UNL A   1      40.942  36.658  37.903  1.00  0.00    -0.200 F 
ATOM     74  C   UNL A   1      39.348  35.159  38.789  1.00  0.00     0.200 A 
ATOM     75  F   UNL A   1      37.773  33.622  39.641  1.00  0.00    -0.200 F 
ATOM     76  F   UNL A   1      39.180  35.947  39.859  1.00  0.00    -0.200 F 
ENDBRANCH  52  66
BRANCH  53  77
ATOM     77  C   UNL A   1      40.867  27.892  28.347  1.00  0.00     0.064 A 
ATOM     78  C   UNL A   1      40.258  26.632  28.253  1.00  0.00     0.173 A 
ATOM     79  C   UNL A   1      41.642  28.325  27.261  1.00  0.00     0.173 A 
ATOM     80  F   UNL A   1      39.521  26.167  29.272  1.00  0.00    -0.203 F 
ATOM     81  C   UNL A   1      40.437  25.828  27.130  1.00  0.00     0.198 A 
ATOM     82  C   UNL A   1      41.796  27.532  26.126  1.00  0.00     0.198 A 
ATOM     83  F   UNL A   1      42.240  29.524  27.298  1.00  0.00    -0.203 F 
ATOM     84  F   UNL A   1      39.884  24.608  27.087  1.00  0.00    -0.200 F 
ATOM     85  C   UNL A   1      41.201  26.280  26.065  1.00  0.00     0.200 A 
ATOM     86  F   UNL A   1      42.522  27.979  25.092  1.00  0.00    -0.200 F 
ATOM     87  F   UNL A   1      41.371  25.508  24.983  1.00  0.00    -0.200 F 
ENDBRANCH  53  77
BRANCH  65  88
ATOM     88  C   UNL A   1      44.169  28.188  34.474  1.00  0.00     0.064 A 
ATOM     89  C   UNL A   1      43.980  26.968  35.140  1.00  0.00     0.173 A 
ATOM     90  C   UNL A   1      45.483  28.654  34.316  1.00  0.00     0.173 A 
ATOM     91  F   UNL A   1      42.743  26.486  35.331  1.00  0.00    -0.203 F 
ATOM     92  C   UNL A   1      45.063  26.259  35.654  1.00  0.00     0.198 A 
ATOM     93  C   UNL A   1      46.565  27.925  34.801  1.00  0.00     0.198 A 
ATOM     94  F   UNL A   1      45.720  29.811  33.681  1.00  0.00    -0.203 F 
ATOM     95  F   UNL A   1      44.856  25.123  36.336  1.00  0.00    -0.200 F 
ATOM     96  C   UNL A   1      46.355  26.734  35.477  1.00  0.00     0.200 A 
ATOM     97  F   UNL A   1      47.814  28.377  34.614  1.00  0.00    -0.200 F 
ATOM     98  F   UNL A   1      47.396  26.045  35.965  1.00  0.00    -0.200 F 
ENDBRANCH  65  88
ENDBRANCH  39  40
ENDBRANCH  31  34
ENDBRANCH  29  30
ENDBRANCH  28  29
ENDBRANCH  27  28
ENDBRANCH  26  27
ENDBRANCH   1  26
TORSDOF 19
ENDMDL
MODEL 3
REMARK VINA RESULT:     -11.4      1.345      2.634
REMARK SMILES CC(C)C[C@H](CNC(=O)N[C@@H](C)c1ccsc1)C(=O)NCCCCCCNC(=O)c1ccc(-c2c3nc(c(-c4c(F)c(F)c(F)c(F)c4F)c4ccc([nH]4)c(-c4c(F)c(F)c(F)c(F)c4F)c4nc(c(-c5c(F)c(F)c(F)c(F)c5F)c5ccc2[nH]5)C=C4)C=C3)cc1
REMARK SMILES IDX 22 1 21 2 20 3 18 4 19 5 5 7 4 8 2 9 1 10 3 11 6 12 7 13
REMARK SMILES IDX 8 14 9 16 10 17 11 19 12 20 13 21 14 22 17 23 15 24 16 25
REMARK SMILES IDX 23 26 24 27 25 28 26 29 27 30 28 31 29 33 30 34 31 35 92 36
REMARK SMILES IDX 32 37 91 38 33 39 34 40 35 41 85 42 36 43 90 44 84 45 86 46
REMARK SMILES IDX 37 47 89 48 83 49 82 50 38 52 70 53 50 54 69 55 51 56 54 57
REMARK SMILES IDX 68 58 87 59 52 60 53 61 67 63 88 64 55 65 39 66 40 67 48 68
REMARK SMILES IDX 41 69 42 70 46 71 49 72 43 73 44 74 47 75 45 76 71 77 72 78
REMARK SMILES IDX 80 79 73 80 74 81 78 82 81 83 75 84 76 85 79 86 77 87 56 88
REMARK SMILES IDX 57 89 65 90 58 91 59 92 63 93 66 94 60 95 61 96 64 97 62 98
REMARK H PARENT 20 6 7 15 10 18 27 32 86 51 54 62
REMARK Flexibility Score: inf
ROOT
ATOM      1  C   UNL A   1      33.497  29.368  25.772  1.00  0.00     0.021 C 
ENDROOT
BRANCH   1   2
ATOM      2  C   UNL A   1      33.849  27.951  26.202  1.00  0.00     0.116 C 
BRANCH   2   3
ATOM      3  N   UNL A   1      32.694  27.292  26.767  1.00  0.00    -0.356 N 
ATOM      4  C   UNL A   1      31.942  26.291  26.243  1.00  0.00     0.224 C 
ATOM      5  O   UNL A   1      30.933  25.936  26.854  1.00  0.00    -0.275 OA
ATOM      6  H   UNL A   1      32.415  27.613  27.655  1.00  0.00     0.163 HD
BRANCH   4   7
ATOM      7  C   UNL A   1      32.313  25.655  24.908  1.00  0.00     0.098 C 
BRANCH   7   8
ATOM      8  C   UNL A   1      31.487  26.132  23.684  1.00  0.00     0.018 C 
BRANCH   8   9
ATOM      9  C   UNL A   1      30.790  27.518  23.772  1.00  0.00    -0.017 C 
ATOM     10  C   UNL A   1      31.377  28.573  22.837  1.00  0.00     0.007 C 
ATOM     11  C   UNL A   1      29.287  27.377  23.501  1.00  0.00     0.007 C 
ENDBRANCH   8   9
ENDBRANCH   7   8
BRANCH   7  12
ATOM     12  C   UNL A   1      32.493  24.128  25.147  1.00  0.00     0.131 C 
BRANCH  12  13
ATOM     13  N   UNL A   1      32.656  23.674  26.522  1.00  0.00    -0.337 N 
ATOM     14  C   UNL A   1      32.857  22.517  27.153  1.00  0.00     0.315 C 
ATOM     15  H   UNL A   1      32.603  24.425  27.156  1.00  0.00     0.165 HD
ATOM     16  O   UNL A   1      32.703  22.515  28.376  1.00  0.00    -0.249 OA
ATOM     17  N   UNL A   1      33.205  21.379  26.558  1.00  0.00    -0.332 N 
ATOM     18  H   UNL A   1      33.032  20.581  27.107  1.00  0.00     0.165 HD
BRANCH  17  19
ATOM     19  C   UNL A   1      33.785  21.075  25.268  1.00  0.00     0.112 C 
ATOM     20  C   UNL A   1      35.214  21.602  25.184  1.00  0.00     0.036 C 
BRANCH  19  21
ATOM     21  C   UNL A   1      33.621  19.597  25.046  1.00  0.00    -0.015 A 
ATOM     22  C   UNL A   1      34.640  18.798  24.421  1.00  0.00     0.017 A 
ATOM     23  C   UNL A   1      32.529  18.814  25.371  1.00  0.00     0.070 A 
ATOM     24  C   UNL A   1      34.292  17.473  24.303  1.00  0.00     0.065 A 
ATOM     25  S   UNL A   1      32.741  17.169  24.945  1.00  0.00    -0.152 S 
ENDBRANCH  19  21
ENDBRANCH  17  19
ENDBRANCH  12  13
ENDBRANCH   7  12
ENDBRANCH   4   7
ENDBRANCH   2   3
ENDBRANCH   1   2
BRANCH   1  26
ATOM     26  C   UNL A   1      32.507  30.035  26.726  1.00  0.00     0.002 C 
BRANCH  26  27
ATOM     27  C   UNL A   1      31.407  30.837  26.020  1.00  0.00     0.002 C 
BRANCH  27  28
ATOM     28  C   UNL A   1      31.276  32.285  26.501  1.00  0.00     0.021 C 
BRANCH  28  29
ATOM     29  C   UNL A   1      32.499  32.792  27.254  1.00  0.00     0.116 C 
BRANCH  29  30
ATOM     30  N   UNL A   1      32.365  34.202  27.586  1.00  0.00    -0.352 N 
ATOM     31  C   UNL A   1      32.949  34.903  28.602  1.00  0.00     0.251 C 
ATOM     32  H   UNL A   1      31.772  34.723  26.997  1.00  0.00     0.163 HD
ATOM     33  O   UNL A   1      32.529  36.018  28.916  1.00  0.00    -0.269 OA
BRANCH  31  34
ATOM     34  C   UNL A   1      34.087  34.311  29.326  1.00  0.00     0.039 A 
ATOM     35  C   UNL A   1      33.842  33.515  30.445  1.00  0.00     0.014 A 
ATOM     36  C   UNL A   1      35.397  34.552  28.897  1.00  0.00     0.014 A 
ATOM     37  C   UNL A   1      34.914  32.923  31.113  1.00  0.00     0.010 A 
ATOM     38  C   UNL A   1      36.455  33.897  29.513  1.00  0.00     0.010 A 
ATOM     39  C   UNL A   1      36.225  33.090  30.636  1.00  0.00    -0.014 A 
BRANCH  39  40
ATOM     40  C   UNL A   1      37.372  32.435  31.309  1.00  0.00     0.031 A 
ATOM     41  C   UNL A   1      38.092  31.302  30.633  1.00  0.00     0.074 A 
ATOM     42  C   UNL A   1      37.724  32.826  32.547  1.00  0.00     0.049 A 
ATOM     43  N   UNL A   1      39.087  30.574  31.073  1.00  0.00    -0.248 NA
ATOM     44  C   UNL A   1      37.612  30.918  29.296  1.00  0.00     0.031 C 
ATOM     45  C   UNL A   1      37.070  33.883  33.318  1.00  0.00     0.029 A 
ATOM     46  N   UNL A   1      38.718  32.373  33.378  1.00  0.00    -0.354 N 
ATOM     47  C   UNL A   1      39.339  29.641  30.076  1.00  0.00     0.074 A 
ATOM     48  C   UNL A   1      38.356  29.854  29.037  1.00  0.00     0.031 C 
ATOM     49  C   UNL A   1      37.700  34.023  34.494  1.00  0.00     0.029 A 
ATOM     50  C   UNL A   1      38.774  33.037  34.578  1.00  0.00     0.049 A 
ATOM     51  H   UNL A   1      39.331  31.643  33.137  1.00  0.00     0.167 HD
ATOM     52  C   UNL A   1      40.318  28.706  30.024  1.00  0.00     0.037 A 
ATOM     53  C   UNL A   1      39.599  32.865  35.627  1.00  0.00     0.037 A 
ATOM     54  C   UNL A   1      41.303  28.513  31.056  1.00  0.00     0.049 A 
ATOM     55  C   UNL A   1      40.662  31.802  35.554  1.00  0.00     0.074 A 
ATOM     56  C   UNL A   1      42.376  27.641  31.074  1.00  0.00     0.029 A 
ATOM     57  N   UNL A   1      41.327  29.202  32.261  1.00  0.00    -0.354 N 
ATOM     58  N   UNL A   1      40.945  30.979  34.574  1.00  0.00    -0.248 NA
ATOM     59  C   UNL A   1      41.523  31.650  36.734  1.00  0.00     0.031 C 
ATOM     60  C   UNL A   1      43.014  27.758  32.314  1.00  0.00     0.029 A 
ATOM     61  C   UNL A   1      42.377  28.750  33.043  1.00  0.00     0.049 A 
ATOM     62  H   UNL A   1      40.691  29.907  32.521  1.00  0.00     0.167 HD
ATOM     63  C   UNL A   1      42.036  30.236  35.003  1.00  0.00     0.074 A 
ATOM     64  C   UNL A   1      42.372  30.716  36.328  1.00  0.00     0.031 C 
ATOM     65  C   UNL A   1      42.702  29.245  34.358  1.00  0.00     0.037 A 
BRANCH  52  66
ATOM     66  C   UNL A   1      40.362  27.816  28.814  1.00  0.00     0.064 A 
ATOM     67  C   UNL A   1      39.655  26.604  28.759  1.00  0.00     0.173 A 
ATOM     68  C   UNL A   1      41.109  28.186  27.685  1.00  0.00     0.173 A 
ATOM     69  F   UNL A   1      38.933  26.195  29.813  1.00  0.00    -0.203 F 
ATOM     70  C   UNL A   1      39.729  25.779  27.640  1.00  0.00     0.198 A 
ATOM     71  C   UNL A   1      41.151  27.377  26.554  1.00  0.00     0.198 A 
ATOM     72  F   UNL A   1      41.799  29.338  27.678  1.00  0.00    -0.203 F 
ATOM     73  F   UNL A   1      39.096  24.598  27.637  1.00  0.00    -0.200 F 
ATOM     74  C   UNL A   1      40.470  26.169  26.535  1.00  0.00     0.200 A 
ATOM     75  F   UNL A   1      41.856  27.762  25.481  1.00  0.00    -0.200 F 
ATOM     76  F   UNL A   1      40.538  25.375  25.458  1.00  0.00    -0.200 F 
ENDBRANCH  52  66
BRANCH  53  77
ATOM     77  C   UNL A   1      39.478  33.742  36.821  1.00  0.00     0.064 A 
ATOM     78  C   UNL A   1      40.139  34.978  36.871  1.00  0.00     0.173 A 
ATOM     79  C   UNL A   1      38.707  33.370  37.932  1.00  0.00     0.173 A 
ATOM     80  F   UNL A   1      40.902  35.370  35.840  1.00  0.00    -0.203 F 
ATOM     81  C   UNL A   1      40.053  35.796  37.995  1.00  0.00     0.198 A 
ATOM     82  C   UNL A   1      38.598  34.203  39.044  1.00  0.00     0.198 A 
ATOM     83  F   UNL A   1      38.050  32.202  37.933  1.00  0.00    -0.203 F 
ATOM     84  F   UNL A   1      40.735  36.950  38.034  1.00  0.00    -0.200 F 
ATOM     85  C   UNL A   1      39.278  35.411  39.078  1.00  0.00     0.200 A 
ATOM     86  F   UNL A   1      37.835  33.835  40.082  1.00  0.00    -0.200 F 
ATOM     87  F   UNL A   1      39.193  36.200  40.158  1.00  0.00    -0.200 F 
ENDBRANCH  53  77
BRANCH  65  88
ATOM     88  C   UNL A   1      43.887  28.645  35.058  1.00  0.00     0.064 A 
ATOM     89  C   UNL A   1      43.766  27.516  35.882  1.00  0.00     0.173 A 
ATOM     90  C   UNL A   1      45.168  29.188  34.873  1.00  0.00     0.173 A 
ATOM     91  F   UNL A   1      42.562  26.968  36.106  1.00  0.00    -0.203 F 
ATOM     92  C   UNL A   1      44.879  26.973  36.519  1.00  0.00     0.198 A 
ATOM     93  C   UNL A   1      46.283  28.621  35.483  1.00  0.00     0.198 A 
ATOM     94  F   UNL A   1      45.341  30.263  34.089  1.00  0.00    -0.203 F 
ATOM     95  F   UNL A   1      44.732  25.928  37.346  1.00  0.00    -0.200 F 
ATOM     96  C   UNL A   1      46.137  27.520  36.312  1.00  0.00     0.200 A 
ATOM     97  F   UNL A   1      47.500  29.141  35.268  1.00  0.00    -0.200 F 
ATOM     98  F   UNL A   1      47.208  26.990  36.919  1.00  0.00    -0.200 F 
ENDBRANCH  65  88
ENDBRANCH  39  40
ENDBRANCH  31  34
ENDBRANCH  29  30
ENDBRANCH  28  29
ENDBRANCH  27  28
ENDBRANCH  26  27
ENDBRANCH   1  26
TORSDOF 19
ENDMDL
