MODEL 1
REMARK VINA RESULT:     -11.8      0.000      0.000
REMARK SMILES O=C(Cc1ccc(=O)n(C(F)F)c1)NCCCCCCNC(=O)c1ccc(-c2c3nc(c(-c4c(F)c(F)c(F)c(F)c4F)c4ccc([nH]4)c(-c4c(F)c(F)c(F)c(F)c4F)c4nc(c(-c5c(F)c(F)c(F)c(F)c5F)c5ccc2[nH]5)C=C4)C=C3)cc1
REMARK SMILES IDX 17 1 16 2 15 3 14 4 1 5 2 6 3 8 4 9 5 10 13 11 6 12 9 13
REMARK SMILES IDX 7 14 8 15 10 16 11 17 12 18 18 19 19 20 20 21 21 22 22 23
REMARK SMILES IDX 23 25 24 26 25 27 86 28 26 29 85 30 27 31 28 32 29 33 79 34
REMARK SMILES IDX 30 35 84 36 78 37 80 38 31 39 83 40 77 41 76 42 32 44 64 45
REMARK SMILES IDX 44 46 63 47 45 48 48 49 62 50 81 51 46 52 47 53 61 55 82 56
REMARK SMILES IDX 49 57 33 58 34 59 42 60 35 61 36 62 40 63 43 64 37 65 38 66
REMARK SMILES IDX 41 67 39 68 65 69 66 70 74 71 67 72 68 73 72 74 75 75 69 76
REMARK SMILES IDX 70 77 73 78 71 79 50 80 51 81 59 82 52 83 53 84 57 85 60 86
REMARK SMILES IDX 54 87 55 88 58 89 56 90
REMARK H PARENT 14 7 21 24 80 43 48 54
REMARK Flexibility Score: inf
ROOT
ATOM      1  C   UNL A   1      31.778  29.000  26.674  1.00  0.00     0.002 C 
ENDROOT
BRANCH   1   2
ATOM      2  C   UNL A   1      32.577  27.750  26.278  1.00  0.00     0.021 C 
BRANCH   2   3
ATOM      3  C   UNL A   1      32.143  27.091  24.972  1.00  0.00     0.116 C 
BRANCH   3   4
ATOM      4  N   UNL A   1      30.841  27.547  24.533  1.00  0.00    -0.356 N 
ATOM      5  O   UNL A   1      31.538  28.134  22.426  1.00  0.00    -0.275 OA
ATOM      6  C   UNL A   1      30.637  28.009  23.249  1.00  0.00     0.224 C 
ATOM      7  H   UNL A   1      30.086  27.527  25.165  1.00  0.00     0.163 HD
BRANCH   6   8
ATOM      8  C   UNL A   1      29.174  28.279  22.921  1.00  0.00     0.137 C 
BRANCH   8   9
ATOM      9  C   UNL A   1      28.931  29.756  22.724  1.00  0.00    -0.022 A 
ATOM     10  C   UNL A   1      29.218  30.644  23.833  1.00  0.00     0.011 A 
ATOM     11  C   UNL A   1      28.458  30.290  21.583  1.00  0.00     0.099 A 
ATOM     12  C   UNL A   1      29.010  31.962  23.732  1.00  0.00     0.072 A 
ATOM     13  N   UNL A   1      28.244  31.651  21.447  1.00  0.00    -0.258 N 
ATOM     14  C   UNL A   1      28.477  32.551  22.474  1.00  0.00     0.254 A 
ATOM     15  O   UNL A   1      28.281  33.761  22.425  1.00  0.00    -0.269 OA
BRANCH  13  16
ATOM     16  C   UNL A   1      27.735  32.189  20.211  1.00  0.00     0.451 C 
ATOM     17  F   UNL A   1      28.710  32.840  19.530  1.00  0.00    -0.185 F 
ATOM     18  F   UNL A   1      27.239  31.214  19.411  1.00  0.00    -0.185 F 
ENDBRANCH  13  16
ENDBRANCH   8   9
ENDBRANCH   6   8
ENDBRANCH   3   4
ENDBRANCH   2   3
ENDBRANCH   1   2
BRANCH   1  19
ATOM     19  C   UNL A   1      32.254  30.320  26.063  1.00  0.00     0.002 C 
BRANCH  19  20
ATOM     20  C   UNL A   1      31.796  31.587  26.786  1.00  0.00     0.021 C 
BRANCH  20  21
ATOM     21  C   UNL A   1      32.911  32.487  27.309  1.00  0.00     0.116 C 
BRANCH  21  22
ATOM     22  N   UNL A   1      32.477  33.844  27.608  1.00  0.00    -0.352 N 
ATOM     23  C   UNL A   1      33.008  34.735  28.515  1.00  0.00     0.251 C 
ATOM     24  H   UNL A   1      31.702  34.167  27.094  1.00  0.00     0.163 HD
ATOM     25  O   UNL A   1      32.468  35.818  28.716  1.00  0.00    -0.269 OA
BRANCH  23  26
ATOM     26  C   UNL A   1      34.211  34.352  29.287  1.00  0.00     0.039 A 
ATOM     27  C   UNL A   1      35.489  34.600  28.781  1.00  0.00     0.014 A 
ATOM     28  C   UNL A   1      34.054  33.679  30.502  1.00  0.00     0.014 A 
ATOM     29  C   UNL A   1      36.594  34.016  29.392  1.00  0.00     0.010 A 
ATOM     30  C   UNL A   1      35.176  33.161  31.157  1.00  0.00     0.010 A 
ATOM     31  C   UNL A   1      36.447  33.270  30.574  1.00  0.00    -0.014 A 
BRANCH  31  32
ATOM     32  C   UNL A   1      37.631  32.579  31.149  1.00  0.00     0.031 A 
ATOM     33  C   UNL A   1      38.109  32.910  32.539  1.00  0.00     0.074 A 
ATOM     34  C   UNL A   1      38.230  31.595  30.451  1.00  0.00     0.049 A 
ATOM     35  N   UNL A   1      39.098  32.383  33.220  1.00  0.00    -0.248 NA
ATOM     36  C   UNL A   1      37.386  33.968  33.262  1.00  0.00     0.031 C 
ATOM     37  C   UNL A   1      37.848  31.169  29.105  1.00  0.00     0.029 A 
ATOM     38  N   UNL A   1      39.262  30.757  30.787  1.00  0.00    -0.354 N 
ATOM     39  C   UNL A   1      39.124  33.054  34.436  1.00  0.00     0.074 A 
ATOM     40  C   UNL A   1      38.074  34.048  34.394  1.00  0.00     0.031 C 
ATOM     41  C   UNL A   1      38.597  30.114  28.750  1.00  0.00     0.029 A 
ATOM     42  C   UNL A   1      39.549  29.825  29.821  1.00  0.00     0.049 A 
ATOM     43  H   UNL A   1      39.752  30.818  31.639  1.00  0.00     0.167 HD
ATOM     44  C   UNL A   1      39.939  32.850  35.499  1.00  0.00     0.037 A 
ATOM     45  C   UNL A   1      40.476  28.850  29.794  1.00  0.00     0.037 A 
ATOM     46  C   UNL A   1      40.965  31.841  35.556  1.00  0.00     0.049 A 
ATOM     47  C   UNL A   1      41.397  28.676  30.968  1.00  0.00     0.074 A 
ATOM     48  C   UNL A   1      41.820  31.541  36.602  1.00  0.00     0.029 A 
ATOM     49  N   UNL A   1      41.269  30.964  34.527  1.00  0.00    -0.354 N 
ATOM     50  N   UNL A   1      41.408  29.314  32.111  1.00  0.00    -0.248 NA
ATOM     51  C   UNL A   1      42.445  27.653  30.841  1.00  0.00     0.031 C 
ATOM     52  C   UNL A   1      42.668  30.508  36.192  1.00  0.00     0.029 A 
ATOM     53  C   UNL A   1      42.316  30.138  34.904  1.00  0.00     0.049 A 
ATOM     54  H   UNL A   1      40.811  30.934  33.656  1.00  0.00     0.167 HD
ATOM     55  C   UNL A   1      42.455  28.773  32.841  1.00  0.00     0.074 A 
ATOM     56  C   UNL A   1      43.043  27.733  32.021  1.00  0.00     0.031 C 
ATOM     57  C   UNL A   1      42.895  29.113  34.076  1.00  0.00     0.037 A 
BRANCH  44  58
ATOM     58  C   UNL A   1      39.763  33.733  36.698  1.00  0.00     0.064 A 
ATOM     59  C   UNL A   1      40.400  34.979  36.792  1.00  0.00     0.173 A 
ATOM     60  C   UNL A   1      38.890  33.361  37.733  1.00  0.00     0.173 A 
ATOM     61  F   UNL A   1      41.251  35.375  35.834  1.00  0.00    -0.203 F 
ATOM     62  C   UNL A   1      40.176  35.816  37.882  1.00  0.00     0.198 A 
ATOM     63  C   UNL A   1      38.652  34.211  38.810  1.00  0.00     0.198 A 
ATOM     64  F   UNL A   1      38.253  32.182  37.687  1.00  0.00    -0.203 F 
ATOM     65  F   UNL A   1      40.816  36.991  37.963  1.00  0.00    -0.200 F 
ATOM     66  C   UNL A   1      39.297  35.435  38.885  1.00  0.00     0.200 A 
ATOM     67  F   UNL A   1      37.793  33.846  39.772  1.00  0.00    -0.200 F 
ATOM     68  F   UNL A   1      39.073  36.249  39.926  1.00  0.00    -0.200 F 
ENDBRANCH  44  58
BRANCH  45  69
ATOM     69  C   UNL A   1      40.570  27.959  28.609  1.00  0.00     0.064 A 
ATOM     70  C   UNL A   1      39.883  26.740  28.569  1.00  0.00     0.173 A 
ATOM     71  C   UNL A   1      41.329  28.321  27.486  1.00  0.00     0.173 A 
ATOM     72  F   UNL A   1      39.163  26.342  29.629  1.00  0.00    -0.203 F 
ATOM     73  C   UNL A   1      39.953  25.912  27.451  1.00  0.00     0.198 A 
ATOM     74  C   UNL A   1      41.377  27.505  26.358  1.00  0.00     0.198 A 
ATOM     75  F   UNL A   1      42.003  29.480  27.476  1.00  0.00    -0.203 F 
ATOM     76  F   UNL A   1      39.309  24.737  27.448  1.00  0.00    -0.200 F 
ATOM     77  C   UNL A   1      40.692  26.299  26.343  1.00  0.00     0.200 A 
ATOM     78  F   UNL A   1      42.080  27.890  25.284  1.00  0.00    -0.200 F 
ATOM     79  F   UNL A   1      40.748  25.509  25.263  1.00  0.00    -0.200 F 
ENDBRANCH  45  69
BRANCH  57  80
ATOM     80  C   UNL A   1      44.071  28.361  34.622  1.00  0.00     0.064 A 
ATOM     81  C   UNL A   1      45.376  28.852  34.480  1.00  0.00     0.173 A 
ATOM     82  C   UNL A   1      43.886  27.176  35.351  1.00  0.00     0.173 A 
ATOM     83  F   UNL A   1      45.603  29.973  33.780  1.00  0.00    -0.203 F 
ATOM     84  C   UNL A   1      46.458  28.176  35.039  1.00  0.00     0.198 A 
ATOM     85  C   UNL A   1      44.967  26.516  35.927  1.00  0.00     0.198 A 
ATOM     86  F   UNL A   1      42.655  26.670  35.519  1.00  0.00    -0.203 F 
ATOM     87  F   UNL A   1      47.700  28.646  34.865  1.00  0.00    -0.200 F 
ATOM     88  C   UNL A   1      46.252  27.015  35.769  1.00  0.00     0.200 A 
ATOM     89  F   UNL A   1      44.765  25.401  36.643  1.00  0.00    -0.200 F 
ATOM     90  F   UNL A   1      47.292  26.373  36.317  1.00  0.00    -0.200 F 
ENDBRANCH  57  80
ENDBRANCH  31  32
ENDBRANCH  23  26
ENDBRANCH  21  22
ENDBRANCH  20  21
ENDBRANCH  19  20
ENDBRANCH   1  19
TORSDOF 15
ENDMDL
MODEL 2
REMARK VINA RESULT:     -11.7      0.453      2.046
REMARK SMILES O=C(Cc1ccc(=O)n(C(F)F)c1)NCCCCCCNC(=O)c1ccc(-c2c3nc(c(-c4c(F)c(F)c(F)c(F)c4F)c4ccc([nH]4)c(-c4c(F)c(F)c(F)c(F)c4F)c4nc(c(-c5c(F)c(F)c(F)c(F)c5F)c5ccc2[nH]5)C=C4)C=C3)cc1
REMARK SMILES IDX 17 1 16 2 15 3 14 4 1 5 2 6 3 8 4 9 5 10 13 11 6 12 9 13
REMARK SMILES IDX 7 14 8 15 10 16 11 17 12 18 18 19 19 20 20 21 21 22 22 23
REMARK SMILES IDX 23 25 24 26 25 27 86 28 26 29 85 30 27 31 28 32 29 33 79 34
REMARK SMILES IDX 30 35 84 36 78 37 80 38 31 39 83 40 77 41 76 42 32 44 64 45
REMARK SMILES IDX 44 46 63 47 45 48 48 49 62 50 81 51 46 52 47 53 61 55 82 56
REMARK SMILES IDX 49 57 33 58 34 59 42 60 35 61 36 62 40 63 43 64 37 65 38 66
REMARK SMILES IDX 41 67 39 68 65 69 66 70 74 71 67 72 68 73 72 74 75 75 69 76
REMARK SMILES IDX 70 77 73 78 71 79 50 80 51 81 59 82 52 83 53 84 57 85 60 86
REMARK SMILES IDX 54 87 55 88 58 89 56 90
REMARK H PARENT 14 7 21 24 80 43 48 54
REMARK Flexibility Score: inf
ROOT
ATOM      1  C   UNL A   1      31.828  28.899  26.760  1.00  0.00     0.002 C 
ENDROOT
BRANCH   1   2
ATOM      2  C   UNL A   1      32.722  27.704  26.400  1.00  0.00     0.021 C 
BRANCH   2   3
ATOM      3  C   UNL A   1      32.431  27.063  25.046  1.00  0.00     0.116 C 
BRANCH   3   4
ATOM      4  N   UNL A   1      31.154  27.475  24.506  1.00  0.00    -0.356 N 
ATOM      5  O   UNL A   1      32.050  28.605  22.720  1.00  0.00    -0.275 OA
ATOM      6  C   UNL A   1      31.068  28.201  23.336  1.00  0.00     0.224 C 
ATOM      7  H   UNL A   1      30.328  27.232  24.984  1.00  0.00     0.163 HD
BRANCH   6   8
ATOM      8  C   UNL A   1      29.642  28.391  22.835  1.00  0.00     0.137 C 
BRANCH   8   9
ATOM      9  C   UNL A   1      29.303  29.858  22.725  1.00  0.00    -0.022 A 
ATOM     10  C   UNL A   1      29.483  30.686  23.901  1.00  0.00     0.011 A 
ATOM     11  C   UNL A   1      28.837  30.435  21.601  1.00  0.00     0.099 A 
ATOM     12  C   UNL A   1      29.185  31.991  23.877  1.00  0.00     0.072 A 
ATOM     13  N   UNL A   1      28.532  31.784  21.546  1.00  0.00    -0.258 N 
ATOM     14  C   UNL A   1      28.661  32.626  22.638  1.00  0.00     0.254 A 
ATOM     15  O   UNL A   1      28.381  33.820  22.660  1.00  0.00    -0.269 OA
BRANCH  13  16
ATOM     16  C   UNL A   1      28.035  32.368  20.327  1.00  0.00     0.451 C 
ATOM     17  F   UNL A   1      27.552  31.414  19.493  1.00  0.00    -0.185 F 
ATOM     18  F   UNL A   1      27.042  33.257  20.570  1.00  0.00    -0.185 F 
ENDBRANCH  13  16
ENDBRANCH   8   9
ENDBRANCH   6   8
ENDBRANCH   3   4
ENDBRANCH   2   3
ENDBRANCH   1   2
BRANCH   1  19
ATOM     19  C   UNL A   1      32.194  30.231  26.100  1.00  0.00     0.002 C 
BRANCH  19  20
ATOM     20  C   UNL A   1      31.793  31.486  26.877  1.00  0.00     0.021 C 
BRANCH  20  21
ATOM     21  C   UNL A   1      32.942  32.406  27.277  1.00  0.00     0.116 C 
BRANCH  21  22
ATOM     22  N   UNL A   1      32.521  33.762  27.601  1.00  0.00    -0.352 N 
ATOM     23  C   UNL A   1      33.054  34.628  28.531  1.00  0.00     0.251 C 
ATOM     24  H   UNL A   1      31.754  34.105  27.088  1.00  0.00     0.163 HD
ATOM     25  O   UNL A   1      32.524  35.712  28.750  1.00  0.00    -0.269 OA
BRANCH  23  26
ATOM     26  C   UNL A   1      34.246  34.215  29.304  1.00  0.00     0.039 A 
ATOM     27  C   UNL A   1      35.531  34.481  28.826  1.00  0.00     0.014 A 
ATOM     28  C   UNL A   1      34.072  33.497  30.491  1.00  0.00     0.014 A 
ATOM     29  C   UNL A   1      36.627  33.874  29.430  1.00  0.00     0.010 A 
ATOM     30  C   UNL A   1      35.185  32.954  31.141  1.00  0.00     0.010 A 
ATOM     31  C   UNL A   1      36.464  33.084  30.580  1.00  0.00    -0.014 A 
BRANCH  31  32
ATOM     32  C   UNL A   1      37.639  32.371  31.146  1.00  0.00     0.031 A 
ATOM     33  C   UNL A   1      38.089  32.638  32.558  1.00  0.00     0.074 A 
ATOM     34  C   UNL A   1      38.256  31.423  30.414  1.00  0.00     0.049 A 
ATOM     35  N   UNL A   1      39.067  32.084  33.233  1.00  0.00    -0.248 NA
ATOM     36  C   UNL A   1      37.348  33.659  33.316  1.00  0.00     0.031 C 
ATOM     37  C   UNL A   1      37.903  31.059  29.042  1.00  0.00     0.029 A 
ATOM     38  N   UNL A   1      39.286  30.574  30.730  1.00  0.00    -0.354 N 
ATOM     39  C   UNL A   1      39.067  32.697  34.479  1.00  0.00     0.074 A 
ATOM     40  C   UNL A   1      38.013  33.687  34.463  1.00  0.00     0.031 C 
ATOM     41  C   UNL A   1      38.663  30.025  28.653  1.00  0.00     0.029 A 
ATOM     42  C   UNL A   1      39.595  29.689  29.727  1.00  0.00     0.049 A 
ATOM     43  H   UNL A   1      39.759  30.596  31.594  1.00  0.00     0.167 HD
ATOM     44  C   UNL A   1      39.863  32.446  35.547  1.00  0.00     0.037 A 
ATOM     45  C   UNL A   1      40.527  28.720  29.672  1.00  0.00     0.037 A 
ATOM     46  C   UNL A   1      40.891  31.439  35.577  1.00  0.00     0.049 A 
ATOM     47  C   UNL A   1      41.426  28.494  30.855  1.00  0.00     0.074 A 
ATOM     48  C   UNL A   1      41.727  31.094  36.625  1.00  0.00     0.029 A 
ATOM     49  N   UNL A   1      41.219  30.613  34.514  1.00  0.00    -0.354 N 
ATOM     50  N   UNL A   1      41.412  29.079  32.026  1.00  0.00    -0.248 NA
ATOM     51  C   UNL A   1      42.481  27.482  30.700  1.00  0.00     0.031 C 
ATOM     52  C   UNL A   1      42.588  30.084  36.183  1.00  0.00     0.029 A 
ATOM     53  C   UNL A   1      42.262  29.773  34.873  1.00  0.00     0.049 A 
ATOM     54  H   UNL A   1      40.778  30.621  33.634  1.00  0.00     0.167 HD
ATOM     55  C   UNL A   1      42.448  28.508  32.751  1.00  0.00     0.074 A 
ATOM     56  C   UNL A   1      43.056  27.510  31.895  1.00  0.00     0.031 C 
ATOM     57  C   UNL A   1      42.862  28.791  34.008  1.00  0.00     0.037 A 
BRANCH  44  58
ATOM     58  C   UNL A   1      39.659  33.270  36.783  1.00  0.00     0.064 A 
ATOM     59  C   UNL A   1      38.757  32.880  37.784  1.00  0.00     0.173 A 
ATOM     60  C   UNL A   1      40.428  34.423  37.004  1.00  0.00     0.173 A 
ATOM     61  F   UNL A   1      37.992  31.792  37.616  1.00  0.00    -0.203 F 
ATOM     62  C   UNL A   1      38.625  33.622  38.956  1.00  0.00     0.198 A 
ATOM     63  C   UNL A   1      40.309  35.149  38.187  1.00  0.00     0.198 A 
ATOM     64  F   UNL A   1      41.309  34.835  36.080  1.00  0.00    -0.203 F 
ATOM     65  F   UNL A   1      37.737  33.245  39.887  1.00  0.00    -0.200 F 
ATOM     66  C   UNL A   1      39.406  34.749  39.160  1.00  0.00     0.200 A 
ATOM     67  F   UNL A   1      41.073  36.231  38.387  1.00  0.00    -0.200 F 
ATOM     68  F   UNL A   1      39.287  35.452  40.294  1.00  0.00    -0.200 F 
ENDBRANCH  44  58
BRANCH  45  69
ATOM     69  C   UNL A   1      40.649  27.886  28.449  1.00  0.00     0.064 A 
ATOM     70  C   UNL A   1      41.420  28.315  27.361  1.00  0.00     0.173 A 
ATOM     71  C   UNL A   1      40.018  26.638  28.353  1.00  0.00     0.173 A 
ATOM     72  F   UNL A   1      42.023  29.512  27.399  1.00  0.00    -0.203 F 
ATOM     73  C   UNL A   1      41.553  27.527  26.221  1.00  0.00     0.198 A 
ATOM     74  C   UNL A   1      40.173  25.839  27.224  1.00  0.00     0.198 A 
ATOM     75  F   UNL A   1      39.270  26.183  29.370  1.00  0.00    -0.203 F 
ATOM     76  F   UNL A   1      42.274  27.971  25.182  1.00  0.00    -0.200 F 
ATOM     77  C   UNL A   1      40.938  26.285  26.156  1.00  0.00     0.200 A 
ATOM     78  F   UNL A   1      39.589  24.634  27.172  1.00  0.00    -0.200 F 
ATOM     79  F   UNL A   1      41.078  25.522  25.065  1.00  0.00    -0.200 F 
ENDBRANCH  45  69
BRANCH  57  80
ATOM     80  C   UNL A   1      44.030  28.018  34.542  1.00  0.00     0.064 A 
ATOM     81  C   UNL A   1      43.862  26.747  35.107  1.00  0.00     0.173 A 
ATOM     82  C   UNL A   1      45.335  28.522  34.425  1.00  0.00     0.173 A 
ATOM     83  F   UNL A   1      42.633  26.229  35.252  1.00  0.00    -0.203 F 
ATOM     84  C   UNL A   1      44.958  26.010  35.549  1.00  0.00     0.198 A 
ATOM     85  C   UNL A   1      46.429  27.773  34.847  1.00  0.00     0.198 A 
ATOM     86  F   UNL A   1      45.547  29.731  33.885  1.00  0.00    -0.203 F 
ATOM     87  F   UNL A   1      44.772  24.810  36.115  1.00  0.00    -0.200 F 
ATOM     88  C   UNL A   1      46.241  26.520  35.411  1.00  0.00     0.200 A 
ATOM     89  F   UNL A   1      47.669  28.262  34.701  1.00  0.00    -0.200 F 
ATOM     90  F   UNL A   1      47.295  25.805  35.825  1.00  0.00    -0.200 F 
ENDBRANCH  57  80
ENDBRANCH  31  32
ENDBRANCH  23  26
ENDBRANCH  21  22
ENDBRANCH  20  21
ENDBRANCH  19  20
ENDBRANCH   1  19
TORSDOF 15
ENDMDL
MODEL 3
REMARK VINA RESULT:     -11.5      1.349      7.778
REMARK SMILES O=C(Cc1ccc(=O)n(C(F)F)c1)NCCCCCCNC(=O)c1ccc(-c2c3nc(c(-c4c(F)c(F)c(F)c(F)c4F)c4ccc([nH]4)c(-c4c(F)c(F)c(F)c(F)c4F)c4nc(c(-c5c(F)c(F)c(F)c(F)c5F)c5ccc2[nH]5)C=C4)C=C3)cc1
REMARK SMILES IDX 17 1 16 2 15 3 14 4 1 5 2 6 3 8 4 9 5 10 13 11 6 12 9 13
REMARK SMILES IDX 7 14 8 15 10 16 11 17 12 18 18 19 19 20 20 21 21 22 22 23
REMARK SMILES IDX 23 25 24 26 25 27 86 28 26 29 85 30 27 31 28 32 29 33 79 34
REMARK SMILES IDX 30 35 84 36 78 37 80 38 31 39 83 40 77 41 76 42 32 44 64 45
REMARK SMILES IDX 44 46 63 47 45 48 48 49 62 50 81 51 46 52 47 53 61 55 82 56
REMARK SMILES IDX 49 57 33 58 34 59 42 60 35 61 36 62 40 63 43 64 37 65 38 66
REMARK SMILES IDX 41 67 39 68 65 69 66 70 74 71 67 72 68 73 72 74 75 75 69 76
REMARK SMILES IDX 70 77 73 78 71 79 50 80 51 81 59 82 52 83 53 84 57 85 60 86
REMARK SMILES IDX 54 87 55 88 58 89 56 90
REMARK H PARENT 14 7 21 24 80 43 48 54
REMARK Flexibility Score: inf
ROOT
ATOM      1  C   UNL A   1      33.359  29.938  27.104  1.00  0.00     0.002 C 
ENDROOT
BRANCH   1   2
ATOM      2  C   UNL A   1      33.581  28.426  26.956  1.00  0.00     0.021 C 
BRANCH   2   3
ATOM      3  C   UNL A   1      32.314  27.577  27.011  1.00  0.00     0.116 C 
BRANCH   3   4
ATOM      4  N   UNL A   1      31.920  27.093  25.705  1.00  0.00    -0.356 N 
ATOM      5  O   UNL A   1      30.453  25.523  26.511  1.00  0.00    -0.275 OA
ATOM      6  C   UNL A   1      30.969  26.104  25.562  1.00  0.00     0.224 C 
ATOM      7  H   UNL A   1      32.340  27.479  24.902  1.00  0.00     0.163 HD
BRANCH   6   8
ATOM      8  C   UNL A   1      30.561  25.851  24.116  1.00  0.00     0.137 C 
BRANCH   8   9
ATOM      9  C   UNL A   1      30.158  27.139  23.439  1.00  0.00    -0.022 A 
ATOM     10  C   UNL A   1      31.163  27.843  22.668  1.00  0.00     0.011 A 
ATOM     11  C   UNL A   1      28.924  27.671  23.519  1.00  0.00     0.099 A 
ATOM     12  C   UNL A   1      30.878  28.998  22.055  1.00  0.00     0.072 A 
ATOM     13  N   UNL A   1      28.599  28.859  22.888  1.00  0.00    -0.258 N 
ATOM     14  C   UNL A   1      29.516  29.591  22.152  1.00  0.00     0.254 A 
ATOM     15  O   UNL A   1      29.298  30.661  21.594  1.00  0.00    -0.269 OA
BRANCH  13  16
ATOM     16  C   UNL A   1      27.268  29.400  22.995  1.00  0.00     0.451 C 
ATOM     17  F   UNL A   1      26.398  28.462  23.442  1.00  0.00    -0.185 F 
ATOM     18  F   UNL A   1      27.227  30.454  23.846  1.00  0.00    -0.185 F 
ENDBRANCH  13  16
ENDBRANCH   8   9
ENDBRANCH   6   8
ENDBRANCH   3   4
ENDBRANCH   2   3
ENDBRANCH   1   2
BRANCH   1  19
ATOM     19  C   UNL A   1      32.093  30.496  26.448  1.00  0.00     0.002 C 
BRANCH  19  20
ATOM     20  C   UNL A   1      31.711  31.920  26.853  1.00  0.00     0.021 C 
BRANCH  20  21
ATOM     21  C   UNL A   1      32.840  32.763  27.438  1.00  0.00     0.116 C 
BRANCH  21  22
ATOM     22  N   UNL A   1      32.472  34.151  27.676  1.00  0.00    -0.352 N 
ATOM     23  C   UNL A   1      33.010  35.039  28.582  1.00  0.00     0.251 C 
ATOM     24  H   UNL A   1      31.742  34.501  27.116  1.00  0.00     0.163 HD
ATOM     25  O   UNL A   1      32.525  36.157  28.725  1.00  0.00    -0.269 OA
BRANCH  23  26
ATOM     26  C   UNL A   1      34.151  34.614  29.422  1.00  0.00     0.039 A 
ATOM     27  C   UNL A   1      35.443  34.562  28.894  1.00  0.00     0.014 A 
ATOM     28  C   UNL A   1      33.912  34.201  30.736  1.00  0.00     0.014 A 
ATOM     29  C   UNL A   1      36.452  33.929  29.611  1.00  0.00     0.010 A 
ATOM     30  C   UNL A   1      34.950  33.636  31.485  1.00  0.00     0.010 A 
ATOM     31  C   UNL A   1      36.212  33.437  30.905  1.00  0.00    -0.014 A 
BRANCH  31  32
ATOM     32  C   UNL A   1      37.281  32.681  31.607  1.00  0.00     0.031 A 
ATOM     33  C   UNL A   1      38.019  31.570  30.906  1.00  0.00     0.074 A 
ATOM     34  C   UNL A   1      37.644  33.045  32.852  1.00  0.00     0.049 A 
ATOM     35  N   UNL A   1      39.006  30.827  31.345  1.00  0.00    -0.248 NA
ATOM     36  C   UNL A   1      37.597  31.248  29.533  1.00  0.00     0.031 C 
ATOM     37  C   UNL A   1      37.021  34.115  33.629  1.00  0.00     0.029 A 
ATOM     38  N   UNL A   1      38.644  32.578  33.668  1.00  0.00    -0.354 N 
ATOM     39  C   UNL A   1      39.309  29.946  30.314  1.00  0.00     0.074 A 
ATOM     40  C   UNL A   1      38.384  30.223  29.236  1.00  0.00     0.031 C 
ATOM     41  C   UNL A   1      37.685  34.262  34.786  1.00  0.00     0.029 A 
ATOM     42  C   UNL A   1      38.745  33.259  34.855  1.00  0.00     0.049 A 
ATOM     43  H   UNL A   1      39.231  31.825  33.426  1.00  0.00     0.167 HD
ATOM     44  C   UNL A   1      40.280  29.003  30.264  1.00  0.00     0.037 A 
ATOM     45  C   UNL A   1      39.592  33.094  35.888  1.00  0.00     0.037 A 
ATOM     46  C   UNL A   1      41.222  28.748  31.322  1.00  0.00     0.049 A 
ATOM     47  C   UNL A   1      40.630  32.010  35.824  1.00  0.00     0.074 A 
ATOM     48  C   UNL A   1      42.260  27.832  31.349  1.00  0.00     0.029 A 
ATOM     49  N   UNL A   1      41.244  29.413  32.538  1.00  0.00    -0.354 N 
ATOM     50  N   UNL A   1      40.906  31.188  34.844  1.00  0.00    -0.248 NA
ATOM     51  C   UNL A   1      41.465  31.822  37.020  1.00  0.00     0.031 C 
ATOM     52  C   UNL A   1      42.886  27.917  32.596  1.00  0.00     0.029 A 
ATOM     53  C   UNL A   1      42.264  28.912  33.332  1.00  0.00     0.049 A 
ATOM     54  H   UNL A   1      40.627  30.134  32.800  1.00  0.00     0.167 HD
ATOM     55  C   UNL A   1      41.946  30.388  35.296  1.00  0.00     0.074 A 
ATOM     56  C   UNL A   1      42.269  30.841  36.634  1.00  0.00     0.031 C 
ATOM     57  C   UNL A   1      42.569  29.367  34.663  1.00  0.00     0.037 A 
BRANCH  44  58
ATOM     58  C   UNL A   1      40.385  28.169  29.022  1.00  0.00     0.064 A 
ATOM     59  C   UNL A   1      39.684  26.961  28.889  1.00  0.00     0.173 A 
ATOM     60  C   UNL A   1      41.135  28.618  27.924  1.00  0.00     0.173 A 
ATOM     61  F   UNL A   1      38.961  26.484  29.914  1.00  0.00    -0.203 F 
ATOM     62  C   UNL A   1      39.740  26.228  27.707  1.00  0.00     0.198 A 
ATOM     63  C   UNL A   1      41.170  27.893  26.736  1.00  0.00     0.198 A 
ATOM     64  F   UNL A   1      41.818  29.769  27.999  1.00  0.00    -0.203 F 
ATOM     65  F   UNL A   1      39.083  25.064  27.611  1.00  0.00    -0.200 F 
ATOM     66  C   UNL A   1      40.475  26.699  26.629  1.00  0.00     0.200 A 
ATOM     67  F   UNL A   1      41.871  28.356  25.691  1.00  0.00    -0.200 F 
ATOM     68  F   UNL A   1      40.515  25.999  25.486  1.00  0.00    -0.200 F 
ENDBRANCH  44  58
BRANCH  45  69
ATOM     69  C   UNL A   1      39.490  33.987  37.071  1.00  0.00     0.064 A 
ATOM     70  C   UNL A   1      40.106  35.244  37.077  1.00  0.00     0.173 A 
ATOM     71  C   UNL A   1      38.757  33.611  38.206  1.00  0.00     0.173 A 
ATOM     72  F   UNL A   1      40.836  35.637  36.022  1.00  0.00    -0.203 F 
ATOM     73  C   UNL A   1      39.995  36.093  38.176  1.00  0.00     0.198 A 
ATOM     74  C   UNL A   1      38.624  34.470  39.293  1.00  0.00     0.198 A 
ATOM     75  F   UNL A   1      38.148  32.416  38.247  1.00  0.00    -0.203 F 
ATOM     76  F   UNL A   1      40.616  37.280  38.168  1.00  0.00    -0.200 F 
ATOM     77  C   UNL A   1      39.247  35.710  39.279  1.00  0.00     0.200 A 
ATOM     78  F   UNL A   1      37.889  34.102  40.351  1.00  0.00    -0.200 F 
ATOM     79  F   UNL A   1      39.129  36.532  40.330  1.00  0.00    -0.200 F 
ENDBRANCH  45  69
BRANCH  57  80
ATOM     80  C   UNL A   1      43.664  28.660  35.404  1.00  0.00     0.064 A 
ATOM     81  C   UNL A   1      43.386  27.580  36.253  1.00  0.00     0.173 A 
ATOM     82  C   UNL A   1      45.006  29.021  35.212  1.00  0.00     0.173 A 
ATOM     83  F   UNL A   1      42.117  27.208  36.479  1.00  0.00    -0.203 F 
ATOM     84  C   UNL A   1      44.413  26.893  36.895  1.00  0.00     0.198 A 
ATOM     85  C   UNL A   1      46.031  28.317  35.837  1.00  0.00     0.198 A 
ATOM     86  F   UNL A   1      45.323  30.043  34.404  1.00  0.00    -0.203 F 
ATOM     87  F   UNL A   1      44.123  25.883  37.727  1.00  0.00    -0.200 F 
ATOM     88  C   UNL A   1      45.735  27.256  36.679  1.00  0.00     0.200 A 
ATOM     89  F   UNL A   1      47.309  28.661  35.617  1.00  0.00    -0.200 F 
ATOM     90  F   UNL A   1      46.722  26.585  37.287  1.00  0.00    -0.200 F 
ENDBRANCH  57  80
ENDBRANCH  31  32
ENDBRANCH  23  26
ENDBRANCH  21  22
ENDBRANCH  20  21
ENDBRANCH  19  20
ENDBRANCH   1  19
TORSDOF 15
ENDMDL
