MODEL 1
REMARK VINA RESULT:      -9.5      0.000      0.000
REMARK SMILES C[C@@H]([NH3+])CCC(=O)N[C@H]1C=C[C@@H](C(=O)NCCCCCCNC(=O)c2ccc(-c3c4nc(c(-c5c(F)c(F)c(F)c(F)c5F)c5ccc([nH]5)c(-c5c(F)c(F)c(F)c(F)c5F)c5nc(c(-c6c(F)c(F)c(F)c(F)c6F)c6ccc3[nH]6)C=C5)C=C4)cc2)C1
REMARK SMILES IDX 17 1 16 2 15 3 13 4 14 5 12 7 9 8 10 9 88 10 11 11 8 12 6 13
REMARK SMILES IDX 7 14 5 16 4 17 2 18 1 19 3 20 18 24 19 25 20 26 21 27 22 28
REMARK SMILES IDX 23 29 24 31 25 32 26 33 87 34 27 35 86 36 28 37 29 38 30 39
REMARK SMILES IDX 80 40 31 41 85 42 79 43 81 44 32 45 84 46 78 47 77 48 33 50
REMARK SMILES IDX 65 51 45 52 64 53 46 54 49 55 63 56 82 57 47 58 48 59 62 61
REMARK SMILES IDX 83 62 50 63 34 64 35 65 43 66 36 67 37 68 41 69 44 70 38 71
REMARK SMILES IDX 39 72 42 73 40 74 66 75 67 76 75 77 68 78 69 79 73 80 76 81
REMARK SMILES IDX 70 82 71 83 74 84 72 85 51 86 52 87 60 88 53 89 54 90 58 91
REMARK SMILES IDX 61 92 55 93 56 94 59 95 57 96
REMARK H PARENT 15 6 8 15 3 21 3 22 3 23 22 30 81 49 49 60
REMARK Flexibility Score: inf
ROOT
ATOM      1  C   UNL A   1      32.734  36.524  30.542  1.00  0.00     0.021 C 
ENDROOT
BRANCH   1   2
ATOM      2  C   UNL A   1      33.734  36.074  31.601  1.00  0.00     0.116 C 
BRANCH   2   3
ATOM      3  N   UNL A   1      33.221  34.956  32.365  1.00  0.00    -0.356 N 
ATOM      4  C   UNL A   1      33.829  33.795  32.733  1.00  0.00     0.227 C 
ATOM      5  O   UNL A   1      33.174  32.979  33.386  1.00  0.00    -0.274 OA
ATOM      6  H   UNL A   1      32.288  35.050  32.665  1.00  0.00     0.163 HD
BRANCH   4   7
ATOM      7  C   UNL A   1      35.282  33.512  32.373  1.00  0.00     0.103 C 
ATOM      8  C   UNL A   1      37.173  32.363  33.367  1.00  0.00     0.106 C 
ATOM      9  C   UNL A   1      36.478  31.488  32.380  1.00  0.00    -0.006 C 
ATOM     10  C   UNL A   1      36.247  33.562  33.563  1.00  0.00     0.047 C 
ATOM     11  C   UNL A   1      35.462  32.133  31.799  1.00  0.00    -0.016 C 
BRANCH   8  12
ATOM     12  N   UNL A   1      37.500  31.617  34.553  1.00  0.00    -0.350 N 
ATOM     13  C   UNL A   1      38.504  30.717  34.750  1.00  0.00     0.220 C 
ATOM     14  O   UNL A   1      38.530  30.099  35.816  1.00  0.00    -0.275 OA
ATOM     15  H   UNL A   1      36.918  31.780  35.329  1.00  0.00     0.164 HD
BRANCH  13  16
ATOM     16  C   UNL A   1      39.584  30.516  33.701  1.00  0.00     0.106 C 
BRANCH  16  17
ATOM     17  C   UNL A   1      40.692  29.517  34.074  1.00  0.00     0.074 C 
BRANCH  17  18
ATOM     18  C   UNL A   1      40.718  28.206  33.272  1.00  0.00     0.178 C 
ATOM     19  C   UNL A   1      39.450  27.980  32.438  1.00  0.00     0.075 C 
BRANCH  18  20
ATOM     20  N   UNL A   1      41.862  28.154  32.363  1.00  0.00    -0.355 N 
ATOM     21  H   UNL A   1      41.704  28.792  31.583  1.00  0.00     0.344 HD
ATOM     22  H   UNL A   1      41.973  27.204  32.009  1.00  0.00     0.344 HD
ATOM     23  H   UNL A   1      42.707  28.431  32.864  1.00  0.00     0.344 HD
ENDBRANCH  18  20
ENDBRANCH  17  18
ENDBRANCH  16  17
ENDBRANCH  13  16
ENDBRANCH   8  12
ENDBRANCH   4   7
ENDBRANCH   2   3
ENDBRANCH   1   2
BRANCH   1  24
ATOM     24  C   UNL A   1      33.254  36.339  29.117  1.00  0.00     0.002 C 
BRANCH  24  25
ATOM     25  C   UNL A   1      34.216  35.158  28.954  1.00  0.00     0.002 C 
BRANCH  25  26
ATOM     26  C   UNL A   1      33.582  33.905  28.344  1.00  0.00     0.021 C 
BRANCH  26  27
ATOM     27  C   UNL A   1      34.435  32.652  28.490  1.00  0.00     0.116 C 
BRANCH  27  28
ATOM     28  N   UNL A   1      33.690  31.461  28.116  1.00  0.00    -0.352 N 
ATOM     29  C   UNL A   1      34.160  30.221  27.776  1.00  0.00     0.251 C 
ATOM     30  H   UNL A   1      32.711  31.560  28.108  1.00  0.00     0.163 HD
ATOM     31  O   UNL A   1      33.429  29.405  27.231  1.00  0.00    -0.269 OA
BRANCH  29  32
ATOM     32  C   UNL A   1      35.566  29.881  28.069  1.00  0.00     0.039 A 
ATOM     33  C   UNL A   1      36.530  30.075  27.080  1.00  0.00     0.014 A 
ATOM     34  C   UNL A   1      35.924  29.368  29.320  1.00  0.00     0.014 A 
ATOM     35  C   UNL A   1      37.867  29.797  27.362  1.00  0.00     0.010 A 
ATOM     36  C   UNL A   1      37.264  29.168  29.626  1.00  0.00     0.010 A 
ATOM     37  C   UNL A   1      38.246  29.369  28.645  1.00  0.00    -0.014 A 
BRANCH  37  38
ATOM     38  C   UNL A   1      39.670  29.119  28.978  1.00  0.00     0.031 A 
ATOM     39  C   UNL A   1      40.464  30.159  29.718  1.00  0.00     0.074 A 
ATOM     40  C   UNL A   1      40.258  27.983  28.561  1.00  0.00     0.049 A 
ATOM     41  N   UNL A   1      41.729  30.153  30.050  1.00  0.00    -0.248 NA
ATOM     42  C   UNL A   1      39.746  31.381  30.115  1.00  0.00     0.031 C 
ATOM     43  C   UNL A   1      39.601  26.922  27.795  1.00  0.00     0.029 A 
ATOM     44  N   UNL A   1      41.546  27.532  28.715  1.00  0.00    -0.354 N 
ATOM     45  C   UNL A   1      41.960  31.368  30.681  1.00  0.00     0.074 A 
ATOM     46  C   UNL A   1      40.722  32.112  30.633  1.00  0.00     0.031 C 
ATOM     47  C   UNL A   1      40.481  25.935  27.567  1.00  0.00     0.029 A 
ATOM     48  C   UNL A   1      41.774  26.310  28.131  1.00  0.00     0.049 A 
ATOM     49  H   UNL A   1      42.240  28.038  29.197  1.00  0.00     0.167 HD
ATOM     50  C   UNL A   1      43.096  31.811  31.268  1.00  0.00     0.037 A 
ATOM     51  C   UNL A   1      42.903  25.581  28.053  1.00  0.00     0.037 A 
ATOM     52  C   UNL A   1      44.321  31.057  31.325  1.00  0.00     0.049 A 
ATOM     53  C   UNL A   1      44.158  26.106  28.698  1.00  0.00     0.074 A 
ATOM     54  C   UNL A   1      45.512  31.391  31.944  1.00  0.00     0.029 A 
ATOM     55  N   UNL A   1      44.513  29.817  30.731  1.00  0.00    -0.354 N 
ATOM     56  N   UNL A   1      44.346  27.224  29.357  1.00  0.00    -0.248 NA
ATOM     57  C   UNL A   1      45.356  25.263  28.594  1.00  0.00     0.031 C 
ATOM     58  C   UNL A   1      46.442  30.382  31.675  1.00  0.00     0.029 A 
ATOM     59  C   UNL A   1      45.812  29.387  30.947  1.00  0.00     0.049 A 
ATOM     60  H   UNL A   1      43.827  29.318  30.231  1.00  0.00     0.167 HD
ATOM     61  C   UNL A   1      45.669  27.204  29.773  1.00  0.00     0.074 A 
ATOM     62  C   UNL A   1      46.234  25.956  29.306  1.00  0.00     0.031 C 
ATOM     63  C   UNL A   1      46.356  28.134  30.482  1.00  0.00     0.037 A 
BRANCH  50  64
ATOM     64  C   UNL A   1      43.070  33.177  31.895  1.00  0.00     0.064 A 
ATOM     65  C   UNL A   1      42.741  33.363  33.246  1.00  0.00     0.173 A 
ATOM     66  C   UNL A   1      43.412  34.312  31.144  1.00  0.00     0.173 A 
ATOM     67  F   UNL A   1      42.396  32.313  34.008  1.00  0.00    -0.203 F 
ATOM     68  C   UNL A   1      42.725  34.635  33.813  1.00  0.00     0.198 A 
ATOM     69  C   UNL A   1      43.430  35.578  31.722  1.00  0.00     0.198 A 
ATOM     70  F   UNL A   1      43.741  34.193  29.848  1.00  0.00    -0.203 F 
ATOM     71  F   UNL A   1      42.356  34.792  35.092  1.00  0.00    -0.200 F 
ATOM     72  C   UNL A   1      43.078  35.739  33.054  1.00  0.00     0.200 A 
ATOM     73  F   UNL A   1      43.786  36.643  30.992  1.00  0.00    -0.200 F 
ATOM     74  F   UNL A   1      43.072  36.961  33.603  1.00  0.00    -0.200 F 
ENDBRANCH  50  64
BRANCH  51  75
ATOM     75  C   UNL A   1      42.893  24.269  27.354  1.00  0.00     0.064 A 
ATOM     76  C   UNL A   1      43.202  24.176  25.989  1.00  0.00     0.173 A 
ATOM     77  C   UNL A   1      42.569  23.084  28.030  1.00  0.00     0.173 A 
ATOM     78  F   UNL A   1      43.502  25.283  25.294  1.00  0.00    -0.203 F 
ATOM     79  C   UNL A   1      43.161  22.953  25.323  1.00  0.00     0.198 A 
ATOM     80  C   UNL A   1      42.561  21.857  27.370  1.00  0.00     0.198 A 
ATOM     81  F   UNL A   1      42.273  23.115  29.338  1.00  0.00    -0.203 F 
ATOM     82  F   UNL A   1      43.411  22.901  24.008  1.00  0.00    -0.200 F 
ATOM     83  C   UNL A   1      42.846  21.794  26.016  1.00  0.00     0.200 A 
ATOM     84  F   UNL A   1      42.273  20.737  28.047  1.00  0.00    -0.200 F 
ATOM     85  F   UNL A   1      42.811  20.618  25.375  1.00  0.00    -0.200 F 
ENDBRANCH  51  75
BRANCH  63  86
ATOM     86  C   UNL A   1      47.781  27.821  30.835  1.00  0.00     0.064 A 
ATOM     87  C   UNL A   1      48.119  27.112  31.997  1.00  0.00     0.173 A 
ATOM     88  C   UNL A   1      48.822  28.201  29.973  1.00  0.00     0.173 A 
ATOM     89  F   UNL A   1      47.163  26.739  32.862  1.00  0.00    -0.203 F 
ATOM     90  C   UNL A   1      49.447  26.820  32.298  1.00  0.00     0.198 A 
ATOM     91  C   UNL A   1      50.145  27.876  30.258  1.00  0.00     0.198 A 
ATOM     92  F   UNL A   1      48.554  28.873  28.843  1.00  0.00    -0.203 F 
ATOM     93  F   UNL A   1      49.750  26.189  33.440  1.00  0.00    -0.200 F 
ATOM     94  C   UNL A   1      50.458  27.194  31.424  1.00  0.00     0.200 A 
ATOM     95  F   UNL A   1      51.118  28.223  29.403  1.00  0.00    -0.200 F 
ATOM     96  F   UNL A   1      51.734  26.903  31.709  1.00  0.00    -0.200 F 
ENDBRANCH  63  86
ENDBRANCH  37  38
ENDBRANCH  29  32
ENDBRANCH  27  28
ENDBRANCH  26  27
ENDBRANCH  25  26
ENDBRANCH  24  25
ENDBRANCH   1  24
TORSDOF 18
ENDMDL
MODEL 2
REMARK VINA RESULT:      -9.5      3.968      7.718
REMARK SMILES C[C@@H]([NH3+])CCC(=O)N[C@H]1C=C[C@@H](C(=O)NCCCCCCNC(=O)c2ccc(-c3c4nc(c(-c5c(F)c(F)c(F)c(F)c5F)c5ccc([nH]5)c(-c5c(F)c(F)c(F)c(F)c5F)c5nc(c(-c6c(F)c(F)c(F)c(F)c6F)c6ccc3[nH]6)C=C5)C=C4)cc2)C1
REMARK SMILES IDX 17 1 16 2 15 3 13 4 14 5 12 7 9 8 10 9 88 10 11 11 8 12 6 13
REMARK SMILES IDX 7 14 5 16 4 17 2 18 1 19 3 20 18 24 19 25 20 26 21 27 22 28
REMARK SMILES IDX 23 29 24 31 25 32 26 33 87 34 27 35 86 36 28 37 29 38 30 39
REMARK SMILES IDX 80 40 31 41 85 42 79 43 81 44 32 45 84 46 78 47 77 48 33 50
REMARK SMILES IDX 65 51 45 52 64 53 46 54 49 55 63 56 82 57 47 58 48 59 62 61
REMARK SMILES IDX 83 62 50 63 34 64 35 65 43 66 36 67 37 68 41 69 44 70 38 71
REMARK SMILES IDX 39 72 42 73 40 74 66 75 67 76 75 77 68 78 69 79 73 80 76 81
REMARK SMILES IDX 70 82 71 83 74 84 72 85 51 86 52 87 60 88 53 89 54 90 58 91
REMARK SMILES IDX 61 92 55 93 56 94 59 95 57 96
REMARK H PARENT 15 6 8 15 3 21 3 22 3 23 22 30 81 49 49 60
REMARK Flexibility Score: inf
ROOT
ATOM      1  C   UNL A   1      34.693  32.628  29.386  1.00  0.00     0.021 C 
ENDROOT
BRANCH   1   2
ATOM      2  C   UNL A   1      34.687  31.473  28.392  1.00  0.00     0.116 C 
BRANCH   2   3
ATOM      3  N   UNL A   1      33.547  31.550  27.504  1.00  0.00    -0.356 N 
ATOM      4  C   UNL A   1      32.761  30.559  26.999  1.00  0.00     0.227 C 
ATOM      5  O   UNL A   1      31.840  30.878  26.244  1.00  0.00    -0.274 OA
ATOM      6  H   UNL A   1      33.301  32.461  27.220  1.00  0.00     0.163 HD
BRANCH   4   7
ATOM      7  C   UNL A   1      32.991  29.100  27.368  1.00  0.00     0.103 C 
ATOM      8  C   UNL A   1      32.129  26.934  26.695  1.00  0.00     0.106 C 
ATOM      9  C   UNL A   1      33.410  27.238  25.996  1.00  0.00    -0.006 C 
ATOM     10  C   UNL A   1      31.720  28.242  27.370  1.00  0.00     0.047 C 
ATOM     11  C   UNL A   1      33.910  28.410  26.396  1.00  0.00    -0.016 C 
BRANCH   8  12
ATOM     12  N   UNL A   1      31.177  26.373  25.775  1.00  0.00    -0.350 N 
ATOM     13  C   UNL A   1      30.626  26.934  24.662  1.00  0.00     0.220 C 
ATOM     14  O   UNL A   1      29.732  26.316  24.082  1.00  0.00    -0.275 OA
ATOM     15  H   UNL A   1      30.882  25.456  25.979  1.00  0.00     0.164 HD
BRANCH  13  16
ATOM     16  C   UNL A   1      31.134  28.262  24.130  1.00  0.00     0.106 C 
BRANCH  16  17
ATOM     17  C   UNL A   1      30.047  29.268  23.715  1.00  0.00     0.074 C 
BRANCH  17  18
ATOM     18  C   UNL A   1      29.748  29.358  22.209  1.00  0.00     0.178 C 
ATOM     19  C   UNL A   1      28.403  30.026  21.896  1.00  0.00     0.075 C 
BRANCH  18  20
ATOM     20  N   UNL A   1      30.788  30.101  21.499  1.00  0.00    -0.355 N 
ATOM     21  H   UNL A   1      31.676  29.996  21.989  1.00  0.00     0.344 HD
ATOM     22  H   UNL A   1      30.536  31.088  21.460  1.00  0.00     0.344 HD
ATOM     23  H   UNL A   1      30.878  29.736  20.550  1.00  0.00     0.344 HD
ENDBRANCH  18  20
ENDBRANCH  17  18
ENDBRANCH  16  17
ENDBRANCH  13  16
ENDBRANCH   8  12
ENDBRANCH   4   7
ENDBRANCH   2   3
ENDBRANCH   1   2
BRANCH   1  24
ATOM     24  C   UNL A   1      35.524  33.818  28.910  1.00  0.00     0.002 C 
BRANCH  24  25
ATOM     25  C   UNL A   1      34.710  34.897  28.190  1.00  0.00     0.002 C 
BRANCH  25  26
ATOM     26  C   UNL A   1      33.402  35.276  28.889  1.00  0.00     0.021 C 
BRANCH  26  27
ATOM     27  C   UNL A   1      33.546  36.426  29.877  1.00  0.00     0.116 C 
BRANCH  27  28
ATOM     28  N   UNL A   1      32.530  36.360  30.914  1.00  0.00    -0.352 N 
ATOM     29  C   UNL A   1      32.495  35.580  32.039  1.00  0.00     0.251 C 
ATOM     30  H   UNL A   1      31.759  36.961  30.791  1.00  0.00     0.163 HD
ATOM     31  O   UNL A   1      31.455  35.443  32.670  1.00  0.00    -0.269 OA
BRANCH  29  32
ATOM     32  C   UNL A   1      33.727  34.899  32.479  1.00  0.00     0.039 A 
ATOM     33  C   UNL A   1      33.643  33.595  32.968  1.00  0.00     0.014 A 
ATOM     34  C   UNL A   1      34.961  35.553  32.408  1.00  0.00     0.014 A 
ATOM     35  C   UNL A   1      34.808  32.928  33.346  1.00  0.00     0.010 A 
ATOM     36  C   UNL A   1      36.128  34.860  32.707  1.00  0.00     0.010 A 
ATOM     37  C   UNL A   1      36.060  33.546  33.191  1.00  0.00    -0.014 A 
BRANCH  37  38
ATOM     38  C   UNL A   1      37.313  32.832  33.538  1.00  0.00     0.031 A 
ATOM     39  C   UNL A   1      38.031  33.154  34.819  1.00  0.00     0.074 A 
ATOM     40  C   UNL A   1      37.831  31.942  32.672  1.00  0.00     0.049 A 
ATOM     41  N   UNL A   1      39.165  32.683  35.272  1.00  0.00    -0.248 NA
ATOM     42  C   UNL A   1      37.405  34.156  35.696  1.00  0.00     0.031 C 
ATOM     43  C   UNL A   1      37.248  31.583  31.378  1.00  0.00     0.029 A 
ATOM     44  N   UNL A   1      38.971  31.180  32.745  1.00  0.00    -0.354 N 
ATOM     45  C   UNL A   1      39.392  33.339  36.475  1.00  0.00     0.074 A 
ATOM     46  C   UNL A   1      38.312  34.284  36.653  1.00  0.00     0.031 C 
ATOM     47  C   UNL A   1      38.019  30.656  30.790  1.00  0.00     0.029 A 
ATOM     48  C   UNL A   1      39.172  30.386  31.644  1.00  0.00     0.049 A 
ATOM     49  H   UNL A   1      39.586  31.203  33.514  1.00  0.00     0.167 HD
ATOM     50  C   UNL A   1      40.398  33.152  37.361  1.00  0.00     0.037 A 
ATOM     51  C   UNL A   1      40.180  29.542  31.352  1.00  0.00     0.037 A 
ATOM     52  C   UNL A   1      41.461  32.198  37.183  1.00  0.00     0.049 A 
ATOM     53  C   UNL A   1      41.297  29.367  32.347  1.00  0.00     0.074 A 
ATOM     54  C   UNL A   1      42.498  31.892  38.046  1.00  0.00     0.029 A 
ATOM     55  N   UNL A   1      41.628  31.402  36.059  1.00  0.00    -0.354 N 
ATOM     56  N   UNL A   1      41.463  29.938  33.515  1.00  0.00    -0.248 NA
ATOM     57  C   UNL A   1      42.363  28.423  31.983  1.00  0.00     0.031 C 
ATOM     58  C   UNL A   1      43.324  30.953  37.420  1.00  0.00     0.029 A 
ATOM     59  C   UNL A   1      42.767  30.625  36.195  1.00  0.00     0.049 A 
ATOM     60  H   UNL A   1      41.026  31.392  35.279  1.00  0.00     0.167 HD
ATOM     61  C   UNL A   1      42.630  29.401  34.040  1.00  0.00     0.074 A 
ATOM     62  C   UNL A   1      43.123  28.447  33.069  1.00  0.00     0.031 C 
ATOM     63  C   UNL A   1      43.238  29.671  35.222  1.00  0.00     0.037 A 
BRANCH  50  64
ATOM     64  C   UNL A   1      40.398  33.998  38.603  1.00  0.00     0.064 A 
ATOM     65  C   UNL A   1      39.738  33.593  39.773  1.00  0.00     0.173 A 
ATOM     66  C   UNL A   1      41.099  35.214  38.636  1.00  0.00     0.173 A 
ATOM     67  F   UNL A   1      39.044  32.444  39.794  1.00  0.00    -0.203 F 
ATOM     68  C   UNL A   1      39.752  34.386  40.917  1.00  0.00     0.198 A 
ATOM     69  C   UNL A   1      41.140  35.988  39.793  1.00  0.00     0.198 A 
ATOM     70  F   UNL A   1      41.754  35.648  37.549  1.00  0.00    -0.203 F 
ATOM     71  F   UNL A   1      39.068  34.003  42.005  1.00  0.00    -0.200 F 
ATOM     72  C   UNL A   1      40.459  35.578  40.930  1.00  0.00     0.200 A 
ATOM     73  F   UNL A   1      41.838  37.131  39.808  1.00  0.00    -0.200 F 
ATOM     74  F   UNL A   1      40.480  36.335  42.034  1.00  0.00    -0.200 F 
ENDBRANCH  50  64
BRANCH  51  75
ATOM     75  C   UNL A   1      40.169  28.784  30.073  1.00  0.00     0.064 A 
ATOM     76  C   UNL A   1      40.764  29.312  28.917  1.00  0.00     0.173 A 
ATOM     77  C   UNL A   1      39.561  27.525  29.975  1.00  0.00     0.173 A 
ATOM     78  F   UNL A   1      41.344  30.521  28.955  1.00  0.00    -0.203 F 
ATOM     79  C   UNL A   1      40.726  28.621  27.709  1.00  0.00     0.198 A 
ATOM     80  C   UNL A   1      39.553  26.820  28.773  1.00  0.00     0.198 A 
ATOM     81  F   UNL A   1      38.985  26.970  31.052  1.00  0.00    -0.203 F 
ATOM     82  F   UNL A   1      41.257  29.171  26.608  1.00  0.00    -0.200 F 
ATOM     83  C   UNL A   1      40.126  27.372  27.639  1.00  0.00     0.200 A 
ATOM     84  F   UNL A   1      38.988  25.606  28.715  1.00  0.00    -0.200 F 
ATOM     85  F   UNL A   1      40.094  26.706  26.477  1.00  0.00    -0.200 F 
ENDBRANCH  51  75
BRANCH  63  86
ATOM     86  C   UNL A   1      44.480  28.895  35.553  1.00  0.00     0.064 A 
ATOM     87  C   UNL A   1      45.757  29.351  35.196  1.00  0.00     0.173 A 
ATOM     88  C   UNL A   1      44.391  27.694  36.276  1.00  0.00     0.173 A 
ATOM     89  F   UNL A   1      45.897  30.485  34.492  1.00  0.00    -0.203 F 
ATOM     90  C   UNL A   1      46.897  28.622  35.525  1.00  0.00     0.198 A 
ATOM     91  C   UNL A   1      45.534  26.986  36.634  1.00  0.00     0.198 A 
ATOM     92  F   UNL A   1      43.195  27.217  36.649  1.00  0.00    -0.203 F 
ATOM     93  F   UNL A   1      48.102  29.051  35.128  1.00  0.00    -0.200 F 
ATOM     94  C   UNL A   1      46.785  27.445  36.252  1.00  0.00     0.200 A 
ATOM     95  F   UNL A   1      45.425  25.859  37.352  1.00  0.00    -0.200 F 
ATOM     96  F   UNL A   1      47.884  26.751  36.577  1.00  0.00    -0.200 F 
ENDBRANCH  63  86
ENDBRANCH  37  38
ENDBRANCH  29  32
ENDBRANCH  27  28
ENDBRANCH  26  27
ENDBRANCH  25  26
ENDBRANCH  24  25
ENDBRANCH   1  24
TORSDOF 18
ENDMDL
MODEL 3
REMARK VINA RESULT:      -9.4      4.934      9.907
REMARK SMILES C[C@@H]([NH3+])CCC(=O)N[C@H]1C=C[C@@H](C(=O)NCCCCCCNC(=O)c2ccc(-c3c4nc(c(-c5c(F)c(F)c(F)c(F)c5F)c5ccc([nH]5)c(-c5c(F)c(F)c(F)c(F)c5F)c5nc(c(-c6c(F)c(F)c(F)c(F)c6F)c6ccc3[nH]6)C=C5)C=C4)cc2)C1
REMARK SMILES IDX 17 1 16 2 15 3 13 4 14 5 12 7 9 8 10 9 88 10 11 11 8 12 6 13
REMARK SMILES IDX 7 14 5 16 4 17 2 18 1 19 3 20 18 24 19 25 20 26 21 27 22 28
REMARK SMILES IDX 23 29 24 31 25 32 26 33 87 34 27 35 86 36 28 37 29 38 30 39
REMARK SMILES IDX 80 40 31 41 85 42 79 43 81 44 32 45 84 46 78 47 77 48 33 50
REMARK SMILES IDX 65 51 45 52 64 53 46 54 49 55 63 56 82 57 47 58 48 59 62 61
REMARK SMILES IDX 83 62 50 63 34 64 35 65 43 66 36 67 37 68 41 69 44 70 38 71
REMARK SMILES IDX 39 72 42 73 40 74 66 75 67 76 75 77 68 78 69 79 73 80 76 81
REMARK SMILES IDX 70 82 71 83 74 84 72 85 51 86 52 87 60 88 53 89 54 90 58 91
REMARK SMILES IDX 61 92 55 93 56 94 59 95 57 96
REMARK H PARENT 15 6 8 15 3 21 3 22 3 23 22 30 81 49 49 60
REMARK Flexibility Score: inf
ROOT
ATOM      1  C   UNL A   1      34.596  21.408  25.732  1.00  0.00     0.021 C 
ENDROOT
BRANCH   1   2
ATOM      2  C   UNL A   1      33.135  21.317  25.305  1.00  0.00     0.116 C 
BRANCH   2   3
ATOM      3  N   UNL A   1      32.250  21.767  26.359  1.00  0.00    -0.356 N 
ATOM      4  C   UNL A   1      31.713  22.998  26.585  1.00  0.00     0.227 C 
ATOM      5  O   UNL A   1      30.984  23.140  27.569  1.00  0.00    -0.274 OA
ATOM      6  H   UNL A   1      31.999  21.077  27.014  1.00  0.00     0.163 HD
BRANCH   4   7
ATOM      7  C   UNL A   1      31.981  24.165  25.644  1.00  0.00     0.103 C 
ATOM      8  C   UNL A   1      30.674  25.774  24.383  1.00  0.00     0.106 C 
ATOM      9  C   UNL A   1      31.139  26.359  25.673  1.00  0.00    -0.006 C 
ATOM     10  C   UNL A   1      30.984  24.282  24.485  1.00  0.00     0.047 C 
ATOM     11  C   UNL A   1      31.895  25.490  26.350  1.00  0.00    -0.016 C 
BRANCH   8  12
ATOM     12  N   UNL A   1      29.299  26.119  24.143  1.00  0.00    -0.350 N 
ATOM     13  C   UNL A   1      28.785  27.239  23.562  1.00  0.00     0.220 C 
ATOM     14  O   UNL A   1      27.561  27.386  23.566  1.00  0.00    -0.275 OA
ATOM     15  H   UNL A   1      28.638  25.453  24.441  1.00  0.00     0.164 HD
BRANCH  13  16
ATOM     16  C   UNL A   1      29.694  28.252  22.890  1.00  0.00     0.106 C 
BRANCH  16  17
ATOM     17  C   UNL A   1      29.594  29.690  23.427  1.00  0.00     0.074 C 
BRANCH  17  18
ATOM     18  C   UNL A   1      28.665  30.638  22.652  1.00  0.00     0.178 C 
ATOM     19  C   UNL A   1      27.755  31.475  23.562  1.00  0.00     0.075 C 
BRANCH  18  20
ATOM     20  N   UNL A   1      29.422  31.564  21.811  1.00  0.00    -0.355 N 
ATOM     21  H   UNL A   1      28.868  31.808  20.990  1.00  0.00     0.344 HD
ATOM     22  H   UNL A   1      30.292  31.122  21.515  1.00  0.00     0.344 HD
ATOM     23  H   UNL A   1      29.634  32.410  22.341  1.00  0.00     0.344 HD
ENDBRANCH  18  20
ENDBRANCH  17  18
ENDBRANCH  16  17
ENDBRANCH  13  16
ENDBRANCH   8  12
ENDBRANCH   4   7
ENDBRANCH   2   3
ENDBRANCH   1   2
BRANCH   1  24
ATOM     24  C   UNL A   1      35.490  20.403  25.009  1.00  0.00     0.002 C 
BRANCH  24  25
ATOM     25  C   UNL A   1      36.924  20.893  24.786  1.00  0.00     0.002 C 
BRANCH  25  26
ATOM     26  C   UNL A   1      37.998  19.822  24.992  1.00  0.00     0.021 C 
BRANCH  26  27
ATOM     27  C   UNL A   1      39.137  20.262  25.902  1.00  0.00     0.116 C 
BRANCH  27  28
ATOM     28  N   UNL A   1      40.166  19.240  25.991  1.00  0.00    -0.352 N 
ATOM     29  C   UNL A   1      41.525  19.387  26.073  1.00  0.00     0.251 C 
ATOM     30  H   UNL A   1      39.840  18.310  25.992  1.00  0.00     0.163 HD
ATOM     31  O   UNL A   1      42.268  18.436  25.872  1.00  0.00    -0.269 OA
BRANCH  29  32
ATOM     32  C   UNL A   1      42.084  20.712  26.402  1.00  0.00     0.039 A 
ATOM     33  C   UNL A   1      42.345  21.612  25.369  1.00  0.00     0.014 A 
ATOM     34  C   UNL A   1      42.350  21.059  27.730  1.00  0.00     0.014 A 
ATOM     35  C   UNL A   1      42.834  22.883  25.673  1.00  0.00     0.010 A 
ATOM     36  C   UNL A   1      42.759  22.350  28.038  1.00  0.00     0.010 A 
ATOM     37  C   UNL A   1      43.016  23.270  27.011  1.00  0.00    -0.014 A 
BRANCH  37  38
ATOM     38  C   UNL A   1      43.485  24.634  27.355  1.00  0.00     0.031 A 
ATOM     39  C   UNL A   1      42.514  25.651  27.887  1.00  0.00     0.074 A 
ATOM     40  C   UNL A   1      44.768  24.970  27.131  1.00  0.00     0.049 A 
ATOM     41  N   UNL A   1      42.716  26.907  28.192  1.00  0.00    -0.248 NA
ATOM     42  C   UNL A   1      41.126  25.203  28.080  1.00  0.00     0.031 C 
ATOM     43  C   UNL A   1      45.790  24.082  26.574  1.00  0.00     0.029 A 
ATOM     44  N   UNL A   1      45.433  26.153  27.336  1.00  0.00    -0.354 N 
ATOM     45  C   UNL A   1      41.483  27.400  28.597  1.00  0.00     0.074 A 
ATOM     46  C   UNL A   1      40.526  26.327  28.444  1.00  0.00     0.031 C 
ATOM     47  C   UNL A   1      46.956  24.743  26.504  1.00  0.00     0.029 A 
ATOM     48  C   UNL A   1      46.756  26.111  26.970  1.00  0.00     0.049 A 
ATOM     49  H   UNL A   1      45.002  26.956  27.710  1.00  0.00     0.167 HD
ATOM     50  C   UNL A   1      41.183  28.630  29.076  1.00  0.00     0.037 A 
ATOM     51  C   UNL A   1      47.698  27.074  26.998  1.00  0.00     0.037 A 
ATOM     52  C   UNL A   1      42.145  29.688  29.241  1.00  0.00     0.049 A 
ATOM     53  C   UNL A   1      47.331  28.438  27.518  1.00  0.00     0.074 A 
ATOM     54  C   UNL A   1      41.954  30.952  29.770  1.00  0.00     0.029 A 
ATOM     55  N   UNL A   1      43.479  29.606  28.868  1.00  0.00    -0.354 N 
ATOM     56  N   UNL A   1      46.180  28.872  27.969  1.00  0.00    -0.248 NA
ATOM     57  C   UNL A   1      48.402  29.445  27.539  1.00  0.00     0.031 C 
ATOM     58  C   UNL A   1      43.159  31.655  29.663  1.00  0.00     0.029 A 
ATOM     59  C   UNL A   1      44.117  30.808  29.130  1.00  0.00     0.049 A 
ATOM     60  H   UNL A   1      43.909  28.812  28.475  1.00  0.00     0.167 HD
ATOM     61  C   UNL A   1      46.392  30.187  28.357  1.00  0.00     0.074 A 
ATOM     62  C   UNL A   1      47.788  30.476  28.103  1.00  0.00     0.031 C 
ATOM     63  C   UNL A   1      45.511  31.076  28.880  1.00  0.00     0.037 A 
BRANCH  50  64
ATOM     64  C   UNL A   1      39.753  28.899  29.457  1.00  0.00     0.064 A 
ATOM     65  C   UNL A   1      38.818  29.376  28.526  1.00  0.00     0.173 A 
ATOM     66  C   UNL A   1      39.304  28.643  30.762  1.00  0.00     0.173 A 
ATOM     67  F   UNL A   1      39.197  29.648  27.267  1.00  0.00    -0.203 F 
ATOM     68  C   UNL A   1      37.497  29.616  28.894  1.00  0.00     0.198 A 
ATOM     69  C   UNL A   1      37.974  28.850  31.117  1.00  0.00     0.198 A 
ATOM     70  F   UNL A   1      40.153  28.180  31.692  1.00  0.00    -0.203 F 
ATOM     71  F   UNL A   1      36.636  30.122  28.000  1.00  0.00    -0.200 F 
ATOM     72  C   UNL A   1      37.074  29.345  30.185  1.00  0.00     0.200 A 
ATOM     73  F   UNL A   1      37.563  28.572  32.362  1.00  0.00    -0.200 F 
ATOM     74  F   UNL A   1      35.800  29.567  30.535  1.00  0.00    -0.200 F 
ENDBRANCH  50  64
BRANCH  51  75
ATOM     75  C   UNL A   1      49.079  26.775  26.538  1.00  0.00     0.064 A 
ATOM     76  C   UNL A   1      50.062  26.342  27.441  1.00  0.00     0.173 A 
ATOM     77  C   UNL A   1      49.450  26.922  25.194  1.00  0.00     0.173 A 
ATOM     78  F   UNL A   1      49.762  26.203  28.741  1.00  0.00    -0.203 F 
ATOM     79  C   UNL A   1      51.366  26.094  27.021  1.00  0.00     0.198 A 
ATOM     80  C   UNL A   1      50.747  26.641  24.769  1.00  0.00     0.198 A 
ATOM     81  F   UNL A   1      48.548  27.325  24.287  1.00  0.00    -0.203 F 
ATOM     82  F   UNL A   1      52.297  25.731  27.914  1.00  0.00    -0.200 F 
ATOM     83  C   UNL A   1      51.707  26.238  25.684  1.00  0.00     0.200 A 
ATOM     84  F   UNL A   1      51.067  26.765  23.474  1.00  0.00    -0.200 F 
ATOM     85  F   UNL A   1      52.960  25.995  25.281  1.00  0.00    -0.200 F 
ENDBRANCH  51  75
BRANCH  63  86
ATOM     86  C   UNL A   1      46.038  32.431  29.255  1.00  0.00     0.064 A 
ATOM     87  C   UNL A   1      46.590  32.689  30.519  1.00  0.00     0.173 A 
ATOM     88  C   UNL A   1      46.027  33.477  28.319  1.00  0.00     0.173 A 
ATOM     89  F   UNL A   1      46.612  31.728  31.455  1.00  0.00    -0.203 F 
ATOM     90  C   UNL A   1      47.086  33.950  30.840  1.00  0.00     0.198 A 
ATOM     91  C   UNL A   1      46.555  34.726  28.631  1.00  0.00     0.198 A 
ATOM     92  F   UNL A   1      45.518  33.282  27.093  1.00  0.00    -0.203 F 
ATOM     93  F   UNL A   1      47.560  34.188  32.070  1.00  0.00    -0.200 F 
ATOM     94  C   UNL A   1      47.076  34.965  29.893  1.00  0.00     0.200 A 
ATOM     95  F   UNL A   1      46.561  35.699  27.709  1.00  0.00    -0.200 F 
ATOM     96  F   UNL A   1      47.563  36.174  30.201  1.00  0.00    -0.200 F 
ENDBRANCH  63  86
ENDBRANCH  37  38
ENDBRANCH  29  32
ENDBRANCH  27  28
ENDBRANCH  26  27
ENDBRANCH  25  26
ENDBRANCH  24  25
ENDBRANCH   1  24
TORSDOF 18
ENDMDL
