MODEL 1
REMARK VINA RESULT:     -11.4      0.000      0.000
REMARK SMILES CC[C@H](NC(=O)c1ccc(C)nc1)C(=O)NCCCCCCNC(=O)c1ccc(-c2c3nc(c(-c4c(F)c(F)c(F)c(F)c4F)c4ccc([nH]4)c(-c4c(F)c(F)c(F)c(F)c4F)c4nc(c(-c5c(F)c(F)c(F)c(F)c5F)c5ccc2[nH]5)C=C4)C=C3)cc1
REMARK SMILES IDX 19 1 18 2 17 3 16 4 14 5 15 6 3 8 2 9 1 10 4 11 5 12 6 14
REMARK SMILES IDX 7 15 8 16 13 17 9 18 12 19 10 20 11 21 20 22 21 23 22 24
REMARK SMILES IDX 23 25 24 26 25 28 26 29 27 30 88 31 28 32 87 33 29 34 30 35
REMARK SMILES IDX 31 36 81 37 32 38 86 39 80 40 82 41 33 42 85 43 79 44 78 45
REMARK SMILES IDX 34 47 66 48 46 49 65 50 47 51 50 52 64 53 83 54 48 55 49 56
REMARK SMILES IDX 63 58 84 59 51 60 35 61 36 62 44 63 37 64 38 65 42 66 45 67
REMARK SMILES IDX 39 68 40 69 43 70 41 71 67 72 68 73 76 74 69 75 70 76 74 77
REMARK SMILES IDX 77 78 71 79 72 80 75 81 73 82 52 83 53 84 61 85 54 86 55 87
REMARK SMILES IDX 59 88 62 89 56 90 57 91 60 92 58 93
REMARK H PARENT 16 7 4 13 23 27 82 46 50 57
REMARK Flexibility Score: inf
ROOT
ATOM      1  C   UNL A   1      32.257  29.780  26.705  1.00  0.00     0.002 C 
ENDROOT
BRANCH   1   2
ATOM      2  C   UNL A   1      31.450  28.512  27.006  1.00  0.00     0.021 C 
BRANCH   2   3
ATOM      3  C   UNL A   1      31.809  27.315  26.131  1.00  0.00     0.116 C 
BRANCH   3   4
ATOM      4  N   UNL A   1      30.691  26.860  25.328  1.00  0.00    -0.354 N 
ATOM      5  C   UNL A   1      30.486  26.969  23.981  1.00  0.00     0.242 C 
ATOM      6  O   UNL A   1      29.541  26.345  23.492  1.00  0.00    -0.273 OA
ATOM      7  H   UNL A   1      29.974  26.406  25.826  1.00  0.00     0.163 HD
BRANCH   5   8
ATOM      8  C   UNL A   1      31.502  27.716  23.090  1.00  0.00     0.171 C 
BRANCH   8   9
ATOM      9  C   UNL A   1      30.828  29.063  22.730  1.00  0.00     0.032 C 
ATOM     10  C   UNL A   1      29.385  29.246  23.165  1.00  0.00     0.006 C 
ENDBRANCH   8   9
BRANCH   8  11
ATOM     11  N   UNL A   1      31.932  26.918  21.932  1.00  0.00    -0.340 N 
ATOM     12  C   UNL A   1      32.762  25.822  21.897  1.00  0.00     0.253 C 
ATOM     13  H   UNL A   1      31.578  27.210  21.061  1.00  0.00     0.164 HD
ATOM     14  O   UNL A   1      33.183  25.411  20.820  1.00  0.00    -0.269 OA
BRANCH  12  15
ATOM     15  C   UNL A   1      33.161  25.139  23.135  1.00  0.00     0.058 A 
ATOM     16  C   UNL A   1      34.172  25.621  23.960  1.00  0.00     0.017 A 
ATOM     17  C   UNL A   1      32.472  24.009  23.542  1.00  0.00     0.125 A 
ATOM     18  C   UNL A   1      34.541  24.891  25.086  1.00  0.00     0.024 A 
ATOM     19  N   UNL A   1      32.803  23.284  24.640  1.00  0.00    -0.261 NA
ATOM     20  C   UNL A   1      33.858  23.715  25.377  1.00  0.00     0.037 A 
ATOM     21  C   UNL A   1      34.249  22.886  26.564  1.00  0.00     0.066 C 
ENDBRANCH  12  15
ENDBRANCH   8  11
ENDBRANCH   5   8
ENDBRANCH   3   4
ENDBRANCH   2   3
ENDBRANCH   1   2
BRANCH   1  22
ATOM     22  C   UNL A   1      31.531  30.828  25.854  1.00  0.00     0.002 C 
BRANCH  22  23
ATOM     23  C   UNL A   1      31.274  32.167  26.548  1.00  0.00     0.021 C 
BRANCH  23  24
ATOM     24  C   UNL A   1      32.480  32.747  27.276  1.00  0.00     0.116 C 
BRANCH  24  25
ATOM     25  N   UNL A   1      32.312  34.160  27.572  1.00  0.00    -0.352 N 
ATOM     26  C   UNL A   1      32.951  34.933  28.508  1.00  0.00     0.251 C 
ATOM     27  H   UNL A   1      31.643  34.629  27.023  1.00  0.00     0.163 HD
ATOM     28  O   UNL A   1      32.541  36.065  28.757  1.00  0.00    -0.269 OA
BRANCH  26  29
ATOM     29  C   UNL A   1      34.122  34.399  29.233  1.00  0.00     0.039 A 
ATOM     30  C   UNL A   1      33.914  33.658  30.399  1.00  0.00     0.014 A 
ATOM     31  C   UNL A   1      35.421  34.633  28.774  1.00  0.00     0.014 A 
ATOM     32  C   UNL A   1      35.004  33.102  31.071  1.00  0.00     0.010 A 
ATOM     33  C   UNL A   1      36.499  34.012  29.397  1.00  0.00     0.010 A 
ATOM     34  C   UNL A   1      36.302  33.246  30.556  1.00  0.00    -0.014 A 
BRANCH  34  35
ATOM     35  C   UNL A   1      37.468  32.606  31.221  1.00  0.00     0.031 A 
ATOM     36  C   UNL A   1      38.194  31.473  30.549  1.00  0.00     0.074 A 
ATOM     37  C   UNL A   1      37.833  33.006  32.454  1.00  0.00     0.049 A 
ATOM     38  N   UNL A   1      39.187  30.746  30.995  1.00  0.00    -0.248 NA
ATOM     39  C   UNL A   1      37.724  31.090  29.208  1.00  0.00     0.031 C 
ATOM     40  C   UNL A   1      37.182  34.064  33.228  1.00  0.00     0.029 A 
ATOM     41  N   UNL A   1      38.838  32.562  33.279  1.00  0.00    -0.354 N 
ATOM     42  C   UNL A   1      39.450  29.815  29.998  1.00  0.00     0.074 A 
ATOM     43  C   UNL A   1      38.476  30.030  28.950  1.00  0.00     0.031 C 
ATOM     44  C   UNL A   1      37.817  34.204  34.402  1.00  0.00     0.029 A 
ATOM     45  C   UNL A   1      38.890  33.217  34.485  1.00  0.00     0.049 A 
ATOM     46  H   UNL A   1      39.460  31.841  33.029  1.00  0.00     0.167 HD
ATOM     47  C   UNL A   1      40.431  28.882  29.949  1.00  0.00     0.037 A 
ATOM     48  C   UNL A   1      39.704  33.035  35.542  1.00  0.00     0.037 A 
ATOM     49  C   UNL A   1      41.409  28.684  30.987  1.00  0.00     0.049 A 
ATOM     50  C   UNL A   1      40.770  31.975  35.473  1.00  0.00     0.074 A 
ATOM     51  C   UNL A   1      42.476  27.802  31.009  1.00  0.00     0.029 A 
ATOM     52  N   UNL A   1      41.435  29.373  32.192  1.00  0.00    -0.354 N 
ATOM     53  N   UNL A   1      41.055  31.149  34.496  1.00  0.00    -0.248 NA
ATOM     54  C   UNL A   1      41.635  31.829  36.652  1.00  0.00     0.031 C 
ATOM     55  C   UNL A   1      43.112  27.916  32.250  1.00  0.00     0.029 A 
ATOM     56  C   UNL A   1      42.482  28.915  32.976  1.00  0.00     0.049 A 
ATOM     57  H   UNL A   1      40.802  30.081  32.451  1.00  0.00     0.167 HD
ATOM     58  C   UNL A   1      42.147  30.407  34.928  1.00  0.00     0.074 A 
ATOM     59  C   UNL A   1      42.484  30.894  36.249  1.00  0.00     0.031 C 
ATOM     60  C   UNL A   1      42.812  29.413  34.287  1.00  0.00     0.037 A 
BRANCH  47  61
ATOM     61  C   UNL A   1      40.495  28.001  28.734  1.00  0.00     0.064 A 
ATOM     62  C   UNL A   1      41.243  28.358  27.601  1.00  0.00     0.173 A 
ATOM     63  C   UNL A   1      39.830  26.766  28.715  1.00  0.00     0.173 A 
ATOM     64  F   UNL A   1      41.891  29.532  27.563  1.00  0.00    -0.203 F 
ATOM     65  C   UNL A   1      41.295  27.528  26.485  1.00  0.00     0.198 A 
ATOM     66  C   UNL A   1      39.913  25.922  27.610  1.00  0.00     0.198 A 
ATOM     67  F   UNL A   1      39.105  26.370  29.772  1.00  0.00    -0.203 F 
ATOM     68  F   UNL A   1      41.971  27.917  25.395  1.00  0.00    -0.200 F 
ATOM     69  C   UNL A   1      40.637  26.308  26.492  1.00  0.00     0.200 A 
ATOM     70  F   UNL A   1      39.288  24.736  27.626  1.00  0.00    -0.200 F 
ATOM     71  F   UNL A   1      40.695  25.506  25.420  1.00  0.00    -0.200 F 
ENDBRANCH  47  61
BRANCH  48  72
ATOM     72  C   UNL A   1      39.553  33.886  36.753  1.00  0.00     0.064 A 
ATOM     73  C   UNL A   1      40.185  35.135  36.838  1.00  0.00     0.173 A 
ATOM     74  C   UNL A   1      38.788  33.466  37.851  1.00  0.00     0.173 A 
ATOM     75  F   UNL A   1      40.943  35.573  35.822  1.00  0.00    -0.203 F 
ATOM     76  C   UNL A   1      40.077  35.921  37.984  1.00  0.00     0.198 A 
ATOM     77  C   UNL A   1      38.655  34.267  38.983  1.00  0.00     0.198 A 
ATOM     78  F   UNL A   1      38.159  32.283  37.819  1.00  0.00    -0.203 F 
ATOM     79  F   UNL A   1      40.733  37.086  38.059  1.00  0.00    -0.200 F 
ATOM     80  C   UNL A   1      39.308  35.488  39.053  1.00  0.00     0.200 A 
ATOM     81  F   UNL A   1      37.897  33.853  40.007  1.00  0.00    -0.200 F 
ATOM     82  F   UNL A   1      39.201  36.245  40.154  1.00  0.00    -0.200 F 
ENDBRANCH  48  72
BRANCH  60  83
ATOM     83  C   UNL A   1      43.997  28.813  34.987  1.00  0.00     0.064 A 
ATOM     84  C   UNL A   1      45.285  29.352  34.857  1.00  0.00     0.173 A 
ATOM     85  C   UNL A   1      43.833  27.704  35.834  1.00  0.00     0.173 A 
ATOM     86  F   UNL A   1      45.499  30.402  34.050  1.00  0.00    -0.203 F 
ATOM     87  C   UNL A   1      46.369  28.788  35.525  1.00  0.00     0.198 A 
ATOM     88  C   UNL A   1      44.912  27.164  36.527  1.00  0.00     0.198 A 
ATOM     89  F   UNL A   1      42.621  27.154  36.001  1.00  0.00    -0.203 F 
ATOM     90  F   UNL A   1      47.599  29.286  35.343  1.00  0.00    -0.200 F 
ATOM     91  C   UNL A   1      46.181  27.700  36.365  1.00  0.00     0.200 A 
ATOM     92  F   UNL A   1      44.724  26.124  37.352  1.00  0.00    -0.200 F 
ATOM     93  F   UNL A   1      47.224  27.163  37.013  1.00  0.00    -0.200 F 
ENDBRANCH  60  83
ENDBRANCH  34  35
ENDBRANCH  26  29
ENDBRANCH  24  25
ENDBRANCH  23  24
ENDBRANCH  22  23
ENDBRANCH   1  22
TORSDOF 16
ENDMDL
MODEL 2
REMARK VINA RESULT:     -11.4      4.202     10.862
REMARK SMILES CC[C@H](NC(=O)c1ccc(C)nc1)C(=O)NCCCCCCNC(=O)c1ccc(-c2c3nc(c(-c4c(F)c(F)c(F)c(F)c4F)c4ccc([nH]4)c(-c4c(F)c(F)c(F)c(F)c4F)c4nc(c(-c5c(F)c(F)c(F)c(F)c5F)c5ccc2[nH]5)C=C4)C=C3)cc1
REMARK SMILES IDX 19 1 18 2 17 3 16 4 14 5 15 6 3 8 2 9 1 10 4 11 5 12 6 14
REMARK SMILES IDX 7 15 8 16 13 17 9 18 12 19 10 20 11 21 20 22 21 23 22 24
REMARK SMILES IDX 23 25 24 26 25 28 26 29 27 30 88 31 28 32 87 33 29 34 30 35
REMARK SMILES IDX 31 36 81 37 32 38 86 39 80 40 82 41 33 42 85 43 79 44 78 45
REMARK SMILES IDX 34 47 66 48 46 49 65 50 47 51 50 52 64 53 83 54 48 55 49 56
REMARK SMILES IDX 63 58 84 59 51 60 35 61 36 62 44 63 37 64 38 65 42 66 45 67
REMARK SMILES IDX 39 68 40 69 43 70 41 71 67 72 68 73 76 74 69 75 70 76 74 77
REMARK SMILES IDX 77 78 71 79 72 80 75 81 73 82 52 83 53 84 61 85 54 86 55 87
REMARK SMILES IDX 59 88 62 89 56 90 57 91 60 92 58 93
REMARK H PARENT 16 7 4 13 23 27 82 46 50 57
REMARK Flexibility Score: inf
ROOT
ATOM      1  C   UNL A   1      37.226  33.250  29.671  1.00  0.00     0.002 C 
ENDROOT
BRANCH   1   2
ATOM      2  C   UNL A   1      38.571  33.892  30.028  1.00  0.00     0.021 C 
BRANCH   2   3
ATOM      3  C   UNL A   1      38.649  34.441  31.449  1.00  0.00     0.116 C 
BRANCH   3   4
ATOM      4  N   UNL A   1      37.402  35.044  31.880  1.00  0.00    -0.354 N 
ATOM      5  C   UNL A   1      36.589  34.708  32.926  1.00  0.00     0.242 C 
ATOM      6  O   UNL A   1      35.670  35.479  33.209  1.00  0.00    -0.273 OA
ATOM      7  H   UNL A   1      37.097  35.808  31.339  1.00  0.00     0.163 HD
BRANCH   5   8
ATOM      8  C   UNL A   1      36.917  33.489  33.815  1.00  0.00     0.171 C 
BRANCH   8   9
ATOM      9  C   UNL A   1      36.123  32.305  33.209  1.00  0.00     0.032 C 
ATOM     10  C   UNL A   1      36.926  31.090  32.777  1.00  0.00     0.006 C 
ENDBRANCH   8   9
BRANCH   8  11
ATOM     11  N   UNL A   1      36.650  33.739  35.239  1.00  0.00    -0.340 N 
ATOM     12  C   UNL A   1      37.193  33.123  36.342  1.00  0.00     0.253 C 
ATOM     13  H   UNL A   1      35.991  34.445  35.429  1.00  0.00     0.164 HD
ATOM     14  O   UNL A   1      36.698  33.310  37.450  1.00  0.00    -0.269 OA
BRANCH  12  15
ATOM     15  C   UNL A   1      38.354  32.232  36.213  1.00  0.00     0.058 A 
ATOM     16  C   UNL A   1      39.656  32.712  36.117  1.00  0.00     0.017 A 
ATOM     17  C   UNL A   1      38.168  30.861  36.253  1.00  0.00     0.125 A 
ATOM     18  C   UNL A   1      40.704  31.814  35.935  1.00  0.00     0.024 A 
ATOM     19  N   UNL A   1      39.172  29.963  36.089  1.00  0.00    -0.261 NA
ATOM     20  C   UNL A   1      40.422  30.453  35.895  1.00  0.00     0.037 A 
ATOM     21  C   UNL A   1      41.521  29.458  35.669  1.00  0.00     0.066 C 
ENDBRANCH  12  15
ENDBRANCH   8  11
ENDBRANCH   5   8
ENDBRANCH   3   4
ENDBRANCH   2   3
ENDBRANCH   1   2
BRANCH   1  22
ATOM     22  C   UNL A   1      36.677  33.611  28.287  1.00  0.00     0.002 C 
BRANCH  22  23
ATOM     23  C   UNL A   1      35.210  33.247  28.051  1.00  0.00     0.021 C 
BRANCH  23  24
ATOM     24  C   UNL A   1      34.624  32.279  29.071  1.00  0.00     0.116 C 
BRANCH  24  25
ATOM     25  N   UNL A   1      34.059  31.097  28.441  1.00  0.00    -0.352 N 
ATOM     26  C   UNL A   1      34.692  29.971  27.983  1.00  0.00     0.251 C 
ATOM     27  H   UNL A   1      33.082  31.108  28.325  1.00  0.00     0.163 HD
ATOM     28  O   UNL A   1      34.082  29.155  27.295  1.00  0.00    -0.269 OA
BRANCH  26  29
ATOM     29  C   UNL A   1      36.118  29.744  28.298  1.00  0.00     0.039 A 
ATOM     30  C   UNL A   1      36.461  29.254  29.560  1.00  0.00     0.014 A 
ATOM     31  C   UNL A   1      37.116  30.022  27.359  1.00  0.00     0.014 A 
ATOM     32  C   UNL A   1      37.799  28.986  29.860  1.00  0.00     0.010 A 
ATOM     33  C   UNL A   1      38.437  29.679  27.629  1.00  0.00     0.010 A 
ATOM     34  C   UNL A   1      38.793  29.163  28.885  1.00  0.00    -0.014 A 
BRANCH  34  35
ATOM     35  C   UNL A   1      40.212  28.821  29.163  1.00  0.00     0.031 A 
ATOM     36  C   UNL A   1      41.097  29.797  29.890  1.00  0.00     0.074 A 
ATOM     37  C   UNL A   1      40.719  27.660  28.708  1.00  0.00     0.049 A 
ATOM     38  N   UNL A   1      42.374  29.709  30.167  1.00  0.00    -0.248 NA
ATOM     39  C   UNL A   1      40.469  31.048  30.343  1.00  0.00     0.031 C 
ATOM     40  C   UNL A   1      39.975  26.650  27.953  1.00  0.00     0.029 A 
ATOM     41  N   UNL A   1      41.984  27.134  28.805  1.00  0.00    -0.354 N 
ATOM     42  C   UNL A   1      42.702  30.894  30.813  1.00  0.00     0.074 A 
ATOM     43  C   UNL A   1      41.506  31.709  30.835  1.00  0.00     0.031 C 
ATOM     44  C   UNL A   1      40.788  25.619  27.676  1.00  0.00     0.029 A 
ATOM     45  C   UNL A   1      42.122  25.912  28.194  1.00  0.00     0.049 A 
ATOM     46  H   UNL A   1      42.723  27.592  29.268  1.00  0.00     0.167 HD
ATOM     47  C   UNL A   1      43.885  31.259  31.360  1.00  0.00     0.037 A 
ATOM     48  C   UNL A   1      43.204  25.122  28.057  1.00  0.00     0.037 A 
ATOM     49  C   UNL A   1      45.067  30.437  31.351  1.00  0.00     0.049 A 
ATOM     50  C   UNL A   1      44.514  25.561  28.653  1.00  0.00     0.074 A 
ATOM     51  C   UNL A   1      46.300  30.694  31.927  1.00  0.00     0.029 A 
ATOM     52  N   UNL A   1      45.166  29.201  30.729  1.00  0.00    -0.354 N 
ATOM     53  N   UNL A   1      44.794  26.653  29.324  1.00  0.00    -0.248 NA
ATOM     54  C   UNL A   1      45.656  24.655  28.481  1.00  0.00     0.031 C 
ATOM     55  C   UNL A   1      47.161  29.640  31.603  1.00  0.00     0.029 A 
ATOM     56  C   UNL A   1      46.448  28.696  30.882  1.00  0.00     0.049 A 
ATOM     57  H   UNL A   1      44.434  28.750  30.250  1.00  0.00     0.167 HD
ATOM     58  C   UNL A   1      46.133  26.550  29.679  1.00  0.00     0.074 A 
ATOM     59  C   UNL A   1      46.604  25.282  29.163  1.00  0.00     0.031 C 
ATOM     60  C   UNL A   1      46.902  27.427  30.370  1.00  0.00     0.037 A 
BRANCH  47  61
ATOM     61  C   UNL A   1      43.963  32.610  32.014  1.00  0.00     0.064 A 
ATOM     62  C   UNL A   1      44.270  33.768  31.282  1.00  0.00     0.173 A 
ATOM     63  C   UNL A   1      43.692  32.755  33.383  1.00  0.00     0.173 A 
ATOM     64  F   UNL A   1      44.547  33.686  29.973  1.00  0.00    -0.203 F 
ATOM     65  C   UNL A   1      44.335  35.013  31.903  1.00  0.00     0.198 A 
ATOM     66  C   UNL A   1      43.723  34.006  33.993  1.00  0.00     0.198 A 
ATOM     67  F   UNL A   1      43.387  31.683  34.130  1.00  0.00    -0.203 F 
ATOM     68  F   UNL A   1      44.683  36.095  31.194  1.00  0.00    -0.200 F 
ATOM     69  C   UNL A   1      44.053  35.133  33.255  1.00  0.00     0.200 A 
ATOM     70  F   UNL A   1      43.435  34.122  35.298  1.00  0.00    -0.200 F 
ATOM     71  F   UNL A   1      44.107  36.332  33.849  1.00  0.00    -0.200 F 
ENDBRANCH  47  61
BRANCH  48  72
ATOM     72  C   UNL A   1      43.092  23.825  27.336  1.00  0.00     0.064 A 
ATOM     73  C   UNL A   1      43.432  23.722  25.980  1.00  0.00     0.173 A 
ATOM     74  C   UNL A   1      42.631  22.668  27.982  1.00  0.00     0.173 A 
ATOM     75  F   UNL A   1      43.859  24.805  25.313  1.00  0.00    -0.203 F 
ATOM     76  C   UNL A   1      43.294  22.519  25.291  1.00  0.00     0.198 A 
ATOM     77  C   UNL A   1      42.524  21.457  27.301  1.00  0.00     0.198 A 
ATOM     78  F   UNL A   1      42.297  22.710  29.280  1.00  0.00    -0.203 F 
ATOM     79  F   UNL A   1      43.578  22.462  23.983  1.00  0.00    -0.200 F 
ATOM     80  C   UNL A   1      42.846  21.387  25.953  1.00  0.00     0.200 A 
ATOM     81  F   UNL A   1      42.107  20.362  27.948  1.00  0.00    -0.200 F 
ATOM     82  F   UNL A   1      42.716  20.228  25.292  1.00  0.00    -0.200 F 
ENDBRANCH  48  72
BRANCH  60  83
ATOM     83  C   UNL A   1      48.324  27.029  30.648  1.00  0.00     0.064 A 
ATOM     84  C   UNL A   1      48.671  26.252  31.763  1.00  0.00     0.173 A 
ATOM     85  C   UNL A   1      49.349  27.397  29.761  1.00  0.00     0.173 A 
ATOM     86  F   UNL A   1      47.732  25.885  32.648  1.00  0.00    -0.203 F 
ATOM     87  C   UNL A   1      49.993  25.882  31.995  1.00  0.00     0.198 A 
ATOM     88  C   UNL A   1      50.664  26.997  29.978  1.00  0.00     0.198 A 
ATOM     89  F   UNL A   1      49.071  28.133  28.675  1.00  0.00    -0.203 F 
ATOM     90  F   UNL A   1      50.308  25.187  33.096  1.00  0.00    -0.200 F 
ATOM     91  C   UNL A   1      50.986  26.248  31.100  1.00  0.00     0.200 A 
ATOM     92  F   UNL A   1      51.619  27.337  29.101  1.00  0.00    -0.200 F 
ATOM     93  F   UNL A   1      52.258  25.885  31.321  1.00  0.00    -0.200 F 
ENDBRANCH  60  83
ENDBRANCH  34  35
ENDBRANCH  26  29
ENDBRANCH  24  25
ENDBRANCH  23  24
ENDBRANCH  22  23
ENDBRANCH   1  22
TORSDOF 16
ENDMDL
MODEL 3
REMARK VINA RESULT:     -11.4      5.649     11.228
REMARK SMILES CC[C@H](NC(=O)c1ccc(C)nc1)C(=O)NCCCCCCNC(=O)c1ccc(-c2c3nc(c(-c4c(F)c(F)c(F)c(F)c4F)c4ccc([nH]4)c(-c4c(F)c(F)c(F)c(F)c4F)c4nc(c(-c5c(F)c(F)c(F)c(F)c5F)c5ccc2[nH]5)C=C4)C=C3)cc1
REMARK SMILES IDX 19 1 18 2 17 3 16 4 14 5 15 6 3 8 2 9 1 10 4 11 5 12 6 14
REMARK SMILES IDX 7 15 8 16 13 17 9 18 12 19 10 20 11 21 20 22 21 23 22 24
REMARK SMILES IDX 23 25 24 26 25 28 26 29 27 30 88 31 28 32 87 33 29 34 30 35
REMARK SMILES IDX 31 36 81 37 32 38 86 39 80 40 82 41 33 42 85 43 79 44 78 45
REMARK SMILES IDX 34 47 66 48 46 49 65 50 47 51 50 52 64 53 83 54 48 55 49 56
REMARK SMILES IDX 63 58 84 59 51 60 35 61 36 62 44 63 37 64 38 65 42 66 45 67
REMARK SMILES IDX 39 68 40 69 43 70 41 71 67 72 68 73 76 74 69 75 70 76 74 77
REMARK SMILES IDX 77 78 71 79 72 80 75 81 73 82 52 83 53 84 61 85 54 86 55 87
REMARK SMILES IDX 59 88 62 89 56 90 57 91 60 92 58 93
REMARK H PARENT 16 7 4 13 23 27 82 46 50 57
REMARK Flexibility Score: inf
ROOT
ATOM      1  C   UNL A   1      37.318  22.013  24.681  1.00  0.00     0.002 C 
ENDROOT
BRANCH   1   2
ATOM      2  C   UNL A   1      36.575  22.650  23.502  1.00  0.00     0.021 C 
BRANCH   2   3
ATOM      3  C   UNL A   1      35.243  23.295  23.871  1.00  0.00     0.116 C 
BRANCH   3   4
ATOM      4  N   UNL A   1      34.137  22.769  23.092  1.00  0.00    -0.354 N 
ATOM      5  C   UNL A   1      33.121  21.941  23.474  1.00  0.00     0.242 C 
ATOM      6  O   UNL A   1      32.190  21.771  22.683  1.00  0.00    -0.273 OA
ATOM      7  H   UNL A   1      34.118  23.052  22.149  1.00  0.00     0.163 HD
BRANCH   5   8
ATOM      8  C   UNL A   1      33.069  21.371  24.908  1.00  0.00     0.171 C 
BRANCH   8   9
ATOM      9  C   UNL A   1      33.580  19.914  24.797  1.00  0.00     0.032 C 
ATOM     10  C   UNL A   1      32.529  18.817  24.784  1.00  0.00     0.006 C 
ENDBRANCH   8   9
BRANCH   8  11
ATOM     11  N   UNL A   1      31.740  21.508  25.523  1.00  0.00    -0.340 N 
ATOM     12  C   UNL A   1      31.120  22.639  26.002  1.00  0.00     0.253 C 
ATOM     13  H   UNL A   1      31.221  20.675  25.602  1.00  0.00     0.164 HD
ATOM     14  O   UNL A   1      30.100  22.536  26.676  1.00  0.00    -0.269 OA
BRANCH  12  15
ATOM     15  C   UNL A   1      31.671  23.974  25.729  1.00  0.00     0.058 A 
ATOM     16  C   UNL A   1      32.791  24.468  26.389  1.00  0.00     0.017 A 
ATOM     17  C   UNL A   1      31.106  24.752  24.733  1.00  0.00     0.125 A 
ATOM     18  C   UNL A   1      33.222  25.765  26.124  1.00  0.00     0.024 A 
ATOM     19  N   UNL A   1      31.512  26.015  24.447  1.00  0.00    -0.261 NA
ATOM     20  C   UNL A   1      32.542  26.518  25.173  1.00  0.00     0.037 A 
ATOM     21  C   UNL A   1      32.959  27.929  24.885  1.00  0.00     0.066 C 
ENDBRANCH  12  15
ENDBRANCH   8  11
ENDBRANCH   5   8
ENDBRANCH   3   4
ENDBRANCH   2   3
ENDBRANCH   1   2
BRANCH   1  22
ATOM     22  C   UNL A   1      36.962  20.549  24.963  1.00  0.00     0.002 C 
BRANCH  22  23
ATOM     23  C   UNL A   1      38.150  19.586  25.001  1.00  0.00     0.021 C 
BRANCH  23  24
ATOM     24  C   UNL A   1      39.304  20.035  25.888  1.00  0.00     0.116 C 
BRANCH  24  25
ATOM     25  N   UNL A   1      40.352  19.032  25.971  1.00  0.00    -0.352 N 
ATOM     26  C   UNL A   1      41.707  19.200  26.096  1.00  0.00     0.251 C 
ATOM     27  H   UNL A   1      40.046  18.097  25.929  1.00  0.00     0.163 HD
ATOM     28  O   UNL A   1      42.465  18.244  25.949  1.00  0.00    -0.269 OA
BRANCH  26  29
ATOM     29  C   UNL A   1      42.262  20.538  26.389  1.00  0.00     0.039 A 
ATOM     30  C   UNL A   1      42.707  21.331  25.329  1.00  0.00     0.014 A 
ATOM     31  C   UNL A   1      42.352  21.008  27.702  1.00  0.00     0.014 A 
ATOM     32  C   UNL A   1      43.187  22.618  25.580  1.00  0.00     0.010 A 
ATOM     33  C   UNL A   1      42.754  22.318  27.943  1.00  0.00     0.010 A 
ATOM     34  C   UNL A   1      43.182  23.135  26.886  1.00  0.00    -0.014 A 
BRANCH  34  35
ATOM     35  C   UNL A   1      43.627  24.525  27.165  1.00  0.00     0.031 A 
ATOM     36  C   UNL A   1      42.645  25.547  27.667  1.00  0.00     0.074 A 
ATOM     37  C   UNL A   1      44.901  24.880  26.908  1.00  0.00     0.049 A 
ATOM     38  N   UNL A   1      42.826  26.823  27.904  1.00  0.00    -0.248 NA
ATOM     39  C   UNL A   1      41.271  25.081  27.910  1.00  0.00     0.031 C 
ATOM     40  C   UNL A   1      45.937  23.992  26.379  1.00  0.00     0.029 A 
ATOM     41  N   UNL A   1      45.540  26.088  27.048  1.00  0.00    -0.354 N 
ATOM     42  C   UNL A   1      41.590  27.309  28.310  1.00  0.00     0.074 A 
ATOM     43  C   UNL A   1      40.655  26.208  28.232  1.00  0.00     0.031 C 
ATOM     44  C   UNL A   1      47.086  24.677  26.262  1.00  0.00     0.029 A 
ATOM     45  C   UNL A   1      46.858  26.062  26.664  1.00  0.00     0.049 A 
ATOM     46  H   UNL A   1      45.094  26.896  27.391  1.00  0.00     0.167 HD
ATOM     47  C   UNL A   1      41.270  28.554  28.735  1.00  0.00     0.037 A 
ATOM     48  C   UNL A   1      47.777  27.046  26.629  1.00  0.00     0.037 A 
ATOM     49  C   UNL A   1      42.208  29.642  28.828  1.00  0.00     0.049 A 
ATOM     50  C   UNL A   1      47.389  28.428  27.083  1.00  0.00     0.074 A 
ATOM     51  C   UNL A   1      41.995  30.927  29.298  1.00  0.00     0.029 A 
ATOM     52  N   UNL A   1      43.538  29.575  28.437  1.00  0.00    -0.354 N 
ATOM     53  N   UNL A   1      46.235  28.859  27.533  1.00  0.00    -0.248 NA
ATOM     54  C   UNL A   1      48.434  29.458  27.033  1.00  0.00     0.031 C 
ATOM     55  C   UNL A   1      43.179  31.654  29.137  1.00  0.00     0.029 A 
ATOM     56  C   UNL A   1      44.149  30.805  28.628  1.00  0.00     0.049 A 
ATOM     57  H   UNL A   1      43.981  28.773  28.077  1.00  0.00     0.167 HD
ATOM     58  C   UNL A   1      46.424  30.198  27.848  1.00  0.00     0.074 A 
ATOM     59  C   UNL A   1      47.807  30.504  27.552  1.00  0.00     0.031 C 
ATOM     60  C   UNL A   1      45.531  31.094  28.337  1.00  0.00     0.037 A 
BRANCH  47  61
ATOM     61  C   UNL A   1      39.843  28.811  29.129  1.00  0.00     0.064 A 
ATOM     62  C   UNL A   1      39.398  28.635  30.450  1.00  0.00     0.173 A 
ATOM     63  C   UNL A   1      38.915  29.273  28.184  1.00  0.00     0.173 A 
ATOM     64  F   UNL A   1      40.242  28.186  31.392  1.00  0.00    -0.203 F 
ATOM     65  C   UNL A   1      38.073  28.880  30.800  1.00  0.00     0.198 A 
ATOM     66  C   UNL A   1      37.599  29.551  28.546  1.00  0.00     0.198 A 
ATOM     67  F   UNL A   1      39.285  29.464  26.909  1.00  0.00    -0.203 F 
ATOM     68  F   UNL A   1      37.661  28.653  32.054  1.00  0.00    -0.200 F 
ATOM     69  C   UNL A   1      37.177  29.346  29.850  1.00  0.00     0.200 A 
ATOM     70  F   UNL A   1      36.737  30.015  27.629  1.00  0.00    -0.200 F 
ATOM     71  F   UNL A   1      35.904  29.590  30.190  1.00  0.00    -0.200 F 
ENDBRANCH  47  61
BRANCH  48  72
ATOM     72  C   UNL A   1      49.159  26.758  26.161  1.00  0.00     0.064 A 
ATOM     73  C   UNL A   1      50.131  26.265  27.044  1.00  0.00     0.173 A 
ATOM     74  C   UNL A   1      49.541  26.979  24.830  1.00  0.00     0.173 A 
ATOM     75  F   UNL A   1      49.820  26.056  28.333  1.00  0.00    -0.203 F 
ATOM     76  C   UNL A   1      51.437  26.029  26.620  1.00  0.00     0.198 A 
ATOM     77  C   UNL A   1      50.838  26.711  24.399  1.00  0.00     0.198 A 
ATOM     78  F   UNL A   1      48.649  27.444  23.943  1.00  0.00    -0.203 F 
ATOM     79  F   UNL A   1      52.358  25.608  27.497  1.00  0.00    -0.200 F 
ATOM     80  C   UNL A   1      51.787  26.246  25.297  1.00  0.00     0.200 A 
ATOM     81  F   UNL A   1      51.169  26.906  23.116  1.00  0.00    -0.200 F 
ATOM     82  F   UNL A   1      53.043  26.015  24.887  1.00  0.00    -0.200 F 
ENDBRANCH  48  72
BRANCH  60  83
ATOM     83  C   UNL A   1      46.032  32.481  28.625  1.00  0.00     0.064 A 
ATOM     84  C   UNL A   1      46.589  32.824  29.866  1.00  0.00     0.173 A 
ATOM     85  C   UNL A   1      45.989  33.470  27.630  1.00  0.00     0.173 A 
ATOM     86  F   UNL A   1      46.641  31.919  30.856  1.00  0.00    -0.203 F 
ATOM     87  C   UNL A   1      47.059  34.112  30.109  1.00  0.00     0.198 A 
ATOM     88  C   UNL A   1      46.492  34.747  27.865  1.00  0.00     0.198 A 
ATOM     89  F   UNL A   1      45.474  33.194  26.423  1.00  0.00    -0.203 F 
ATOM     90  F   UNL A   1      47.537  34.431  31.319  1.00  0.00    -0.200 F 
ATOM     91  C   UNL A   1      47.017  35.069  29.107  1.00  0.00     0.200 A 
ATOM     92  F   UNL A   1      46.466  35.665  26.889  1.00  0.00    -0.200 F 
ATOM     93  F   UNL A   1      47.478  36.306  29.339  1.00  0.00    -0.200 F 
ENDBRANCH  60  83
ENDBRANCH  34  35
ENDBRANCH  26  29
ENDBRANCH  24  25
ENDBRANCH  23  24
ENDBRANCH  22  23
ENDBRANCH   1  22
TORSDOF 16
ENDMDL
