MODEL 1
REMARK VINA RESULT:     -11.7      0.000      0.000
REMARK SMILES Cc1ccc(OCCC[N@H+]2CCCC[C@@H]2C(=O)NCCCCCCNC(=O)c2ccc(-c3c4nc(c(-c5c(F)c(F)c(F)c(F)c5F)c5ccc([nH]5)c(-c5c(F)c(F)c(F)c(F)c5F)c5nc(c(-c6c(F)c(F)c(F)c(F)c6F)c6ccc3[nH]6)C=C5)C=C4)cc2)cc1C
REMARK SMILES IDX 20 1 19 2 18 3 16 4 17 5 15 7 10 8 11 9 12 11 14 12 13 13
REMARK SMILES IDX 9 14 8 15 7 16 6 17 5 18 1 19 2 20 3 21 92 22 4 23 91 24
REMARK SMILES IDX 93 25 21 26 22 27 23 28 24 29 25 30 26 31 27 33 28 34 29 35
REMARK SMILES IDX 90 36 30 37 89 38 31 39 32 40 33 41 83 42 34 43 88 44 82 45
REMARK SMILES IDX 84 46 35 47 87 48 81 49 80 50 36 52 68 53 48 54 67 55 49 56
REMARK SMILES IDX 52 57 66 58 85 59 50 60 51 61 65 63 86 64 53 65 37 66 38 67
REMARK SMILES IDX 46 68 39 69 40 70 44 71 47 72 41 73 42 74 45 75 43 76 69 77
REMARK SMILES IDX 70 78 78 79 71 80 72 81 76 82 79 83 73 84 74 85 77 86 75 87
REMARK SMILES IDX 54 88 55 89 63 90 56 91 57 92 61 93 64 94 58 95 59 96 62 97
REMARK SMILES IDX 60 98
REMARK H PARENT 18 6 10 10 25 32 84 51 52 62
REMARK Flexibility Score: inf
ROOT
ATOM      1  C   UNL A   1      31.420  28.036  27.090  1.00  0.00     0.021 C 
ENDROOT
BRANCH   1   2
ATOM      2  C   UNL A   1      32.176  26.807  26.584  1.00  0.00     0.116 C 
BRANCH   2   3
ATOM      3  N   UNL A   1      31.398  25.595  26.773  1.00  0.00    -0.351 N 
ATOM      4  C   UNL A   1      31.691  24.300  26.457  1.00  0.00     0.278 C 
ATOM      5  O   UNL A   1      30.792  23.460  26.576  1.00  0.00    -0.268 OA
ATOM      6  H   UNL A   1      30.520  25.729  27.197  1.00  0.00     0.163 HD
BRANCH   4   7
ATOM      7  C   UNL A   1      33.067  23.871  25.902  1.00  0.00     0.274 C 
ATOM      8  N   UNL A   1      32.959  23.240  24.540  1.00  0.00    -0.325 N 
ATOM      9  C   UNL A   1      34.275  22.700  24.127  1.00  0.00     0.262 C 
ATOM     10  H   UNL A   1      32.270  22.489  24.584  1.00  0.00     0.348 HD
ATOM     11  C   UNL A   1      34.925  21.785  25.166  1.00  0.00     0.062 C 
ATOM     12  C   UNL A   1      33.771  23.027  26.976  1.00  0.00     0.076 C 
ATOM     13  C   UNL A   1      35.112  22.514  26.488  1.00  0.00     0.012 C 
BRANCH   8  14
ATOM     14  C   UNL A   1      32.544  24.270  23.542  1.00  0.00     0.266 C 
BRANCH  14  15
ATOM     15  C   UNL A   1      33.577  25.376  23.248  1.00  0.00     0.103 C 
BRANCH  15  16
ATOM     16  C   UNL A   1      33.060  26.532  22.383  1.00  0.00     0.235 C 
BRANCH  16  17
ATOM     17  O   UNL A   1      32.788  27.733  23.137  1.00  0.00    -0.493 OA
BRANCH  17  18
ATOM     18  C   UNL A   1      31.471  28.096  23.046  1.00  0.00     0.119 A 
ATOM     19  C   UNL A   1      27.431  29.567  23.064  1.00  0.00     0.044 C 
ATOM     20  C   UNL A   1      28.810  28.971  23.005  1.00  0.00    -0.048 A 
ATOM     21  C   UNL A   1      29.827  29.726  22.406  1.00  0.00     0.007 A 
ATOM     22  C   UNL A   1      29.114  27.686  23.500  1.00  0.00    -0.045 A 
ATOM     23  C   UNL A   1      31.138  29.267  22.385  1.00  0.00     0.047 A 
ATOM     24  C   UNL A   1      30.463  27.271  23.542  1.00  0.00     0.050 A 
ATOM     25  C   UNL A   1      28.039  26.703  23.876  1.00  0.00     0.045 C 
ENDBRANCH  17  18
ENDBRANCH  16  17
ENDBRANCH  15  16
ENDBRANCH  14  15
ENDBRANCH   8  14
ENDBRANCH   4   7
ENDBRANCH   2   3
ENDBRANCH   1   2
BRANCH   1  26
ATOM     26  C   UNL A   1      32.186  29.359  26.944  1.00  0.00     0.002 C 
BRANCH  26  27
ATOM     27  C   UNL A   1      31.597  30.378  25.961  1.00  0.00     0.002 C 
BRANCH  27  28
ATOM     28  C   UNL A   1      31.403  31.799  26.500  1.00  0.00     0.021 C 
BRANCH  28  29
ATOM     29  C   UNL A   1      32.641  32.451  27.108  1.00  0.00     0.116 C 
BRANCH  29  30
ATOM     30  N   UNL A   1      32.425  33.829  27.509  1.00  0.00    -0.352 N 
ATOM     31  C   UNL A   1      33.087  34.567  28.464  1.00  0.00     0.251 C 
ATOM     32  H   UNL A   1      31.704  34.301  27.033  1.00  0.00     0.163 HD
ATOM     33  O   UNL A   1      32.709  35.692  28.750  1.00  0.00    -0.269 OA
BRANCH  31  34
ATOM     34  C   UNL A   1      34.246  33.977  29.176  1.00  0.00     0.039 A 
ATOM     35  C   UNL A   1      34.004  33.155  30.280  1.00  0.00     0.014 A 
ATOM     36  C   UNL A   1      35.557  34.229  28.763  1.00  0.00     0.014 A 
ATOM     37  C   UNL A   1      35.073  32.532  30.930  1.00  0.00     0.010 A 
ATOM     38  C   UNL A   1      36.619  33.564  29.378  1.00  0.00     0.010 A 
ATOM     39  C   UNL A   1      36.385  32.705  30.463  1.00  0.00    -0.014 A 
BRANCH  39  40
ATOM     40  C   UNL A   1      37.525  31.986  31.088  1.00  0.00     0.031 A 
ATOM     41  C   UNL A   1      38.010  32.378  32.455  1.00  0.00     0.074 A 
ATOM     42  C   UNL A   1      38.170  31.030  30.392  1.00  0.00     0.049 A 
ATOM     43  N   UNL A   1      39.041  31.930  33.127  1.00  0.00    -0.248 NA
ATOM     44  C   UNL A   1      37.252  33.429  33.149  1.00  0.00     0.031 C 
ATOM     45  C   UNL A   1      37.828  30.593  29.037  1.00  0.00     0.029 A 
ATOM     46  N   UNL A   1      39.263  30.266  30.720  1.00  0.00    -0.354 N 
ATOM     47  C   UNL A   1      39.067  32.659  34.309  1.00  0.00     0.074 A 
ATOM     48  C   UNL A   1      37.971  33.600  34.250  1.00  0.00     0.031 C 
ATOM     49  C   UNL A   1      38.687  29.635  28.654  1.00  0.00     0.029 A 
ATOM     50  C   UNL A   1      39.658  29.411  29.720  1.00  0.00     0.049 A 
ATOM     51  H   UNL A   1      39.719  30.323  31.591  1.00  0.00     0.167 HD
ATOM     52  C   UNL A   1      39.919  32.539  35.355  1.00  0.00     0.037 A 
ATOM     53  C   UNL A   1      40.694  28.551  29.666  1.00  0.00     0.037 A 
ATOM     54  C   UNL A   1      40.984  31.574  35.431  1.00  0.00     0.049 A 
ATOM     55  C   UNL A   1      41.609  28.424  30.852  1.00  0.00     0.074 A 
ATOM     56  C   UNL A   1      41.848  31.324  36.483  1.00  0.00     0.029 A 
ATOM     57  N   UNL A   1      41.329  30.697  34.413  1.00  0.00    -0.354 N 
ATOM     58  N   UNL A   1      41.579  29.068  31.994  1.00  0.00    -0.248 NA
ATOM     59  C   UNL A   1      42.700  27.443  30.746  1.00  0.00     0.031 C 
ATOM     60  C   UNL A   1      42.739  30.320  36.089  1.00  0.00     0.029 A 
ATOM     61  C   UNL A   1      42.405  29.919  34.807  1.00  0.00     0.049 A 
ATOM     62  H   UNL A   1      40.876  30.637  33.542  1.00  0.00     0.167 HD
ATOM     63  C   UNL A   1      42.626  28.557  32.747  1.00  0.00     0.074 A 
ATOM     64  C   UNL A   1      43.266  27.538  31.942  1.00  0.00     0.031 C 
ATOM     65  C   UNL A   1      43.023  28.902  33.996  1.00  0.00     0.037 A 
BRANCH  52  66
ATOM     66  C   UNL A   1      39.732  33.470  36.516  1.00  0.00     0.064 A 
ATOM     67  C   UNL A   1      40.370  34.718  36.563  1.00  0.00     0.173 A 
ATOM     68  C   UNL A   1      38.862  33.135  37.563  1.00  0.00     0.173 A 
ATOM     69  F   UNL A   1      41.219  35.080  35.590  1.00  0.00    -0.203 F 
ATOM     70  C   UNL A   1      40.155  35.591  37.627  1.00  0.00     0.198 A 
ATOM     71  C   UNL A   1      38.631  34.019  38.613  1.00  0.00     0.198 A 
ATOM     72  F   UNL A   1      38.224  31.953  37.561  1.00  0.00    -0.203 F 
ATOM     73  F   UNL A   1      40.800  36.765  37.669  1.00  0.00    -0.200 F 
ATOM     74  C   UNL A   1      39.280  35.244  38.647  1.00  0.00     0.200 A 
ATOM     75  F   UNL A   1      37.777  33.688  39.591  1.00  0.00    -0.200 F 
ATOM     76  F   UNL A   1      39.067  36.089  39.664  1.00  0.00    -0.200 F 
ENDBRANCH  52  66
BRANCH  53  77
ATOM     77  C   UNL A   1      40.915  27.731  28.447  1.00  0.00     0.064 A 
ATOM     78  C   UNL A   1      41.729  28.196  27.406  1.00  0.00     0.173 A 
ATOM     79  C   UNL A   1      40.309  26.477  28.293  1.00  0.00     0.173 A 
ATOM     80  F   UNL A   1      42.312  29.401  27.499  1.00  0.00    -0.203 F 
ATOM     81  C   UNL A   1      41.911  27.448  26.245  1.00  0.00     0.198 A 
ATOM     82  C   UNL A   1      40.511  25.717  27.143  1.00  0.00     0.198 A 
ATOM     83  F   UNL A   1      39.524  25.986  29.264  1.00  0.00    -0.203 F 
ATOM     84  F   UNL A   1      42.655  27.936  25.245  1.00  0.00    -0.200 F 
ATOM     85  C   UNL A   1      41.305  26.206  26.117  1.00  0.00     0.200 A 
ATOM     86  F   UNL A   1      39.934  24.513  27.028  1.00  0.00    -0.200 F 
ATOM     87  F   UNL A   1      41.479  25.486  25.000  1.00  0.00    -0.200 F 
ENDBRANCH  53  77
BRANCH  65  88
ATOM     88  C   UNL A   1      44.185  28.155  34.579  1.00  0.00     0.064 A 
ATOM     89  C   UNL A   1      44.008  26.949  35.271  1.00  0.00     0.173 A 
ATOM     90  C   UNL A   1      45.494  28.631  34.405  1.00  0.00     0.173 A 
ATOM     91  F   UNL A   1      42.774  26.463  35.475  1.00  0.00    -0.203 F 
ATOM     92  C   UNL A   1      45.099  26.254  35.785  1.00  0.00     0.198 A 
ATOM     93  C   UNL A   1      46.584  27.921  34.900  1.00  0.00     0.198 A 
ATOM     94  F   UNL A   1      45.715  29.778  33.746  1.00  0.00    -0.203 F 
ATOM     95  F   UNL A   1      44.904  25.123  36.477  1.00  0.00    -0.200 F 
ATOM     96  C   UNL A   1      46.385  26.736  35.594  1.00  0.00     0.200 A 
ATOM     97  F   UNL A   1      47.827  28.383  34.705  1.00  0.00    -0.200 F 
ATOM     98  F   UNL A   1      47.435  26.062  36.083  1.00  0.00    -0.200 F 
ENDBRANCH  65  88
ENDBRANCH  39  40
ENDBRANCH  31  34
ENDBRANCH  29  30
ENDBRANCH  28  29
ENDBRANCH  27  28
ENDBRANCH  26  27
ENDBRANCH   1  26
TORSDOF 18
ENDMDL
MODEL 2
REMARK VINA RESULT:     -11.7      0.628      7.280
REMARK SMILES Cc1ccc(OCCC[N@H+]2CCCC[C@@H]2C(=O)NCCCCCCNC(=O)c2ccc(-c3c4nc(c(-c5c(F)c(F)c(F)c(F)c5F)c5ccc([nH]5)c(-c5c(F)c(F)c(F)c(F)c5F)c5nc(c(-c6c(F)c(F)c(F)c(F)c6F)c6ccc3[nH]6)C=C5)C=C4)cc2)cc1C
REMARK SMILES IDX 20 1 19 2 18 3 16 4 17 5 15 7 10 8 11 9 12 11 14 12 13 13
REMARK SMILES IDX 9 14 8 15 7 16 6 17 5 18 1 19 2 20 3 21 92 22 4 23 91 24
REMARK SMILES IDX 93 25 21 26 22 27 23 28 24 29 25 30 26 31 27 33 28 34 29 35
REMARK SMILES IDX 90 36 30 37 89 38 31 39 32 40 33 41 83 42 34 43 88 44 82 45
REMARK SMILES IDX 84 46 35 47 87 48 81 49 80 50 36 52 68 53 48 54 67 55 49 56
REMARK SMILES IDX 52 57 66 58 85 59 50 60 51 61 65 63 86 64 53 65 37 66 38 67
REMARK SMILES IDX 46 68 39 69 40 70 44 71 47 72 41 73 42 74 45 75 43 76 69 77
REMARK SMILES IDX 70 78 78 79 71 80 72 81 76 82 79 83 73 84 74 85 77 86 75 87
REMARK SMILES IDX 54 88 55 89 63 90 56 91 57 92 61 93 64 94 58 95 59 96 62 97
REMARK SMILES IDX 60 98
REMARK H PARENT 18 6 10 10 25 32 84 51 52 62
REMARK Flexibility Score: inf
ROOT
ATOM      1  C   UNL A   1      31.403  28.107  26.969  1.00  0.00     0.021 C 
ENDROOT
BRANCH   1   2
ATOM      2  C   UNL A   1      32.191  26.801  26.873  1.00  0.00     0.116 C 
BRANCH   2   3
ATOM      3  N   UNL A   1      31.305  25.652  26.832  1.00  0.00    -0.351 N 
ATOM      4  C   UNL A   1      31.535  24.374  26.411  1.00  0.00     0.278 C 
ATOM      5  O   UNL A   1      30.566  23.611  26.327  1.00  0.00    -0.268 OA
ATOM      6  H   UNL A   1      30.393  25.821  27.160  1.00  0.00     0.163 HD
BRANCH   4   7
ATOM      7  C   UNL A   1      32.933  23.880  25.979  1.00  0.00     0.274 C 
ATOM      8  N   UNL A   1      32.942  23.361  24.567  1.00  0.00    -0.325 N 
ATOM      9  C   UNL A   1      34.258  22.751  24.261  1.00  0.00     0.262 C 
ATOM     10  H   UNL A   1      32.203  22.665  24.473  1.00  0.00     0.348 HD
ATOM     11  C   UNL A   1      34.716  21.715  25.288  1.00  0.00     0.062 C 
ATOM     12  C   UNL A   1      33.446  22.908  27.053  1.00  0.00     0.076 C 
ATOM     13  C   UNL A   1      34.796  22.328  26.678  1.00  0.00     0.012 C 
BRANCH   8  14
ATOM     14  C   UNL A   1      32.720  24.490  23.616  1.00  0.00     0.266 C 
BRANCH  14  15
ATOM     15  C   UNL A   1      33.752  25.634  23.677  1.00  0.00     0.103 C 
BRANCH  15  16
ATOM     16  C   UNL A   1      33.153  27.044  23.741  1.00  0.00     0.235 C 
BRANCH  16  17
ATOM     17  O   UNL A   1      32.506  27.447  22.515  1.00  0.00    -0.493 OA
BRANCH  17  18
ATOM     18  C   UNL A   1      31.228  27.882  22.741  1.00  0.00     0.119 A 
ATOM     19  C   UNL A   1      27.082  28.953  23.127  1.00  0.00     0.044 C 
ATOM     20  C   UNL A   1      28.554  28.660  23.051  1.00  0.00    -0.048 A 
ATOM     21  C   UNL A   1      29.001  27.413  23.508  1.00  0.00     0.007 A 
ATOM     22  C   UNL A   1      29.500  29.588  22.567  1.00  0.00    -0.045 A 
ATOM     23  C   UNL A   1      30.337  27.049  23.397  1.00  0.00     0.047 A 
ATOM     24  C   UNL A   1      30.837  29.173  22.387  1.00  0.00     0.050 A 
ATOM     25  C   UNL A   1      29.152  31.035  22.346  1.00  0.00     0.045 C 
ENDBRANCH  17  18
ENDBRANCH  16  17
ENDBRANCH  15  16
ENDBRANCH  14  15
ENDBRANCH   8  14
ENDBRANCH   4   7
ENDBRANCH   2   3
ENDBRANCH   1   2
BRANCH   1  26
ATOM     26  C   UNL A   1      32.262  29.378  26.875  1.00  0.00     0.002 C 
BRANCH  26  27
ATOM     27  C   UNL A   1      31.765  30.461  25.909  1.00  0.00     0.002 C 
BRANCH  27  28
ATOM     28  C   UNL A   1      31.444  31.823  26.532  1.00  0.00     0.021 C 
BRANCH  28  29
ATOM     29  C   UNL A   1      32.608  32.522  27.227  1.00  0.00     0.116 C 
BRANCH  29  30
ATOM     30  N   UNL A   1      32.329  33.908  27.556  1.00  0.00    -0.352 N 
ATOM     31  C   UNL A   1      32.956  34.725  28.471  1.00  0.00     0.251 C 
ATOM     32  H   UNL A   1      31.589  34.323  27.055  1.00  0.00     0.163 HD
ATOM     33  O   UNL A   1      32.527  35.845  28.698  1.00  0.00    -0.269 OA
BRANCH  31  34
ATOM     34  C   UNL A   1      34.138  34.225  29.212  1.00  0.00     0.039 A 
ATOM     35  C   UNL A   1      33.932  33.514  30.398  1.00  0.00     0.014 A 
ATOM     36  C   UNL A   1      35.437  34.453  28.749  1.00  0.00     0.014 A 
ATOM     37  C   UNL A   1      35.024  32.973  31.084  1.00  0.00     0.010 A 
ATOM     38  C   UNL A   1      36.521  33.868  29.404  1.00  0.00     0.010 A 
ATOM     39  C   UNL A   1      36.323  33.118  30.574  1.00  0.00    -0.014 A 
BRANCH  39  40
ATOM     40  C   UNL A   1      37.486  32.480  31.242  1.00  0.00     0.031 A 
ATOM     41  C   UNL A   1      38.195  31.327  30.589  1.00  0.00     0.074 A 
ATOM     42  C   UNL A   1      37.856  32.890  32.470  1.00  0.00     0.049 A 
ATOM     43  N   UNL A   1      39.170  30.586  31.053  1.00  0.00    -0.248 NA
ATOM     44  C   UNL A   1      37.733  30.940  29.248  1.00  0.00     0.031 C 
ATOM     45  C   UNL A   1      37.216  33.966  33.231  1.00  0.00     0.029 A 
ATOM     46  N   UNL A   1      38.848  32.439  33.305  1.00  0.00    -0.354 N 
ATOM     47  C   UNL A   1      39.421  29.634  30.073  1.00  0.00     0.074 A 
ATOM     48  C   UNL A   1      38.475  29.869  29.004  1.00  0.00     0.031 C 
ATOM     49  C   UNL A   1      37.835  34.095  34.416  1.00  0.00     0.029 A 
ATOM     50  C   UNL A   1      38.894  33.094  34.512  1.00  0.00     0.049 A 
ATOM     51  H   UNL A   1      39.469  31.715  33.062  1.00  0.00     0.167 HD
ATOM     52  C   UNL A   1      40.366  28.664  30.061  1.00  0.00     0.037 A 
ATOM     53  C   UNL A   1      39.693  32.903  35.579  1.00  0.00     0.037 A 
ATOM     54  C   UNL A   1      41.333  28.457  31.106  1.00  0.00     0.049 A 
ATOM     55  C   UNL A   1      40.748  31.833  35.527  1.00  0.00     0.074 A 
ATOM     56  C   UNL A   1      42.379  27.552  31.147  1.00  0.00     0.029 A 
ATOM     57  N   UNL A   1      41.373  29.168  32.297  1.00  0.00    -0.354 N 
ATOM     58  N   UNL A   1      41.022  30.987  34.564  1.00  0.00    -0.248 NA
ATOM     59  C   UNL A   1      41.612  31.695  36.709  1.00  0.00     0.031 C 
ATOM     60  C   UNL A   1      43.031  27.690  32.377  1.00  0.00     0.029 A 
ATOM     61  C   UNL A   1      42.415  28.708  33.086  1.00  0.00     0.049 A 
ATOM     62  H   UNL A   1      40.754  29.892  32.544  1.00  0.00     0.167 HD
ATOM     63  C   UNL A   1      42.100  30.235  35.012  1.00  0.00     0.074 A 
ATOM     64  C   UNL A   1      42.442  30.734  36.327  1.00  0.00     0.031 C 
ATOM     65  C   UNL A   1      42.747  29.222  34.389  1.00  0.00     0.037 A 
BRANCH  52  66
ATOM     66  C   UNL A   1      40.412  27.751  28.873  1.00  0.00     0.064 A 
ATOM     67  C   UNL A   1      39.652  26.573  28.824  1.00  0.00     0.173 A 
ATOM     68  C   UNL A   1      41.179  28.087  27.747  1.00  0.00     0.173 A 
ATOM     69  F   UNL A   1      38.911  26.204  29.878  1.00  0.00    -0.203 F 
ATOM     70  C   UNL A   1      39.672  25.756  27.697  1.00  0.00     0.198 A 
ATOM     71  C   UNL A   1      41.178  27.280  26.613  1.00  0.00     0.198 A 
ATOM     72  F   UNL A   1      41.920  29.207  27.743  1.00  0.00    -0.203 F 
ATOM     73  F   UNL A   1      38.965  24.617  27.684  1.00  0.00    -0.200 F 
ATOM     74  C   UNL A   1      40.429  26.113  26.590  1.00  0.00     0.200 A 
ATOM     75  F   UNL A   1      41.900  27.632  25.540  1.00  0.00    -0.200 F 
ATOM     76  F   UNL A   1      40.438  25.331  25.503  1.00  0.00    -0.200 F 
ENDBRANCH  52  66
BRANCH  53  77
ATOM     77  C   UNL A   1      39.535  33.753  36.787  1.00  0.00     0.064 A 
ATOM     78  C   UNL A   1      40.189  34.987  36.888  1.00  0.00     0.173 A 
ATOM     79  C   UNL A   1      38.741  33.343  37.867  1.00  0.00     0.173 A 
ATOM     80  F   UNL A   1      40.978  35.410  35.889  1.00  0.00    -0.203 F 
ATOM     81  C   UNL A   1      40.074  35.771  38.034  1.00  0.00     0.198 A 
ATOM     82  C   UNL A   1      38.606  34.138  39.003  1.00  0.00     0.198 A 
ATOM     83  F   UNL A   1      38.091  32.170  37.817  1.00  0.00    -0.203 F 
ATOM     84  F   UNL A   1      40.747  36.925  38.125  1.00  0.00    -0.200 F 
ATOM     85  C   UNL A   1      39.278  35.348  39.088  1.00  0.00     0.200 A 
ATOM     86  F   UNL A   1      37.827  33.732  40.015  1.00  0.00    -0.200 F 
ATOM     87  F   UNL A   1      39.168  36.102  40.191  1.00  0.00    -0.200 F 
ENDBRANCH  53  77
BRANCH  65  88
ATOM     88  C   UNL A   1      43.908  28.603  35.108  1.00  0.00     0.064 A 
ATOM     89  C   UNL A   1      45.198  29.145  35.022  1.00  0.00     0.173 A 
ATOM     90  C   UNL A   1      43.717  27.479  35.926  1.00  0.00     0.173 A 
ATOM     91  F   UNL A   1      45.431  30.210  34.239  1.00  0.00    -0.203 F 
ATOM     92  C   UNL A   1      46.260  28.574  35.715  1.00  0.00     0.198 A 
ATOM     93  C   UNL A   1      44.778  26.924  36.638  1.00  0.00     0.198 A 
ATOM     94  F   UNL A   1      42.500  26.927  36.045  1.00  0.00    -0.203 F 
ATOM     95  F   UNL A   1      47.493  29.084  35.588  1.00  0.00    -0.200 F 
ATOM     96  C   UNL A   1      46.049  27.469  36.527  1.00  0.00     0.200 A 
ATOM     97  F   UNL A   1      44.570  25.863  37.429  1.00  0.00    -0.200 F 
ATOM     98  F   UNL A   1      47.072  26.924  37.199  1.00  0.00    -0.200 F 
ENDBRANCH  65  88
ENDBRANCH  39  40
ENDBRANCH  31  34
ENDBRANCH  29  30
ENDBRANCH  28  29
ENDBRANCH  27  28
ENDBRANCH  26  27
ENDBRANCH   1  26
TORSDOF 18
ENDMDL
MODEL 3
REMARK VINA RESULT:     -11.7      5.080      9.478
REMARK SMILES Cc1ccc(OCCC[N@H+]2CCCC[C@@H]2C(=O)NCCCCCCNC(=O)c2ccc(-c3c4nc(c(-c5c(F)c(F)c(F)c(F)c5F)c5ccc([nH]5)c(-c5c(F)c(F)c(F)c(F)c5F)c5nc(c(-c6c(F)c(F)c(F)c(F)c6F)c6ccc3[nH]6)C=C5)C=C4)cc2)cc1C
REMARK SMILES IDX 20 1 19 2 18 3 16 4 17 5 15 7 10 8 11 9 12 11 14 12 13 13
REMARK SMILES IDX 9 14 8 15 7 16 6 17 5 18 1 19 2 20 3 21 92 22 4 23 91 24
REMARK SMILES IDX 93 25 21 26 22 27 23 28 24 29 25 30 26 31 27 33 28 34 29 35
REMARK SMILES IDX 90 36 30 37 89 38 31 39 32 40 33 41 83 42 34 43 88 44 82 45
REMARK SMILES IDX 84 46 35 47 87 48 81 49 80 50 36 52 68 53 48 54 67 55 49 56
REMARK SMILES IDX 52 57 66 58 85 59 50 60 51 61 65 63 86 64 53 65 37 66 38 67
REMARK SMILES IDX 46 68 39 69 40 70 44 71 47 72 41 73 42 74 45 75 43 76 69 77
REMARK SMILES IDX 70 78 78 79 71 80 72 81 76 82 79 83 73 84 74 85 77 86 75 87
REMARK SMILES IDX 54 88 55 89 63 90 56 91 57 92 61 93 64 94 58 95 59 96 62 97
REMARK SMILES IDX 60 98
REMARK H PARENT 18 6 10 10 25 32 84 51 52 62
REMARK Flexibility Score: inf
ROOT
ATOM      1  C   UNL A   1      36.500  23.656  24.882  1.00  0.00     0.021 C 
ENDROOT
BRANCH   1   2
ATOM      2  C   UNL A   1      35.168  24.222  25.376  1.00  0.00     0.116 C 
BRANCH   2   3
ATOM      3  N   UNL A   1      34.498  24.980  24.335  1.00  0.00    -0.351 N 
ATOM      4  C   UNL A   1      33.706  26.089  24.421  1.00  0.00     0.278 C 
ATOM      5  O   UNL A   1      33.120  26.459  23.397  1.00  0.00    -0.268 OA
ATOM      6  H   UNL A   1      34.638  24.642  23.422  1.00  0.00     0.163 HD
BRANCH   4   7
ATOM      7  C   UNL A   1      33.470  26.841  25.748  1.00  0.00     0.274 C 
ATOM      8  N   UNL A   1      32.018  26.867  26.138  1.00  0.00    -0.325 N 
ATOM      9  C   UNL A   1      31.826  27.735  27.323  1.00  0.00     0.262 C 
ATOM     10  H   UNL A   1      31.477  27.224  25.350  1.00  0.00     0.348 HD
ATOM     11  C   UNL A   1      32.436  29.130  27.175  1.00  0.00     0.062 C 
ATOM     12  C   UNL A   1      34.160  28.210  25.648  1.00  0.00     0.076 C 
ATOM     13  C   UNL A   1      33.929  29.042  26.895  1.00  0.00     0.012 C 
BRANCH   8  14
ATOM     14  C   UNL A   1      31.569  25.488  26.494  1.00  0.00     0.266 C 
BRANCH  14  15
ATOM     15  C   UNL A   1      30.407  24.920  25.655  1.00  0.00     0.103 C 
BRANCH  15  16
ATOM     16  C   UNL A   1      30.775  23.729  24.762  1.00  0.00     0.235 C 
BRANCH  16  17
ATOM     17  O   UNL A   1      32.024  23.105  25.127  1.00  0.00    -0.493 OA
BRANCH  17  18
ATOM     18  C   UNL A   1      32.198  21.911  24.480  1.00  0.00     0.119 A 
ATOM     19  C   UNL A   1      32.292  18.177  22.351  1.00  0.00     0.044 C 
ATOM     20  C   UNL A   1      32.355  19.462  23.129  1.00  0.00    -0.048 A 
ATOM     21  C   UNL A   1      32.183  20.663  22.428  1.00  0.00     0.007 A 
ATOM     22  C   UNL A   1      32.601  19.510  24.517  1.00  0.00    -0.045 A 
ATOM     23  C   UNL A   1      32.154  21.881  23.096  1.00  0.00     0.047 A 
ATOM     24  C   UNL A   1      32.488  20.746  25.189  1.00  0.00     0.050 A 
ATOM     25  C   UNL A   1      33.091  18.309  25.279  1.00  0.00     0.045 C 
ENDBRANCH  17  18
ENDBRANCH  16  17
ENDBRANCH  15  16
ENDBRANCH  14  15
ENDBRANCH   8  14
ENDBRANCH   4   7
ENDBRANCH   2   3
ENDBRANCH   1   2
BRANCH   1  26
ATOM     26  C   UNL A   1      36.397  22.277  24.212  1.00  0.00     0.002 C 
BRANCH  26  27
ATOM     27  C   UNL A   1      36.454  21.064  25.148  1.00  0.00     0.002 C 
BRANCH  27  28
ATOM     28  C   UNL A   1      37.638  20.113  24.946  1.00  0.00     0.021 C 
BRANCH  28  29
ATOM     29  C   UNL A   1      38.907  20.463  25.718  1.00  0.00     0.116 C 
BRANCH  29  30
ATOM     30  N   UNL A   1      39.859  19.369  25.781  1.00  0.00    -0.352 N 
ATOM     31  C   UNL A   1      41.209  19.410  26.050  1.00  0.00     0.251 C 
ATOM     32  H   UNL A   1      39.489  18.474  25.607  1.00  0.00     0.163 HD
ATOM     33  O   UNL A   1      41.889  18.401  25.964  1.00  0.00    -0.269 OA
BRANCH  31  34
ATOM     34  C   UNL A   1      41.847  20.699  26.412  1.00  0.00     0.039 A 
ATOM     35  C   UNL A   1      42.245  21.559  25.385  1.00  0.00     0.014 A 
ATOM     36  C   UNL A   1      42.054  21.058  27.747  1.00  0.00     0.014 A 
ATOM     37  C   UNL A   1      42.789  22.809  25.697  1.00  0.00     0.010 A 
ATOM     38  C   UNL A   1      42.545  22.326  28.057  1.00  0.00     0.010 A 
ATOM     39  C   UNL A   1      42.912  23.215  27.035  1.00  0.00    -0.014 A 
BRANCH  39  40
ATOM     40  C   UNL A   1      43.408  24.570  27.384  1.00  0.00     0.031 A 
ATOM     41  C   UNL A   1      42.464  25.605  27.929  1.00  0.00     0.074 A 
ATOM     42  C   UNL A   1      44.692  24.893  27.138  1.00  0.00     0.049 A 
ATOM     43  N   UNL A   1      42.689  26.864  28.209  1.00  0.00    -0.248 NA
ATOM     44  C   UNL A   1      41.079  25.174  28.170  1.00  0.00     0.031 C 
ATOM     45  C   UNL A   1      45.695  23.994  26.564  1.00  0.00     0.029 A 
ATOM     46  N   UNL A   1      45.371  26.072  27.322  1.00  0.00    -0.354 N 
ATOM     47  C   UNL A   1      41.472  27.379  28.636  1.00  0.00     0.074 A 
ATOM     48  C   UNL A   1      40.504  26.307  28.548  1.00  0.00     0.031 C 
ATOM     49  C   UNL A   1      46.861  24.651  26.449  1.00  0.00     0.029 A 
ATOM     50  C   UNL A   1      46.681  26.024  26.912  1.00  0.00     0.049 A 
ATOM     51  H   UNL A   1      44.958  26.876  27.712  1.00  0.00     0.167 HD
ATOM     52  C   UNL A   1      41.193  28.629  29.079  1.00  0.00     0.037 A 
ATOM     53  C   UNL A   1      47.628  26.982  26.900  1.00  0.00     0.037 A 
ATOM     54  C   UNL A   1      42.165  29.683  29.205  1.00  0.00     0.049 A 
ATOM     55  C   UNL A   1      47.295  28.353  27.419  1.00  0.00     0.074 A 
ATOM     56  C   UNL A   1      41.993  30.957  29.718  1.00  0.00     0.029 A 
ATOM     57  N   UNL A   1      43.492  29.583  28.816  1.00  0.00    -0.354 N 
ATOM     58  N   UNL A   1      46.158  28.807  27.887  1.00  0.00    -0.248 NA
ATOM     59  C   UNL A   1      48.380  29.346  27.413  1.00  0.00     0.031 C 
ATOM     60  C   UNL A   1      43.209  31.641  29.607  1.00  0.00     0.029 A 
ATOM     61  C   UNL A   1      44.146  30.780  29.061  1.00  0.00     0.049 A 
ATOM     62  H   UNL A   1      43.908  28.782  28.426  1.00  0.00     0.167 HD
ATOM     63  C   UNL A   1      46.396  30.125  28.253  1.00  0.00     0.074 A 
ATOM     64  C   UNL A   1      47.789  30.396  27.967  1.00  0.00     0.031 C 
ATOM     65  C   UNL A   1      45.536  31.030  28.779  1.00  0.00     0.037 A 
BRANCH  52  66
ATOM     66  C   UNL A   1      39.778  28.930  29.470  1.00  0.00     0.064 A 
ATOM     67  C   UNL A   1      38.846  29.411  28.538  1.00  0.00     0.173 A 
ATOM     68  C   UNL A   1      39.333  28.679  30.776  1.00  0.00     0.173 A 
ATOM     69  F   UNL A   1      39.225  29.675  27.280  1.00  0.00    -0.203 F 
ATOM     70  C   UNL A   1      37.523  29.646  28.906  1.00  0.00     0.198 A 
ATOM     71  C   UNL A   1      38.005  28.893  31.134  1.00  0.00     0.198 A 
ATOM     72  F   UNL A   1      40.185  28.214  31.704  1.00  0.00    -0.203 F 
ATOM     73  F   UNL A   1      36.658  30.138  28.008  1.00  0.00    -0.200 F 
ATOM     74  C   UNL A   1      37.102  29.381  30.201  1.00  0.00     0.200 A 
ATOM     75  F   UNL A   1      37.596  28.625  32.383  1.00  0.00    -0.200 F 
ATOM     76  F   UNL A   1      35.827  29.598  30.549  1.00  0.00    -0.200 F 
ENDBRANCH  52  66
BRANCH  53  77
ATOM     77  C   UNL A   1      48.989  26.675  26.390  1.00  0.00     0.064 A 
ATOM     78  C   UNL A   1      49.971  26.143  27.237  1.00  0.00     0.173 A 
ATOM     79  C   UNL A   1      49.340  26.919  25.056  1.00  0.00     0.173 A 
ATOM     80  F   UNL A   1      49.688  25.913  28.528  1.00  0.00    -0.203 F 
ATOM     81  C   UNL A   1      51.260  25.887  26.774  1.00  0.00     0.198 A 
ATOM     82  C   UNL A   1      50.621  26.641  24.586  1.00  0.00     0.198 A 
ATOM     83  F   UNL A   1      48.434  27.425  24.205  1.00  0.00    -0.203 F 
ATOM     84  F   UNL A   1      52.193  25.423  27.615  1.00  0.00    -0.200 F 
ATOM     85  C   UNL A   1      51.582  26.132  25.447  1.00  0.00     0.200 A 
ATOM     86  F   UNL A   1      50.926  26.867  23.301  1.00  0.00    -0.200 F 
ATOM     87  F   UNL A   1      52.822  25.888  25.001  1.00  0.00    -0.200 F 
ENDBRANCH  53  77
BRANCH  65  88
ATOM     88  C   UNL A   1      46.081  32.388  29.105  1.00  0.00     0.064 A 
ATOM     89  C   UNL A   1      46.635  32.674  30.359  1.00  0.00     0.173 A 
ATOM     90  C   UNL A   1      46.086  33.402  28.133  1.00  0.00     0.173 A 
ATOM     91  F   UNL A   1      46.638  31.741  31.324  1.00  0.00    -0.203 F 
ATOM     92  C   UNL A   1      47.161  33.932  30.638  1.00  0.00     0.198 A 
ATOM     93  C   UNL A   1      46.634  34.652  28.408  1.00  0.00     0.198 A 
ATOM     94  F   UNL A   1      45.571  33.175  26.916  1.00  0.00    -0.203 F 
ATOM     95  F   UNL A   1      47.651  34.196  31.857  1.00  0.00    -0.200 F 
ATOM     96  C   UNL A   1      47.166  34.918  29.662  1.00  0.00     0.200 A 
ATOM     97  F   UNL A   1      46.647  35.598  27.461  1.00  0.00    -0.200 F 
ATOM     98  F   UNL A   1      47.677  36.126  29.930  1.00  0.00    -0.200 F 
ENDBRANCH  65  88
ENDBRANCH  39  40
ENDBRANCH  31  34
ENDBRANCH  29  30
ENDBRANCH  28  29
ENDBRANCH  27  28
ENDBRANCH  26  27
ENDBRANCH   1  26
TORSDOF 18
ENDMDL
