MODEL 1
REMARK VINA RESULT:     -12.7      0.000      0.000
REMARK SMILES COc1cc(S(=O)(=O)Nc2cccc(C(=O)NCCCCCCNC(=O)c3ccc(-c4c5nc(c(-c6c(F)c(F)c(F)c(F)c6F)c6ccc([nH]6)c(-c6c(F)c(F)c(F)c(F)c6F)c6nc(c(-c7c(F)c(F)c(F)c(F)c7F)c7ccc4[nH]7)C=C6)C=C5)cc3)c2)c(OC)cc1C
REMARK SMILES IDX 19 1 18 2 17 3 15 4 16 5 14 7 10 8 11 9 90 10 12 11 13 12
REMARK SMILES IDX 9 13 6 15 7 16 8 17 5 18 3 19 4 20 95 21 94 22 96 23 91 24
REMARK SMILES IDX 2 25 1 26 92 27 93 28 20 29 21 30 22 31 23 32 24 33 25 34
REMARK SMILES IDX 26 36 27 37 28 38 89 39 29 40 88 41 30 42 31 43 32 44 82 45
REMARK SMILES IDX 33 46 87 47 81 48 83 49 34 50 86 51 80 52 79 53 35 55 67 56
REMARK SMILES IDX 47 57 66 58 48 59 51 60 65 61 84 62 49 63 50 64 64 66 85 67
REMARK SMILES IDX 52 68 36 69 37 70 45 71 38 72 39 73 43 74 46 75 40 76 41 77
REMARK SMILES IDX 44 78 42 79 68 80 69 81 77 82 70 83 71 84 75 85 78 86 72 87
REMARK SMILES IDX 73 88 76 89 74 90 53 91 54 92 62 93 55 94 56 95 60 96 63 97
REMARK SMILES IDX 57 98 58 99 61 100 59 101
REMARK H PARENT 17 6 9 14 24 35 83 54 51 65
REMARK Flexibility Score: inf
ROOT
ATOM      1  C   UNL A   1      31.048  29.694  24.347  1.00  0.00     0.021 C 
ENDROOT
BRANCH   1   2
ATOM      2  C   UNL A   1      30.417  29.088  23.093  1.00  0.00     0.116 C 
BRANCH   2   3
ATOM      3  N   UNL A   1      29.257  28.285  23.432  1.00  0.00    -0.352 N 
ATOM      4  C   UNL A   1      29.099  26.935  23.605  1.00  0.00     0.251 C 
ATOM      5  O   UNL A   1      28.006  26.514  23.976  1.00  0.00    -0.269 OA
ATOM      6  H   UNL A   1      28.432  28.806  23.562  1.00  0.00     0.163 HD
BRANCH   4   7
ATOM      7  C   UNL A   1      30.223  25.980  23.460  1.00  0.00     0.041 A 
ATOM      8  C   UNL A   1      31.481  24.190  24.524  1.00  0.00     0.050 A 
ATOM      9  C   UNL A   1      32.366  24.177  23.448  1.00  0.00     0.027 A 
ATOM     10  C   UNL A   1      30.376  25.046  24.491  1.00  0.00     0.040 A 
ATOM     11  C   UNL A   1      32.181  25.067  22.381  1.00  0.00     0.003 A 
ATOM     12  C   UNL A   1      31.115  25.973  22.388  1.00  0.00     0.014 A 
BRANCH   8  13
ATOM     13  N   UNL A   1      31.635  23.418  25.705  1.00  0.00    -0.279 N 
ATOM     14  H   UNL A   1      30.847  22.912  26.011  1.00  0.00     0.180 HD
BRANCH  13  15
ATOM     15  S   UNL A   1      33.017  23.285  26.624  1.00  0.00     0.265 S 
ATOM     16  O   UNL A   1      32.666  22.619  27.864  1.00  0.00    -0.201 OA
ATOM     17  O   UNL A   1      33.577  24.623  26.648  1.00  0.00    -0.201 OA
BRANCH  15  18
ATOM     18  C   UNL A   1      34.243  22.260  25.843  1.00  0.00     0.133 A 
ATOM     19  C   UNL A   1      36.631  22.049  25.436  1.00  0.00     0.123 A 
ATOM     20  C   UNL A   1      35.543  22.799  25.872  1.00  0.00     0.073 A 
ATOM     21  C   UNL A   1      36.465  20.707  25.104  1.00  0.00    -0.005 A 
ATOM     22  C   UNL A   1      35.159  20.209  24.984  1.00  0.00     0.055 A 
ATOM     23  C   UNL A   1      37.623  19.792  24.835  1.00  0.00     0.048 C 
ATOM     24  C   UNL A   1      34.035  20.996  25.287  1.00  0.00     0.139 A 
BRANCH  19  25
ATOM     25  O   UNL A   1      37.848  22.672  25.406  1.00  0.00    -0.496 OA
ATOM     26  C   UNL A   1      37.826  23.871  26.190  1.00  0.00     0.278 C 
ENDBRANCH  19  25
BRANCH  24  27
ATOM     27  O   UNL A   1      32.765  20.593  25.002  1.00  0.00    -0.495 OA
ATOM     28  C   UNL A   1      32.408  20.400  23.637  1.00  0.00     0.278 C 
ENDBRANCH  24  27
ENDBRANCH  15  18
ENDBRANCH  13  15
ENDBRANCH   8  13
ENDBRANCH   4   7
ENDBRANCH   2   3
ENDBRANCH   1   2
BRANCH   1  29
ATOM     29  C   UNL A   1      32.098  28.808  25.038  1.00  0.00     0.002 C 
BRANCH  29  30
ATOM     30  C   UNL A   1      32.113  28.826  26.575  1.00  0.00     0.002 C 
BRANCH  30  31
ATOM     31  C   UNL A   1      32.772  30.039  27.236  1.00  0.00     0.021 C 
BRANCH  31  32
ATOM     32  C   UNL A   1      34.256  29.857  27.546  1.00  0.00     0.116 C 
BRANCH  32  33
ATOM     33  N   UNL A   1      34.801  30.870  28.447  1.00  0.00    -0.352 N 
ATOM     34  C   UNL A   1      36.008  30.867  29.130  1.00  0.00     0.251 C 
ATOM     35  H   UNL A   1      34.234  31.661  28.588  1.00  0.00     0.163 HD
ATOM     36  O   UNL A   1      36.337  31.802  29.835  1.00  0.00    -0.269 OA
BRANCH  34  37
ATOM     37  C   UNL A   1      36.951  29.755  28.873  1.00  0.00     0.039 A 
ATOM     38  C   UNL A   1      37.194  28.860  29.920  1.00  0.00     0.014 A 
ATOM     39  C   UNL A   1      37.760  29.769  27.740  1.00  0.00     0.014 A 
ATOM     40  C   UNL A   1      38.403  28.175  29.952  1.00  0.00     0.010 A 
ATOM     41  C   UNL A   1      38.994  29.156  27.808  1.00  0.00     0.010 A 
ATOM     42  C   UNL A   1      39.344  28.434  28.955  1.00  0.00    -0.014 A 
BRANCH  42  43
ATOM     43  C   UNL A   1      40.756  28.115  29.113  1.00  0.00     0.031 A 
ATOM     44  C   UNL A   1      41.302  26.850  28.588  1.00  0.00     0.074 A 
ATOM     45  C   UNL A   1      41.567  29.016  29.714  1.00  0.00     0.049 A 
ATOM     46  N   UNL A   1      42.392  26.302  29.007  1.00  0.00    -0.248 NA
ATOM     47  C   UNL A   1      40.599  26.044  27.597  1.00  0.00     0.031 C 
ATOM     48  C   UNL A   1      43.026  29.005  29.757  1.00  0.00     0.029 A 
ATOM     49  N   UNL A   1      41.198  30.037  30.611  1.00  0.00    -0.354 N 
ATOM     50  C   UNL A   1      42.690  25.263  28.155  1.00  0.00     0.074 A 
ATOM     51  C   UNL A   1      41.477  25.054  27.409  1.00  0.00     0.031 C 
ATOM     52  C   UNL A   1      43.430  29.721  30.817  1.00  0.00     0.029 A 
ATOM     53  C   UNL A   1      42.242  30.096  31.563  1.00  0.00     0.049 A 
ATOM     54  H   UNL A   1      40.385  30.591  30.581  1.00  0.00     0.167 HD
ATOM     55  C   UNL A   1      43.983  24.829  28.087  1.00  0.00     0.037 A 
ATOM     56  C   UNL A   1      42.022  29.807  32.878  1.00  0.00     0.037 A 
ATOM     57  C   UNL A   1      44.761  25.356  29.216  1.00  0.00     0.049 A 
ATOM     58  C   UNL A   1      42.836  28.645  33.400  1.00  0.00     0.074 A 
ATOM     59  C   UNL A   1      45.715  26.352  29.332  1.00  0.00     0.029 A 
ATOM     60  N   UNL A   1      44.382  25.026  30.518  1.00  0.00    -0.354 N 
ATOM     61  N   UNL A   1      43.446  27.787  32.633  1.00  0.00    -0.248 NA
ATOM     62  C   UNL A   1      42.989  28.334  34.819  1.00  0.00     0.031 C 
ATOM     63  C   UNL A   1      45.835  26.688  30.706  1.00  0.00     0.029 A 
ATOM     64  C   UNL A   1      44.985  25.870  31.430  1.00  0.00     0.049 A 
ATOM     65  H   UNL A   1      43.769  24.292  30.754  1.00  0.00     0.167 HD
ATOM     66  C   UNL A   1      44.031  26.819  33.404  1.00  0.00     0.074 A 
ATOM     67  C   UNL A   1      43.737  27.218  34.769  1.00  0.00     0.031 C 
ATOM     68  C   UNL A   1      44.696  25.762  32.854  1.00  0.00     0.037 A 
BRANCH  55  69
ATOM     69  C   UNL A   1      44.630  24.172  26.869  1.00  0.00     0.064 A 
ATOM     70  C   UNL A   1      44.379  22.808  26.583  1.00  0.00     0.173 A 
ATOM     71  C   UNL A   1      45.600  24.757  26.026  1.00  0.00     0.173 A 
ATOM     72  F   UNL A   1      43.440  22.117  27.244  1.00  0.00    -0.203 F 
ATOM     73  C   UNL A   1      45.095  22.087  25.616  1.00  0.00     0.198 A 
ATOM     74  C   UNL A   1      46.304  24.042  25.050  1.00  0.00     0.198 A 
ATOM     75  F   UNL A   1      45.936  26.044  26.096  1.00  0.00    -0.203 F 
ATOM     76  F   UNL A   1      44.846  20.782  25.438  1.00  0.00    -0.200 F 
ATOM     77  C   UNL A   1      46.069  22.701  24.859  1.00  0.00     0.200 A 
ATOM     78  F   UNL A   1      47.232  24.671  24.314  1.00  0.00    -0.200 F 
ATOM     79  F   UNL A   1      46.772  22.012  23.951  1.00  0.00    -0.200 F 
ENDBRANCH  55  69
BRANCH  56  80
ATOM     80  C   UNL A   1      40.667  30.189  33.347  1.00  0.00     0.064 A 
ATOM     81  C   UNL A   1      40.383  31.559  33.506  1.00  0.00     0.173 A 
ATOM     82  C   UNL A   1      39.584  29.307  33.278  1.00  0.00     0.173 A 
ATOM     83  F   UNL A   1      41.387  32.448  33.577  1.00  0.00    -0.203 F 
ATOM     84  C   UNL A   1      39.074  32.037  33.481  1.00  0.00     0.198 A 
ATOM     85  C   UNL A   1      38.272  29.788  33.265  1.00  0.00     0.198 A 
ATOM     86  F   UNL A   1      39.789  27.994  33.105  1.00  0.00    -0.203 F 
ATOM     87  F   UNL A   1      38.843  33.357  33.523  1.00  0.00    -0.200 F 
ATOM     88  C   UNL A   1      38.020  31.152  33.331  1.00  0.00     0.200 A 
ATOM     89  F   UNL A   1      37.252  28.935  33.097  1.00  0.00    -0.200 F 
ATOM     90  F   UNL A   1      36.769  31.615  33.212  1.00  0.00    -0.200 F 
ENDBRANCH  56  80
BRANCH  68  91
ATOM     91  C   UNL A   1      45.203  24.564  33.615  1.00  0.00     0.064 A 
ATOM     92  C   UNL A   1      44.461  23.388  33.804  1.00  0.00     0.173 A 
ATOM     93  C   UNL A   1      46.545  24.523  34.061  1.00  0.00     0.173 A 
ATOM     94  F   UNL A   1      43.213  23.270  33.328  1.00  0.00    -0.203 F 
ATOM     95  C   UNL A   1      45.002  22.269  34.444  1.00  0.00     0.198 A 
ATOM     96  C   UNL A   1      47.098  23.388  34.651  1.00  0.00     0.198 A 
ATOM     97  F   UNL A   1      47.358  25.579  33.915  1.00  0.00    -0.203 F 
ATOM     98  F   UNL A   1      44.243  21.181  34.636  1.00  0.00    -0.200 F 
ATOM     99  C   UNL A   1      46.323  22.266  34.856  1.00  0.00     0.200 A 
ATOM    100  F   UNL A   1      48.392  23.383  35.002  1.00  0.00    -0.200 F 
ATOM    101  F   UNL A   1      46.850  21.177  35.430  1.00  0.00    -0.200 F 
ENDBRANCH  68  91
ENDBRANCH  42  43
ENDBRANCH  34  37
ENDBRANCH  32  33
ENDBRANCH  31  32
ENDBRANCH  30  31
ENDBRANCH  29  30
ENDBRANCH   1  29
TORSDOF 18
ENDMDL
MODEL 2
REMARK VINA RESULT:     -12.4      1.286      2.202
REMARK SMILES COc1cc(S(=O)(=O)Nc2cccc(C(=O)NCCCCCCNC(=O)c3ccc(-c4c5nc(c(-c6c(F)c(F)c(F)c(F)c6F)c6ccc([nH]6)c(-c6c(F)c(F)c(F)c(F)c6F)c6nc(c(-c7c(F)c(F)c(F)c(F)c7F)c7ccc4[nH]7)C=C6)C=C5)cc3)c2)c(OC)cc1C
REMARK SMILES IDX 19 1 18 2 17 3 15 4 16 5 14 7 10 8 11 9 90 10 12 11 13 12
REMARK SMILES IDX 9 13 6 15 7 16 8 17 5 18 3 19 4 20 95 21 94 22 96 23 91 24
REMARK SMILES IDX 2 25 1 26 92 27 93 28 20 29 21 30 22 31 23 32 24 33 25 34
REMARK SMILES IDX 26 36 27 37 28 38 89 39 29 40 88 41 30 42 31 43 32 44 82 45
REMARK SMILES IDX 33 46 87 47 81 48 83 49 34 50 86 51 80 52 79 53 35 55 67 56
REMARK SMILES IDX 47 57 66 58 48 59 51 60 65 61 84 62 49 63 50 64 64 66 85 67
REMARK SMILES IDX 52 68 36 69 37 70 45 71 38 72 39 73 43 74 46 75 40 76 41 77
REMARK SMILES IDX 44 78 42 79 68 80 69 81 77 82 70 83 71 84 75 85 78 86 72 87
REMARK SMILES IDX 73 88 76 89 74 90 53 91 54 92 62 93 55 94 56 95 60 96 63 97
REMARK SMILES IDX 57 98 58 99 61 100 59 101
REMARK H PARENT 17 6 9 14 24 35 83 54 51 65
REMARK Flexibility Score: inf
ROOT
ATOM      1  C   UNL A   1      31.606  29.702  24.393  1.00  0.00     0.021 C 
ENDROOT
BRANCH   1   2
ATOM      2  C   UNL A   1      31.269  28.770  23.228  1.00  0.00     0.116 C 
BRANCH   2   3
ATOM      3  N   UNL A   1      29.862  28.420  23.233  1.00  0.00    -0.352 N 
ATOM      4  C   UNL A   1      29.200  27.302  23.670  1.00  0.00     0.251 C 
ATOM      5  O   UNL A   1      27.971  27.294  23.631  1.00  0.00    -0.269 OA
ATOM      6  H   UNL A   1      29.274  29.111  22.852  1.00  0.00     0.163 HD
BRANCH   4   7
ATOM      7  C   UNL A   1      29.904  26.150  24.280  1.00  0.00     0.041 A 
ATOM      8  C   UNL A   1      30.895  23.965  23.878  1.00  0.00     0.050 A 
ATOM      9  C   UNL A   1      31.132  23.824  25.243  1.00  0.00     0.027 A 
ATOM     10  C   UNL A   1      30.344  25.157  23.398  1.00  0.00     0.040 A 
ATOM     11  C   UNL A   1      30.753  24.844  26.126  1.00  0.00     0.003 A 
ATOM     12  C   UNL A   1      30.133  26.004  25.648  1.00  0.00     0.014 A 
BRANCH   8  13
ATOM     13  N   UNL A   1      31.132  22.955  22.908  1.00  0.00    -0.279 N 
ATOM     14  H   UNL A   1      30.340  22.554  22.482  1.00  0.00     0.180 HD
BRANCH  13  15
ATOM     15  S   UNL A   1      32.618  22.381  22.424  1.00  0.00     0.265 S 
ATOM     16  O   UNL A   1      32.942  22.999  21.152  1.00  0.00    -0.201 OA
ATOM     17  O   UNL A   1      32.511  20.938  22.528  1.00  0.00    -0.201 OA
BRANCH  15  18
ATOM     18  C   UNL A   1      33.915  22.853  23.547  1.00  0.00     0.133 A 
ATOM     19  C   UNL A   1      35.580  21.965  25.081  1.00  0.00     0.123 A 
ATOM     20  C   UNL A   1      34.460  21.779  24.276  1.00  0.00     0.073 A 
ATOM     21  C   UNL A   1      36.259  23.180  25.060  1.00  0.00    -0.005 A 
ATOM     22  C   UNL A   1      35.656  24.268  24.411  1.00  0.00     0.055 A 
ATOM     23  C   UNL A   1      37.587  23.375  25.734  1.00  0.00     0.048 C 
ATOM     24  C   UNL A   1      34.449  24.134  23.705  1.00  0.00     0.139 A 
BRANCH  19  25
ATOM     25  O   UNL A   1      35.994  20.899  25.830  1.00  0.00    -0.496 OA
ATOM     26  C   UNL A   1      36.749  19.979  25.034  1.00  0.00     0.278 C 
ENDBRANCH  19  25
BRANCH  24  27
ATOM     27  O   UNL A   1      33.759  25.208  23.230  1.00  0.00    -0.495 OA
ATOM     28  C   UNL A   1      33.719  26.390  24.024  1.00  0.00     0.278 C 
ENDBRANCH  24  27
ENDBRANCH  15  18
ENDBRANCH  13  15
ENDBRANCH   8  13
ENDBRANCH   4   7
ENDBRANCH   2   3
ENDBRANCH   1   2
BRANCH   1  29
ATOM     29  C   UNL A   1      32.110  28.997  25.663  1.00  0.00     0.002 C 
BRANCH  29  30
ATOM     30  C   UNL A   1      31.922  29.748  26.992  1.00  0.00     0.002 C 
BRANCH  30  31
ATOM     31  C   UNL A   1      32.972  30.809  27.329  1.00  0.00     0.021 C 
BRANCH  31  32
ATOM     32  C   UNL A   1      34.258  30.250  27.933  1.00  0.00     0.116 C 
BRANCH  32  33
ATOM     33  N   UNL A   1      34.967  31.195  28.793  1.00  0.00    -0.352 N 
ATOM     34  C   UNL A   1      36.211  31.061  29.392  1.00  0.00     0.251 C 
ATOM     35  H   UNL A   1      34.497  32.041  28.971  1.00  0.00     0.163 HD
ATOM     36  O   UNL A   1      36.684  31.952  30.071  1.00  0.00    -0.269 OA
BRANCH  34  37
ATOM     37  C   UNL A   1      37.011  29.857  29.073  1.00  0.00     0.039 A 
ATOM     38  C   UNL A   1      37.316  28.987  30.125  1.00  0.00     0.014 A 
ATOM     39  C   UNL A   1      37.658  29.750  27.844  1.00  0.00     0.014 A 
ATOM     40  C   UNL A   1      38.455  28.195  30.034  1.00  0.00     0.010 A 
ATOM     41  C   UNL A   1      38.833  29.029  27.782  1.00  0.00     0.010 A 
ATOM     42  C   UNL A   1      39.271  28.326  28.910  1.00  0.00    -0.014 A 
BRANCH  42  43
ATOM     43  C   UNL A   1      40.659  27.885  28.899  1.00  0.00     0.031 A 
ATOM     44  C   UNL A   1      41.007  26.516  28.475  1.00  0.00     0.074 A 
ATOM     45  C   UNL A   1      41.628  28.764  29.244  1.00  0.00     0.049 A 
ATOM     46  N   UNL A   1      42.101  25.914  28.798  1.00  0.00    -0.248 NA
ATOM     47  C   UNL A   1      40.089  25.672  27.719  1.00  0.00     0.031 C 
ATOM     48  C   UNL A   1      43.069  28.608  29.071  1.00  0.00     0.029 A 
ATOM     49  N   UNL A   1      41.493  29.919  30.038  1.00  0.00    -0.354 N 
ATOM     50  C   UNL A   1      42.172  24.754  28.060  1.00  0.00     0.074 A 
ATOM     51  C   UNL A   1      40.841  24.582  27.539  1.00  0.00     0.031 C 
ATOM     52  C   UNL A   1      43.696  29.403  29.951  1.00  0.00     0.029 A 
ATOM     53  C   UNL A   1      42.678  29.986  30.807  1.00  0.00     0.049 A 
ATOM     54  H   UNL A   1      40.735  30.546  30.054  1.00  0.00     0.167 HD
ATOM     55  C   UNL A   1      43.396  24.184  27.861  1.00  0.00     0.037 A 
ATOM     56  C   UNL A   1      42.650  29.883  32.167  1.00  0.00     0.037 A 
ATOM     57  C   UNL A   1      44.386  24.761  28.779  1.00  0.00     0.049 A 
ATOM     58  C   UNL A   1      43.438  28.716  32.716  1.00  0.00     0.074 A 
ATOM     59  C   UNL A   1      45.426  25.661  28.615  1.00  0.00     0.029 A 
ATOM     60  N   UNL A   1      44.196  24.633  30.156  1.00  0.00    -0.354 N 
ATOM     61  N   UNL A   1      43.844  27.712  31.991  1.00  0.00    -0.248 NA
ATOM     62  C   UNL A   1      43.791  28.565  34.125  1.00  0.00     0.031 C 
ATOM     63  C   UNL A   1      45.793  26.147  29.898  1.00  0.00     0.029 A 
ATOM     64  C   UNL A   1      45.005  25.515  30.845  1.00  0.00     0.049 A 
ATOM     65  H   UNL A   1      43.570  24.000  30.578  1.00  0.00     0.167 HD
ATOM     66  C   UNL A   1      44.463  26.791  32.791  1.00  0.00     0.074 A 
ATOM     67  C   UNL A   1      44.426  27.380  34.117  1.00  0.00     0.031 C 
ATOM     68  C   UNL A   1      44.941  25.611  32.297  1.00  0.00     0.037 A 
BRANCH  55  69
ATOM     69  C   UNL A   1      43.782  23.321  26.661  1.00  0.00     0.064 A 
ATOM     70  C   UNL A   1      43.308  21.989  26.564  1.00  0.00     0.173 A 
ATOM     71  C   UNL A   1      44.708  23.666  25.652  1.00  0.00     0.173 A 
ATOM     72  F   UNL A   1      42.375  21.518  27.403  1.00  0.00    -0.203 F 
ATOM     73  C   UNL A   1      43.785  21.077  25.611  1.00  0.00     0.198 A 
ATOM     74  C   UNL A   1      45.173  22.760  24.691  1.00  0.00     0.198 A 
ATOM     75  F   UNL A   1      45.226  24.888  25.535  1.00  0.00    -0.203 F 
ATOM     76  F   UNL A   1      43.336  19.815  25.615  1.00  0.00    -0.200 F 
ATOM     77  C   UNL A   1      44.730  21.459  24.684  1.00  0.00     0.200 A 
ATOM     78  F   UNL A   1      46.077  23.166  23.787  1.00  0.00    -0.200 F 
ATOM     79  F   UNL A   1      45.206  20.586  23.787  1.00  0.00    -0.200 F 
ENDBRANCH  55  69
BRANCH  56  80
ATOM     80  C   UNL A   1      41.424  30.456  32.776  1.00  0.00     0.064 A 
ATOM     81  C   UNL A   1      41.279  31.858  32.781  1.00  0.00     0.173 A 
ATOM     82  C   UNL A   1      40.277  29.686  32.998  1.00  0.00     0.173 A 
ATOM     83  F   UNL A   1      42.349  32.641  32.572  1.00  0.00    -0.203 F 
ATOM     84  C   UNL A   1      40.027  32.457  32.885  1.00  0.00     0.198 A 
ATOM     85  C   UNL A   1      39.023  30.292  33.114  1.00  0.00     0.198 A 
ATOM     86  F   UNL A   1      40.347  28.348  32.983  1.00  0.00    -0.203 F 
ATOM     87  F   UNL A   1      39.911  33.789  32.774  1.00  0.00    -0.200 F 
ATOM     88  C   UNL A   1      38.895  31.671  33.023  1.00  0.00     0.200 A 
ATOM     89  F   UNL A   1      37.925  29.532  33.225  1.00  0.00    -0.200 F 
ATOM     90  F   UNL A   1      37.682  32.239  33.030  1.00  0.00    -0.200 F 
ENDBRANCH  56  80
BRANCH  68  91
ATOM     91  C   UNL A   1      45.463  24.469  33.130  1.00  0.00     0.064 A 
ATOM     92  C   UNL A   1      46.725  24.466  33.745  1.00  0.00     0.173 A 
ATOM     93  C   UNL A   1      44.619  23.382  33.453  1.00  0.00     0.173 A 
ATOM     94  F   UNL A   1      47.571  25.496  33.600  1.00  0.00    -0.203 F 
ATOM     95  C   UNL A   1      47.136  23.422  34.579  1.00  0.00     0.198 A 
ATOM     96  C   UNL A   1      45.012  22.369  34.327  1.00  0.00     0.198 A 
ATOM     97  F   UNL A   1      43.382  23.286  32.944  1.00  0.00    -0.203 F 
ATOM     98  F   UNL A   1      48.365  23.444  35.114  1.00  0.00    -0.200 F 
ATOM     99  C   UNL A   1      46.276  22.381  34.878  1.00  0.00     0.200 A 
ATOM    100  F   UNL A   1      44.150  21.392  34.644  1.00  0.00    -0.200 F 
ATOM    101  F   UNL A   1      46.658  21.406  35.712  1.00  0.00    -0.200 F 
ENDBRANCH  68  91
ENDBRANCH  42  43
ENDBRANCH  34  37
ENDBRANCH  32  33
ENDBRANCH  31  32
ENDBRANCH  30  31
ENDBRANCH  29  30
ENDBRANCH   1  29
TORSDOF 18
ENDMDL
MODEL 3
REMARK VINA RESULT:     -11.8      3.864     10.461
REMARK SMILES COc1cc(S(=O)(=O)Nc2cccc(C(=O)NCCCCCCNC(=O)c3ccc(-c4c5nc(c(-c6c(F)c(F)c(F)c(F)c6F)c6ccc([nH]6)c(-c6c(F)c(F)c(F)c(F)c6F)c6nc(c(-c7c(F)c(F)c(F)c(F)c7F)c7ccc4[nH]7)C=C6)C=C5)cc3)c2)c(OC)cc1C
REMARK SMILES IDX 19 1 18 2 17 3 15 4 16 5 14 7 10 8 11 9 90 10 12 11 13 12
REMARK SMILES IDX 9 13 6 15 7 16 8 17 5 18 3 19 4 20 95 21 94 22 96 23 91 24
REMARK SMILES IDX 2 25 1 26 92 27 93 28 20 29 21 30 22 31 23 32 24 33 25 34
REMARK SMILES IDX 26 36 27 37 28 38 89 39 29 40 88 41 30 42 31 43 32 44 82 45
REMARK SMILES IDX 33 46 87 47 81 48 83 49 34 50 86 51 80 52 79 53 35 55 67 56
REMARK SMILES IDX 47 57 66 58 48 59 51 60 65 61 84 62 49 63 50 64 64 66 85 67
REMARK SMILES IDX 52 68 36 69 37 70 45 71 38 72 39 73 43 74 46 75 40 76 41 77
REMARK SMILES IDX 44 78 42 79 68 80 69 81 77 82 70 83 71 84 75 85 78 86 72 87
REMARK SMILES IDX 73 88 76 89 74 90 53 91 54 92 62 93 55 94 56 95 60 96 63 97
REMARK SMILES IDX 57 98 58 99 61 100 59 101
REMARK H PARENT 17 6 9 14 24 35 83 54 51 65
REMARK Flexibility Score: inf
ROOT
ATOM      1  C   UNL A   1      36.094  22.887  24.563  1.00  0.00     0.021 C 
ENDROOT
BRANCH   1   2
ATOM      2  C   UNL A   1      35.613  23.974  25.525  1.00  0.00     0.116 C 
BRANCH   2   3
ATOM      3  N   UNL A   1      34.239  23.739  25.928  1.00  0.00    -0.352 N 
ATOM      4  C   UNL A   1      33.052  23.900  25.264  1.00  0.00     0.251 C 
ATOM      5  O   UNL A   1      32.014  23.543  25.819  1.00  0.00    -0.269 OA
ATOM      6  H   UNL A   1      34.142  23.403  26.849  1.00  0.00     0.163 HD
BRANCH   4   7
ATOM      7  C   UNL A   1      32.984  24.389  23.867  1.00  0.00     0.041 A 
ATOM      8  C   UNL A   1      32.528  26.302  22.434  1.00  0.00     0.050 A 
ATOM      9  C   UNL A   1      32.682  25.493  21.310  1.00  0.00     0.027 A 
ATOM     10  C   UNL A   1      32.747  25.759  23.703  1.00  0.00     0.040 A 
ATOM     11  C   UNL A   1      32.983  24.133  21.465  1.00  0.00     0.003 A 
ATOM     12  C   UNL A   1      33.128  23.578  22.742  1.00  0.00     0.014 A 
BRANCH   8  13
ATOM     13  N   UNL A   1      32.112  27.659  22.401  1.00  0.00    -0.279 N 
ATOM     14  H   UNL A   1      32.786  28.324  22.131  1.00  0.00     0.180 HD
BRANCH  13  15
ATOM     15  S   UNL A   1      30.595  28.236  22.774  1.00  0.00     0.265 S 
ATOM     16  O   UNL A   1      29.810  27.128  23.283  1.00  0.00    -0.201 OA
ATOM     17  O   UNL A   1      30.166  28.949  21.587  1.00  0.00    -0.201 OA
BRANCH  15  18
ATOM     18  C   UNL A   1      30.643  29.447  24.076  1.00  0.00     0.133 A 
ATOM     19  C   UNL A   1      31.857  30.108  26.077  1.00  0.00     0.123 A 
ATOM     20  C   UNL A   1      31.597  29.178  25.075  1.00  0.00     0.073 A 
ATOM     21  C   UNL A   1      31.281  31.374  26.018  1.00  0.00    -0.005 A 
ATOM     22  C   UNL A   1      30.261  31.598  25.081  1.00  0.00     0.055 A 
ATOM     23  C   UNL A   1      31.683  32.488  26.940  1.00  0.00     0.048 C 
ATOM     24  C   UNL A   1      29.886  30.619  24.145  1.00  0.00     0.139 A 
BRANCH  19  25
ATOM     25  O   UNL A   1      32.727  29.737  27.063  1.00  0.00    -0.496 OA
ATOM     26  C   UNL A   1      33.685  28.793  26.570  1.00  0.00     0.278 C 
ENDBRANCH  19  25
BRANCH  24  27
ATOM     27  O   UNL A   1      28.783  30.750  23.357  1.00  0.00    -0.495 OA
ATOM     28  C   UNL A   1      28.479  32.037  22.827  1.00  0.00     0.278 C 
ENDBRANCH  24  27
ENDBRANCH  15  18
ENDBRANCH  13  15
ENDBRANCH   8  13
ENDBRANCH   4   7
ENDBRANCH   2   3
ENDBRANCH   1   2
BRANCH   1  29
ATOM     29  C   UNL A   1      36.551  21.582  25.236  1.00  0.00     0.002 C 
BRANCH  29  30
ATOM     30  C   UNL A   1      38.036  21.210  25.086  1.00  0.00     0.002 C 
BRANCH  30  31
ATOM     31  C   UNL A   1      38.953  21.586  26.253  1.00  0.00     0.021 C 
BRANCH  31  32
ATOM     32  C   UNL A   1      39.304  23.070  26.321  1.00  0.00     0.116 C 
BRANCH  32  33
ATOM     33  N   UNL A   1      40.741  23.339  26.298  1.00  0.00    -0.352 N 
ATOM     34  C   UNL A   1      41.406  24.532  26.539  1.00  0.00     0.251 C 
ATOM     35  H   UNL A   1      41.313  22.568  26.084  1.00  0.00     0.163 HD
ATOM     36  O   UNL A   1      42.620  24.597  26.504  1.00  0.00    -0.269 OA
BRANCH  34  37
ATOM     37  C   UNL A   1      40.606  25.700  26.973  1.00  0.00     0.039 A 
ATOM     38  C   UNL A   1      40.810  26.908  26.299  1.00  0.00     0.014 A 
ATOM     39  C   UNL A   1      39.898  25.658  28.172  1.00  0.00     0.014 A 
ATOM     40  C   UNL A   1      40.542  28.101  26.962  1.00  0.00     0.010 A 
ATOM     41  C   UNL A   1      39.709  26.837  28.863  1.00  0.00     0.010 A 
ATOM     42  C   UNL A   1      40.115  28.046  28.288  1.00  0.00    -0.014 A 
BRANCH  42  43
ATOM     43  C   UNL A   1      40.213  29.189  29.187  1.00  0.00     0.031 A 
ATOM     44  C   UNL A   1      39.156  30.216  29.211  1.00  0.00     0.074 A 
ATOM     45  C   UNL A   1      41.270  29.271  30.028  1.00  0.00     0.049 A 
ATOM     46  N   UNL A   1      39.323  31.419  29.646  1.00  0.00    -0.248 NA
ATOM     47  C   UNL A   1      37.829  29.988  28.651  1.00  0.00     0.031 C 
ATOM     48  C   UNL A   1      41.437  30.184  31.155  1.00  0.00     0.029 A 
ATOM     49  N   UNL A   1      42.531  28.661  29.882  1.00  0.00    -0.354 N 
ATOM     50  C   UNL A   1      38.085  32.016  29.709  1.00  0.00     0.074 A 
ATOM     51  C   UNL A   1      37.232  31.149  28.940  1.00  0.00     0.031 C 
ATOM     52  C   UNL A   1      42.747  30.318  31.409  1.00  0.00     0.029 A 
ATOM     53  C   UNL A   1      43.464  29.606  30.366  1.00  0.00     0.049 A 
ATOM     54  H   UNL A   1      42.720  27.766  29.519  1.00  0.00     0.167 HD
ATOM     55  C   UNL A   1      37.920  33.082  30.545  1.00  0.00     0.037 A 
ATOM     56  C   UNL A   1      44.405  30.161  29.547  1.00  0.00     0.037 A 
ATOM     57  C   UNL A   1      39.224  33.603  30.976  1.00  0.00     0.049 A 
ATOM     58  C   UNL A   1      44.312  31.664  29.429  1.00  0.00     0.074 A 
ATOM     59  C   UNL A   1      39.935  33.527  32.162  1.00  0.00     0.029 A 
ATOM     60  N   UNL A   1      40.117  34.084  30.018  1.00  0.00    -0.354 N 
ATOM     61  N   UNL A   1      43.269  32.356  29.792  1.00  0.00    -0.248 NA
ATOM     62  C   UNL A   1      45.363  32.500  28.854  1.00  0.00     0.031 C 
ATOM     63  C   UNL A   1      41.285  33.871  31.889  1.00  0.00     0.029 A 
ATOM     64  C   UNL A   1      41.388  34.195  30.547  1.00  0.00     0.049 A 
ATOM     65  H   UNL A   1      39.874  34.314  29.091  1.00  0.00     0.167 HD
ATOM     66  C   UNL A   1      43.468  33.676  29.491  1.00  0.00     0.074 A 
ATOM     67  C   UNL A   1      44.804  33.720  28.925  1.00  0.00     0.031 C 
ATOM     68  C   UNL A   1      42.508  34.620  29.718  1.00  0.00     0.037 A 
BRANCH  55  69
ATOM     69  C   UNL A   1      36.605  33.488  31.208  1.00  0.00     0.064 A 
ATOM     70  C   UNL A   1      35.564  34.053  30.431  1.00  0.00     0.173 A 
ATOM     71  C   UNL A   1      36.339  33.489  32.595  1.00  0.00     0.173 A 
ATOM     72  F   UNL A   1      35.625  34.072  29.092  1.00  0.00    -0.203 F 
ATOM     73  C   UNL A   1      34.422  34.639  30.996  1.00  0.00     0.198 A 
ATOM     74  C   UNL A   1      35.191  34.059  33.159  1.00  0.00     0.198 A 
ATOM     75  F   UNL A   1      37.167  32.951  33.490  1.00  0.00    -0.203 F 
ATOM     76  F   UNL A   1      33.504  35.208  30.203  1.00  0.00    -0.200 F 
ATOM     77  C   UNL A   1      34.243  34.655  32.362  1.00  0.00     0.200 A 
ATOM     78  F   UNL A   1      35.034  34.042  34.490  1.00  0.00    -0.200 F 
ATOM     79  F   UNL A   1      33.165  35.234  32.908  1.00  0.00    -0.200 F 
ENDBRANCH  55  69
BRANCH  56  80
ATOM     80  C   UNL A   1      44.876  29.240  28.482  1.00  0.00     0.064 A 
ATOM     81  C   UNL A   1      45.807  28.244  28.833  1.00  0.00     0.173 A 
ATOM     82  C   UNL A   1      44.180  29.083  27.279  1.00  0.00     0.173 A 
ATOM     83  F   UNL A   1      46.500  28.348  29.978  1.00  0.00    -0.203 F 
ATOM     84  C   UNL A   1      45.951  27.086  28.072  1.00  0.00     0.198 A 
ATOM     85  C   UNL A   1      44.336  27.925  26.512  1.00  0.00     0.198 A 
ATOM     86  F   UNL A   1      43.265  29.986  26.902  1.00  0.00    -0.203 F 
ATOM     87  F   UNL A   1      46.765  26.106  28.492  1.00  0.00    -0.200 F 
ATOM     88  C   UNL A   1      45.193  26.915  26.926  1.00  0.00     0.200 A 
ATOM     89  F   UNL A   1      43.586  27.748  25.415  1.00  0.00    -0.200 F 
ATOM     90  F   UNL A   1      45.261  25.764  26.244  1.00  0.00    -0.200 F 
ENDBRANCH  56  80
BRANCH  68  91
ATOM     91  C   UNL A   1      42.571  36.051  29.250  1.00  0.00     0.064 A 
ATOM     92  C   UNL A   1      43.322  37.050  29.890  1.00  0.00     0.173 A 
ATOM     93  C   UNL A   1      41.970  36.423  28.024  1.00  0.00     0.173 A 
ATOM     94  F   UNL A   1      44.024  36.786  31.001  1.00  0.00    -0.203 F 
ATOM     95  C   UNL A   1      43.419  38.345  29.372  1.00  0.00     0.198 A 
ATOM     96  C   UNL A   1      42.113  37.700  27.484  1.00  0.00     0.198 A 
ATOM     97  F   UNL A   1      41.247  35.549  27.311  1.00  0.00    -0.203 F 
ATOM     98  F   UNL A   1      44.116  39.276  30.039  1.00  0.00    -0.200 F 
ATOM     99  C   UNL A   1      42.824  38.666  28.165  1.00  0.00     0.200 A 
ATOM    100  F   UNL A   1      41.571  37.983  26.291  1.00  0.00    -0.200 F 
ATOM    101  F   UNL A   1      42.956  39.895  27.652  1.00  0.00    -0.200 F 
ENDBRANCH  68  91
ENDBRANCH  42  43
ENDBRANCH  34  37
ENDBRANCH  32  33
ENDBRANCH  31  32
ENDBRANCH  30  31
ENDBRANCH  29  30
ENDBRANCH   1  29
TORSDOF 18
ENDMDL
