MODEL 1
REMARK VINA RESULT:     -12.4      0.000      0.000
REMARK SMILES CCc1cc(C)c2c(c1)C=C(C(=O)NCCCCCCNC(=O)c1ccc(-c3c4nc(c(-c5c(F)c(F)c(F)c(F)c5F)c5ccc([nH]5)c(-c5c(F)c(F)c(F)c(F)c5F)c5nc(c(-c6c(F)c(F)c(F)c(F)c6F)c6ccc3[nH]6)C=C5)C=C4)cc1)[C@@H](C(F)(F)F)O2
REMARK SMILES IDX 18 1 17 2 16 3 15 4 14 5 12 6 13 7 11 9 3 10 4 11 9 12 5 13
REMARK SMILES IDX 8 14 6 15 7 16 10 17 92 18 87 19 2 20 1 21 88 22 89 23 90 24
REMARK SMILES IDX 91 25 19 26 20 27 21 28 22 29 23 31 24 32 25 33 86 34 26 35
REMARK SMILES IDX 85 36 27 37 28 38 29 39 79 40 30 41 84 42 78 43 80 44 31 45
REMARK SMILES IDX 83 46 77 47 76 48 32 50 64 51 44 52 63 53 45 54 48 55 62 56
REMARK SMILES IDX 81 57 46 58 47 59 61 61 82 62 49 63 33 64 34 65 42 66 35 67
REMARK SMILES IDX 36 68 40 69 43 70 37 71 38 72 41 73 39 74 65 75 66 76 74 77
REMARK SMILES IDX 67 78 68 79 72 80 75 81 69 82 70 83 73 84 71 85 50 86 51 87
REMARK SMILES IDX 59 88 52 89 53 90 57 91 60 92 54 93 55 94 58 95 56 96
REMARK H PARENT 14 8 21 30 80 49 48 60
REMARK Flexibility Score: inf
ROOT
ATOM      1  C   UNL A   1      31.638  30.530  25.899  1.00  0.00     0.002 C 
ENDROOT
BRANCH   1   2
ATOM      2  C   UNL A   1      32.698  29.659  26.588  1.00  0.00     0.002 C 
BRANCH   2   3
ATOM      3  C   UNL A   1      33.755  29.057  25.657  1.00  0.00     0.021 C 
BRANCH   3   4
ATOM      4  C   UNL A   1      33.824  27.534  25.710  1.00  0.00     0.116 C 
BRANCH   4   5
ATOM      5  N   UNL A   1      33.783  26.946  24.383  1.00  0.00    -0.352 N 
ATOM      6  C   UNL A   1      32.874  26.791  23.393  1.00  0.00     0.251 C 
ATOM      7  O   UNL A   1      33.297  26.225  22.380  1.00  0.00    -0.270 OA
ATOM      8  H   UNL A   1      34.652  26.555  24.138  1.00  0.00     0.163 HD
BRANCH   6   9
ATOM      9  C   UNL A   1      31.451  27.241  23.446  1.00  0.00     0.067 C 
ATOM     10  C   UNL A   1      28.283  30.860  22.815  1.00  0.00    -0.047 A 
ATOM     11  C   UNL A   1      27.234  29.979  23.119  1.00  0.00     0.011 A 
ATOM     12  C   UNL A   1      29.599  30.372  22.808  1.00  0.00     0.015 A 
ATOM     13  C   UNL A   1      27.479  28.624  23.371  1.00  0.00    -0.008 A 
ATOM     14  C   UNL A   1      29.861  29.025  23.074  1.00  0.00     0.018 A 
ATOM     15  C   UNL A   1      26.344  27.684  23.661  1.00  0.00     0.048 C 
ATOM     16  C   UNL A   1      28.800  28.162  23.348  1.00  0.00     0.130 A 
ATOM     17  C   UNL A   1      31.222  28.500  23.029  1.00  0.00     0.025 C 
ATOM     18  O   UNL A   1      28.987  26.826  23.560  1.00  0.00    -0.475 OA
ATOM     19  C   UNL A   1      30.315  26.401  23.956  1.00  0.00     0.314 C 
BRANCH  10  20
ATOM     20  C   UNL A   1      28.012  32.318  22.530  1.00  0.00     0.032 C 
ATOM     21  C   UNL A   1      29.060  33.255  23.121  1.00  0.00     0.009 C 
ENDBRANCH  10  20
BRANCH  19  22
ATOM     22  C   UNL A   1      30.343  26.215  25.483  1.00  0.00     0.429 C 
ATOM     23  F   UNL A   1      30.615  27.394  26.098  1.00  0.00    -0.167 F 
ATOM     24  F   UNL A   1      29.154  25.798  25.980  1.00  0.00    -0.167 F 
ATOM     25  F   UNL A   1      31.275  25.323  25.886  1.00  0.00    -0.167 F 
ENDBRANCH  19  22
ENDBRANCH   6   9
ENDBRANCH   4   5
ENDBRANCH   3   4
ENDBRANCH   2   3
ENDBRANCH   1   2
BRANCH   1  26
ATOM     26  C   UNL A   1      31.434  31.921  26.507  1.00  0.00     0.021 C 
BRANCH  26  27
ATOM     27  C   UNL A   1      32.651  32.471  27.243  1.00  0.00     0.116 C 
BRANCH  27  28
ATOM     28  N   UNL A   1      32.500  33.883  27.546  1.00  0.00    -0.352 N 
ATOM     29  C   UNL A   1      33.123  34.622  28.518  1.00  0.00     0.251 C 
ATOM     30  H   UNL A   1      31.865  34.376  26.977  1.00  0.00     0.163 HD
ATOM     31  O   UNL A   1      32.736  35.753  28.794  1.00  0.00    -0.269 OA
BRANCH  29  32
ATOM     32  C   UNL A   1      34.269  34.038  29.238  1.00  0.00     0.039 A 
ATOM     33  C   UNL A   1      35.565  34.375  28.840  1.00  0.00     0.014 A 
ATOM     34  C   UNL A   1      34.056  33.148  30.296  1.00  0.00     0.014 A 
ATOM     35  C   UNL A   1      36.654  33.845  29.532  1.00  0.00     0.010 A 
ATOM     36  C   UNL A   1      35.141  32.658  31.014  1.00  0.00     0.010 A 
ATOM     37  C   UNL A   1      36.448  32.992  30.628  1.00  0.00    -0.014 A 
BRANCH  37  38
ATOM     38  C   UNL A   1      37.593  32.387  31.347  1.00  0.00     0.031 A 
ATOM     39  C   UNL A   1      38.358  31.268  30.703  1.00  0.00     0.074 A 
ATOM     40  C   UNL A   1      37.921  32.825  32.577  1.00  0.00     0.049 A 
ATOM     41  N   UNL A   1      39.358  30.571  31.176  1.00  0.00    -0.248 NA
ATOM     42  C   UNL A   1      37.934  30.869  29.350  1.00  0.00     0.031 C 
ATOM     43  C   UNL A   1      37.241  33.897  33.303  1.00  0.00     0.029 A 
ATOM     44  N   UNL A   1      38.912  32.416  33.435  1.00  0.00    -0.354 N 
ATOM     45  C   UNL A   1      39.688  29.662  30.180  1.00  0.00     0.074 A 
ATOM     46  C   UNL A   1      38.747  29.853  29.099  1.00  0.00     0.031 C 
ATOM     47  C   UNL A   1      37.847  34.074  34.490  1.00  0.00     0.029 A 
ATOM     48  C   UNL A   1      38.935  33.110  34.619  1.00  0.00     0.049 A 
ATOM     49  H   UNL A   1      39.545  31.693  33.220  1.00  0.00     0.167 HD
ATOM     50  C   UNL A   1      40.703  28.769  30.159  1.00  0.00     0.037 A 
ATOM     51  C   UNL A   1      39.746  32.976  35.686  1.00  0.00     0.037 A 
ATOM     52  C   UNL A   1      41.646  28.592  31.230  1.00  0.00     0.049 A 
ATOM     53  C   UNL A   1      40.833  31.933  35.655  1.00  0.00     0.074 A 
ATOM     54  C   UNL A   1      42.721  27.723  31.296  1.00  0.00     0.029 A 
ATOM     55  N   UNL A   1      41.627  29.302  32.422  1.00  0.00    -0.354 N 
ATOM     56  N   UNL A   1      41.159  31.106  34.692  1.00  0.00    -0.248 NA
ATOM     57  C   UNL A   1      41.667  31.808  36.860  1.00  0.00     0.031 C 
ATOM     58  C   UNL A   1      43.335  27.885  32.541  1.00  0.00     0.029 A 
ATOM     59  C   UNL A   1      42.666  28.881  33.234  1.00  0.00     0.049 A 
ATOM     60  H   UNL A   1      40.973  30.000  32.654  1.00  0.00     0.167 HD
ATOM     61  C   UNL A   1      42.251  30.388  35.160  1.00  0.00     0.074 A 
ATOM     62  C   UNL A   1      42.541  30.883  36.489  1.00  0.00     0.031 C 
ATOM     63  C   UNL A   1      42.950  29.404  34.545  1.00  0.00     0.037 A 
BRANCH  50  64
ATOM     64  C   UNL A   1      40.875  27.932  28.928  1.00  0.00     0.064 A 
ATOM     65  C   UNL A   1      40.087  26.792  28.714  1.00  0.00     0.173 A 
ATOM     66  C   UNL A   1      41.770  28.315  27.920  1.00  0.00     0.173 A 
ATOM     67  F   UNL A   1      39.227  26.379  29.657  1.00  0.00    -0.203 F 
ATOM     68  C   UNL A   1      40.192  26.063  27.533  1.00  0.00     0.198 A 
ATOM     69  C   UNL A   1      41.856  27.597  26.730  1.00  0.00     0.198 A 
ATOM     70  F   UNL A   1      42.544  29.400  28.077  1.00  0.00    -0.203 F 
ATOM     71  F   UNL A   1      39.444  24.964  27.358  1.00  0.00    -0.200 F 
ATOM     72  C   UNL A   1      41.067  26.471  26.539  1.00  0.00     0.200 A 
ATOM     73  F   UNL A   1      42.693  27.999  25.765  1.00  0.00    -0.200 F 
ATOM     74  F   UNL A   1      41.151  25.781  25.393  1.00  0.00    -0.200 F 
ENDBRANCH  50  64
BRANCH  51  75
ATOM     75  C   UNL A   1      39.585  33.865  36.867  1.00  0.00     0.064 A 
ATOM     76  C   UNL A   1      40.202  35.123  36.903  1.00  0.00     0.173 A 
ATOM     77  C   UNL A   1      38.840  33.470  37.987  1.00  0.00     0.173 A 
ATOM     78  F   UNL A   1      40.945  35.535  35.866  1.00  0.00    -0.203 F 
ATOM     79  C   UNL A   1      40.099  35.943  38.025  1.00  0.00     0.198 A 
ATOM     80  C   UNL A   1      38.715  34.303  39.097  1.00  0.00     0.198 A 
ATOM     81  F   UNL A   1      38.228  32.277  38.001  1.00  0.00    -0.203 F 
ATOM     82  F   UNL A   1      40.740  37.120  38.053  1.00  0.00    -0.200 F 
ATOM     83  C   UNL A   1      39.352  35.534  39.119  1.00  0.00     0.200 A 
ATOM     84  F   UNL A   1      37.984  33.908  40.149  1.00  0.00    -0.200 F 
ATOM     85  F   UNL A   1      39.256  36.322  40.199  1.00  0.00    -0.200 F 
ENDBRANCH  51  75
BRANCH  63  86
ATOM     86  C   UNL A   1      44.117  28.815  35.280  1.00  0.00     0.064 A 
ATOM     87  C   UNL A   1      43.969  27.697  36.111  1.00  0.00     0.173 A 
ATOM     88  C   UNL A   1      45.409  29.326  35.084  1.00  0.00     0.173 A 
ATOM     89  F   UNL A   1      42.751  27.182  36.338  1.00  0.00    -0.203 F 
ATOM     90  C   UNL A   1      45.072  27.118  36.731  1.00  0.00     0.198 A 
ATOM     91  C   UNL A   1      46.513  28.727  35.683  1.00  0.00     0.198 A 
ATOM     92  F   UNL A   1      45.603  30.390  34.288  1.00  0.00    -0.203 F 
ATOM     93  F   UNL A   1      44.904  26.067  37.546  1.00  0.00    -0.200 F 
ATOM     94  C   UNL A   1      46.343  27.625  36.507  1.00  0.00     0.200 A 
ATOM     95  F   UNL A   1      47.742  29.209  35.453  1.00  0.00    -0.200 F 
ATOM     96  F   UNL A   1      47.406  27.053  37.090  1.00  0.00    -0.200 F 
ENDBRANCH  63  86
ENDBRANCH  37  38
ENDBRANCH  29  32
ENDBRANCH  27  28
ENDBRANCH  26  27
ENDBRANCH   1  26
TORSDOF 15
ENDMDL
MODEL 2
REMARK VINA RESULT:     -12.3      4.493      7.868
REMARK SMILES CCc1cc(C)c2c(c1)C=C(C(=O)NCCCCCCNC(=O)c1ccc(-c3c4nc(c(-c5c(F)c(F)c(F)c(F)c5F)c5ccc([nH]5)c(-c5c(F)c(F)c(F)c(F)c5F)c5nc(c(-c6c(F)c(F)c(F)c(F)c6F)c6ccc3[nH]6)C=C5)C=C4)cc1)[C@@H](C(F)(F)F)O2
REMARK SMILES IDX 18 1 17 2 16 3 15 4 14 5 12 6 13 7 11 9 3 10 4 11 9 12 5 13
REMARK SMILES IDX 8 14 6 15 7 16 10 17 92 18 87 19 2 20 1 21 88 22 89 23 90 24
REMARK SMILES IDX 91 25 19 26 20 27 21 28 22 29 23 31 24 32 25 33 86 34 26 35
REMARK SMILES IDX 85 36 27 37 28 38 29 39 79 40 30 41 84 42 78 43 80 44 31 45
REMARK SMILES IDX 83 46 77 47 76 48 32 50 64 51 44 52 63 53 45 54 48 55 62 56
REMARK SMILES IDX 81 57 46 58 47 59 61 61 82 62 49 63 33 64 34 65 42 66 35 67
REMARK SMILES IDX 36 68 40 69 43 70 37 71 38 72 41 73 39 74 65 75 66 76 74 77
REMARK SMILES IDX 67 78 68 79 72 80 75 81 69 82 70 83 73 84 71 85 50 86 51 87
REMARK SMILES IDX 59 88 52 89 53 90 57 91 60 92 54 93 55 94 58 95 56 96
REMARK H PARENT 14 8 21 30 80 49 48 60
REMARK Flexibility Score: inf
ROOT
ATOM      1  C   UNL A   1      34.761  23.004  27.015  1.00  0.00     0.002 C 
ENDROOT
BRANCH   1   2
ATOM      2  C   UNL A   1      33.972  21.704  27.231  1.00  0.00     0.002 C 
BRANCH   2   3
ATOM      3  C   UNL A   1      33.653  20.914  25.958  1.00  0.00     0.021 C 
BRANCH   3   4
ATOM      4  C   UNL A   1      32.393  21.389  25.240  1.00  0.00     0.116 C 
BRANCH   4   5
ATOM      5  N   UNL A   1      31.475  22.054  26.146  1.00  0.00    -0.352 N 
ATOM      6  C   UNL A   1      31.093  23.324  26.417  1.00  0.00     0.251 C 
ATOM      7  O   UNL A   1      30.226  23.433  27.291  1.00  0.00    -0.270 OA
ATOM      8  H   UNL A   1      31.003  21.407  26.718  1.00  0.00     0.163 HD
BRANCH   6   9
ATOM      9  C   UNL A   1      31.631  24.550  25.756  1.00  0.00     0.067 C 
ATOM     10  C   UNL A   1      32.802  29.239  26.172  1.00  0.00    -0.047 A 
ATOM     11  C   UNL A   1      33.280  29.224  24.853  1.00  0.00     0.011 A 
ATOM     12  C   UNL A   1      32.288  28.054  26.721  1.00  0.00     0.015 A 
ATOM     13  C   UNL A   1      33.289  28.044  24.101  1.00  0.00    -0.008 A 
ATOM     14  C   UNL A   1      32.273  26.871  25.976  1.00  0.00     0.018 A 
ATOM     15  C   UNL A   1      33.835  28.034  22.702  1.00  0.00     0.048 C 
ATOM     16  C   UNL A   1      32.778  26.874  24.675  1.00  0.00     0.130 A 
ATOM     17  C   UNL A   1      31.777  25.626  26.552  1.00  0.00     0.025 C 
ATOM     18  O   UNL A   1      32.843  25.740  23.919  1.00  0.00    -0.475 OA
ATOM     19  C   UNL A   1      31.969  24.646  24.295  1.00  0.00     0.314 C 
BRANCH  10  20
ATOM     20  C   UNL A   1      32.809  30.512  26.985  1.00  0.00     0.032 C 
ATOM     21  C   UNL A   1      34.131  30.765  27.702  1.00  0.00     0.009 C 
ENDBRANCH  10  20
BRANCH  19  22
ATOM     22  C   UNL A   1      30.725  24.669  23.390  1.00  0.00     0.429 C 
ATOM     23  F   UNL A   1      31.025  25.229  22.190  1.00  0.00    -0.167 F 
ATOM     24  F   UNL A   1      30.254  23.429  23.119  1.00  0.00    -0.167 F 
ATOM     25  F   UNL A   1      29.702  25.374  23.922  1.00  0.00    -0.167 F 
ENDBRANCH  19  22
ENDBRANCH   6   9
ENDBRANCH   4   5
ENDBRANCH   3   4
ENDBRANCH   2   3
ENDBRANCH   1   2
BRANCH   1  26
ATOM     26  C   UNL A   1      35.248  23.246  25.584  1.00  0.00     0.021 C 
BRANCH  26  27
ATOM     27  C   UNL A   1      36.694  23.719  25.483  1.00  0.00     0.116 C 
BRANCH  27  28
ATOM     28  N   UNL A   1      37.628  22.664  25.834  1.00  0.00    -0.352 N 
ATOM     29  C   UNL A   1      38.883  22.775  26.373  1.00  0.00     0.251 C 
ATOM     30  H   UNL A   1      37.318  21.745  25.661  1.00  0.00     0.163 HD
ATOM     31  O   UNL A   1      39.639  21.810  26.415  1.00  0.00    -0.269 OA
BRANCH  29  32
ATOM     32  C   UNL A   1      39.322  24.079  26.904  1.00  0.00     0.039 A 
ATOM     33  C   UNL A   1      40.028  24.950  26.070  1.00  0.00     0.014 A 
ATOM     34  C   UNL A   1      39.046  24.427  28.231  1.00  0.00     0.014 A 
ATOM     35  C   UNL A   1      40.427  26.194  26.559  1.00  0.00     0.010 A 
ATOM     36  C   UNL A   1      39.403  25.685  28.701  1.00  0.00     0.010 A 
ATOM     37  C   UNL A   1      40.108  26.573  27.873  1.00  0.00    -0.014 A 
BRANCH  37  38
ATOM     38  C   UNL A   1      40.560  27.872  28.421  1.00  0.00     0.031 A 
ATOM     39  C   UNL A   1      42.021  28.091  28.684  1.00  0.00     0.074 A 
ATOM     40  C   UNL A   1      39.660  28.832  28.702  1.00  0.00     0.049 A 
ATOM     41  N   UNL A   1      42.621  29.132  29.203  1.00  0.00    -0.248 NA
ATOM     42  C   UNL A   1      42.931  26.988  28.329  1.00  0.00     0.031 C 
ATOM     43  C   UNL A   1      38.216  28.725  28.498  1.00  0.00     0.029 A 
ATOM     44  N   UNL A   1      39.830  30.090  29.225  1.00  0.00    -0.354 N 
ATOM     45  C   UNL A   1      43.971  28.813  29.226  1.00  0.00     0.074 A 
ATOM     46  C   UNL A   1      44.102  27.463  28.727  1.00  0.00     0.031 C 
ATOM     47  C   UNL A   1      37.633  29.876  28.874  1.00  0.00     0.029 A 
ATOM     48  C   UNL A   1      38.658  30.789  29.373  1.00  0.00     0.049 A 
ATOM     49  H   UNL A   1      40.711  30.455  29.472  1.00  0.00     0.167 HD
ATOM     50  C   UNL A   1      45.012  29.591  29.605  1.00  0.00     0.037 A 
ATOM     51  C   UNL A   1      38.442  32.026  29.858  1.00  0.00     0.037 A 
ATOM     52  C   UNL A   1      44.879  30.939  30.088  1.00  0.00     0.049 A 
ATOM     53  C   UNL A   1      39.616  32.847  30.324  1.00  0.00     0.074 A 
ATOM     54  C   UNL A   1      45.877  31.815  30.480  1.00  0.00     0.029 A 
ATOM     55  N   UNL A   1      43.674  31.607  30.239  1.00  0.00    -0.354 N 
ATOM     56  N   UNL A   1      40.892  32.550  30.306  1.00  0.00    -0.248 NA
ATOM     57  C   UNL A   1      39.318  34.178  30.876  1.00  0.00     0.031 C 
ATOM     58  C   UNL A   1      45.272  33.002  30.899  1.00  0.00     0.029 A 
ATOM     59  C   UNL A   1      43.902  32.881  30.731  1.00  0.00     0.049 A 
ATOM     60  H   UNL A   1      42.788  31.232  30.028  1.00  0.00     0.167 HD
ATOM     61  C   UNL A   1      41.550  33.664  30.811  1.00  0.00     0.074 A 
ATOM     62  C   UNL A   1      40.534  34.648  31.117  1.00  0.00     0.031 C 
ATOM     63  C   UNL A   1      42.877  33.853  31.006  1.00  0.00     0.037 A 
BRANCH  50  64
ATOM     64  C   UNL A   1      46.392  29.022  29.484  1.00  0.00     0.064 A 
ATOM     65  C   UNL A   1      47.139  29.180  28.308  1.00  0.00     0.173 A 
ATOM     66  C   UNL A   1      47.005  28.390  30.575  1.00  0.00     0.173 A 
ATOM     67  F   UNL A   1      46.590  29.767  27.234  1.00  0.00    -0.203 F 
ATOM     68  C   UNL A   1      48.451  28.722  28.227  1.00  0.00     0.198 A 
ATOM     69  C   UNL A   1      48.325  27.953  30.499  1.00  0.00     0.198 A 
ATOM     70  F   UNL A   1      46.332  28.216  31.723  1.00  0.00    -0.203 F 
ATOM     71  F   UNL A   1      49.139  28.865  27.086  1.00  0.00    -0.200 F 
ATOM     72  C   UNL A   1      49.046  28.119  29.325  1.00  0.00     0.200 A 
ATOM     73  F   UNL A   1      48.903  27.382  31.563  1.00  0.00    -0.200 F 
ATOM     74  F   UNL A   1      50.317  27.698  29.253  1.00  0.00    -0.200 F 
ENDBRANCH  50  64
BRANCH  51  75
ATOM     75  C   UNL A   1      37.064  32.582  29.907  1.00  0.00     0.064 A 
ATOM     76  C   UNL A   1      36.574  33.371  28.856  1.00  0.00     0.173 A 
ATOM     77  C   UNL A   1      36.222  32.363  31.007  1.00  0.00     0.173 A 
ATOM     78  F   UNL A   1      37.350  33.629  27.794  1.00  0.00    -0.203 F 
ATOM     79  C   UNL A   1      35.302  33.938  28.914  1.00  0.00     0.198 A 
ATOM     80  C   UNL A   1      34.941  32.909  31.052  1.00  0.00     0.198 A 
ATOM     81  F   UNL A   1      36.643  31.615  32.037  1.00  0.00    -0.203 F 
ATOM     82  F   UNL A   1      34.878  34.729  27.919  1.00  0.00    -0.200 F 
ATOM     83  C   UNL A   1      34.486  33.704  30.010  1.00  0.00     0.200 A 
ATOM     84  F   UNL A   1      34.151  32.672  32.107  1.00  0.00    -0.200 F 
ATOM     85  F   UNL A   1      33.265  34.252  30.067  1.00  0.00    -0.200 F 
ENDBRANCH  51  75
BRANCH  63  86
ATOM     86  C   UNL A   1      43.319  35.181  31.545  1.00  0.00     0.064 A 
ATOM     87  C   UNL A   1      43.697  36.227  30.693  1.00  0.00     0.173 A 
ATOM     88  C   UNL A   1      43.283  35.434  32.925  1.00  0.00     0.173 A 
ATOM     89  F   UNL A   1      43.758  36.029  29.367  1.00  0.00    -0.203 F 
ATOM     90  C   UNL A   1      44.036  37.476  31.203  1.00  0.00     0.198 A 
ATOM     91  C   UNL A   1      43.595  36.692  33.429  1.00  0.00     0.198 A 
ATOM     92  F   UNL A   1      42.917  34.466  33.780  1.00  0.00    -0.203 F 
ATOM     93  F   UNL A   1      44.423  38.454  30.373  1.00  0.00    -0.200 F 
ATOM     94  C   UNL A   1      43.973  37.711  32.569  1.00  0.00     0.200 A 
ATOM     95  F   UNL A   1      43.520  36.921  34.747  1.00  0.00    -0.200 F 
ATOM     96  F   UNL A   1      44.282  38.921  33.056  1.00  0.00    -0.200 F 
ENDBRANCH  63  86
ENDBRANCH  37  38
ENDBRANCH  29  32
ENDBRANCH  27  28
ENDBRANCH  26  27
ENDBRANCH   1  26
TORSDOF 15
ENDMDL
MODEL 3
REMARK VINA RESULT:     -12.3      3.683      9.145
REMARK SMILES CCc1cc(C)c2c(c1)C=C(C(=O)NCCCCCCNC(=O)c1ccc(-c3c4nc(c(-c5c(F)c(F)c(F)c(F)c5F)c5ccc([nH]5)c(-c5c(F)c(F)c(F)c(F)c5F)c5nc(c(-c6c(F)c(F)c(F)c(F)c6F)c6ccc3[nH]6)C=C5)C=C4)cc1)[C@@H](C(F)(F)F)O2
REMARK SMILES IDX 18 1 17 2 16 3 15 4 14 5 12 6 13 7 11 9 3 10 4 11 9 12 5 13
REMARK SMILES IDX 8 14 6 15 7 16 10 17 92 18 87 19 2 20 1 21 88 22 89 23 90 24
REMARK SMILES IDX 91 25 19 26 20 27 21 28 22 29 23 31 24 32 25 33 86 34 26 35
REMARK SMILES IDX 85 36 27 37 28 38 29 39 79 40 30 41 84 42 78 43 80 44 31 45
REMARK SMILES IDX 83 46 77 47 76 48 32 50 64 51 44 52 63 53 45 54 48 55 62 56
REMARK SMILES IDX 81 57 46 58 47 59 61 61 82 62 49 63 33 64 34 65 42 66 35 67
REMARK SMILES IDX 36 68 40 69 43 70 37 71 38 72 41 73 39 74 65 75 66 76 74 77
REMARK SMILES IDX 67 78 68 79 72 80 75 81 69 82 70 83 73 84 71 85 50 86 51 87
REMARK SMILES IDX 59 88 52 89 53 90 57 91 60 92 54 93 55 94 58 95 56 96
REMARK H PARENT 14 8 21 30 80 49 48 60
REMARK Flexibility Score: inf
ROOT
ATOM      1  C   UNL A   1      31.488  28.637  25.728  1.00  0.00     0.002 C 
ENDROOT
BRANCH   1   2
ATOM      2  C   UNL A   1      31.556  28.087  24.296  1.00  0.00     0.002 C 
BRANCH   2   3
ATOM      3  C   UNL A   1      30.293  27.369  23.811  1.00  0.00     0.021 C 
BRANCH   3   4
ATOM      4  C   UNL A   1      30.550  25.961  23.285  1.00  0.00     0.116 C 
BRANCH   4   5
ATOM      5  N   UNL A   1      31.496  25.961  22.184  1.00  0.00    -0.352 N 
ATOM      6  C   UNL A   1      32.615  25.283  21.835  1.00  0.00     0.251 C 
ATOM      7  O   UNL A   1      33.106  25.611  20.750  1.00  0.00    -0.270 OA
ATOM      8  H   UNL A   1      31.261  26.637  21.509  1.00  0.00     0.163 HD
BRANCH   6   9
ATOM      9  C   UNL A   1      33.265  24.210  22.645  1.00  0.00     0.067 C 
ATOM     10  C   UNL A   1      33.085  19.647  24.278  1.00  0.00    -0.047 A 
ATOM     11  C   UNL A   1      34.337  19.826  24.884  1.00  0.00     0.011 A 
ATOM     12  C   UNL A   1      32.523  20.708  23.552  1.00  0.00     0.015 A 
ATOM     13  C   UNL A   1      35.045  21.025  24.737  1.00  0.00    -0.008 A 
ATOM     14  C   UNL A   1      33.209  21.917  23.411  1.00  0.00     0.018 A 
ATOM     15  C   UNL A   1      36.400  21.193  25.362  1.00  0.00     0.048 C 
ATOM     16  C   UNL A   1      34.465  22.064  24.000  1.00  0.00     0.130 A 
ATOM     17  C   UNL A   1      32.651  23.012  22.625  1.00  0.00     0.025 C 
ATOM     18  O   UNL A   1      35.209  23.200  23.851  1.00  0.00    -0.475 OA
ATOM     19  C   UNL A   1      34.500  24.407  23.477  1.00  0.00     0.314 C 
BRANCH  10  20
ATOM     20  C   UNL A   1      32.331  18.346  24.427  1.00  0.00     0.032 C 
ATOM     21  C   UNL A   1      32.684  17.584  25.700  1.00  0.00     0.009 C 
ENDBRANCH  10  20
BRANCH  19  22
ATOM     22  C   UNL A   1      34.247  25.247  24.741  1.00  0.00     0.429 C 
ATOM     23  F   UNL A   1      34.313  26.571  24.448  1.00  0.00    -0.167 F 
ATOM     24  F   UNL A   1      33.017  25.041  25.267  1.00  0.00    -0.167 F 
ATOM     25  F   UNL A   1      35.143  25.003  25.721  1.00  0.00    -0.167 F 
ENDBRANCH  19  22
ENDBRANCH   6   9
ENDBRANCH   4   5
ENDBRANCH   3   4
ENDBRANCH   2   3
ENDBRANCH   1   2
BRANCH   1  26
ATOM     26  C   UNL A   1      32.260  27.833  26.778  1.00  0.00     0.021 C 
BRANCH  26  27
ATOM     27  C   UNL A   1      33.610  28.430  27.161  1.00  0.00     0.116 C 
BRANCH  27  28
ATOM     28  N   UNL A   1      33.580  29.882  27.130  1.00  0.00    -0.352 N 
ATOM     29  C   UNL A   1      34.474  30.768  27.672  1.00  0.00     0.251 C 
ATOM     30  H   UNL A   1      32.817  30.283  26.655  1.00  0.00     0.163 HD
ATOM     31  O   UNL A   1      34.207  31.963  27.753  1.00  0.00    -0.269 OA
BRANCH  29  32
ATOM     32  C   UNL A   1      35.770  30.268  28.167  1.00  0.00     0.039 A 
ATOM     33  C   UNL A   1      35.864  29.808  29.483  1.00  0.00     0.014 A 
ATOM     34  C   UNL A   1      36.890  30.270  27.330  1.00  0.00     0.014 A 
ATOM     35  C   UNL A   1      37.081  29.312  29.951  1.00  0.00     0.010 A 
ATOM     36  C   UNL A   1      38.090  29.733  27.782  1.00  0.00     0.010 A 
ATOM     37  C   UNL A   1      38.197  29.263  29.101  1.00  0.00    -0.014 A 
BRANCH  37  38
ATOM     38  C   UNL A   1      39.507  28.779  29.593  1.00  0.00     0.031 A 
ATOM     39  C   UNL A   1      40.224  29.554  30.660  1.00  0.00     0.074 A 
ATOM     40  C   UNL A   1      40.055  27.669  29.066  1.00  0.00     0.049 A 
ATOM     41  N   UNL A   1      41.396  29.332  31.197  1.00  0.00    -0.248 NA
ATOM     42  C   UNL A   1      39.538  30.746  31.187  1.00  0.00     0.031 C 
ATOM     43  C   UNL A   1      39.454  26.844  28.018  1.00  0.00     0.029 A 
ATOM     44  N   UNL A   1      41.247  27.044  29.339  1.00  0.00    -0.354 N 
ATOM     45  C   UNL A   1      41.582  30.346  32.126  1.00  0.00     0.074 A 
ATOM     46  C   UNL A   1      40.432  31.219  32.043  1.00  0.00     0.031 C 
ATOM     47  C   UNL A   1      40.272  25.811  27.750  1.00  0.00     0.029 A 
ATOM     48  C   UNL A   1      41.465  25.919  28.584  1.00  0.00     0.049 A 
ATOM     49  H   UNL A   1      41.885  27.374  30.013  1.00  0.00     0.167 HD
ATOM     50  C   UNL A   1      42.608  30.516  32.991  1.00  0.00     0.037 A 
ATOM     51  C   UNL A   1      42.515  25.074  28.571  1.00  0.00     0.037 A 
ATOM     52  C   UNL A   1      43.743  29.638  33.081  1.00  0.00     0.049 A 
ATOM     53  C   UNL A   1      43.667  25.322  29.508  1.00  0.00     0.074 A 
ATOM     54  C   UNL A   1      44.826  29.717  33.939  1.00  0.00     0.029 A 
ATOM     55  N   UNL A   1      43.937  28.517  32.288  1.00  0.00    -0.354 N 
ATOM     56  N   UNL A   1      43.814  26.262  30.409  1.00  0.00    -0.248 NA
ATOM     57  C   UNL A   1      44.801  24.388  29.428  1.00  0.00     0.031 C 
ATOM     58  C   UNL A   1      45.693  28.662  33.642  1.00  0.00     0.029 A 
ATOM     59  C   UNL A   1      45.130  27.903  32.629  1.00  0.00     0.049 A 
ATOM     60  H   UNL A   1      43.319  28.205  31.588  1.00  0.00     0.167 HD
ATOM     61  C   UNL A   1      45.036  26.016  31.022  1.00  0.00     0.074 A 
ATOM     62  C   UNL A   1      45.586  24.830  30.400  1.00  0.00     0.031 C 
ATOM     63  C   UNL A   1      45.647  26.710  32.011  1.00  0.00     0.037 A 
BRANCH  50  64
ATOM     64  C   UNL A   1      42.542  31.677  33.937  1.00  0.00     0.064 A 
ATOM     65  C   UNL A   1      43.068  32.927  33.583  1.00  0.00     0.173 A 
ATOM     66  C   UNL A   1      41.877  31.563  35.165  1.00  0.00     0.173 A 
ATOM     67  F   UNL A   1      43.725  33.080  32.423  1.00  0.00    -0.203 F 
ATOM     68  C   UNL A   1      42.934  34.024  34.430  1.00  0.00     0.198 A 
ATOM     69  C   UNL A   1      41.724  32.668  36.000  1.00  0.00     0.198 A 
ATOM     70  F   UNL A   1      41.355  30.388  35.547  1.00  0.00    -0.203 F 
ATOM     71  F   UNL A   1      43.463  35.206  34.081  1.00  0.00    -0.200 F 
ATOM     72  C   UNL A   1      42.253  33.897  35.630  1.00  0.00     0.200 A 
ATOM     73  F   UNL A   1      41.056  32.547  37.154  1.00  0.00    -0.200 F 
ATOM     74  F   UNL A   1      42.105  34.959  36.435  1.00  0.00    -0.200 F 
ENDBRANCH  50  64
BRANCH  51  75
ATOM     75  C   UNL A   1      42.519  23.898  27.662  1.00  0.00     0.064 A 
ATOM     76  C   UNL A   1      42.128  22.634  28.126  1.00  0.00     0.173 A 
ATOM     77  C   UNL A   1      42.935  24.004  26.327  1.00  0.00     0.173 A 
ATOM     78  F   UNL A   1      41.745  22.478  29.402  1.00  0.00    -0.203 F 
ATOM     79  C   UNL A   1      42.176  21.516  27.296  1.00  0.00     0.198 A 
ATOM     80  C   UNL A   1      42.957  22.890  25.490  1.00  0.00     0.198 A 
ATOM     81  F   UNL A   1      43.317  25.191  25.834  1.00  0.00    -0.203 F 
ATOM     82  F   UNL A   1      41.844  20.311  27.780  1.00  0.00    -0.200 F 
ATOM     83  C   UNL A   1      42.587  21.645  25.978  1.00  0.00     0.200 A 
ATOM     84  F   UNL A   1      43.344  23.020  24.215  1.00  0.00    -0.200 F 
ATOM     85  F   UNL A   1      42.635  20.569  25.181  1.00  0.00    -0.200 F 
ENDBRANCH  51  75
BRANCH  63  86
ATOM     86  C   UNL A   1      46.965  26.196  32.510  1.00  0.00     0.064 A 
ATOM     87  C   UNL A   1      47.037  25.237  33.529  1.00  0.00     0.173 A 
ATOM     88  C   UNL A   1      48.162  26.607  31.904  1.00  0.00     0.173 A 
ATOM     89  F   UNL A   1      45.920  24.822  34.146  1.00  0.00    -0.203 F 
ATOM     90  C   UNL A   1      48.263  24.716  33.933  1.00  0.00     0.198 A 
ATOM     91  C   UNL A   1      49.382  26.064  32.292  1.00  0.00     0.198 A 
ATOM     92  F   UNL A   1      48.143  27.517  30.917  1.00  0.00    -0.203 F 
ATOM     93  F   UNL A   1      48.312  23.822  34.929  1.00  0.00    -0.200 F 
ATOM     94  C   UNL A   1      49.432  25.121  33.307  1.00  0.00     0.200 A 
ATOM     95  F   UNL A   1      50.510  26.445  31.675  1.00  0.00    -0.200 F 
ATOM     96  F   UNL A   1      50.609  24.604  33.685  1.00  0.00    -0.200 F 
ENDBRANCH  63  86
ENDBRANCH  37  38
ENDBRANCH  29  32
ENDBRANCH  27  28
ENDBRANCH  26  27
ENDBRANCH   1  26
TORSDOF 15
ENDMDL
