MODEL 1
REMARK VINA RESULT:     -11.5      0.000      0.000
REMARK SMILES Cc1noc(C)c1[C@H](C)NS(=O)(=O)[C@@H](C)C(=O)NCCCCCCNC(=O)c1ccc(-c2c3nc(c(-c4c(F)c(F)c(F)c(F)c4F)c4ccc([nH]4)c(-c4c(F)c(F)c(F)c(F)c4F)c4nc(c(-c5c(F)c(F)c(F)c(F)c5F)c5ccc2[nH]5)C=C4)C=C3)cc1
REMARK SMILES IDX 20 1 19 2 18 3 16 4 17 5 14 7 15 8 11 9 12 10 13 11 10 12
REMARK SMILES IDX 8 14 9 15 7 16 1 17 2 18 3 19 4 20 5 21 6 22 21 23 22 24
REMARK SMILES IDX 23 25 24 26 25 27 26 28 27 30 28 31 29 32 90 33 30 34 89 35
REMARK SMILES IDX 31 36 32 37 33 38 83 39 34 40 88 41 82 42 84 43 35 44 87 45
REMARK SMILES IDX 81 46 80 47 36 49 68 50 48 51 67 52 49 53 52 54 66 55 85 56
REMARK SMILES IDX 50 57 51 58 65 60 86 61 53 62 37 63 38 64 46 65 39 66 40 67
REMARK SMILES IDX 44 68 47 69 41 70 42 71 45 72 43 73 69 74 70 75 78 76 71 77
REMARK SMILES IDX 72 78 76 79 79 80 73 81 74 82 77 83 75 84 54 85 55 86 63 87
REMARK SMILES IDX 56 88 57 89 61 90 64 91 58 92 59 93 62 94 60 95
REMARK H PARENT 18 6 10 13 25 29 84 48 52 59
REMARK Flexibility Score: inf
ROOT
ATOM      1  C   UNL A   1      32.978  28.506  26.117  1.00  0.00     0.021 C 
ENDROOT
BRANCH   1   2
ATOM      2  C   UNL A   1      32.795  27.016  26.385  1.00  0.00     0.116 C 
BRANCH   2   3
ATOM      3  N   UNL A   1      31.405  26.666  26.595  1.00  0.00    -0.355 N 
ATOM      4  C   UNL A   1      30.617  25.625  26.248  1.00  0.00     0.239 C 
ATOM      5  O   UNL A   1      29.451  25.737  26.642  1.00  0.00    -0.274 OA
ATOM      6  H   UNL A   1      30.919  27.348  27.113  1.00  0.00     0.163 HD
BRANCH   4   7
ATOM      7  C   UNL A   1      31.054  24.382  25.530  1.00  0.00     0.209 C 
ATOM      8  C   UNL A   1      30.572  24.218  24.096  1.00  0.00     0.037 C 
BRANCH   7   9
ATOM      9  S   UNL A   1      31.060  22.853  26.486  1.00  0.00     0.223 S 
ATOM     10  O   UNL A   1      29.708  22.383  26.670  1.00  0.00    -0.212 OA
ATOM     11  O   UNL A   1      31.840  23.115  27.684  1.00  0.00    -0.212 OA
BRANCH   9  12
ATOM     12  N   UNL A   1      31.909  21.630  25.797  1.00  0.00    -0.207 NA
ATOM     13  H   UNL A   1      31.837  20.879  26.483  1.00  0.00     0.141 HD
BRANCH  12  14
ATOM     14  C   UNL A   1      33.292  21.519  25.317  1.00  0.00     0.102 C 
ATOM     15  C   UNL A   1      33.402  19.995  25.039  1.00  0.00     0.031 C 
BRANCH  14  16
ATOM     16  C   UNL A   1      33.676  22.330  24.096  1.00  0.00     0.035 A 
ATOM     17  C   UNL A   1      32.071  21.484  22.129  1.00  0.00     0.071 C 
ATOM     18  C   UNL A   1      33.158  22.274  22.748  1.00  0.00     0.085 A 
ATOM     19  N   UNL A   1      33.715  23.202  21.962  1.00  0.00    -0.085 NA
ATOM     20  O   UNL A   1      34.507  23.959  22.768  1.00  0.00    -0.361 OA
ATOM     21  C   UNL A   1      34.434  23.505  24.041  1.00  0.00     0.138 A 
ATOM     22  C   UNL A   1      35.087  24.417  25.009  1.00  0.00     0.091 C 
ENDBRANCH  14  16
ENDBRANCH  12  14
ENDBRANCH   9  12
ENDBRANCH   7   9
ENDBRANCH   4   7
ENDBRANCH   2   3
ENDBRANCH   1   2
BRANCH   1  23
ATOM     23  C   UNL A   1      31.834  29.395  26.637  1.00  0.00     0.002 C 
BRANCH  23  24
ATOM     24  C   UNL A   1      31.427  30.531  25.694  1.00  0.00     0.002 C 
BRANCH  24  25
ATOM     25  C   UNL A   1      31.300  31.913  26.339  1.00  0.00     0.021 C 
BRANCH  25  26
ATOM     26  C   UNL A   1      32.511  32.353  27.155  1.00  0.00     0.116 C 
BRANCH  26  27
ATOM     27  N   UNL A   1      32.449  33.763  27.499  1.00  0.00    -0.352 N 
ATOM     28  C   UNL A   1      33.149  34.449  28.462  1.00  0.00     0.251 C 
ATOM     29  H   UNL A   1      31.818  34.302  26.970  1.00  0.00     0.163 HD
ATOM     30  O   UNL A   1      32.804  35.580  28.789  1.00  0.00    -0.269 OA
BRANCH  28  31
ATOM     31  C   UNL A   1      34.321  33.824  29.115  1.00  0.00     0.039 A 
ATOM     32  C   UNL A   1      35.604  34.260  28.771  1.00  0.00     0.014 A 
ATOM     33  C   UNL A   1      34.161  32.778  30.030  1.00  0.00     0.014 A 
ATOM     34  C   UNL A   1      36.721  33.670  29.368  1.00  0.00     0.010 A 
ATOM     35  C   UNL A   1      35.271  32.243  30.678  1.00  0.00     0.010 A 
ATOM     36  C   UNL A   1      36.564  32.664  30.336  1.00  0.00    -0.014 A 
BRANCH  36  37
ATOM     37  C   UNL A   1      37.746  32.004  30.948  1.00  0.00     0.031 A 
ATOM     38  C   UNL A   1      38.185  32.387  32.336  1.00  0.00     0.074 A 
ATOM     39  C   UNL A   1      38.445  31.086  30.252  1.00  0.00     0.049 A 
ATOM     40  N   UNL A   1      39.196  31.943  33.040  1.00  0.00    -0.248 NA
ATOM     41  C   UNL A   1      37.398  33.430  33.014  1.00  0.00     0.031 C 
ATOM     42  C   UNL A   1      38.153  30.663  28.882  1.00  0.00     0.029 A 
ATOM     43  N   UNL A   1      39.545  30.345  30.604  1.00  0.00    -0.354 N 
ATOM     44  C   UNL A   1      39.173  32.659  34.230  1.00  0.00     0.074 A 
ATOM     45  C   UNL A   1      38.086  33.608  34.131  1.00  0.00     0.031 C 
ATOM     46  C   UNL A   1      39.037  29.719  28.518  1.00  0.00     0.029 A 
ATOM     47  C   UNL A   1      39.969  29.486  29.619  1.00  0.00     0.049 A 
ATOM     48  H   UNL A   1      39.989  30.422  31.479  1.00  0.00     0.167 HD
ATOM     49  C   UNL A   1      39.967  32.520  35.319  1.00  0.00     0.037 A 
ATOM     50  C   UNL A   1      40.987  28.606  29.611  1.00  0.00     0.037 A 
ATOM     51  C   UNL A   1      41.026  31.555  35.431  1.00  0.00     0.049 A 
ATOM     52  C   UNL A   1      41.836  28.448  30.845  1.00  0.00     0.074 A 
ATOM     53  C   UNL A   1      41.858  31.304  36.510  1.00  0.00     0.029 A 
ATOM     54  N   UNL A   1      41.397  30.673  34.427  1.00  0.00    -0.354 N 
ATOM     55  N   UNL A   1      41.761  29.086  31.988  1.00  0.00    -0.248 NA
ATOM     56  C   UNL A   1      42.898  27.434  30.792  1.00  0.00     0.031 C 
ATOM     57  C   UNL A   1      42.753  30.292  36.146  1.00  0.00     0.029 A 
ATOM     58  C   UNL A   1      42.449  29.881  34.858  1.00  0.00     0.049 A 
ATOM     59  H   UNL A   1      40.975  30.618  33.539  1.00  0.00     0.167 HD
ATOM     60  C   UNL A   1      42.738  28.525  32.802  1.00  0.00     0.074 A 
ATOM     61  C   UNL A   1      43.385  27.490  32.024  1.00  0.00     0.031 C 
ATOM     62  C   UNL A   1      43.067  28.840  34.079  1.00  0.00     0.037 A 
BRANCH  49  63
ATOM     63  C   UNL A   1      39.709  33.435  36.482  1.00  0.00     0.064 A 
ATOM     64  C   UNL A   1      40.328  34.691  36.579  1.00  0.00     0.173 A 
ATOM     65  C   UNL A   1      38.815  33.064  37.498  1.00  0.00     0.173 A 
ATOM     66  F   UNL A   1      41.201  35.087  35.642  1.00  0.00    -0.203 F 
ATOM     67  C   UNL A   1      40.086  35.528  37.665  1.00  0.00     0.198 A 
ATOM     68  C   UNL A   1      38.552  33.917  38.568  1.00  0.00     0.198 A 
ATOM     69  F   UNL A   1      38.193  31.877  37.452  1.00  0.00    -0.203 F 
ATOM     70  F   UNL A   1      40.730  36.699  37.763  1.00  0.00    -0.200 F 
ATOM     71  C   UNL A   1      39.194  35.143  38.655  1.00  0.00     0.200 A 
ATOM     72  F   UNL A   1      37.680  33.549  39.516  1.00  0.00    -0.200 F 
ATOM     73  F   UNL A   1      38.959  35.951  39.698  1.00  0.00    -0.200 F 
ENDBRANCH  49  63
BRANCH  50  74
ATOM     74  C   UNL A   1      41.231  27.763  28.412  1.00  0.00     0.064 A 
ATOM     75  C   UNL A   1      42.118  28.181  27.409  1.00  0.00     0.173 A 
ATOM     76  C   UNL A   1      40.580  26.534  28.238  1.00  0.00     0.173 A 
ATOM     77  F   UNL A   1      42.749  29.359  27.523  1.00  0.00    -0.203 F 
ATOM     78  C   UNL A   1      42.328  27.411  26.267  1.00  0.00     0.198 A 
ATOM     79  C   UNL A   1      40.812  25.752  27.107  1.00  0.00     0.198 A 
ATOM     80  F   UNL A   1      39.728  26.086  29.171  1.00  0.00    -0.203 F 
ATOM     81  F   UNL A   1      43.145  27.856  25.303  1.00  0.00    -0.200 F 
ATOM     82  C   UNL A   1      41.677  26.196  26.118  1.00  0.00     0.200 A 
ATOM     83  F   UNL A   1      40.192  24.572  26.974  1.00  0.00    -0.200 F 
ATOM     84  F   UNL A   1      41.880  25.455  25.020  1.00  0.00    -0.200 F 
ENDBRANCH  50  74
BRANCH  62  85
ATOM     85  C   UNL A   1      44.137  28.017  34.736  1.00  0.00     0.064 A 
ATOM     86  C   UNL A   1      43.841  26.827  35.416  1.00  0.00     0.173 A 
ATOM     87  C   UNL A   1      45.481  28.414  34.656  1.00  0.00     0.173 A 
ATOM     88  F   UNL A   1      42.571  26.412  35.531  1.00  0.00    -0.203 F 
ATOM     89  C   UNL A   1      44.850  26.080  36.021  1.00  0.00     0.198 A 
ATOM     90  C   UNL A   1      46.489  27.649  35.237  1.00  0.00     0.198 A 
ATOM     91  F   UNL A   1      45.816  29.541  34.010  1.00  0.00    -0.203 F 
ATOM     92  F   UNL A   1      44.540  24.973  36.710  1.00  0.00    -0.200 F 
ATOM     93  C   UNL A   1      46.172  26.489  35.926  1.00  0.00     0.200 A 
ATOM     94  F   UNL A   1      47.768  28.039  35.133  1.00  0.00    -0.200 F 
ATOM     95  F   UNL A   1      47.141  25.767  36.505  1.00  0.00    -0.200 F 
ENDBRANCH  62  85
ENDBRANCH  36  37
ENDBRANCH  28  31
ENDBRANCH  26  27
ENDBRANCH  25  26
ENDBRANCH  24  25
ENDBRANCH  23  24
ENDBRANCH   1  23
TORSDOF 17
ENDMDL
MODEL 2
REMARK VINA RESULT:     -11.4      1.114      1.851
REMARK SMILES Cc1noc(C)c1[C@H](C)NS(=O)(=O)[C@@H](C)C(=O)NCCCCCCNC(=O)c1ccc(-c2c3nc(c(-c4c(F)c(F)c(F)c(F)c4F)c4ccc([nH]4)c(-c4c(F)c(F)c(F)c(F)c4F)c4nc(c(-c5c(F)c(F)c(F)c(F)c5F)c5ccc2[nH]5)C=C4)C=C3)cc1
REMARK SMILES IDX 20 1 19 2 18 3 16 4 17 5 14 7 15 8 11 9 12 10 13 11 10 12
REMARK SMILES IDX 8 14 9 15 7 16 1 17 2 18 3 19 4 20 5 21 6 22 21 23 22 24
REMARK SMILES IDX 23 25 24 26 25 27 26 28 27 30 28 31 29 32 90 33 30 34 89 35
REMARK SMILES IDX 31 36 32 37 33 38 83 39 34 40 88 41 82 42 84 43 35 44 87 45
REMARK SMILES IDX 81 46 80 47 36 49 68 50 48 51 67 52 49 53 52 54 66 55 85 56
REMARK SMILES IDX 50 57 51 58 65 60 86 61 53 62 37 63 38 64 46 65 39 66 40 67
REMARK SMILES IDX 44 68 47 69 41 70 42 71 45 72 43 73 69 74 70 75 78 76 71 77
REMARK SMILES IDX 72 78 76 79 79 80 73 81 74 82 77 83 75 84 54 85 55 86 63 87
REMARK SMILES IDX 56 88 57 89 61 90 64 91 58 92 59 93 62 94 60 95
REMARK H PARENT 18 6 10 13 25 29 84 48 52 59
REMARK Flexibility Score: inf
ROOT
ATOM      1  C   UNL A   1      32.831  28.714  26.796  1.00  0.00     0.021 C 
ENDROOT
BRANCH   1   2
ATOM      2  C   UNL A   1      31.461  28.253  27.281  1.00  0.00     0.116 C 
BRANCH   2   3
ATOM      3  N   UNL A   1      31.312  26.814  27.208  1.00  0.00    -0.355 N 
ATOM      4  C   UNL A   1      31.167  25.916  26.209  1.00  0.00     0.239 C 
ATOM      5  O   UNL A   1      31.065  24.750  26.605  1.00  0.00    -0.274 OA
ATOM      6  H   UNL A   1      31.318  26.389  28.096  1.00  0.00     0.163 HD
BRANCH   4   7
ATOM      7  C   UNL A   1      31.198  26.212  24.738  1.00  0.00     0.209 C 
ATOM      8  C   UNL A   1      30.079  27.089  24.195  1.00  0.00     0.037 C 
BRANCH   7   9
ATOM      9  S   UNL A   1      31.666  24.855  23.648  1.00  0.00     0.223 S 
ATOM     10  O   UNL A   1      32.378  25.367  22.502  1.00  0.00    -0.212 OA
ATOM     11  O   UNL A   1      30.455  24.092  23.390  1.00  0.00    -0.212 OA
BRANCH   9  12
ATOM     12  N   UNL A   1      32.626  23.726  24.350  1.00  0.00    -0.207 NA
ATOM     13  H   UNL A   1      32.470  23.872  25.347  1.00  0.00     0.141 HD
BRANCH  12  14
ATOM     14  C   UNL A   1      34.066  23.448  24.270  1.00  0.00     0.102 C 
ATOM     15  C   UNL A   1      34.635  24.457  25.305  1.00  0.00     0.031 C 
BRANCH  14  16
ATOM     16  C   UNL A   1      34.523  22.035  24.570  1.00  0.00     0.035 A 
ATOM     17  C   UNL A   1      32.374  20.484  24.213  1.00  0.00     0.071 C 
ATOM     18  C   UNL A   1      33.775  20.800  24.564  1.00  0.00     0.085 A 
ATOM     19  N   UNL A   1      34.555  19.744  24.825  1.00  0.00    -0.085 NA
ATOM     20  O   UNL A   1      35.829  20.217  24.891  1.00  0.00    -0.361 OA
ATOM     21  C   UNL A   1      35.833  21.552  24.667  1.00  0.00     0.138 A 
ATOM     22  C   UNL A   1      37.202  22.095  24.497  1.00  0.00     0.091 C 
ENDBRANCH  14  16
ENDBRANCH  12  14
ENDBRANCH   9  12
ENDBRANCH   7   9
ENDBRANCH   4   7
ENDBRANCH   2   3
ENDBRANCH   1   2
BRANCH   1  23
ATOM     23  C   UNL A   1      32.806  29.976  25.915  1.00  0.00     0.002 C 
BRANCH  23  24
ATOM     24  C   UNL A   1      31.435  30.648  25.797  1.00  0.00     0.002 C 
BRANCH  24  25
ATOM     25  C   UNL A   1      31.340  32.064  26.370  1.00  0.00     0.021 C 
BRANCH  25  26
ATOM     26  C   UNL A   1      32.603  32.559  27.068  1.00  0.00     0.116 C 
BRANCH  26  27
ATOM     27  N   UNL A   1      32.461  33.927  27.537  1.00  0.00    -0.352 N 
ATOM     28  C   UNL A   1      33.098  34.552  28.582  1.00  0.00     0.251 C 
ATOM     29  H   UNL A   1      31.819  34.483  27.039  1.00  0.00     0.163 HD
ATOM     30  O   UNL A   1      32.689  35.630  28.999  1.00  0.00    -0.269 OA
BRANCH  28  31
ATOM     31  C   UNL A   1      34.280  33.924  29.214  1.00  0.00     0.039 A 
ATOM     32  C   UNL A   1      35.558  34.349  28.837  1.00  0.00     0.014 A 
ATOM     33  C   UNL A   1      34.133  32.887  30.140  1.00  0.00     0.014 A 
ATOM     34  C   UNL A   1      36.685  33.756  29.414  1.00  0.00     0.010 A 
ATOM     35  C   UNL A   1      35.254  32.349  30.768  1.00  0.00     0.010 A 
ATOM     36  C   UNL A   1      36.542  32.759  30.393  1.00  0.00    -0.014 A 
BRANCH  36  37
ATOM     37  C   UNL A   1      37.733  32.096  30.984  1.00  0.00     0.031 A 
ATOM     38  C   UNL A   1      38.205  32.487  32.359  1.00  0.00     0.074 A 
ATOM     39  C   UNL A   1      38.410  31.167  30.281  1.00  0.00     0.049 A 
ATOM     40  N   UNL A   1      39.229  32.041  33.044  1.00  0.00    -0.248 NA
ATOM     41  C   UNL A   1      37.441  33.540  33.046  1.00  0.00     0.031 C 
ATOM     42  C   UNL A   1      38.085  30.736  28.921  1.00  0.00     0.029 A 
ATOM     43  N   UNL A   1      39.513  30.422  30.613  1.00  0.00    -0.354 N 
ATOM     44  C   UNL A   1      39.237  32.767  34.228  1.00  0.00     0.074 A 
ATOM     45  C   UNL A   1      38.155  33.722  34.146  1.00  0.00     0.031 C 
ATOM     46  C   UNL A   1      38.954  29.783  28.544  1.00  0.00     0.029 A 
ATOM     47  C   UNL A   1      39.909  29.552  29.627  1.00  0.00     0.049 A 
ATOM     48  H   UNL A   1      39.976  30.503  31.478  1.00  0.00     0.167 HD
ATOM     49  C   UNL A   1      40.054  32.631  35.301  1.00  0.00     0.037 A 
ATOM     50  C   UNL A   1      40.921  28.665  29.603  1.00  0.00     0.037 A 
ATOM     51  C   UNL A   1      41.109  31.659  35.397  1.00  0.00     0.049 A 
ATOM     52  C   UNL A   1      41.796  28.511  30.819  1.00  0.00     0.074 A 
ATOM     53  C   UNL A   1      41.963  31.411  36.459  1.00  0.00     0.029 A 
ATOM     54  N   UNL A   1      41.452  30.767  34.392  1.00  0.00    -0.354 N 
ATOM     55  N   UNL A   1      41.751  29.158  31.958  1.00  0.00    -0.248 NA
ATOM     56  C   UNL A   1      42.850  27.490  30.751  1.00  0.00     0.031 C 
ATOM     57  C   UNL A   1      42.843  30.390  36.083  1.00  0.00     0.029 A 
ATOM     58  C   UNL A   1      42.508  29.971  34.805  1.00  0.00     0.049 A 
ATOM     59  H   UNL A   1      41.010  30.708  33.513  1.00  0.00     0.167 HD
ATOM     60  C   UNL A   1      42.742  28.598  32.754  1.00  0.00     0.074 A 
ATOM     61  C   UNL A   1      43.364  27.552  31.970  1.00  0.00     0.031 C 
ATOM     62  C   UNL A   1      43.102  28.920  34.021  1.00  0.00     0.037 A 
BRANCH  49  63
ATOM     63  C   UNL A   1      39.828  33.556  36.462  1.00  0.00     0.064 A 
ATOM     64  C   UNL A   1      40.464  34.806  36.539  1.00  0.00     0.173 A 
ATOM     65  C   UNL A   1      38.950  33.203  37.496  1.00  0.00     0.173 A 
ATOM     66  F   UNL A   1      41.324  35.186  35.582  1.00  0.00    -0.203 F 
ATOM     67  C   UNL A   1      40.252  35.653  37.623  1.00  0.00     0.198 A 
ATOM     68  C   UNL A   1      38.716  34.066  38.565  1.00  0.00     0.198 A 
ATOM     69  F   UNL A   1      38.313  32.024  37.470  1.00  0.00    -0.203 F 
ATOM     70  F   UNL A   1      40.911  36.817  37.701  1.00  0.00    -0.200 F 
ATOM     71  C   UNL A   1      39.373  35.286  38.632  1.00  0.00     0.200 A 
ATOM     72  F   UNL A   1      37.858  33.715  39.532  1.00  0.00    -0.200 F 
ATOM     73  F   UNL A   1      39.167  36.104  39.673  1.00  0.00    -0.200 F 
ENDBRANCH  49  63
BRANCH  50  74
ATOM     74  C   UNL A   1      41.133  27.811  28.405  1.00  0.00     0.064 A 
ATOM     75  C   UNL A   1      41.993  28.219  27.376  1.00  0.00     0.173 A 
ATOM     76  C   UNL A   1      40.477  26.581  28.260  1.00  0.00     0.173 A 
ATOM     77  F   UNL A   1      42.628  29.398  27.462  1.00  0.00    -0.203 F 
ATOM     78  C   UNL A   1      42.172  27.439  26.235  1.00  0.00     0.198 A 
ATOM     79  C   UNL A   1      40.677  25.789  27.130  1.00  0.00     0.198 A 
ATOM     80  F   UNL A   1      39.649  26.143  29.219  1.00  0.00    -0.203 F 
ATOM     81  F   UNL A   1      42.963  27.874  25.246  1.00  0.00    -0.200 F 
ATOM     82  C   UNL A   1      41.517  26.222  26.115  1.00  0.00     0.200 A 
ATOM     83  F   UNL A   1      40.054  24.608  27.024  1.00  0.00    -0.200 F 
ATOM     84  F   UNL A   1      41.689  25.472  25.019  1.00  0.00    -0.200 F 
ENDBRANCH  50  74
BRANCH  62  85
ATOM     85  C   UNL A   1      44.180  28.095  34.660  1.00  0.00     0.064 A 
ATOM     86  C   UNL A   1      45.531  28.467  34.599  1.00  0.00     0.173 A 
ATOM     87  C   UNL A   1      43.850  26.930  35.370  1.00  0.00     0.173 A 
ATOM     88  F   UNL A   1      45.898  29.565  33.922  1.00  0.00    -0.203 F 
ATOM     89  C   UNL A   1      46.516  27.686  35.198  1.00  0.00     0.198 A 
ATOM     90  C   UNL A   1      44.835  26.167  35.992  1.00  0.00     0.198 A 
ATOM     91  F   UNL A   1      42.572  26.535  35.465  1.00  0.00    -0.203 F 
ATOM     92  F   UNL A   1      47.805  28.032  35.083  1.00  0.00    -0.200 F 
ATOM     93  C   UNL A   1      46.167  26.540  35.898  1.00  0.00     0.200 A 
ATOM     94  F   UNL A   1      44.494  25.067  36.680  1.00  0.00    -0.200 F 
ATOM     95  F   UNL A   1      47.116  25.792  36.476  1.00  0.00    -0.200 F 
ENDBRANCH  62  85
ENDBRANCH  36  37
ENDBRANCH  28  31
ENDBRANCH  26  27
ENDBRANCH  25  26
ENDBRANCH  24  25
ENDBRANCH  23  24
ENDBRANCH   1  23
TORSDOF 17
ENDMDL
MODEL 3
REMARK VINA RESULT:     -11.3      2.150      3.653
REMARK SMILES Cc1noc(C)c1[C@H](C)NS(=O)(=O)[C@@H](C)C(=O)NCCCCCCNC(=O)c1ccc(-c2c3nc(c(-c4c(F)c(F)c(F)c(F)c4F)c4ccc([nH]4)c(-c4c(F)c(F)c(F)c(F)c4F)c4nc(c(-c5c(F)c(F)c(F)c(F)c5F)c5ccc2[nH]5)C=C4)C=C3)cc1
REMARK SMILES IDX 20 1 19 2 18 3 16 4 17 5 14 7 15 8 11 9 12 10 13 11 10 12
REMARK SMILES IDX 8 14 9 15 7 16 1 17 2 18 3 19 4 20 5 21 6 22 21 23 22 24
REMARK SMILES IDX 23 25 24 26 25 27 26 28 27 30 28 31 29 32 90 33 30 34 89 35
REMARK SMILES IDX 31 36 32 37 33 38 83 39 34 40 88 41 82 42 84 43 35 44 87 45
REMARK SMILES IDX 81 46 80 47 36 49 68 50 48 51 67 52 49 53 52 54 66 55 85 56
REMARK SMILES IDX 50 57 51 58 65 60 86 61 53 62 37 63 38 64 46 65 39 66 40 67
REMARK SMILES IDX 44 68 47 69 41 70 42 71 45 72 43 73 69 74 70 75 78 76 71 77
REMARK SMILES IDX 72 78 76 79 79 80 73 81 74 82 77 83 75 84 54 85 55 86 63 87
REMARK SMILES IDX 56 88 57 89 61 90 64 91 58 92 59 93 62 94 60 95
REMARK H PARENT 18 6 10 13 25 29 84 48 52 59
REMARK Flexibility Score: inf
ROOT
ATOM      1  C   UNL A   1      34.899  32.552  28.793  1.00  0.00     0.021 C 
ENDROOT
BRANCH   1   2
ATOM      2  C   UNL A   1      33.871  31.977  27.824  1.00  0.00     0.116 C 
BRANCH   2   3
ATOM      3  N   UNL A   1      33.831  30.530  27.864  1.00  0.00    -0.355 N 
ATOM      4  C   UNL A   1      33.372  29.562  27.042  1.00  0.00     0.239 C 
ATOM      5  O   UNL A   1      33.542  28.419  27.482  1.00  0.00    -0.274 OA
ATOM      6  H   UNL A   1      34.235  30.165  28.685  1.00  0.00     0.163 HD
BRANCH   4   7
ATOM      7  C   UNL A   1      32.778  29.763  25.679  1.00  0.00     0.209 C 
ATOM      8  C   UNL A   1      31.403  30.414  25.624  1.00  0.00     0.037 C 
BRANCH   7   9
ATOM      9  S   UNL A   1      33.010  28.430  24.488  1.00  0.00     0.223 S 
ATOM     10  O   UNL A   1      34.381  28.408  24.036  1.00  0.00    -0.212 OA
ATOM     11  O   UNL A   1      31.980  28.593  23.475  1.00  0.00    -0.212 OA
BRANCH   9  12
ATOM     12  N   UNL A   1      32.669  26.936  25.073  1.00  0.00    -0.207 NA
ATOM     13  H   UNL A   1      32.263  27.129  25.988  1.00  0.00     0.141 HD
BRANCH  12  14
ATOM     14  C   UNL A   1      33.492  25.744  25.312  1.00  0.00     0.102 C 
ATOM     15  C   UNL A   1      32.549  24.890  26.202  1.00  0.00     0.031 C 
BRANCH  14  16
ATOM     16  C   UNL A   1      33.962  24.964  24.102  1.00  0.00     0.035 A 
ATOM     17  C   UNL A   1      35.953  23.403  24.972  1.00  0.00     0.071 C 
ATOM     18  C   UNL A   1      35.028  23.996  23.981  1.00  0.00     0.085 A 
ATOM     19  N   UNL A   1      35.092  23.477  22.751  1.00  0.00    -0.085 NA
ATOM     20  O   UNL A   1      34.028  23.978  22.068  1.00  0.00    -0.361 OA
ATOM     21  C   UNL A   1      33.311  24.795  22.874  1.00  0.00     0.138 A 
ATOM     22  C   UNL A   1      32.017  25.195  22.272  1.00  0.00     0.091 C 
ENDBRANCH  14  16
ENDBRANCH  12  14
ENDBRANCH   9  12
ENDBRANCH   7   9
ENDBRANCH   4   7
ENDBRANCH   2   3
ENDBRANCH   1   2
BRANCH   1  23
ATOM     23  C   UNL A   1      34.666  34.025  29.173  1.00  0.00     0.002 C 
BRANCH  23  24
ATOM     24  C   UNL A   1      33.278  34.566  28.820  1.00  0.00     0.002 C 
BRANCH  24  25
ATOM     25  C   UNL A   1      33.148  36.091  28.793  1.00  0.00     0.021 C 
BRANCH  25  26
ATOM     26  C   UNL A   1      33.482  36.786  30.109  1.00  0.00     0.116 C 
BRANCH  26  27
ATOM     27  N   UNL A   1      32.469  36.543  31.121  1.00  0.00    -0.352 N 
ATOM     28  C   UNL A   1      32.471  35.623  32.143  1.00  0.00     0.251 C 
ATOM     29  H   UNL A   1      31.670  37.116  31.069  1.00  0.00     0.163 HD
ATOM     30  O   UNL A   1      31.438  35.381  32.758  1.00  0.00    -0.269 OA
BRANCH  28  31
ATOM     31  C   UNL A   1      33.720  34.915  32.502  1.00  0.00     0.039 A 
ATOM     32  C   UNL A   1      34.931  35.611  32.465  1.00  0.00     0.014 A 
ATOM     33  C   UNL A   1      33.705  33.554  32.827  1.00  0.00     0.014 A 
ATOM     34  C   UNL A   1      36.121  34.953  32.788  1.00  0.00     0.010 A 
ATOM     35  C   UNL A   1      34.881  32.919  33.220  1.00  0.00     0.010 A 
ATOM     36  C   UNL A   1      36.105  33.604  33.179  1.00  0.00    -0.014 A 
BRANCH  36  37
ATOM     37  C   UNL A   1      37.367  32.884  33.486  1.00  0.00     0.031 A 
ATOM     38  C   UNL A   1      38.102  33.170  34.769  1.00  0.00     0.074 A 
ATOM     39  C   UNL A   1      37.874  31.999  32.606  1.00  0.00     0.049 A 
ATOM     40  N   UNL A   1      39.225  32.663  35.214  1.00  0.00    -0.248 NA
ATOM     41  C   UNL A   1      37.510  34.183  35.658  1.00  0.00     0.031 C 
ATOM     42  C   UNL A   1      37.286  31.669  31.307  1.00  0.00     0.029 A 
ATOM     43  N   UNL A   1      38.999  31.217  32.671  1.00  0.00    -0.354 N 
ATOM     44  C   UNL A   1      39.477  33.304  36.421  1.00  0.00     0.074 A 
ATOM     45  C   UNL A   1      38.424  34.277  36.611  1.00  0.00     0.031 C 
ATOM     46  C   UNL A   1      38.042  30.734  30.709  1.00  0.00     0.029 A 
ATOM     47  C   UNL A   1      39.178  30.414  31.571  1.00  0.00     0.049 A 
ATOM     48  H   UNL A   1      39.620  31.230  33.434  1.00  0.00     0.167 HD
ATOM     49  C   UNL A   1      40.479  33.081  37.306  1.00  0.00     0.037 A 
ATOM     50  C   UNL A   1      40.143  29.517  31.295  1.00  0.00     0.037 A 
ATOM     51  C   UNL A   1      41.506  32.091  37.133  1.00  0.00     0.049 A 
ATOM     52  C   UNL A   1      41.228  29.266  32.309  1.00  0.00     0.074 A 
ATOM     53  C   UNL A   1      42.539  31.756  37.993  1.00  0.00     0.029 A 
ATOM     54  N   UNL A   1      41.629  31.267  36.024  1.00  0.00    -0.354 N 
ATOM     55  N   UNL A   1      41.417  29.831  33.476  1.00  0.00    -0.248 NA
ATOM     56  C   UNL A   1      42.222  28.237  31.972  1.00  0.00     0.031 C 
ATOM     57  C   UNL A   1      43.305  30.753  37.389  1.00  0.00     0.029 A 
ATOM     58  C   UNL A   1      42.722  30.430  36.174  1.00  0.00     0.049 A 
ATOM     59  H   UNL A   1      41.026  31.277  35.244  1.00  0.00     0.167 HD
ATOM     60  C   UNL A   1      42.526  29.202  34.029  1.00  0.00     0.074 A 
ATOM     61  C   UNL A   1      42.960  28.206  33.072  1.00  0.00     0.031 C 
ATOM     62  C   UNL A   1      43.128  29.429  35.222  1.00  0.00     0.037 A 
BRANCH  49  63
ATOM     63  C   UNL A   1      40.502  33.925  38.548  1.00  0.00     0.064 A 
ATOM     64  C   UNL A   1      41.249  35.112  38.615  1.00  0.00     0.173 A 
ATOM     65  C   UNL A   1      39.752  33.558  39.674  1.00  0.00     0.173 A 
ATOM     66  F   UNL A   1      41.994  35.500  37.569  1.00  0.00    -0.203 F 
ATOM     67  C   UNL A   1      41.268  35.884  39.774  1.00  0.00     0.198 A 
ATOM     68  C   UNL A   1      39.748  34.348  40.822  1.00  0.00     0.198 A 
ATOM     69  F   UNL A   1      39.017  32.437  39.663  1.00  0.00    -0.203 F 
ATOM     70  F   UNL A   1      42.030  36.983  39.832  1.00  0.00    -0.200 F 
ATOM     71  C   UNL A   1      40.513  35.504  40.874  1.00  0.00     0.200 A 
ATOM     72  F   UNL A   1      39.009  33.987  41.880  1.00  0.00    -0.200 F 
ATOM     73  F   UNL A   1      40.529  36.250  41.987  1.00  0.00    -0.200 F 
ENDBRANCH  49  63
BRANCH  50  74
ATOM     74  C   UNL A   1      40.101  28.747  30.024  1.00  0.00     0.064 A 
ATOM     75  C   UNL A   1      39.470  27.497  29.963  1.00  0.00     0.173 A 
ATOM     76  C   UNL A   1      40.694  29.239  28.853  1.00  0.00     0.173 A 
ATOM     77  F   UNL A   1      38.905  26.977  31.063  1.00  0.00    -0.203 F 
ATOM     78  C   UNL A   1      39.455  26.756  28.783  1.00  0.00     0.198 A 
ATOM     79  C   UNL A   1      40.655  28.508  27.667  1.00  0.00     0.198 A 
ATOM     80  F   UNL A   1      41.304  30.433  28.858  1.00  0.00    -0.203 F 
ATOM     81  F   UNL A   1      38.886  25.543  28.764  1.00  0.00    -0.200 F 
ATOM     82  C   UNL A   1      40.044  27.263  27.635  1.00  0.00     0.200 A 
ATOM     83  F   UNL A   1      41.212  29.008  26.557  1.00  0.00    -0.200 F 
ATOM     84  F   UNL A   1      40.028  26.551  26.500  1.00  0.00    -0.200 F 
ENDBRANCH  50  74
BRANCH  62  85
ATOM     85  C   UNL A   1      44.285  28.547  35.587  1.00  0.00     0.064 A 
ATOM     86  C   UNL A   1      45.599  28.855  35.206  1.00  0.00     0.173 A 
ATOM     87  C   UNL A   1      44.077  27.390  36.355  1.00  0.00     0.173 A 
ATOM     88  F   UNL A   1      45.849  29.942  34.461  1.00  0.00    -0.203 F 
ATOM     89  C   UNL A   1      46.659  28.020  35.555  1.00  0.00     0.198 A 
ATOM     90  C   UNL A   1      45.142  26.574  36.726  1.00  0.00     0.198 A 
ATOM     91  F   UNL A   1      42.840  27.056  36.751  1.00  0.00    -0.203 F 
ATOM     92  F   UNL A   1      47.900  28.306  35.136  1.00  0.00    -0.200 F 
ATOM     93  C   UNL A   1      46.430  26.885  36.318  1.00  0.00     0.200 A 
ATOM     94  F   UNL A   1      44.921  25.484  37.474  1.00  0.00    -0.200 F 
ATOM     95  F   UNL A   1      47.452  26.085  36.654  1.00  0.00    -0.200 F 
ENDBRANCH  62  85
ENDBRANCH  36  37
ENDBRANCH  28  31
ENDBRANCH  26  27
ENDBRANCH  25  26
ENDBRANCH  24  25
ENDBRANCH  23  24
ENDBRANCH   1  23
TORSDOF 17
ENDMDL
