MODEL 1
REMARK VINA RESULT:     -12.7      0.000      0.000
REMARK SMILES O=C(NCCCCCCNC(=O)c1ccc(-c2c3nc(c(-c4c(F)c(F)c(F)c(F)c4F)c4ccc([nH]4)c(-c4c(F)c(F)c(F)c(F)c4F)c4nc(c(-c5c(F)c(F)c(F)c(F)c5F)c5ccc2[nH]5)C=C4)C=C3)cc1)C1=Cc2cc(Cl)cc(Cl)c2O[C@@H]1C(F)(F)F
REMARK SMILES IDX 7 1 6 2 5 3 4 4 3 5 1 6 2 7 76 9 77 10 87 11 78 12 86 13
REMARK SMILES IDX 79 14 85 15 80 16 83 17 81 18 82 19 84 20 88 21 89 22 90 23
REMARK SMILES IDX 91 24 8 25 9 26 10 27 11 28 12 30 13 31 14 32 75 33 15 34
REMARK SMILES IDX 74 35 16 36 17 37 18 38 68 39 19 40 73 41 67 42 69 43 20 44
REMARK SMILES IDX 72 45 66 46 65 47 21 49 53 50 33 51 52 52 34 53 37 54 51 55
REMARK SMILES IDX 70 56 35 57 36 58 50 60 71 61 38 62 22 63 23 64 31 65 24 66
REMARK SMILES IDX 25 67 29 68 32 69 26 70 27 71 30 72 28 73 54 74 55 75 63 76
REMARK SMILES IDX 56 77 57 78 61 79 64 80 58 81 59 82 62 83 60 84 39 85 40 86
REMARK SMILES IDX 48 87 41 88 42 89 46 90 49 91 43 92 44 93 47 94 45 95
REMARK H PARENT 3 8 10 29 69 48 37 59
REMARK Flexibility Score: inf
ROOT
ATOM      1  C   UNL A   1      31.434  30.456  25.972  1.00  0.00     0.002 C 
ENDROOT
BRANCH   1   2
ATOM      2  C   UNL A   1      32.206  29.463  26.850  1.00  0.00     0.002 C 
BRANCH   2   3
ATOM      3  C   UNL A   1      31.473  28.186  27.255  1.00  0.00     0.021 C 
BRANCH   3   4
ATOM      4  C   UNL A   1      31.855  26.918  26.502  1.00  0.00     0.116 C 
BRANCH   4   5
ATOM      5  N   UNL A   1      31.029  25.757  26.775  1.00  0.00    -0.352 N 
ATOM      6  O   UNL A   1      30.544  23.592  27.128  1.00  0.00    -0.270 OA
ATOM      7  C   UNL A   1      31.338  24.426  26.696  1.00  0.00     0.251 C 
ATOM      8  H   UNL A   1      30.108  25.955  27.061  1.00  0.00     0.163 HD
BRANCH   7   9
ATOM      9  C   UNL A   1      32.655  23.944  26.184  1.00  0.00     0.067 C 
ATOM     10  C   UNL A   1      33.236  22.828  26.656  1.00  0.00     0.025 C 
ATOM     11  C   UNL A   1      32.927  24.369  24.761  1.00  0.00     0.314 C 
ATOM     12  C   UNL A   1      33.212  21.735  25.651  1.00  0.00     0.020 A 
ATOM     13  O   UNL A   1      32.694  23.276  23.833  1.00  0.00    -0.474 OA
ATOM     14  C   UNL A   1      33.277  20.416  26.121  1.00  0.00     0.032 A 
ATOM     15  C   UNL A   1      32.829  21.998  24.324  1.00  0.00     0.146 A 
ATOM     16  C   UNL A   1      32.869  19.374  25.292  1.00  0.00     0.043 A 
ATOM     17  C   UNL A   1      32.448  20.932  23.499  1.00  0.00     0.085 A 
ATOM     18  Cl  UNL A   1      32.762  17.778  25.929  1.00  0.00    -0.084 Cl
ATOM     19  C   UNL A   1      32.448  19.623  23.989  1.00  0.00     0.045 A 
ATOM     20  Cl  UNL A   1      31.844  21.206  21.905  1.00  0.00    -0.080 Cl
BRANCH  11  21
ATOM     21  C   UNL A   1      34.335  24.963  24.586  1.00  0.00     0.429 C 
ATOM     22  F   UNL A   1      34.779  25.526  25.735  1.00  0.00    -0.167 F 
ATOM     23  F   UNL A   1      35.238  24.018  24.234  1.00  0.00    -0.167 F 
ATOM     24  F   UNL A   1      34.370  25.921  23.630  1.00  0.00    -0.167 F 
ENDBRANCH  11  21
ENDBRANCH   7   9
ENDBRANCH   4   5
ENDBRANCH   3   4
ENDBRANCH   2   3
ENDBRANCH   1   2
BRANCH   1  25
ATOM     25  C   UNL A   1      31.319  31.896  26.479  1.00  0.00     0.021 C 
BRANCH  25  26
ATOM     26  C   UNL A   1      32.591  32.523  27.046  1.00  0.00     0.116 C 
BRANCH  26  27
ATOM     27  N   UNL A   1      32.401  33.887  27.504  1.00  0.00    -0.352 N 
ATOM     28  C   UNL A   1      33.064  34.605  28.469  1.00  0.00     0.251 C 
ATOM     29  H   UNL A   1      31.679  34.377  27.050  1.00  0.00     0.163 HD
ATOM     30  O   UNL A   1      32.652  35.717  28.783  1.00  0.00    -0.269 OA
BRANCH  28  31
ATOM     31  C   UNL A   1      34.255  34.050  29.156  1.00  0.00     0.039 A 
ATOM     32  C   UNL A   1      34.056  33.104  30.168  1.00  0.00     0.014 A 
ATOM     33  C   UNL A   1      35.549  34.482  28.856  1.00  0.00     0.014 A 
ATOM     34  C   UNL A   1      35.153  32.555  30.838  1.00  0.00     0.010 A 
ATOM     35  C   UNL A   1      36.646  33.884  29.477  1.00  0.00     0.010 A 
ATOM     36  C   UNL A   1      36.460  32.918  30.479  1.00  0.00    -0.014 A 
BRANCH  36  37
ATOM     37  C   UNL A   1      37.637  32.304  31.147  1.00  0.00     0.031 A 
ATOM     38  C   UNL A   1      38.429  31.228  30.456  1.00  0.00     0.074 A 
ATOM     39  C   UNL A   1      37.963  32.678  32.399  1.00  0.00     0.049 A 
ATOM     40  N   UNL A   1      39.455  30.542  30.895  1.00  0.00    -0.248 NA
ATOM     41  C   UNL A   1      37.995  30.856  29.101  1.00  0.00     0.031 C 
ATOM     42  C   UNL A   1      37.252  33.682  33.191  1.00  0.00     0.029 A 
ATOM     43  N   UNL A   1      38.971  32.254  33.228  1.00  0.00    -0.354 N 
ATOM     44  C   UNL A   1      39.776  29.650  29.879  1.00  0.00     0.074 A 
ATOM     45  C   UNL A   1      38.807  29.847  28.823  1.00  0.00     0.031 C 
ATOM     46  C   UNL A   1      37.861  33.816  34.379  1.00  0.00     0.029 A 
ATOM     47  C   UNL A   1      38.980  32.881  34.450  1.00  0.00     0.049 A 
ATOM     48  H   UNL A   1      39.626  31.565  32.970  1.00  0.00     0.167 HD
ATOM     49  C   UNL A   1      40.797  28.760  29.825  1.00  0.00     0.037 A 
ATOM     50  C   UNL A   1      39.796  32.718  35.509  1.00  0.00     0.037 A 
ATOM     51  C   UNL A   1      41.775  28.586  30.868  1.00  0.00     0.049 A 
ATOM     52  C   UNL A   1      40.915  31.715  35.429  1.00  0.00     0.074 A 
ATOM     53  C   UNL A   1      42.890  27.764  30.878  1.00  0.00     0.029 A 
ATOM     54  N   UNL A   1      41.752  29.241  32.090  1.00  0.00    -0.354 N 
ATOM     55  N   UNL A   1      41.254  30.929  34.435  1.00  0.00    -0.248 NA
ATOM     56  C   UNL A   1      41.768  31.580  36.617  1.00  0.00     0.031 C 
ATOM     57  C   UNL A   1      43.509  27.881  32.126  1.00  0.00     0.029 A 
ATOM     58  C   UNL A   1      42.815  28.819  32.875  1.00  0.00     0.049 A 
ATOM     59  H   UNL A   1      41.080  29.907  32.362  1.00  0.00     0.167 HD
ATOM     60  C   UNL A   1      42.374  30.232  34.865  1.00  0.00     0.074 A 
ATOM     61  C   UNL A   1      42.666  30.696  36.206  1.00  0.00     0.031 C 
ATOM     62  C   UNL A   1      43.097  29.293  34.207  1.00  0.00     0.037 A 
BRANCH  49  63
ATOM     63  C   UNL A   1      40.905  27.900  28.598  1.00  0.00     0.064 A 
ATOM     64  C   UNL A   1      40.208  26.688  28.482  1.00  0.00     0.173 A 
ATOM     65  C   UNL A   1      41.695  28.307  27.512  1.00  0.00     0.173 A 
ATOM     66  F   UNL A   1      39.446  26.247  29.495  1.00  0.00    -0.203 F 
ATOM     67  C   UNL A   1      40.325  25.899  27.339  1.00  0.00     0.198 A 
ATOM     68  C   UNL A   1      41.783  27.532  26.358  1.00  0.00     0.198 A 
ATOM     69  F   UNL A   1      42.377  29.461  27.566  1.00  0.00    -0.203 F 
ATOM     70  F   UNL A   1      39.693  24.719  27.274  1.00  0.00    -0.200 F 
ATOM     71  C   UNL A   1      41.107  26.325  26.277  1.00  0.00     0.200 A 
ATOM     72  F   UNL A   1      42.529  27.953  25.327  1.00  0.00    -0.200 F 
ATOM     73  F   UNL A   1      41.216  25.568  25.177  1.00  0.00    -0.200 F 
ENDBRANCH  49  63
BRANCH  50  74
ATOM     74  C   UNL A   1      39.603  33.546  36.727  1.00  0.00     0.064 A 
ATOM     75  C   UNL A   1      38.783  33.102  37.774  1.00  0.00     0.173 A 
ATOM     76  C   UNL A   1      40.230  34.792  36.874  1.00  0.00     0.173 A 
ATOM     77  F   UNL A   1      38.145  31.927  37.671  1.00  0.00    -0.203 F 
ATOM     78  C   UNL A   1      38.585  33.878  38.913  1.00  0.00     0.198 A 
ATOM     79  C   UNL A   1      40.053  35.556  38.026  1.00  0.00     0.198 A 
ATOM     80  F   UNL A   1      41.026  35.262  35.903  1.00  0.00    -0.203 F 
ATOM     81  F   UNL A   1      37.763  33.447  39.880  1.00  0.00    -0.200 F 
ATOM     82  C   UNL A   1      39.225  35.100  39.042  1.00  0.00     0.200 A 
ATOM     83  F   UNL A   1      40.685  36.730  38.153  1.00  0.00    -0.200 F 
ATOM     84  F   UNL A   1      39.040  35.844  40.141  1.00  0.00    -0.200 F 
ENDBRANCH  50  74
BRANCH  62  85
ATOM     85  C   UNL A   1      44.297  28.726  34.911  1.00  0.00     0.064 A 
ATOM     86  C   UNL A   1      44.212  27.565  35.694  1.00  0.00     0.173 A 
ATOM     87  C   UNL A   1      45.553  29.334  34.771  1.00  0.00     0.173 A 
ATOM     88  F   UNL A   1      43.030  26.955  35.872  1.00  0.00    -0.203 F 
ATOM     89  C   UNL A   1      45.338  27.047  36.330  1.00  0.00     0.198 A 
ATOM     90  C   UNL A   1      46.683  28.797  35.382  1.00  0.00     0.198 A 
ATOM     91  F   UNL A   1      45.690  30.444  34.029  1.00  0.00    -0.203 F 
ATOM     92  F   UNL A   1      45.225  25.965  37.111  1.00  0.00    -0.200 F 
ATOM     93  C   UNL A   1      46.572  27.659  36.167  1.00  0.00     0.200 A 
ATOM     94  F   UNL A   1      47.877  29.380  35.213  1.00  0.00    -0.200 F 
ATOM     95  F   UNL A   1      47.656  27.154  36.773  1.00  0.00    -0.200 F 
ENDBRANCH  62  85
ENDBRANCH  36  37
ENDBRANCH  28  31
ENDBRANCH  26  27
ENDBRANCH  25  26
ENDBRANCH   1  25
TORSDOF 14
ENDMDL
MODEL 2
REMARK VINA RESULT:     -12.7      2.270      3.199
REMARK SMILES O=C(NCCCCCCNC(=O)c1ccc(-c2c3nc(c(-c4c(F)c(F)c(F)c(F)c4F)c4ccc([nH]4)c(-c4c(F)c(F)c(F)c(F)c4F)c4nc(c(-c5c(F)c(F)c(F)c(F)c5F)c5ccc2[nH]5)C=C4)C=C3)cc1)C1=Cc2cc(Cl)cc(Cl)c2O[C@@H]1C(F)(F)F
REMARK SMILES IDX 7 1 6 2 5 3 4 4 3 5 1 6 2 7 76 9 77 10 87 11 78 12 86 13
REMARK SMILES IDX 79 14 85 15 80 16 83 17 81 18 82 19 84 20 88 21 89 22 90 23
REMARK SMILES IDX 91 24 8 25 9 26 10 27 11 28 12 30 13 31 14 32 75 33 15 34
REMARK SMILES IDX 74 35 16 36 17 37 18 38 68 39 19 40 73 41 67 42 69 43 20 44
REMARK SMILES IDX 72 45 66 46 65 47 21 49 53 50 33 51 52 52 34 53 37 54 51 55
REMARK SMILES IDX 70 56 35 57 36 58 50 60 71 61 38 62 22 63 23 64 31 65 24 66
REMARK SMILES IDX 25 67 29 68 32 69 26 70 27 71 30 72 28 73 54 74 55 75 63 76
REMARK SMILES IDX 56 77 57 78 61 79 64 80 58 81 59 82 62 83 60 84 39 85 40 86
REMARK SMILES IDX 48 87 41 88 42 89 46 90 49 91 43 92 44 93 47 94 45 95
REMARK H PARENT 3 8 10 29 69 48 37 59
REMARK Flexibility Score: inf
ROOT
ATOM      1  C   UNL A   1      31.571  27.766  24.506  1.00  0.00     0.002 C 
ENDROOT
BRANCH   1   2
ATOM      2  C   UNL A   1      30.759  26.467  24.590  1.00  0.00     0.002 C 
BRANCH   2   3
ATOM      3  C   UNL A   1      30.404  25.966  25.988  1.00  0.00     0.021 C 
BRANCH   3   4
ATOM      4  C   UNL A   1      29.964  24.511  26.095  1.00  0.00     0.116 C 
BRANCH   4   5
ATOM      5  N   UNL A   1      30.781  23.673  26.953  1.00  0.00    -0.352 N 
ATOM      6  O   UNL A   1      32.625  22.603  27.661  1.00  0.00    -0.270 OA
ATOM      7  C   UNL A   1      32.032  23.160  26.739  1.00  0.00     0.251 C 
ATOM      8  H   UNL A   1      30.375  23.438  27.819  1.00  0.00     0.163 HD
BRANCH   7   9
ATOM      9  C   UNL A   1      32.750  23.331  25.442  1.00  0.00     0.067 C 
ATOM     10  C   UNL A   1      33.794  24.170  25.312  1.00  0.00     0.025 C 
ATOM     11  C   UNL A   1      32.675  22.110  24.557  1.00  0.00     0.314 C 
ATOM     12  C   UNL A   1      35.070  23.429  25.143  1.00  0.00     0.020 A 
ATOM     13  O   UNL A   1      33.912  21.350  24.607  1.00  0.00    -0.474 OA
ATOM     14  C   UNL A   1      36.254  24.078  25.516  1.00  0.00     0.032 A 
ATOM     15  C   UNL A   1      35.061  22.040  24.917  1.00  0.00     0.146 A 
ATOM     16  C   UNL A   1      37.402  23.325  25.752  1.00  0.00     0.043 A 
ATOM     17  C   UNL A   1      36.233  21.306  25.135  1.00  0.00     0.085 A 
ATOM     18  Cl  UNL A   1      38.800  24.093  26.397  1.00  0.00    -0.084 Cl
ATOM     19  C   UNL A   1      37.397  21.944  25.572  1.00  0.00     0.045 A 
ATOM     20  Cl  UNL A   1      36.248  19.585  25.001  1.00  0.00    -0.080 Cl
BRANCH  11  21
ATOM     21  C   UNL A   1      32.287  22.458  23.110  1.00  0.00     0.429 C 
ATOM     22  F   UNL A   1      31.512  23.567  23.060  1.00  0.00    -0.167 F 
ATOM     23  F   UNL A   1      33.376  22.701  22.344  1.00  0.00    -0.167 F 
ATOM     24  F   UNL A   1      31.597  21.457  22.512  1.00  0.00    -0.167 F 
ENDBRANCH  11  21
ENDBRANCH   7   9
ENDBRANCH   4   5
ENDBRANCH   3   4
ENDBRANCH   2   3
ENDBRANCH   1   2
BRANCH   1  25
ATOM     25  C   UNL A   1      33.075  27.670  24.777  1.00  0.00     0.021 C 
BRANCH  25  26
ATOM     26  C   UNL A   1      33.846  28.988  24.817  1.00  0.00     0.116 C 
BRANCH  26  27
ATOM     27  N   UNL A   1      33.082  30.078  25.397  1.00  0.00    -0.352 N 
ATOM     28  C   UNL A   1      33.278  30.786  26.557  1.00  0.00     0.251 C 
ATOM     29  H   UNL A   1      32.296  30.354  24.873  1.00  0.00     0.163 HD
ATOM     30  O   UNL A   1      32.430  31.594  26.921  1.00  0.00    -0.269 OA
BRANCH  28  31
ATOM     31  C   UNL A   1      34.486  30.575  27.390  1.00  0.00     0.039 A 
ATOM     32  C   UNL A   1      34.665  29.324  27.993  1.00  0.00     0.014 A 
ATOM     33  C   UNL A   1      35.410  31.596  27.626  1.00  0.00     0.014 A 
ATOM     34  C   UNL A   1      35.791  29.084  28.785  1.00  0.00     0.010 A 
ATOM     35  C   UNL A   1      36.567  31.334  28.359  1.00  0.00     0.010 A 
ATOM     36  C   UNL A   1      36.768  30.077  28.952  1.00  0.00    -0.014 A 
BRANCH  36  37
ATOM     37  C   UNL A   1      37.997  29.818  29.747  1.00  0.00     0.031 A 
ATOM     38  C   UNL A   1      39.074  28.916  29.213  1.00  0.00     0.074 A 
ATOM     39  C   UNL A   1      38.120  30.356  30.976  1.00  0.00     0.049 A 
ATOM     40  N   UNL A   1      40.192  28.533  29.778  1.00  0.00    -0.248 NA
ATOM     41  C   UNL A   1      38.854  28.346  27.874  1.00  0.00     0.031 C 
ATOM     42  C   UNL A   1      37.129  31.217  31.623  1.00  0.00     0.029 A 
ATOM     43  N   UNL A   1      39.127  30.254  31.903  1.00  0.00    -0.354 N 
ATOM     44  C   UNL A   1      40.797  27.669  28.874  1.00  0.00     0.074 A 
ATOM     45  C   UNL A   1      39.901  27.544  27.745  1.00  0.00     0.031 C 
ATOM     46  C   UNL A   1      37.589  31.586  32.829  1.00  0.00     0.029 A 
ATOM     47  C   UNL A   1      38.886  30.956  33.058  1.00  0.00     0.049 A 
ATOM     48  H   UNL A   1      39.944  29.725  31.754  1.00  0.00     0.167 HD
ATOM     49  C   UNL A   1      42.000  27.050  28.969  1.00  0.00     0.037 A 
ATOM     50  C   UNL A   1      39.627  31.077  34.177  1.00  0.00     0.037 A 
ATOM     51  C   UNL A   1      42.901  27.198  30.083  1.00  0.00     0.049 A 
ATOM     52  C   UNL A   1      40.952  30.371  34.262  1.00  0.00     0.074 A 
ATOM     53  C   UNL A   1      44.172  26.673  30.241  1.00  0.00     0.029 A 
ATOM     54  N   UNL A   1      42.622  27.921  31.234  1.00  0.00    -0.354 N 
ATOM     55  N   UNL A   1      41.547  29.615  33.371  1.00  0.00    -0.248 NA
ATOM     56  C   UNL A   1      41.711  30.538  35.509  1.00  0.00     0.031 C 
ATOM     57  C   UNL A   1      44.639  27.032  31.509  1.00  0.00     0.029 A 
ATOM     58  C   UNL A   1      43.685  27.829  32.119  1.00  0.00     0.049 A 
ATOM     59  H   UNL A   1      41.793  28.424  31.398  1.00  0.00     0.167 HD
ATOM     60  C   UNL A   1      42.761  29.244  33.935  1.00  0.00     0.074 A 
ATOM     61  C   UNL A   1      42.822  29.867  35.241  1.00  0.00     0.031 C 
ATOM     62  C   UNL A   1      43.736  28.459  33.415  1.00  0.00     0.037 A 
BRANCH  49  63
ATOM     63  C   UNL A   1      42.409  26.149  27.839  1.00  0.00     0.064 A 
ATOM     64  C   UNL A   1      41.991  24.811  27.772  1.00  0.00     0.173 A 
ATOM     65  C   UNL A   1      43.206  26.638  26.793  1.00  0.00     0.173 A 
ATOM     66  F   UNL A   1      41.235  24.290  28.751  1.00  0.00    -0.203 F 
ATOM     67  C   UNL A   1      42.385  23.987  26.720  1.00  0.00     0.198 A 
ATOM     68  C   UNL A   1      43.571  25.821  25.726  1.00  0.00     0.198 A 
ATOM     69  F   UNL A   1      43.627  27.912  26.801  1.00  0.00    -0.203 F 
ATOM     70  F   UNL A   1      42.019  22.698  26.707  1.00  0.00    -0.200 F 
ATOM     71  C   UNL A   1      43.169  24.495  25.695  1.00  0.00     0.200 A 
ATOM     72  F   UNL A   1      44.316  26.318  24.729  1.00  0.00    -0.200 F 
ATOM     73  F   UNL A   1      43.544  23.703  24.681  1.00  0.00    -0.200 F 
ENDBRANCH  49  63
BRANCH  50  74
ATOM     74  C   UNL A   1      39.143  31.926  35.296  1.00  0.00     0.064 A 
ATOM     75  C   UNL A   1      39.410  33.303  35.319  1.00  0.00     0.173 A 
ATOM     76  C   UNL A   1      38.405  31.388  36.360  1.00  0.00     0.173 A 
ATOM     77  F   UNL A   1      40.130  33.860  34.334  1.00  0.00    -0.203 F 
ATOM     78  C   UNL A   1      38.972  34.104  36.370  1.00  0.00     0.198 A 
ATOM     79  C   UNL A   1      37.944  32.195  37.398  1.00  0.00     0.198 A 
ATOM     80  F   UNL A   1      38.120  30.078  36.384  1.00  0.00    -0.203 F 
ATOM     81  F   UNL A   1      39.278  35.409  36.388  1.00  0.00    -0.200 F 
ATOM     82  C   UNL A   1      38.234  33.552  37.405  1.00  0.00     0.200 A 
ATOM     83  F   UNL A   1      37.218  31.660  38.389  1.00  0.00    -0.200 F 
ATOM     84  F   UNL A   1      37.807  34.324  38.414  1.00  0.00    -0.200 F 
ENDBRANCH  50  74
BRANCH  62  85
ATOM     85  C   UNL A   1      44.972  28.255  34.244  1.00  0.00     0.064 A 
ATOM     86  C   UNL A   1      45.092  27.180  35.137  1.00  0.00     0.173 A 
ATOM     87  C   UNL A   1      46.063  29.127  34.116  1.00  0.00     0.173 A 
ATOM     88  F   UNL A   1      44.070  26.327  35.309  1.00  0.00    -0.203 F 
ATOM     89  C   UNL A   1      46.251  26.999  35.889  1.00  0.00     0.198 A 
ATOM     90  C   UNL A   1      47.232  28.926  34.845  1.00  0.00     0.198 A 
ATOM     91  F   UNL A   1      46.002  30.168  33.272  1.00  0.00    -0.203 F 
ATOM     92  F   UNL A   1      46.325  25.993  36.770  1.00  0.00    -0.200 F 
ATOM     93  C   UNL A   1      47.321  27.867  35.736  1.00  0.00     0.200 A 
ATOM     94  F   UNL A   1      48.271  29.757  34.686  1.00  0.00    -0.200 F 
ATOM     95  F   UNL A   1      48.439  27.687  36.454  1.00  0.00    -0.200 F 
ENDBRANCH  62  85
ENDBRANCH  36  37
ENDBRANCH  28  31
ENDBRANCH  26  27
ENDBRANCH  25  26
ENDBRANCH   1  25
TORSDOF 14
ENDMDL
MODEL 3
REMARK VINA RESULT:     -12.7      2.036      7.733
REMARK SMILES O=C(NCCCCCCNC(=O)c1ccc(-c2c3nc(c(-c4c(F)c(F)c(F)c(F)c4F)c4ccc([nH]4)c(-c4c(F)c(F)c(F)c(F)c4F)c4nc(c(-c5c(F)c(F)c(F)c(F)c5F)c5ccc2[nH]5)C=C4)C=C3)cc1)C1=Cc2cc(Cl)cc(Cl)c2O[C@@H]1C(F)(F)F
REMARK SMILES IDX 7 1 6 2 5 3 4 4 3 5 1 6 2 7 76 9 77 10 87 11 78 12 86 13
REMARK SMILES IDX 79 14 85 15 80 16 83 17 81 18 82 19 84 20 88 21 89 22 90 23
REMARK SMILES IDX 91 24 8 25 9 26 10 27 11 28 12 30 13 31 14 32 75 33 15 34
REMARK SMILES IDX 74 35 16 36 17 37 18 38 68 39 19 40 73 41 67 42 69 43 20 44
REMARK SMILES IDX 72 45 66 46 65 47 21 49 53 50 33 51 52 52 34 53 37 54 51 55
REMARK SMILES IDX 70 56 35 57 36 58 50 60 71 61 38 62 22 63 23 64 31 65 24 66
REMARK SMILES IDX 25 67 29 68 32 69 26 70 27 71 30 72 28 73 54 74 55 75 63 76
REMARK SMILES IDX 56 77 57 78 61 79 64 80 58 81 59 82 62 83 60 84 39 85 40 86
REMARK SMILES IDX 48 87 41 88 42 89 46 90 49 91 43 92 44 93 47 94 45 95
REMARK H PARENT 3 8 10 29 69 48 37 59
REMARK Flexibility Score: inf
ROOT
ATOM      1  C   UNL A   1      34.520  33.564  28.597  1.00  0.00     0.002 C 
ENDROOT
BRANCH   1   2
ATOM      2  C   UNL A   1      34.402  32.062  28.887  1.00  0.00     0.002 C 
BRANCH   2   3
ATOM      3  C   UNL A   1      34.768  31.110  27.751  1.00  0.00     0.021 C 
BRANCH   3   4
ATOM      4  C   UNL A   1      33.609  30.569  26.922  1.00  0.00     0.116 C 
BRANCH   4   5
ATOM      5  N   UNL A   1      32.695  29.690  27.626  1.00  0.00    -0.352 N 
ATOM      6  O   UNL A   1      31.504  27.828  28.030  1.00  0.00    -0.270 OA
ATOM      7  C   UNL A   1      32.130  28.511  27.221  1.00  0.00     0.251 C 
ATOM      8  H   UNL A   1      32.443  29.984  28.531  1.00  0.00     0.163 HD
BRANCH   7   9
ATOM      9  C   UNL A   1      32.321  27.969  25.843  1.00  0.00     0.067 C 
ATOM     10  C   UNL A   1      33.497  27.457  25.438  1.00  0.00     0.025 C 
ATOM     11  C   UNL A   1      31.043  27.452  25.228  1.00  0.00     0.314 C 
ATOM     12  C   UNL A   1      33.421  25.983  25.274  1.00  0.00     0.020 A 
ATOM     13  O   UNL A   1      30.982  26.002  25.286  1.00  0.00    -0.474 OA
ATOM     14  C   UNL A   1      34.613  25.254  25.379  1.00  0.00     0.032 A 
ATOM     15  C   UNL A   1      32.179  25.325  25.325  1.00  0.00     0.146 A 
ATOM     16  C   UNL A   1      34.559  23.885  25.627  1.00  0.00     0.043 A 
ATOM     17  C   UNL A   1      32.148  23.943  25.549  1.00  0.00     0.085 A 
ATOM     18  Cl  UNL A   1      36.014  23.025  25.949  1.00  0.00    -0.084 Cl
ATOM     19  C   UNL A   1      33.335  23.227  25.721  1.00  0.00     0.045 A 
ATOM     20  Cl  UNL A   1      30.653  23.103  25.752  1.00  0.00    -0.080 Cl
BRANCH  11  21
ATOM     21  C   UNL A   1      30.835  27.966  23.793  1.00  0.00     0.429 C 
ATOM     22  F   UNL A   1      31.261  27.063  22.879  1.00  0.00    -0.167 F 
ATOM     23  F   UNL A   1      29.529  28.208  23.532  1.00  0.00    -0.167 F 
ATOM     24  F   UNL A   1      31.506  29.120  23.562  1.00  0.00    -0.167 F 
ENDBRANCH  11  21
ENDBRANCH   7   9
ENDBRANCH   4   5
ENDBRANCH   3   4
ENDBRANCH   2   3
ENDBRANCH   1   2
BRANCH   1  25
ATOM     25  C   UNL A   1      33.226  34.385  28.620  1.00  0.00     0.021 C 
BRANCH  25  26
ATOM     26  C   UNL A   1      33.342  35.824  29.117  1.00  0.00     0.116 C 
BRANCH  26  27
ATOM     27  N   UNL A   1      32.528  36.090  30.290  1.00  0.00    -0.352 N 
ATOM     28  C   UNL A   1      32.694  35.702  31.597  1.00  0.00     0.251 C 
ATOM     29  H   UNL A   1      31.727  36.636  30.121  1.00  0.00     0.163 HD
ATOM     30  O   UNL A   1      31.809  35.938  32.414  1.00  0.00    -0.269 OA
BRANCH  28  31
ATOM     31  C   UNL A   1      33.914  34.983  32.035  1.00  0.00     0.039 A 
ATOM     32  C   UNL A   1      33.794  33.639  32.407  1.00  0.00     0.014 A 
ATOM     33  C   UNL A   1      35.153  35.620  32.135  1.00  0.00     0.014 A 
ATOM     34  C   UNL A   1      34.920  32.925  32.824  1.00  0.00     0.010 A 
ATOM     35  C   UNL A   1      36.288  34.889  32.485  1.00  0.00     0.010 A 
ATOM     36  C   UNL A   1      36.183  33.535  32.839  1.00  0.00    -0.014 A 
BRANCH  36  37
ATOM     37  C   UNL A   1      37.398  32.772  33.230  1.00  0.00     0.031 A 
ATOM     38  C   UNL A   1      38.100  33.070  34.527  1.00  0.00     0.074 A 
ATOM     39  C   UNL A   1      37.900  31.845  32.392  1.00  0.00     0.049 A 
ATOM     40  N   UNL A   1      39.195  32.546  35.016  1.00  0.00    -0.248 NA
ATOM     41  C   UNL A   1      37.504  34.114  35.375  1.00  0.00     0.031 C 
ATOM     42  C   UNL A   1      37.335  31.491  31.090  1.00  0.00     0.029 A 
ATOM     43  N   UNL A   1      39.003  31.036  32.507  1.00  0.00    -0.354 N 
ATOM     44  C   UNL A   1      39.428  33.207  36.216  1.00  0.00     0.074 A 
ATOM     45  C   UNL A   1      38.388  34.203  36.357  1.00  0.00     0.031 C 
ATOM     46  C   UNL A   1      38.078  30.518  30.539  1.00  0.00     0.029 A 
ATOM     47  C   UNL A   1      39.194  30.208  31.429  1.00  0.00     0.049 A 
ATOM     48  H   UNL A   1      39.601  31.049  33.290  1.00  0.00     0.167 HD
ATOM     49  C   UNL A   1      40.409  32.989  37.126  1.00  0.00     0.037 A 
ATOM     50  C   UNL A   1      40.161  29.303  31.183  1.00  0.00     0.037 A 
ATOM     51  C   UNL A   1      41.427  31.979  36.994  1.00  0.00     0.049 A 
ATOM     52  C   UNL A   1      41.246  29.090  32.203  1.00  0.00     0.074 A 
ATOM     53  C   UNL A   1      42.420  31.631  37.893  1.00  0.00     0.029 A 
ATOM     54  N   UNL A   1      41.586  31.158  35.887  1.00  0.00    -0.354 N 
ATOM     55  N   UNL A   1      41.413  29.668  33.368  1.00  0.00    -0.248 NA
ATOM     56  C   UNL A   1      42.274  28.092  31.876  1.00  0.00     0.031 C 
ATOM     57  C   UNL A   1      43.212  30.638  37.308  1.00  0.00     0.029 A 
ATOM     58  C   UNL A   1      42.680  30.326  36.068  1.00  0.00     0.049 A 
ATOM     59  H   UNL A   1      41.008  31.165  35.090  1.00  0.00     0.167 HD
ATOM     60  C   UNL A   1      42.543  29.085  33.925  1.00  0.00     0.074 A 
ATOM     61  C   UNL A   1      43.015  28.098  32.975  1.00  0.00     0.031 C 
ATOM     62  C   UNL A   1      43.136  29.343  35.116  1.00  0.00     0.037 A 
BRANCH  49  63
ATOM     63  C   UNL A   1      40.434  33.867  38.345  1.00  0.00     0.064 A 
ATOM     64  C   UNL A   1      39.693  33.556  39.495  1.00  0.00     0.173 A 
ATOM     65  C   UNL A   1      41.232  35.021  38.373  1.00  0.00     0.173 A 
ATOM     66  F   UNL A   1      38.907  32.469  39.519  1.00  0.00    -0.203 F 
ATOM     67  C   UNL A   1      39.723  34.385  40.615  1.00  0.00     0.198 A 
ATOM     68  C   UNL A   1      41.285  35.830  39.505  1.00  0.00     0.198 A 
ATOM     69  F   UNL A   1      41.967  35.363  37.304  1.00  0.00    -0.203 F 
ATOM     70  F   UNL A   1      38.964  34.096  41.681  1.00  0.00    -0.200 F 
ATOM     71  C   UNL A   1      40.523  35.517  40.621  1.00  0.00     0.200 A 
ATOM     72  F   UNL A   1      42.070  36.916  39.515  1.00  0.00    -0.200 F 
ATOM     73  F   UNL A   1      40.554  36.312  41.699  1.00  0.00    -0.200 F 
ENDBRANCH  49  63
BRANCH  50  74
ATOM     74  C   UNL A   1      40.129  28.509  29.928  1.00  0.00     0.064 A 
ATOM     75  C   UNL A   1      39.482  27.266  29.881  1.00  0.00     0.173 A 
ATOM     76  C   UNL A   1      40.738  28.971  28.752  1.00  0.00     0.173 A 
ATOM     77  F   UNL A   1      38.903  26.773  30.986  1.00  0.00    -0.203 F 
ATOM     78  C   UNL A   1      39.458  26.509  28.713  1.00  0.00     0.198 A 
ATOM     79  C   UNL A   1      40.691  28.225  27.575  1.00  0.00     0.198 A 
ATOM     80  F   UNL A   1      41.368  30.155  28.742  1.00  0.00    -0.203 F 
ATOM     81  F   UNL A   1      38.869  25.306  28.709  1.00  0.00    -0.200 F 
ATOM     82  C   UNL A   1      40.057  26.991  27.559  1.00  0.00     0.200 A 
ATOM     83  F   UNL A   1      41.258  28.701  26.459  1.00  0.00    -0.200 F 
ATOM     84  F   UNL A   1      40.029  26.266  26.433  1.00  0.00    -0.200 F 
ENDBRANCH  50  74
BRANCH  62  85
ATOM     85  C   UNL A   1      44.341  28.523  35.480  1.00  0.00     0.064 A 
ATOM     86  C   UNL A   1      45.641  28.942  35.163  1.00  0.00     0.173 A 
ATOM     87  C   UNL A   1      44.192  27.320  36.186  1.00  0.00     0.173 A 
ATOM     88  F   UNL A   1      45.836  30.077  34.474  1.00  0.00    -0.203 F 
ATOM     89  C   UNL A   1      46.747  28.175  35.519  1.00  0.00     0.198 A 
ATOM     90  C   UNL A   1      45.302  26.571  36.569  1.00  0.00     0.198 A 
ATOM     91  F   UNL A   1      42.971  26.877  36.519  1.00  0.00    -0.203 F 
ATOM     92  F   UNL A   1      47.977  28.571  35.164  1.00  0.00    -0.200 F 
ATOM     93  C   UNL A   1      46.577  26.995  36.228  1.00  0.00     0.200 A 
ATOM     94  F   UNL A   1      45.136  25.439  37.266  1.00  0.00    -0.200 F 
ATOM     95  F   UNL A   1      47.643  26.262  36.577  1.00  0.00    -0.200 F 
ENDBRANCH  62  85
ENDBRANCH  36  37
ENDBRANCH  28  31
ENDBRANCH  26  27
ENDBRANCH  25  26
ENDBRANCH   1  25
TORSDOF 14
ENDMDL
