MODEL 1
REMARK VINA RESULT:     -13.5      0.000      0.000
REMARK SMILES Cc1nn(C(C)C)c(C)c1S(=O)(=O)Nc1cccc(C(=O)NCCCCCCNC(=O)c2ccc(-c3c4nc(c(-c5c(F)c(F)c(F)c(F)c5F)c5ccc([nH]5)c(-c5c(F)c(F)c(F)c(F)c5F)c5nc(c(-c6c(F)c(F)c(F)c(F)c6F)c6ccc3[nH]6)C=C5)C=C4)cc2)c1C
REMARK SMILES IDX 24 1 23 2 22 3 20 4 21 5 19 7 15 8 16 9 95 10 17 11 96 12
REMARK SMILES IDX 18 13 14 14 11 16 12 17 13 18 10 19 1 20 2 21 3 22 4 23 8 24
REMARK SMILES IDX 9 25 5 26 6 27 7 28 25 29 26 30 27 31 28 32 29 33 30 34
REMARK SMILES IDX 31 36 32 37 33 38 94 39 34 40 93 41 35 42 36 43 37 44 87 45
REMARK SMILES IDX 38 46 92 47 86 48 88 49 39 50 91 51 85 52 84 53 40 55 72 56
REMARK SMILES IDX 52 57 71 58 53 59 56 60 70 61 89 62 54 63 55 64 69 66 90 67
REMARK SMILES IDX 57 68 41 69 42 70 50 71 43 72 44 73 48 74 51 75 45 76 46 77
REMARK SMILES IDX 49 78 47 79 73 80 74 81 82 82 75 83 76 84 80 85 83 86 77 87
REMARK SMILES IDX 78 88 81 89 79 90 58 91 59 92 67 93 60 94 61 95 65 96 68 97
REMARK SMILES IDX 62 98 63 99 66 100 64 101
REMARK H PARENT 22 6 14 15 29 35 88 54 56 65
REMARK Flexibility Score: inf
ROOT
ATOM      1  C   UNL A   1      35.376  22.414  25.125  1.00  0.00     0.021 C 
ENDROOT
BRANCH   1   2
ATOM      2  C   UNL A   1      35.410  20.927  24.786  1.00  0.00     0.116 C 
BRANCH   2   3
ATOM      3  N   UNL A   1      34.313  20.171  25.349  1.00  0.00    -0.352 N 
ATOM      4  C   UNL A   1      32.943  20.268  25.336  1.00  0.00     0.251 C 
ATOM      5  O   UNL A   1      32.381  19.185  25.521  1.00  0.00    -0.269 OA
ATOM      6  H   UNL A   1      34.626  19.395  25.869  1.00  0.00     0.163 HD
BRANCH   4   7
ATOM      7  C   UNL A   1      32.113  21.517  25.123  1.00  0.00     0.044 A 
ATOM      8  C   UNL A   1      31.418  23.358  23.656  1.00  0.00     0.053 A 
ATOM      9  C   UNL A   1      30.755  23.983  24.704  1.00  0.00     0.027 A 
ATOM     10  C   UNL A   1      31.949  22.048  23.810  1.00  0.00    -0.014 A 
ATOM     11  C   UNL A   1      30.813  23.422  25.965  1.00  0.00     0.003 A 
ATOM     12  C   UNL A   1      32.395  21.309  22.566  1.00  0.00     0.047 C 
ATOM     13  C   UNL A   1      31.540  22.248  26.173  1.00  0.00     0.014 A 
BRANCH   8  14
ATOM     14  N   UNL A   1      31.706  24.041  22.439  1.00  0.00    -0.279 N 
ATOM     15  H   UNL A   1      31.292  23.697  21.615  1.00  0.00     0.180 HD
BRANCH  14  16
ATOM     16  S   UNL A   1      32.691  25.380  22.310  1.00  0.00     0.265 S 
ATOM     17  O   UNL A   1      32.422  26.016  21.044  1.00  0.00    -0.201 OA
ATOM     18  O   UNL A   1      34.031  24.892  22.607  1.00  0.00    -0.201 OA
BRANCH  16  19
ATOM     19  C   UNL A   1      32.464  26.649  23.461  1.00  0.00     0.131 A 
ATOM     20  C   UNL A   1      30.734  28.397  22.438  1.00  0.00     0.070 C 
ATOM     21  C   UNL A   1      31.700  27.844  23.412  1.00  0.00     0.080 A 
ATOM     22  N   UNL A   1      31.925  28.604  24.493  1.00  0.00    -0.176 NA
ATOM     23  N   UNL A   1      32.717  27.864  25.282  1.00  0.00    -0.266 N 
ATOM     24  C   UNL A   1      33.050  26.658  24.725  1.00  0.00     0.056 A 
ATOM     25  C   UNL A   1      33.862  25.631  25.428  1.00  0.00     0.068 C 
BRANCH  23  26
ATOM     26  C   UNL A   1      33.104  28.395  26.589  1.00  0.00     0.101 C 
ATOM     27  C   UNL A   1      34.392  29.210  26.492  1.00  0.00     0.033 C 
ATOM     28  C   UNL A   1      31.977  29.215  27.222  1.00  0.00     0.033 C 
ENDBRANCH  23  26
ENDBRANCH  16  19
ENDBRANCH  14  16
ENDBRANCH   8  14
ENDBRANCH   4   7
ENDBRANCH   2   3
ENDBRANCH   1   2
BRANCH   1  29
ATOM     29  C   UNL A   1      36.638  23.222  24.816  1.00  0.00     0.002 C 
BRANCH  29  30
ATOM     30  C   UNL A   1      37.655  23.431  25.950  1.00  0.00     0.002 C 
BRANCH  30  31
ATOM     31  C   UNL A   1      38.812  22.436  26.075  1.00  0.00     0.021 C 
BRANCH  31  32
ATOM     32  C   UNL A   1      39.896  22.817  27.069  1.00  0.00     0.116 C 
BRANCH  32  33
ATOM     33  N   UNL A   1      41.138  23.293  26.475  1.00  0.00    -0.352 N 
ATOM     34  C   UNL A   1      41.503  24.599  26.192  1.00  0.00     0.251 C 
ATOM     35  H   UNL A   1      41.800  22.601  26.247  1.00  0.00     0.163 HD
ATOM     36  O   UNL A   1      42.574  24.853  25.653  1.00  0.00    -0.269 OA
BRANCH  34  37
ATOM     37  C   UNL A   1      40.634  25.694  26.685  1.00  0.00     0.039 A 
ATOM     38  C   UNL A   1      40.840  26.969  26.150  1.00  0.00     0.014 A 
ATOM     39  C   UNL A   1      39.870  25.524  27.836  1.00  0.00     0.014 A 
ATOM     40  C   UNL A   1      40.526  28.084  26.920  1.00  0.00     0.010 A 
ATOM     41  C   UNL A   1      39.648  26.621  28.645  1.00  0.00     0.010 A 
ATOM     42  C   UNL A   1      40.042  27.892  28.215  1.00  0.00    -0.014 A 
BRANCH  42  43
ATOM     43  C   UNL A   1      39.958  28.969  29.192  1.00  0.00     0.031 A 
ATOM     44  C   UNL A   1      38.903  29.989  29.049  1.00  0.00     0.074 A 
ATOM     45  C   UNL A   1      40.832  29.047  30.220  1.00  0.00     0.049 A 
ATOM     46  N   UNL A   1      39.034  31.220  29.412  1.00  0.00    -0.248 NA
ATOM     47  C   UNL A   1      37.612  29.701  28.437  1.00  0.00     0.031 C 
ATOM     48  C   UNL A   1      40.767  29.957  31.361  1.00  0.00     0.029 A 
ATOM     49  N   UNL A   1      42.083  28.424  30.343  1.00  0.00    -0.354 N 
ATOM     50  C   UNL A   1      37.799  31.818  29.323  1.00  0.00     0.074 A 
ATOM     51  C   UNL A   1      36.960  30.846  28.659  1.00  0.00     0.031 C 
ATOM     52  C   UNL A   1      41.991  30.075  31.896  1.00  0.00     0.029 A 
ATOM     53  C   UNL A   1      42.908  29.330  31.055  1.00  0.00     0.049 A 
ATOM     54  H   UNL A   1      42.337  27.536  30.004  1.00  0.00     0.167 HD
ATOM     55  C   UNL A   1      37.595  33.020  29.937  1.00  0.00     0.037 A 
ATOM     56  C   UNL A   1      44.067  29.817  30.521  1.00  0.00     0.037 A 
ATOM     57  C   UNL A   1      38.819  33.506  30.568  1.00  0.00     0.049 A 
ATOM     58  C   UNL A   1      44.067  31.313  30.334  1.00  0.00     0.074 A 
ATOM     59  C   UNL A   1      39.292  33.418  31.868  1.00  0.00     0.029 A 
ATOM     60  N   UNL A   1      39.903  33.884  29.781  1.00  0.00    -0.354 N 
ATOM     61  N   UNL A   1      42.994  32.050  30.412  1.00  0.00    -0.248 NA
ATOM     62  C   UNL A   1      45.254  32.088  29.984  1.00  0.00     0.031 C 
ATOM     63  C   UNL A   1      40.681  33.691  31.851  1.00  0.00     0.029 A 
ATOM     64  C   UNL A   1      41.053  33.962  30.545  1.00  0.00     0.049 A 
ATOM     65  H   UNL A   1      39.857  34.068  28.815  1.00  0.00     0.167 HD
ATOM     66  C   UNL A   1      43.302  33.338  30.064  1.00  0.00     0.074 A 
ATOM     67  C   UNL A   1      44.735  33.321  29.847  1.00  0.00     0.031 C 
ATOM     68  C   UNL A   1      42.338  34.300  29.950  1.00  0.00     0.037 A 
BRANCH  55  69
ATOM     69  C   UNL A   1      36.219  33.584  30.223  1.00  0.00     0.064 A 
ATOM     70  C   UNL A   1      35.411  34.091  29.182  1.00  0.00     0.173 A 
ATOM     71  C   UNL A   1      35.665  33.706  31.509  1.00  0.00     0.173 A 
ATOM     72  F   UNL A   1      35.749  33.945  27.895  1.00  0.00    -0.203 F 
ATOM     73  C   UNL A   1      34.219  34.780  29.423  1.00  0.00     0.198 A 
ATOM     74  C   UNL A   1      34.504  34.446  31.759  1.00  0.00     0.198 A 
ATOM     75  F   UNL A   1      36.203  33.071  32.559  1.00  0.00    -0.203 F 
ATOM     76  F   UNL A   1      33.500  35.249  28.393  1.00  0.00    -0.200 F 
ATOM     77  C   UNL A   1      33.787  34.995  30.715  1.00  0.00     0.200 A 
ATOM     78  F   UNL A   1      34.086  34.624  33.021  1.00  0.00    -0.200 F 
ATOM     79  F   UNL A   1      32.674  35.703  30.951  1.00  0.00    -0.200 F 
ENDBRANCH  55  69
BRANCH  56  80
ATOM     80  C   UNL A   1      44.720  28.833  29.617  1.00  0.00     0.064 A 
ATOM     81  C   UNL A   1      45.321  27.714  30.227  1.00  0.00     0.173 A 
ATOM     82  C   UNL A   1      44.327  28.717  28.279  1.00  0.00     0.173 A 
ATOM     83  F   UNL A   1      45.745  27.793  31.499  1.00  0.00    -0.203 F 
ATOM     84  C   UNL A   1      45.316  26.472  29.602  1.00  0.00     0.198 A 
ATOM     85  C   UNL A   1      44.366  27.477  27.642  1.00  0.00     0.198 A 
ATOM     86  F   UNL A   1      43.774  29.758  27.641  1.00  0.00    -0.203 F 
ATOM     87  F   UNL A   1      45.712  25.384  30.278  1.00  0.00    -0.200 F 
ATOM     88  C   UNL A   1      44.796  26.348  28.325  1.00  0.00     0.200 A 
ATOM     89  F   UNL A   1      43.889  27.358  26.395  1.00  0.00    -0.200 F 
ATOM     90  F   UNL A   1      44.663  25.132  27.775  1.00  0.00    -0.200 F 
ENDBRANCH  56  80
BRANCH  68  91
ATOM     91  C   UNL A   1      42.552  35.674  29.367  1.00  0.00     0.064 A 
ATOM     92  C   UNL A   1      41.958  36.118  28.174  1.00  0.00     0.173 A 
ATOM     93  C   UNL A   1      43.294  36.645  30.079  1.00  0.00     0.173 A 
ATOM     94  F   UNL A   1      41.115  35.339  27.483  1.00  0.00    -0.203 F 
ATOM     95  C   UNL A   1      42.173  37.406  27.677  1.00  0.00     0.198 A 
ATOM     96  C   UNL A   1      43.456  37.948  29.611  1.00  0.00     0.198 A 
ATOM     97  F   UNL A   1      43.866  36.361  31.258  1.00  0.00    -0.203 F 
ATOM     98  F   UNL A   1      41.635  37.763  26.502  1.00  0.00    -0.200 F 
ATOM     99  C   UNL A   1      42.916  38.322  28.398  1.00  0.00     0.200 A 
ATOM    100  F   UNL A   1      44.125  38.843  30.353  1.00  0.00    -0.200 F 
ATOM    101  F   UNL A   1      43.092  39.567  27.935  1.00  0.00    -0.200 F 
ENDBRANCH  68  91
ENDBRANCH  42  43
ENDBRANCH  34  37
ENDBRANCH  32  33
ENDBRANCH  31  32
ENDBRANCH  30  31
ENDBRANCH  29  30
ENDBRANCH   1  29
TORSDOF 17
ENDMDL
MODEL 2
REMARK VINA RESULT:     -13.3      3.191      9.917
REMARK SMILES Cc1nn(C(C)C)c(C)c1S(=O)(=O)Nc1cccc(C(=O)NCCCCCCNC(=O)c2ccc(-c3c4nc(c(-c5c(F)c(F)c(F)c(F)c5F)c5ccc([nH]5)c(-c5c(F)c(F)c(F)c(F)c5F)c5nc(c(-c6c(F)c(F)c(F)c(F)c6F)c6ccc3[nH]6)C=C5)C=C4)cc2)c1C
REMARK SMILES IDX 24 1 23 2 22 3 20 4 21 5 19 7 15 8 16 9 95 10 17 11 96 12
REMARK SMILES IDX 18 13 14 14 11 16 12 17 13 18 10 19 1 20 2 21 3 22 4 23 8 24
REMARK SMILES IDX 9 25 5 26 6 27 7 28 25 29 26 30 27 31 28 32 29 33 30 34
REMARK SMILES IDX 31 36 32 37 33 38 94 39 34 40 93 41 35 42 36 43 37 44 87 45
REMARK SMILES IDX 38 46 92 47 86 48 88 49 39 50 91 51 85 52 84 53 40 55 72 56
REMARK SMILES IDX 52 57 71 58 53 59 56 60 70 61 89 62 54 63 55 64 69 66 90 67
REMARK SMILES IDX 57 68 41 69 42 70 50 71 43 72 44 73 48 74 51 75 45 76 46 77
REMARK SMILES IDX 49 78 47 79 73 80 74 81 82 82 75 83 76 84 80 85 83 86 77 87
REMARK SMILES IDX 78 88 81 89 79 90 58 91 59 92 67 93 60 94 61 95 65 96 68 97
REMARK SMILES IDX 62 98 63 99 66 100 64 101
REMARK H PARENT 22 6 14 15 29 35 88 54 56 65
REMARK Flexibility Score: inf
ROOT
ATOM      1  C   UNL A   1      31.697  29.705  25.118  1.00  0.00     0.021 C 
ENDROOT
BRANCH   1   2
ATOM      2  C   UNL A   1      31.376  29.006  23.801  1.00  0.00     0.116 C 
BRANCH   2   3
ATOM      3  N   UNL A   1      32.517  28.371  23.179  1.00  0.00    -0.352 N 
ATOM      4  C   UNL A   1      32.845  27.092  22.801  1.00  0.00     0.251 C 
ATOM      5  O   UNL A   1      33.680  27.057  21.893  1.00  0.00    -0.269 OA
ATOM      6  H   UNL A   1      33.234  29.014  22.976  1.00  0.00     0.163 HD
BRANCH   4   7
ATOM      7  C   UNL A   1      32.298  25.797  23.367  1.00  0.00     0.044 A 
ATOM      8  C   UNL A   1      32.620  23.817  24.780  1.00  0.00     0.053 A 
ATOM      9  C   UNL A   1      31.439  23.254  24.312  1.00  0.00     0.027 A 
ATOM     10  C   UNL A   1      32.968  25.155  24.449  1.00  0.00    -0.014 A 
ATOM     11  C   UNL A   1      30.719  23.917  23.338  1.00  0.00     0.003 A 
ATOM     12  C   UNL A   1      34.100  25.807  25.216  1.00  0.00     0.047 C 
ATOM     13  C   UNL A   1      31.186  25.133  22.832  1.00  0.00     0.014 A 
BRANCH   8  14
ATOM     14  N   UNL A   1      33.583  23.049  25.497  1.00  0.00    -0.279 N 
ATOM     15  H   UNL A   1      33.399  22.856  26.444  1.00  0.00     0.180 HD
BRANCH  14  16
ATOM     16  S   UNL A   1      34.999  22.454  24.846  1.00  0.00     0.265 S 
ATOM     17  O   UNL A   1      36.097  22.917  25.658  1.00  0.00    -0.201 OA
ATOM     18  O   UNL A   1      34.941  22.805  23.434  1.00  0.00    -0.201 OA
BRANCH  16  19
ATOM     19  C   UNL A   1      35.205  20.737  24.823  1.00  0.00     0.131 A 
ATOM     20  C   UNL A   1      37.808  20.212  25.018  1.00  0.00     0.070 C 
ATOM     21  C   UNL A   1      36.367  19.924  24.846  1.00  0.00     0.080 A 
ATOM     22  N   UNL A   1      36.054  18.632  24.680  1.00  0.00    -0.176 NA
ATOM     23  N   UNL A   1      34.714  18.594  24.674  1.00  0.00    -0.266 N 
ATOM     24  C   UNL A   1      34.144  19.834  24.789  1.00  0.00     0.056 A 
ATOM     25  C   UNL A   1      32.677  20.052  24.875  1.00  0.00     0.068 C 
BRANCH  23  26
ATOM     26  C   UNL A   1      34.046  17.297  24.565  1.00  0.00     0.101 C 
ATOM     27  C   UNL A   1      33.676  16.989  23.115  1.00  0.00     0.033 C 
ATOM     28  C   UNL A   1      34.891  16.174  25.170  1.00  0.00     0.033 C 
ENDBRANCH  23  26
ENDBRANCH  16  19
ENDBRANCH  14  16
ENDBRANCH   8  14
ENDBRANCH   4   7
ENDBRANCH   2   3
ENDBRANCH   1   2
BRANCH   1  29
ATOM     29  C   UNL A   1      32.299  28.841  26.229  1.00  0.00     0.002 C 
BRANCH  29  30
ATOM     30  C   UNL A   1      33.525  29.384  26.980  1.00  0.00     0.002 C 
BRANCH  30  31
ATOM     31  C   UNL A   1      33.439  30.789  27.581  1.00  0.00     0.021 C 
BRANCH  31  32
ATOM     32  C   UNL A   1      34.761  31.530  27.700  1.00  0.00     0.116 C 
BRANCH  32  33
ATOM     33  N   UNL A   1      35.119  31.938  29.052  1.00  0.00    -0.352 N 
ATOM     34  C   UNL A   1      35.930  31.275  29.957  1.00  0.00     0.251 C 
ATOM     35  H   UNL A   1      34.736  32.792  29.360  1.00  0.00     0.163 HD
ATOM     36  O   UNL A   1      36.117  31.720  31.084  1.00  0.00    -0.269 OA
BRANCH  34  37
ATOM     37  C   UNL A   1      36.684  30.087  29.488  1.00  0.00     0.039 A 
ATOM     38  C   UNL A   1      37.137  29.188  30.457  1.00  0.00     0.014 A 
ATOM     39  C   UNL A   1      37.178  30.035  28.187  1.00  0.00     0.014 A 
ATOM     40  C   UNL A   1      38.278  28.435  30.200  1.00  0.00     0.010 A 
ATOM     41  C   UNL A   1      38.365  29.368  27.962  1.00  0.00     0.010 A 
ATOM     42  C   UNL A   1      38.951  28.626  28.992  1.00  0.00    -0.014 A 
BRANCH  42  43
ATOM     43  C   UNL A   1      40.292  28.113  28.749  1.00  0.00     0.031 A 
ATOM     44  C   UNL A   1      40.475  26.673  28.485  1.00  0.00     0.074 A 
ATOM     45  C   UNL A   1      41.366  28.934  28.765  1.00  0.00     0.049 A 
ATOM     46  N   UNL A   1      41.525  26.004  28.824  1.00  0.00    -0.248 NA
ATOM     47  C   UNL A   1      39.451  25.858  27.846  1.00  0.00     0.031 C 
ATOM     48  C   UNL A   1      42.733  28.599  28.372  1.00  0.00     0.029 A 
ATOM     49  N   UNL A   1      41.470  30.215  29.328  1.00  0.00    -0.354 N 
ATOM     50  C   UNL A   1      41.437  24.762  28.241  1.00  0.00     0.074 A 
ATOM     51  C   UNL A   1      40.102  24.702  27.690  1.00  0.00     0.031 C 
ATOM     52  C   UNL A   1      43.577  29.468  28.948  1.00  0.00     0.029 A 
ATOM     53  C   UNL A   1      42.796  30.327  29.816  1.00  0.00     0.049 A 
ATOM     54  H   UNL A   1      40.763  30.899  29.374  1.00  0.00     0.167 HD
ATOM     55  C   UNL A   1      42.549  23.974  28.181  1.00  0.00     0.037 A 
ATOM     56  C   UNL A   1      43.057  30.570  31.134  1.00  0.00     0.037 A 
ATOM     57  C   UNL A   1      43.687  24.614  28.838  1.00  0.00     0.049 A 
ATOM     58  C   UNL A   1      43.822  29.463  31.815  1.00  0.00     0.074 A 
ATOM     59  C   UNL A   1      44.735  25.374  28.346  1.00  0.00     0.029 A 
ATOM     60  N   UNL A   1      43.673  24.807  30.216  1.00  0.00    -0.354 N 
ATOM     61  N   UNL A   1      43.991  28.279  31.297  1.00  0.00    -0.248 NA
ATOM     62  C   UNL A   1      44.402  29.579  33.150  1.00  0.00     0.031 C 
ATOM     63  C   UNL A   1      45.319  26.073  29.430  1.00  0.00     0.029 A 
ATOM     64  C   UNL A   1      44.639  25.726  30.585  1.00  0.00     0.049 A 
ATOM     65  H   UNL A   1      43.060  24.355  30.840  1.00  0.00     0.167 HD
ATOM     66  C   UNL A   1      44.608  27.467  32.211  1.00  0.00     0.074 A 
ATOM     67  C   UNL A   1      44.884  28.337  33.338  1.00  0.00     0.031 C 
ATOM     68  C   UNL A   1      44.805  26.136  31.972  1.00  0.00     0.037 A 
BRANCH  55  69
ATOM     69  C   UNL A   1      42.671  22.778  27.260  1.00  0.00     0.064 A 
ATOM     70  C   UNL A   1      41.940  21.595  27.505  1.00  0.00     0.173 A 
ATOM     71  C   UNL A   1      43.538  22.715  26.155  1.00  0.00     0.173 A 
ATOM     72  F   UNL A   1      40.993  21.537  28.449  1.00  0.00    -0.203 F 
ATOM     73  C   UNL A   1      42.159  20.415  26.788  1.00  0.00     0.198 A 
ATOM     74  C   UNL A   1      43.802  21.521  25.476  1.00  0.00     0.198 A 
ATOM     75  F   UNL A   1      44.118  23.819  25.666  1.00  0.00    -0.203 F 
ATOM     76  F   UNL A   1      41.441  19.319  27.074  1.00  0.00    -0.200 F 
ATOM     77  C   UNL A   1      43.121  20.366  25.802  1.00  0.00     0.200 A 
ATOM     78  F   UNL A   1      44.725  21.499  24.502  1.00  0.00    -0.200 F 
ATOM     79  F   UNL A   1      43.372  19.221  25.152  1.00  0.00    -0.200 F 
ENDBRANCH  55  69
BRANCH  56  80
ATOM     80  C   UNL A   1      42.002  31.407  31.766  1.00  0.00     0.064 A 
ATOM     81  C   UNL A   1      41.968  32.766  31.398  1.00  0.00     0.173 A 
ATOM     82  C   UNL A   1      40.824  30.830  32.251  1.00  0.00     0.173 A 
ATOM     83  F   UNL A   1      43.085  33.370  30.960  1.00  0.00    -0.203 F 
ATOM     84  C   UNL A   1      40.761  33.449  31.302  1.00  0.00     0.198 A 
ATOM     85  C   UNL A   1      39.622  31.536  32.194  1.00  0.00     0.198 A 
ATOM     86  F   UNL A   1      40.806  29.548  32.641  1.00  0.00    -0.203 F 
ATOM     87  F   UNL A   1      40.730  34.677  30.762  1.00  0.00    -0.200 F 
ATOM     88  C   UNL A   1      39.583  32.816  31.658  1.00  0.00     0.200 A 
ATOM     89  F   UNL A   1      38.483  30.935  32.565  1.00  0.00    -0.200 F 
ATOM     90  F   UNL A   1      38.407  33.421  31.437  1.00  0.00    -0.200 F 
ENDBRANCH  56  80
BRANCH  68  91
ATOM     91  C   UNL A   1      45.272  25.133  32.996  1.00  0.00     0.064 A 
ATOM     92  C   UNL A   1      46.624  24.880  33.282  1.00  0.00     0.173 A 
ATOM     93  C   UNL A   1      44.337  24.463  33.819  1.00  0.00     0.173 A 
ATOM     94  F   UNL A   1      47.604  25.559  32.672  1.00  0.00    -0.203 F 
ATOM     95  C   UNL A   1      47.012  23.951  34.251  1.00  0.00     0.198 A 
ATOM     96  C   UNL A   1      44.729  23.583  34.826  1.00  0.00     0.198 A 
ATOM     97  F   UNL A   1      43.018  24.661  33.681  1.00  0.00    -0.203 F 
ATOM     98  F   UNL A   1      48.315  23.698  34.444  1.00  0.00    -0.200 F 
ATOM     99  C   UNL A   1      46.065  23.307  35.025  1.00  0.00     0.200 A 
ATOM    100  F   UNL A   1      43.802  23.016  35.612  1.00  0.00    -0.200 F 
ATOM    101  F   UNL A   1      46.442  22.442  35.976  1.00  0.00    -0.200 F 
ENDBRANCH  68  91
ENDBRANCH  42  43
ENDBRANCH  34  37
ENDBRANCH  32  33
ENDBRANCH  31  32
ENDBRANCH  30  31
ENDBRANCH  29  30
ENDBRANCH   1  29
TORSDOF 17
ENDMDL
MODEL 3
REMARK VINA RESULT:     -13.2      3.267      9.740
REMARK SMILES Cc1nn(C(C)C)c(C)c1S(=O)(=O)Nc1cccc(C(=O)NCCCCCCNC(=O)c2ccc(-c3c4nc(c(-c5c(F)c(F)c(F)c(F)c5F)c5ccc([nH]5)c(-c5c(F)c(F)c(F)c(F)c5F)c5nc(c(-c6c(F)c(F)c(F)c(F)c6F)c6ccc3[nH]6)C=C5)C=C4)cc2)c1C
REMARK SMILES IDX 24 1 23 2 22 3 20 4 21 5 19 7 15 8 16 9 95 10 17 11 96 12
REMARK SMILES IDX 18 13 14 14 11 16 12 17 13 18 10 19 1 20 2 21 3 22 4 23 8 24
REMARK SMILES IDX 9 25 5 26 6 27 7 28 25 29 26 30 27 31 28 32 29 33 30 34
REMARK SMILES IDX 31 36 32 37 33 38 94 39 34 40 93 41 35 42 36 43 37 44 87 45
REMARK SMILES IDX 38 46 92 47 86 48 88 49 39 50 91 51 85 52 84 53 40 55 72 56
REMARK SMILES IDX 52 57 71 58 53 59 56 60 70 61 89 62 54 63 55 64 69 66 90 67
REMARK SMILES IDX 57 68 41 69 42 70 50 71 43 72 44 73 48 74 51 75 45 76 46 77
REMARK SMILES IDX 49 78 47 79 73 80 74 81 82 82 75 83 76 84 80 85 83 86 77 87
REMARK SMILES IDX 78 88 81 89 79 90 58 91 59 92 67 93 60 94 61 95 65 96 68 97
REMARK SMILES IDX 62 98 63 99 66 100 64 101
REMARK H PARENT 22 6 14 15 29 35 88 54 56 65
REMARK Flexibility Score: inf
ROOT
ATOM      1  C   UNL A   1      33.122  29.113  24.795  1.00  0.00     0.021 C 
ENDROOT
BRANCH   1   2
ATOM      2  C   UNL A   1      31.655  29.513  24.676  1.00  0.00     0.116 C 
BRANCH   2   3
ATOM      3  N   UNL A   1      31.117  29.386  23.339  1.00  0.00    -0.352 N 
ATOM      4  C   UNL A   1      30.635  28.358  22.568  1.00  0.00     0.251 C 
ATOM      5  O   UNL A   1      29.848  28.737  21.696  1.00  0.00    -0.269 OA
ATOM      6  H   UNL A   1      31.090  30.249  22.867  1.00  0.00     0.163 HD
BRANCH   4   7
ATOM      7  C   UNL A   1      30.964  26.884  22.691  1.00  0.00     0.044 A 
ATOM      8  C   UNL A   1      30.712  24.765  23.902  1.00  0.00     0.053 A 
ATOM      9  C   UNL A   1      31.694  24.167  23.122  1.00  0.00     0.027 A 
ATOM     10  C   UNL A   1      30.219  26.060  23.583  1.00  0.00    -0.014 A 
ATOM     11  C   UNL A   1      32.353  24.926  22.175  1.00  0.00     0.003 A 
ATOM     12  C   UNL A   1      28.960  26.533  24.279  1.00  0.00     0.047 C 
ATOM     13  C   UNL A   1      32.034  26.276  22.019  1.00  0.00     0.014 A 
BRANCH   8  14
ATOM     14  N   UNL A   1      30.253  24.170  25.113  1.00  0.00    -0.279 N 
ATOM     15  H   UNL A   1      29.358  24.424  25.435  1.00  0.00     0.180 HD
BRANCH  14  16
ATOM     16  S   UNL A   1      31.121  23.075  26.023  1.00  0.00     0.265 S 
ATOM     17  O   UNL A   1      30.347  21.863  26.128  1.00  0.00    -0.201 OA
ATOM     18  O   UNL A   1      31.499  23.802  27.227  1.00  0.00    -0.201 OA
BRANCH  16  19
ATOM     19  C   UNL A   1      32.637  22.537  25.389  1.00  0.00     0.131 A 
ATOM     20  C   UNL A   1      32.265  20.150  24.266  1.00  0.00     0.070 C 
ATOM     21  C   UNL A   1      33.017  21.331  24.744  1.00  0.00     0.080 A 
ATOM     22  N   UNL A   1      34.340  21.294  24.537  1.00  0.00    -0.176 NA
ATOM     23  N   UNL A   1      34.790  22.496  24.923  1.00  0.00    -0.266 N 
ATOM     24  C   UNL A   1      33.800  23.302  25.418  1.00  0.00     0.056 A 
ATOM     25  C   UNL A   1      34.031  24.706  25.849  1.00  0.00     0.068 C 
BRANCH  23  26
ATOM     26  C   UNL A   1      36.212  22.799  24.768  1.00  0.00     0.101 C 
ATOM     27  C   UNL A   1      37.080  21.695  25.370  1.00  0.00     0.033 C 
ATOM     28  C   UNL A   1      36.579  23.053  23.304  1.00  0.00     0.033 C 
ENDBRANCH  23  26
ENDBRANCH  16  19
ENDBRANCH  14  16
ENDBRANCH   8  14
ENDBRANCH   4   7
ENDBRANCH   2   3
ENDBRANCH   1   2
BRANCH   1  29
ATOM     29  C   UNL A   1      33.481  28.135  25.916  1.00  0.00     0.002 C 
BRANCH  29  30
ATOM     30  C   UNL A   1      34.026  28.714  27.232  1.00  0.00     0.002 C 
BRANCH  30  31
ATOM     31  C   UNL A   1      33.595  30.128  27.631  1.00  0.00     0.021 C 
BRANCH  31  32
ATOM     32  C   UNL A   1      34.714  31.151  27.718  1.00  0.00     0.116 C 
BRANCH  32  33
ATOM     33  N   UNL A   1      35.062  31.570  29.070  1.00  0.00    -0.352 N 
ATOM     34  C   UNL A   1      35.974  30.989  29.935  1.00  0.00     0.251 C 
ATOM     35  H   UNL A   1      34.591  32.365  29.410  1.00  0.00     0.163 HD
ATOM     36  O   UNL A   1      36.141  31.429  31.067  1.00  0.00    -0.269 OA
BRANCH  34  37
ATOM     37  C   UNL A   1      36.849  29.911  29.415  1.00  0.00     0.039 A 
ATOM     38  C   UNL A   1      37.327  28.971  30.333  1.00  0.00     0.014 A 
ATOM     39  C   UNL A   1      37.411  30.010  28.146  1.00  0.00     0.014 A 
ATOM     40  C   UNL A   1      38.540  28.337  30.082  1.00  0.00     0.010 A 
ATOM     41  C   UNL A   1      38.661  29.463  27.936  1.00  0.00     0.010 A 
ATOM     42  C   UNL A   1      39.255  28.685  28.935  1.00  0.00    -0.014 A 
BRANCH  42  43
ATOM     43  C   UNL A   1      40.645  28.304  28.729  1.00  0.00     0.031 A 
ATOM     44  C   UNL A   1      40.957  26.940  28.261  1.00  0.00     0.074 A 
ATOM     45  C   UNL A   1      41.650  29.179  28.963  1.00  0.00     0.049 A 
ATOM     46  N   UNL A   1      42.027  26.294  28.579  1.00  0.00    -0.248 NA
ATOM     47  C   UNL A   1      40.047  26.174  27.420  1.00  0.00     0.031 C 
ATOM     48  C   UNL A   1      43.063  29.000  28.640  1.00  0.00     0.029 A 
ATOM     49  N   UNL A   1      41.613  30.357  29.725  1.00  0.00    -0.354 N 
ATOM     50  C   UNL A   1      42.077  25.159  27.806  1.00  0.00     0.074 A 
ATOM     51  C   UNL A   1      40.795  25.103  27.141  1.00  0.00     0.031 C 
ATOM     52  C   UNL A   1      43.794  29.817  29.412  1.00  0.00     0.029 A 
ATOM     53  C   UNL A   1      42.888  30.473  30.334  1.00  0.00     0.049 A 
ATOM     54  H   UNL A   1      40.856  30.977  29.817  1.00  0.00     0.167 HD
ATOM     55  C   UNL A   1      43.247  24.462  27.718  1.00  0.00     0.037 A 
ATOM     56  C   UNL A   1      43.033  30.517  31.691  1.00  0.00     0.037 A 
ATOM     57  C   UNL A   1      44.282  25.060  28.560  1.00  0.00     0.049 A 
ATOM     58  C   UNL A   1      43.828  29.366  32.254  1.00  0.00     0.074 A 
ATOM     59  C   UNL A   1      45.302  25.955  28.282  1.00  0.00     0.029 A 
ATOM     60  N   UNL A   1      44.152  25.028  29.945  1.00  0.00    -0.354 N 
ATOM     61  N   UNL A   1      44.124  28.294  31.575  1.00  0.00    -0.248 NA
ATOM     62  C   UNL A   1      44.298  29.302  33.635  1.00  0.00     0.031 C 
ATOM     63  C   UNL A   1      45.750  26.506  29.507  1.00  0.00     0.029 A 
ATOM     64  C   UNL A   1      45.016  25.935  30.533  1.00  0.00     0.049 A 
ATOM     65  H   UNL A   1      43.532  24.444  30.437  1.00  0.00     0.167 HD
ATOM     66  C   UNL A   1      44.733  27.387  32.401  1.00  0.00     0.074 A 
ATOM     67  C   UNL A   1      44.859  28.080  33.668  1.00  0.00     0.031 C 
ATOM     68  C   UNL A   1      45.048  26.127  31.975  1.00  0.00     0.037 A 
BRANCH  55  69
ATOM     69  C   UNL A   1      43.528  23.441  26.637  1.00  0.00     0.064 A 
ATOM     70  C   UNL A   1      43.137  22.093  26.791  1.00  0.00     0.173 A 
ATOM     71  C   UNL A   1      44.232  23.716  25.451  1.00  0.00     0.173 A 
ATOM     72  F   UNL A   1      42.363  21.698  27.810  1.00  0.00    -0.203 F 
ATOM     73  C   UNL A   1      43.533  21.089  25.904  1.00  0.00     0.198 A 
ATOM     74  C   UNL A   1      44.680  22.706  24.593  1.00  0.00     0.198 A 
ATOM     75  F   UNL A   1      44.464  24.976  25.059  1.00  0.00    -0.203 F 
ATOM     76  F   UNL A   1      43.139  19.824  26.110  1.00  0.00    -0.200 F 
ATOM     77  C   UNL A   1      44.341  21.388  24.827  1.00  0.00     0.200 A 
ATOM     78  F   UNL A   1      45.445  23.020  23.537  1.00  0.00    -0.200 F 
ATOM     79  F   UNL A   1      44.768  20.419  24.006  1.00  0.00    -0.200 F 
ENDBRANCH  55  69
BRANCH  56  80
ATOM     80  C   UNL A   1      41.874  31.173  32.354  1.00  0.00     0.064 A 
ATOM     81  C   UNL A   1      41.774  32.571  32.217  1.00  0.00     0.173 A 
ATOM     82  C   UNL A   1      40.703  30.456  32.625  1.00  0.00     0.173 A 
ATOM     83  F   UNL A   1      42.878  33.302  31.991  1.00  0.00    -0.203 F 
ATOM     84  C   UNL A   1      40.534  33.192  32.126  1.00  0.00     0.198 A 
ATOM     85  C   UNL A   1      39.463  31.093  32.577  1.00  0.00     0.198 A 
ATOM     86  F   UNL A   1      40.743  29.127  32.791  1.00  0.00    -0.203 F 
ATOM     87  F   UNL A   1      40.460  34.491  31.798  1.00  0.00    -0.200 F 
ATOM     88  C   UNL A   1      39.377  32.442  32.261  1.00  0.00     0.200 A 
ATOM     89  F   UNL A   1      38.343  30.375  32.735  1.00  0.00    -0.200 F 
ATOM     90  F   UNL A   1      38.184  33.010  32.036  1.00  0.00    -0.200 F 
ENDBRANCH  56  80
BRANCH  68  91
ATOM     91  C   UNL A   1      45.514  25.004  32.867  1.00  0.00     0.064 A 
ATOM     92  C   UNL A   1      46.816  24.908  33.387  1.00  0.00     0.173 A 
ATOM     93  C   UNL A   1      44.599  24.027  33.323  1.00  0.00     0.173 A 
ATOM     94  F   UNL A   1      47.734  25.853  33.146  1.00  0.00    -0.203 F 
ATOM     95  C   UNL A   1      47.201  23.856  34.223  1.00  0.00     0.198 A 
ATOM     96  C   UNL A   1      44.971  23.014  34.206  1.00  0.00     0.198 A 
ATOM     97  F   UNL A   1      43.314  24.041  32.942  1.00  0.00    -0.203 F 
ATOM     98  F   UNL A   1      48.471  23.775  34.644  1.00  0.00    -0.200 F 
ATOM     99  C   UNL A   1      46.278  22.914  34.636  1.00  0.00     0.200 A 
ATOM    100  F   UNL A   1      44.050  22.145  34.648  1.00  0.00    -0.200 F 
ATOM    101  F   UNL A   1      46.643  21.926  35.464  1.00  0.00    -0.200 F 
ENDBRANCH  68  91
ENDBRANCH  42  43
ENDBRANCH  34  37
ENDBRANCH  32  33
ENDBRANCH  31  32
ENDBRANCH  30  31
ENDBRANCH  29  30
ENDBRANCH   1  29
TORSDOF 17
ENDMDL
