MODEL 1
REMARK VINA RESULT:     -10.3      0.000      0.000
REMARK SMILES NC(=S)S/C=C/C(=O)NCCCCCCNC(=O)c1ccc(-c2c3nc(c(-c4c(F)c(F)c(F)c(F)c4F)c4ccc([nH]4)c(-c4c(F)c(F)c(F)c(F)c4F)c4nc(c(-c5c(F)c(F)c(F)c(F)c5F)c5ccc2[nH]5)C=C4)C=C3)cc1
REMARK SMILES IDX 12 1 11 2 10 3 9 4 7 5 8 6 6 8 5 9 4 10 2 11 3 12 1 13 13 16
REMARK SMILES IDX 14 17 15 18 16 19 17 20 18 22 19 23 20 24 81 25 21 26 80 27
REMARK SMILES IDX 22 28 23 29 24 30 74 31 25 32 79 33 73 34 75 35 26 36 78 37
REMARK SMILES IDX 72 38 71 39 27 41 59 42 39 43 58 44 40 45 43 46 57 47 76 48
REMARK SMILES IDX 41 49 42 50 56 52 77 53 44 54 28 55 29 56 37 57 30 58 31 59
REMARK SMILES IDX 35 60 38 61 32 62 33 63 36 64 34 65 60 66 61 67 69 68 62 69
REMARK SMILES IDX 63 70 67 71 70 72 64 73 65 74 68 75 66 76 45 77 46 78 54 79
REMARK SMILES IDX 47 80 48 81 52 82 55 83 49 84 50 85 53 86 51 87
REMARK H PARENT 9 7 1 14 1 15 16 21 75 40 43 51
REMARK Flexibility Score: inf
ROOT
ATOM      1  C   UNL A   1      37.393  22.042  24.619  1.00  0.00     0.002 C 
ENDROOT
BRANCH   1   2
ATOM      2  C   UNL A   1      36.677  22.950  23.608  1.00  0.00     0.021 C 
BRANCH   2   3
ATOM      3  C   UNL A   1      35.409  23.606  24.156  1.00  0.00     0.116 C 
BRANCH   3   4
ATOM      4  N   UNL A   1      34.288  23.319  23.281  1.00  0.00    -0.353 N 
ATOM      5  C   UNL A   1      33.387  22.305  23.250  1.00  0.00     0.244 C 
ATOM      6  O   UNL A   1      32.516  22.310  22.383  1.00  0.00    -0.270 OA
ATOM      7  H   UNL A   1      34.157  23.989  22.572  1.00  0.00     0.163 HD
BRANCH   5   8
ATOM      8  C   UNL A   1      33.347  21.279  24.311  1.00  0.00     0.078 C 
ATOM      9  C   UNL A   1      32.824  20.052  24.193  1.00  0.00     0.054 C 
BRANCH   9  10
ATOM     10  S   UNL A   1      32.902  18.856  25.443  1.00  0.00    -0.069 SA
BRANCH  10  11
ATOM     11  C   UNL A   1      32.772  17.276  24.712  1.00  0.00     0.135 C 
ATOM     12  S   UNL A   1      32.918  15.758  25.364  1.00  0.00    -0.053 S 
BRANCH  11  13
ATOM     13  N   UNL A   1      32.524  17.410  23.380  1.00  0.00    -0.384 N 
ATOM     14  H   UNL A   1      33.262  17.607  22.759  1.00  0.00     0.158 HD
ATOM     15  H   UNL A   1      31.606  17.310  23.037  1.00  0.00     0.158 HD
ENDBRANCH  11  13
ENDBRANCH  10  11
ENDBRANCH   9  10
ENDBRANCH   5   8
ENDBRANCH   3   4
ENDBRANCH   2   3
ENDBRANCH   1   2
BRANCH   1  16
ATOM     16  C   UNL A   1      36.876  20.599  24.678  1.00  0.00     0.002 C 
BRANCH  16  17
ATOM     17  C   UNL A   1      37.937  19.548  25.014  1.00  0.00     0.021 C 
BRANCH  17  18
ATOM     18  C   UNL A   1      39.159  20.099  25.740  1.00  0.00     0.116 C 
BRANCH  18  19
ATOM     19  N   UNL A   1      40.179  19.082  25.934  1.00  0.00    -0.352 N 
ATOM     20  C   UNL A   1      41.530  19.230  26.122  1.00  0.00     0.251 C 
ATOM     21  H   UNL A   1      39.855  18.152  25.928  1.00  0.00     0.163 HD
ATOM     22  O   UNL A   1      42.277  18.262  26.049  1.00  0.00    -0.269 OA
BRANCH  20  23
ATOM     23  C   UNL A   1      42.087  20.571  26.399  1.00  0.00     0.039 A 
ATOM     24  C   UNL A   1      42.363  21.424  25.328  1.00  0.00     0.014 A 
ATOM     25  C   UNL A   1      42.350  20.980  27.709  1.00  0.00     0.014 A 
ATOM     26  C   UNL A   1      42.849  22.709  25.575  1.00  0.00     0.010 A 
ATOM     27  C   UNL A   1      42.762  22.285  27.959  1.00  0.00     0.010 A 
ATOM     28  C   UNL A   1      43.023  23.161  26.894  1.00  0.00    -0.014 A 
BRANCH  28  29
ATOM     29  C   UNL A   1      43.479  24.545  27.179  1.00  0.00     0.031 A 
ATOM     30  C   UNL A   1      42.516  25.559  27.732  1.00  0.00     0.074 A 
ATOM     31  C   UNL A   1      44.744  24.902  26.883  1.00  0.00     0.049 A 
ATOM     32  N   UNL A   1      42.709  26.828  27.991  1.00  0.00    -0.248 NA
ATOM     33  C   UNL A   1      41.148  25.091  28.009  1.00  0.00     0.031 C 
ATOM     34  C   UNL A   1      45.757  24.019  26.303  1.00  0.00     0.029 A 
ATOM     35  N   UNL A   1      45.390  26.104  27.023  1.00  0.00    -0.354 N 
ATOM     36  C   UNL A   1      41.487  27.310  28.443  1.00  0.00     0.074 A 
ATOM     37  C   UNL A   1      40.547  26.214  28.373  1.00  0.00     0.031 C 
ATOM     38  C   UNL A   1      46.904  24.702  26.161  1.00  0.00     0.029 A 
ATOM     39  C   UNL A   1      46.697  26.079  26.599  1.00  0.00     0.049 A 
ATOM     40  H   UNL A   1      44.960  26.908  27.391  1.00  0.00     0.167 HD
ATOM     41  C   UNL A   1      41.185  28.550  28.897  1.00  0.00     0.037 A 
ATOM     42  C   UNL A   1      47.620  27.058  26.560  1.00  0.00     0.037 A 
ATOM     43  C   UNL A   1      42.131  29.631  28.986  1.00  0.00     0.049 A 
ATOM     44  C   UNL A   1      47.251  28.432  27.055  1.00  0.00     0.074 A 
ATOM     45  C   UNL A   1      41.941  30.905  29.492  1.00  0.00     0.029 A 
ATOM     46  N   UNL A   1      43.449  29.565  28.553  1.00  0.00    -0.354 N 
ATOM     47  N   UNL A   1      46.114  28.856  27.550  1.00  0.00    -0.248 NA
ATOM     48  C   UNL A   1      48.298  29.461  26.990  1.00  0.00     0.031 C 
ATOM     49  C   UNL A   1      43.124  31.627  29.312  1.00  0.00     0.029 A 
ATOM     50  C   UNL A   1      44.072  30.786  28.753  1.00  0.00     0.049 A 
ATOM     51  H   UNL A   1      43.876  28.769  28.163  1.00  0.00     0.167 HD
ATOM     52  C   UNL A   1      46.318  30.188  27.886  1.00  0.00     0.074 A 
ATOM     53  C   UNL A   1      47.693  30.496  27.553  1.00  0.00     0.031 C 
ATOM     54  C   UNL A   1      45.445  31.075  28.424  1.00  0.00     0.037 A 
BRANCH  41  55
ATOM     55  C   UNL A   1      39.769  28.809  29.329  1.00  0.00     0.064 A 
ATOM     56  C   UNL A   1      39.346  28.581  30.648  1.00  0.00     0.173 A 
ATOM     57  C   UNL A   1      38.834  29.333  28.423  1.00  0.00     0.173 A 
ATOM     58  F   UNL A   1      40.196  28.072  31.551  1.00  0.00    -0.203 F 
ATOM     59  C   UNL A   1      38.033  28.840  31.035  1.00  0.00     0.198 A 
ATOM     60  C   UNL A   1      37.532  29.622  28.823  1.00  0.00     0.198 A 
ATOM     61  F   UNL A   1      39.185  29.576  27.151  1.00  0.00    -0.203 F 
ATOM     62  F   UNL A   1      37.640  28.567  32.286  1.00  0.00    -0.200 F 
ATOM     63  C   UNL A   1      37.130  29.368  30.125  1.00  0.00     0.200 A 
ATOM     64  F   UNL A   1      36.664  30.147  27.945  1.00  0.00    -0.200 F 
ATOM     65  F   UNL A   1      35.870  29.626  30.502  1.00  0.00    -0.200 F 
ENDBRANCH  41  55
BRANCH  42  66
ATOM     66  C   UNL A   1      48.990  26.774  26.056  1.00  0.00     0.064 A 
ATOM     67  C   UNL A   1      49.328  27.015  24.717  1.00  0.00     0.173 A 
ATOM     68  C   UNL A   1      49.984  26.246  26.894  1.00  0.00     0.173 A 
ATOM     69  F   UNL A   1      48.406  27.500  23.871  1.00  0.00    -0.203 F 
ATOM     70  C   UNL A   1      50.598  26.713  24.228  1.00  0.00     0.198 A 
ATOM     71  C   UNL A   1      51.262  25.976  26.412  1.00  0.00     0.198 A 
ATOM     72  F   UNL A   1      49.715  26.003  28.185  1.00  0.00    -0.203 F 
ATOM     73  F   UNL A   1      50.876  26.902  22.931  1.00  0.00    -0.200 F 
ATOM     74  C   UNL A   1      51.565  26.199  25.077  1.00  0.00     0.200 A 
ATOM     75  F   UNL A   1      52.200  25.494  27.240  1.00  0.00    -0.200 F 
ATOM     76  F   UNL A   1      52.787  25.910  24.607  1.00  0.00    -0.200 F 
ENDBRANCH  42  66
BRANCH  54  77
ATOM     77  C   UNL A   1      45.962  32.454  28.726  1.00  0.00     0.064 A 
ATOM     78  C   UNL A   1      45.870  33.498  27.794  1.00  0.00     0.173 A 
ATOM     79  C   UNL A   1      46.519  32.741  29.981  1.00  0.00     0.173 A 
ATOM     80  F   UNL A   1      45.358  33.272  26.574  1.00  0.00    -0.203 F 
ATOM     81  C   UNL A   1      46.345  34.772  28.098  1.00  0.00     0.198 A 
ATOM     82  C   UNL A   1      46.960  34.023  30.294  1.00  0.00     0.198 A 
ATOM     83  F   UNL A   1      46.623  31.780  30.912  1.00  0.00    -0.203 F 
ATOM     84  F   UNL A   1      46.296  35.741  27.173  1.00  0.00    -0.200 F 
ATOM     85  C   UNL A   1      46.882  35.035  29.349  1.00  0.00     0.200 A 
ATOM     86  F   UNL A   1      47.463  34.280  31.510  1.00  0.00    -0.200 F 
ATOM     87  F   UNL A   1      47.329  36.264  29.643  1.00  0.00    -0.200 F 
ENDBRANCH  54  77
ENDBRANCH  28  29
ENDBRANCH  20  23
ENDBRANCH  18  19
ENDBRANCH  17  18
ENDBRANCH  16  17
ENDBRANCH   1  16
TORSDOF 16
ENDMDL
MODEL 2
REMARK VINA RESULT:     -10.2      6.443     10.417
REMARK SMILES NC(=S)S/C=C/C(=O)NCCCCCCNC(=O)c1ccc(-c2c3nc(c(-c4c(F)c(F)c(F)c(F)c4F)c4ccc([nH]4)c(-c4c(F)c(F)c(F)c(F)c4F)c4nc(c(-c5c(F)c(F)c(F)c(F)c5F)c5ccc2[nH]5)C=C4)C=C3)cc1
REMARK SMILES IDX 12 1 11 2 10 3 9 4 7 5 8 6 6 8 5 9 4 10 2 11 3 12 1 13 13 16
REMARK SMILES IDX 14 17 15 18 16 19 17 20 18 22 19 23 20 24 81 25 21 26 80 27
REMARK SMILES IDX 22 28 23 29 24 30 74 31 25 32 79 33 73 34 75 35 26 36 78 37
REMARK SMILES IDX 72 38 71 39 27 41 59 42 39 43 58 44 40 45 43 46 57 47 76 48
REMARK SMILES IDX 41 49 42 50 56 52 77 53 44 54 28 55 29 56 37 57 30 58 31 59
REMARK SMILES IDX 35 60 38 61 32 62 33 63 36 64 34 65 60 66 61 67 69 68 62 69
REMARK SMILES IDX 63 70 67 71 70 72 64 73 65 74 68 75 66 76 45 77 46 78 54 79
REMARK SMILES IDX 47 80 48 81 52 82 55 83 49 84 50 85 53 86 51 87
REMARK H PARENT 9 7 1 14 1 15 16 21 75 40 43 51
REMARK Flexibility Score: inf
ROOT
ATOM      1  C   UNL A   1      31.919  29.854  26.934  1.00  0.00     0.002 C 
ENDROOT
BRANCH   1   2
ATOM      2  C   UNL A   1      32.377  28.529  26.306  1.00  0.00     0.021 C 
BRANCH   2   3
ATOM      3  C   UNL A   1      31.435  27.356  26.580  1.00  0.00     0.116 C 
BRANCH   3   4
ATOM      4  N   UNL A   1      31.636  26.321  25.585  1.00  0.00    -0.353 N 
ATOM      5  C   UNL A   1      30.951  25.984  24.464  1.00  0.00     0.244 C 
ATOM      6  O   UNL A   1      31.351  25.043  23.783  1.00  0.00    -0.270 OA
ATOM      7  H   UNL A   1      32.420  25.751  25.758  1.00  0.00     0.163 HD
BRANCH   5   8
ATOM      8  C   UNL A   1      29.825  26.804  23.975  1.00  0.00     0.078 C 
ATOM      9  C   UNL A   1      29.922  28.028  23.440  1.00  0.00     0.054 C 
BRANCH   9  10
ATOM     10  S   UNL A   1      28.572  28.895  22.788  1.00  0.00    -0.069 SA
BRANCH  10  11
ATOM     11  C   UNL A   1      29.173  30.239  21.850  1.00  0.00     0.135 C 
ATOM     12  S   UNL A   1      28.396  31.557  21.210  1.00  0.00    -0.053 S 
BRANCH  11  13
ATOM     13  N   UNL A   1      30.511  30.088  21.645  1.00  0.00    -0.384 N 
ATOM     14  H   UNL A   1      30.876  30.115  20.731  1.00  0.00     0.158 HD
ATOM     15  H   UNL A   1      31.115  29.953  22.411  1.00  0.00     0.158 HD
ENDBRANCH  11  13
ENDBRANCH  10  11
ENDBRANCH   9  10
ENDBRANCH   5   8
ENDBRANCH   3   4
ENDBRANCH   2   3
ENDBRANCH   1   2
BRANCH   1  16
ATOM     16  C   UNL A   1      31.386  30.895  25.942  1.00  0.00     0.002 C 
BRANCH  16  17
ATOM     17  C   UNL A   1      31.264  32.314  26.501  1.00  0.00     0.021 C 
BRANCH  17  18
ATOM     18  C   UNL A   1      32.512  32.818  27.216  1.00  0.00     0.116 C 
BRANCH  18  19
ATOM     19  N   UNL A   1      32.387  34.211  27.610  1.00  0.00    -0.352 N 
ATOM     20  C   UNL A   1      33.037  34.895  28.607  1.00  0.00     0.251 C 
ATOM     21  H   UNL A   1      31.743  34.741  27.087  1.00  0.00     0.163 HD
ATOM     22  O   UNL A   1      32.655  36.007  28.948  1.00  0.00    -0.269 OA
BRANCH  20  23
ATOM     23  C   UNL A   1      34.197  34.275  29.283  1.00  0.00     0.039 A 
ATOM     24  C   UNL A   1      33.974  33.445  30.384  1.00  0.00     0.014 A 
ATOM     25  C   UNL A   1      35.499  34.523  28.841  1.00  0.00     0.014 A 
ATOM     26  C   UNL A   1      35.055  32.819  31.007  1.00  0.00     0.010 A 
ATOM     27  C   UNL A   1      36.567  33.839  29.413  1.00  0.00     0.010 A 
ATOM     28  C   UNL A   1      36.357  32.986  30.507  1.00  0.00    -0.014 A 
BRANCH  28  29
ATOM     29  C   UNL A   1      37.511  32.278  31.117  1.00  0.00     0.031 A 
ATOM     30  C   UNL A   1      37.995  32.663  32.487  1.00  0.00     0.074 A 
ATOM     31  C   UNL A   1      38.158  31.331  30.411  1.00  0.00     0.049 A 
ATOM     32  N   UNL A   1      39.020  32.205  33.162  1.00  0.00    -0.248 NA
ATOM     33  C   UNL A   1      37.244  33.721  33.182  1.00  0.00     0.031 C 
ATOM     34  C   UNL A   1      37.809  30.901  29.055  1.00  0.00     0.029 A 
ATOM     35  N   UNL A   1      39.250  30.564  30.732  1.00  0.00    -0.354 N 
ATOM     36  C   UNL A   1      39.044  32.929  34.348  1.00  0.00     0.074 A 
ATOM     37  C   UNL A   1      37.967  33.891  34.279  1.00  0.00     0.031 C 
ATOM     38  C   UNL A   1      38.652  29.929  28.672  1.00  0.00     0.029 A 
ATOM     39  C   UNL A   1      39.627  29.698  29.735  1.00  0.00     0.049 A 
ATOM     40  H   UNL A   1      39.719  30.628  31.595  1.00  0.00     0.167 HD
ATOM     41  C   UNL A   1      39.876  32.785  35.407  1.00  0.00     0.037 A 
ATOM     42  C   UNL A   1      40.647  28.822  29.680  1.00  0.00     0.037 A 
ATOM     43  C   UNL A   1      40.931  31.809  35.479  1.00  0.00     0.049 A 
ATOM     44  C   UNL A   1      41.568  28.696  30.866  1.00  0.00     0.074 A 
ATOM     45  C   UNL A   1      41.787  31.540  36.533  1.00  0.00     0.029 A 
ATOM     46  N   UNL A   1      41.279  30.943  34.451  1.00  0.00    -0.354 N 
ATOM     47  N   UNL A   1      41.535  29.332  32.011  1.00  0.00    -0.248 NA
ATOM     48  C   UNL A   1      42.664  27.724  30.751  1.00  0.00     0.031 C 
ATOM     49  C   UNL A   1      42.689  30.553  36.122  1.00  0.00     0.029 A 
ATOM     50  C   UNL A   1      42.356  30.161  34.836  1.00  0.00     0.049 A 
ATOM     51  H   UNL A   1      40.827  30.893  33.578  1.00  0.00     0.167 HD
ATOM     52  C   UNL A   1      42.580  28.816  32.765  1.00  0.00     0.074 A 
ATOM     53  C   UNL A   1      43.219  27.802  31.951  1.00  0.00     0.031 C 
ATOM     54  C   UNL A   1      42.975  29.150  34.018  1.00  0.00     0.037 A 
BRANCH  41  55
ATOM     55  C   UNL A   1      39.683  33.709  36.576  1.00  0.00     0.064 A 
ATOM     56  C   UNL A   1      38.853  33.370  37.657  1.00  0.00     0.173 A 
ATOM     57  C   UNL A   1      40.370  34.931  36.638  1.00  0.00     0.173 A 
ATOM     58  F   UNL A   1      38.165  32.218  37.645  1.00  0.00    -0.203 F 
ATOM     59  C   UNL A   1      38.696  34.232  38.739  1.00  0.00     0.198 A 
ATOM     60  C   UNL A   1      40.237  35.775  37.737  1.00  0.00     0.198 A 
ATOM     61  F   UNL A   1      41.180  35.303  35.635  1.00  0.00    -0.203 F 
ATOM     62  F   UNL A   1      37.860  33.909  39.734  1.00  0.00    -0.200 F 
ATOM     63  C   UNL A   1      39.394  35.430  38.782  1.00  0.00     0.200 A 
ATOM     64  F   UNL A   1      40.924  36.925  37.783  1.00  0.00    -0.200 F 
ATOM     65  F   UNL A   1      39.251  36.253  39.830  1.00  0.00    -0.200 F 
ENDBRANCH  41  55
BRANCH  42  66
ATOM     66  C   UNL A   1      40.845  27.978  28.472  1.00  0.00     0.064 A 
ATOM     67  C   UNL A   1      41.630  28.427  27.400  1.00  0.00     0.173 A 
ATOM     68  C   UNL A   1      40.245  26.714  28.356  1.00  0.00     0.173 A 
ATOM     69  F   UNL A   1      42.207  29.636  27.455  1.00  0.00    -0.203 F 
ATOM     70  C   UNL A   1      41.785  27.658  26.248  1.00  0.00     0.198 A 
ATOM     71  C   UNL A   1      40.428  25.933  27.217  1.00  0.00     0.198 A 
ATOM     72  F   UNL A   1      39.490  26.235  29.353  1.00  0.00    -0.203 F 
ATOM     73  F   UNL A   1      42.496  28.136  25.218  1.00  0.00    -0.200 F 
ATOM     74  C   UNL A   1      41.189  26.410  26.160  1.00  0.00     0.200 A 
ATOM     75  F   UNL A   1      39.864  24.720  27.142  1.00  0.00    -0.200 F 
ATOM     76  F   UNL A   1      41.341  25.670  25.053  1.00  0.00    -0.200 F 
ENDBRANCH  42  66
BRANCH  54  77
ATOM     77  C   UNL A   1      44.127  28.384  34.605  1.00  0.00     0.064 A 
ATOM     78  C   UNL A   1      45.447  28.848  34.514  1.00  0.00     0.173 A 
ATOM     79  C   UNL A   1      43.898  27.189  35.305  1.00  0.00     0.173 A 
ATOM     80  F   UNL A   1      45.721  29.978  33.843  1.00  0.00    -0.203 F 
ATOM     81  C   UNL A   1      46.500  28.128  35.074  1.00  0.00     0.198 A 
ATOM     82  C   UNL A   1      44.948  26.490  35.895  1.00  0.00     0.198 A 
ATOM     83  F   UNL A   1      42.653  26.705  35.429  1.00  0.00    -0.203 F 
ATOM     84  F   UNL A   1      47.759  28.563  34.928  1.00  0.00    -0.200 F 
ATOM     85  C   UNL A   1      46.248  26.956  35.771  1.00  0.00     0.200 A 
ATOM     86  F   UNL A   1      44.701  25.366  36.582  1.00  0.00    -0.200 F 
ATOM     87  F   UNL A   1      47.261  26.270  36.318  1.00  0.00    -0.200 F 
ENDBRANCH  54  77
ENDBRANCH  28  29
ENDBRANCH  20  23
ENDBRANCH  18  19
ENDBRANCH  17  18
ENDBRANCH  16  17
ENDBRANCH   1  16
TORSDOF 16
ENDMDL
MODEL 3
REMARK VINA RESULT:     -10.1      6.298     11.573
REMARK SMILES NC(=S)S/C=C/C(=O)NCCCCCCNC(=O)c1ccc(-c2c3nc(c(-c4c(F)c(F)c(F)c(F)c4F)c4ccc([nH]4)c(-c4c(F)c(F)c(F)c(F)c4F)c4nc(c(-c5c(F)c(F)c(F)c(F)c5F)c5ccc2[nH]5)C=C4)C=C3)cc1
REMARK SMILES IDX 12 1 11 2 10 3 9 4 7 5 8 6 6 8 5 9 4 10 2 11 3 12 1 13 13 16
REMARK SMILES IDX 14 17 15 18 16 19 17 20 18 22 19 23 20 24 81 25 21 26 80 27
REMARK SMILES IDX 22 28 23 29 24 30 74 31 25 32 79 33 73 34 75 35 26 36 78 37
REMARK SMILES IDX 72 38 71 39 27 41 59 42 39 43 58 44 40 45 43 46 57 47 76 48
REMARK SMILES IDX 41 49 42 50 56 52 77 53 44 54 28 55 29 56 37 57 30 58 31 59
REMARK SMILES IDX 35 60 38 61 32 62 33 63 36 64 34 65 60 66 61 67 69 68 62 69
REMARK SMILES IDX 63 70 67 71 70 72 64 73 65 74 68 75 66 76 45 77 46 78 54 79
REMARK SMILES IDX 47 80 48 81 52 82 55 83 49 84 50 85 53 86 51 87
REMARK H PARENT 9 7 1 14 1 15 16 21 75 40 43 51
REMARK Flexibility Score: inf
ROOT
ATOM      1  C   UNL A   1      32.703  29.842  27.285  1.00  0.00     0.002 C 
ENDROOT
BRANCH   1   2
ATOM      2  C   UNL A   1      33.987  29.356  26.595  1.00  0.00     0.021 C 
BRANCH   2   3
ATOM      3  C   UNL A   1      33.845  27.994  25.916  1.00  0.00     0.116 C 
BRANCH   3   4
ATOM      4  N   UNL A   1      32.817  27.216  26.580  1.00  0.00    -0.353 N 
ATOM      5  C   UNL A   1      31.623  26.728  26.160  1.00  0.00     0.244 C 
ATOM      6  O   UNL A   1      30.934  26.083  26.946  1.00  0.00    -0.270 OA
ATOM      7  H   UNL A   1      33.025  27.002  27.518  1.00  0.00     0.163 HD
BRANCH   5   8
ATOM      8  C   UNL A   1      31.201  26.838  24.749  1.00  0.00     0.078 C 
ATOM      9  C   UNL A   1      30.756  27.949  24.149  1.00  0.00     0.054 C 
BRANCH   9  10
ATOM     10  S   UNL A   1      30.376  28.037  22.462  1.00  0.00    -0.069 SA
BRANCH  10  11
ATOM     11  C   UNL A   1      29.498  29.516  22.164  1.00  0.00     0.135 C 
ATOM     12  S   UNL A   1      27.983  29.998  22.634  1.00  0.00    -0.053 S 
BRANCH  11  13
ATOM     13  N   UNL A   1      30.256  30.348  21.397  1.00  0.00    -0.384 N 
ATOM     14  H   UNL A   1      30.447  31.264  21.704  1.00  0.00     0.158 HD
ATOM     15  H   UNL A   1      30.613  30.034  20.535  1.00  0.00     0.158 HD
ENDBRANCH  11  13
ENDBRANCH  10  11
ENDBRANCH   9  10
ENDBRANCH   5   8
ENDBRANCH   3   4
ENDBRANCH   2   3
ENDBRANCH   1   2
BRANCH   1  16
ATOM     16  C   UNL A   1      31.748  30.644  26.392  1.00  0.00     0.002 C 
BRANCH  16  17
ATOM     17  C   UNL A   1      31.502  32.085  26.845  1.00  0.00     0.021 C 
BRANCH  17  18
ATOM     18  C   UNL A   1      32.753  32.954  26.886  1.00  0.00     0.116 C 
BRANCH  18  19
ATOM     19  N   UNL A   1      32.524  34.204  27.593  1.00  0.00    -0.352 N 
ATOM     20  C   UNL A   1      33.100  34.668  28.748  1.00  0.00     0.251 C 
ATOM     21  H   UNL A   1      31.859  34.803  27.184  1.00  0.00     0.163 HD
ATOM     22  O   UNL A   1      32.635  35.642  29.327  1.00  0.00    -0.269 OA
BRANCH  20  23
ATOM     23  C   UNL A   1      34.281  33.975  29.306  1.00  0.00     0.039 A 
ATOM     24  C   UNL A   1      35.556  34.456  28.998  1.00  0.00     0.014 A 
ATOM     25  C   UNL A   1      34.132  32.848  30.118  1.00  0.00     0.014 A 
ATOM     26  C   UNL A   1      36.679  33.839  29.551  1.00  0.00     0.010 A 
ATOM     27  C   UNL A   1      35.245  32.281  30.729  1.00  0.00     0.010 A 
ATOM     28  C   UNL A   1      36.532  32.767  30.446  1.00  0.00    -0.014 A 
BRANCH  28  29
ATOM     29  C   UNL A   1      37.710  32.138  31.094  1.00  0.00     0.031 A 
ATOM     30  C   UNL A   1      38.504  31.090  30.364  1.00  0.00     0.074 A 
ATOM     31  C   UNL A   1      38.029  32.469  32.360  1.00  0.00     0.049 A 
ATOM     32  N   UNL A   1      39.526  30.385  30.781  1.00  0.00    -0.248 NA
ATOM     33  C   UNL A   1      38.078  30.772  28.992  1.00  0.00     0.031 C 
ATOM     34  C   UNL A   1      37.309  33.440  33.186  1.00  0.00     0.029 A 
ATOM     35  N   UNL A   1      39.036  32.019  33.177  1.00  0.00    -0.354 N 
ATOM     36  C   UNL A   1      39.851  29.534  29.732  1.00  0.00     0.074 A 
ATOM     37  C   UNL A   1      38.887  29.771  28.681  1.00  0.00     0.031 C 
ATOM     38  C   UNL A   1      37.913  33.533  34.381  1.00  0.00     0.029 A 
ATOM     39  C   UNL A   1      39.033  32.599  34.423  1.00  0.00     0.049 A 
ATOM     40  H   UNL A   1      39.696  31.346  32.898  1.00  0.00     0.167 HD
ATOM     41  C   UNL A   1      40.876  28.653  29.647  1.00  0.00     0.037 A 
ATOM     42  C   UNL A   1      39.839  32.394  35.481  1.00  0.00     0.037 A 
ATOM     43  C   UNL A   1      41.846  28.439  30.689  1.00  0.00     0.049 A 
ATOM     44  C   UNL A   1      40.960  31.394  35.365  1.00  0.00     0.074 A 
ATOM     45  C   UNL A   1      42.959  27.616  30.676  1.00  0.00     0.029 A 
ATOM     46  N   UNL A   1      41.815  29.049  31.935  1.00  0.00    -0.354 N 
ATOM     47  N   UNL A   1      41.303  30.650  34.342  1.00  0.00    -0.248 NA
ATOM     48  C   UNL A   1      41.808  31.211  36.551  1.00  0.00     0.031 C 
ATOM     49  C   UNL A   1      43.568  27.685  31.933  1.00  0.00     0.029 A 
ATOM     50  C   UNL A   1      42.873  28.598  32.708  1.00  0.00     0.049 A 
ATOM     51  H   UNL A   1      41.142  29.706  32.226  1.00  0.00     0.167 HD
ATOM     52  C   UNL A   1      42.424  29.938  34.747  1.00  0.00     0.074 A 
ATOM     53  C   UNL A   1      42.712  30.351  36.105  1.00  0.00     0.031 C 
ATOM     54  C   UNL A   1      43.151  29.026  34.056  1.00  0.00     0.037 A 
BRANCH  41  55
ATOM     55  C   UNL A   1      41.000  27.846  28.385  1.00  0.00     0.064 A 
ATOM     56  C   UNL A   1      41.785  28.281  27.306  1.00  0.00     0.173 A 
ATOM     57  C   UNL A   1      40.361  26.603  28.270  1.00  0.00     0.173 A 
ATOM     58  F   UNL A   1      42.410  29.467  27.359  1.00  0.00    -0.203 F 
ATOM     59  C   UNL A   1      41.901  27.515  26.149  1.00  0.00     0.198 A 
ATOM     60  C   UNL A   1      40.506  25.824  27.126  1.00  0.00     0.198 A 
ATOM     61  F   UNL A   1      39.602  26.136  29.274  1.00  0.00    -0.203 F 
ATOM     62  F   UNL A   1      42.615  27.974  25.112  1.00  0.00    -0.200 F 
ATOM     63  C   UNL A   1      41.268  26.284  26.062  1.00  0.00     0.200 A 
ATOM     64  F   UNL A   1      39.906  24.627  27.050  1.00  0.00    -0.200 F 
ATOM     65  F   UNL A   1      41.389  25.543  24.952  1.00  0.00    -0.200 F 
ENDBRANCH  41  55
BRANCH  42  66
ATOM     66  C   UNL A   1      39.634  33.162  36.738  1.00  0.00     0.064 A 
ATOM     67  C   UNL A   1      40.342  34.348  36.979  1.00  0.00     0.173 A 
ATOM     68  C   UNL A   1      38.740  32.724  37.726  1.00  0.00     0.173 A 
ATOM     69  F   UNL A   1      41.223  34.798  36.073  1.00  0.00    -0.203 F 
ATOM     70  C   UNL A   1      40.185  35.052  38.172  1.00  0.00     0.198 A 
ATOM     71  C   UNL A   1      38.559  33.445  38.904  1.00  0.00     0.198 A 
ATOM     72  F   UNL A   1      38.034  31.600  37.543  1.00  0.00    -0.203 F 
ATOM     73  F   UNL A   1      40.915  36.152  38.399  1.00  0.00    -0.200 F 
ATOM     74  C   UNL A   1      39.290  34.603  39.131  1.00  0.00     0.200 A 
ATOM     75  F   UNL A   1      37.682  33.017  39.821  1.00  0.00    -0.200 F 
ATOM     76  F   UNL A   1      39.137  35.280  40.277  1.00  0.00    -0.200 F 
ENDBRANCH  42  66
BRANCH  54  77
ATOM     77  C   UNL A   1      44.354  28.441  34.741  1.00  0.00     0.064 A 
ATOM     78  C   UNL A   1      45.611  29.061  34.684  1.00  0.00     0.173 A 
ATOM     79  C   UNL A   1      44.236  27.265  35.497  1.00  0.00     0.173 A 
ATOM     80  F   UNL A   1      45.781  30.180  33.962  1.00  0.00    -0.203 F 
ATOM     81  C   UNL A   1      46.712  28.508  35.335  1.00  0.00     0.198 A 
ATOM     82  C   UNL A   1      45.329  26.734  36.175  1.00  0.00     0.198 A 
ATOM     83  F   UNL A   1      43.054  26.636  35.591  1.00  0.00    -0.203 F 
ATOM     84  F   UNL A   1      47.915  29.089  35.223  1.00  0.00    -0.200 F 
ATOM     85  C   UNL A   1      46.568  27.351  36.086  1.00  0.00     0.200 A 
ATOM     86  F   UNL A   1      45.185  25.625  36.914  1.00  0.00    -0.200 F 
ATOM     87  F   UNL A   1      47.626  26.826  36.719  1.00  0.00    -0.200 F 
ENDBRANCH  54  77
ENDBRANCH  28  29
ENDBRANCH  20  23
ENDBRANCH  18  19
ENDBRANCH  17  18
ENDBRANCH  16  17
ENDBRANCH   1  16
TORSDOF 16
ENDMDL
