MODEL 1
REMARK VINA RESULT:     -12.8      0.000      0.000
REMARK SMILES C[C@H](C(=O)NCCCCCCNC(=O)c1ccc(-c2c3nc(c(-c4c(F)c(F)c(F)c(F)c4F)c4ccc([nH]4)c(-c4c(F)c(F)c(F)c(F)c4F)c4nc(c(-c5c(F)c(F)c(F)c(F)c5F)c5ccc2[nH]5)C=C4)C=C3)cc1)c1ccc2c3cc(Cl)ccc3n(C(=O)c3cocn3)c2c1
REMARK SMILES IDX 8 1 7 2 6 3 5 4 3 5 4 6 2 8 1 9 78 10 79 11 98 12 80 13
REMARK SMILES IDX 97 14 81 15 89 16 82 17 88 18 83 19 87 20 84 21 86 22 85 23
REMARK SMILES IDX 90 24 91 25 92 26 93 27 96 28 94 29 95 30 9 31 10 32 11 33
REMARK SMILES IDX 12 34 13 35 14 37 15 38 16 39 77 40 17 41 76 42 18 43 19 44
REMARK SMILES IDX 20 45 70 46 21 47 75 48 69 49 71 50 22 51 74 52 68 53 67 54
REMARK SMILES IDX 23 56 55 57 35 58 54 59 36 60 39 61 53 62 72 63 37 64 38 65
REMARK SMILES IDX 52 67 73 68 40 69 24 70 25 71 33 72 26 73 27 74 31 75 34 76
REMARK SMILES IDX 28 77 29 78 32 79 30 80 56 81 57 82 65 83 58 84 59 85 63 86
REMARK SMILES IDX 66 87 60 88 61 89 64 90 62 91 41 92 42 93 50 94 43 95 44 96
REMARK SMILES IDX 48 97 51 98 45 99 46 100 49 101 47 102
REMARK H PARENT 5 7 12 36 71 55 39 66
REMARK Flexibility Score: inf
ROOT
ATOM      1  C   UNL A   1      34.480  32.014  28.933  1.00  0.00     0.002 C 
ENDROOT
BRANCH   1   2
ATOM      2  C   UNL A   1      34.265  31.364  27.562  1.00  0.00     0.021 C 
BRANCH   2   3
ATOM      3  C   UNL A   1      34.453  29.852  27.479  1.00  0.00     0.116 C 
BRANCH   3   4
ATOM      4  N   UNL A   1      34.383  29.305  26.141  1.00  0.00    -0.356 N 
ATOM      5  C   UNL A   1      33.677  28.243  25.657  1.00  0.00     0.227 C 
ATOM      6  O   UNL A   1      33.613  28.163  24.422  1.00  0.00    -0.274 OA
ATOM      7  H   UNL A   1      34.934  29.773  25.473  1.00  0.00     0.163 HD
BRANCH   5   8
ATOM      8  C   UNL A   1      33.076  27.110  26.513  1.00  0.00     0.105 C 
ATOM      9  C   UNL A   1      31.734  27.636  27.050  1.00  0.00     0.023 C 
BRANCH   8  10
ATOM     10  C   UNL A   1      33.029  25.712  25.904  1.00  0.00    -0.034 A 
ATOM     11  C   UNL A   1      31.797  25.068  25.738  1.00  0.00     0.005 A 
ATOM     12  C   UNL A   1      34.200  25.030  25.526  1.00  0.00     0.032 A 
ATOM     13  C   UNL A   1      31.730  23.712  25.387  1.00  0.00     0.011 A 
ATOM     14  C   UNL A   1      34.130  23.672  25.164  1.00  0.00     0.058 A 
ATOM     15  C   UNL A   1      32.917  22.992  25.142  1.00  0.00     0.008 A 
ATOM     16  N   UNL A   1      35.129  22.786  24.747  1.00  0.00    -0.274 N 
ATOM     17  C   UNL A   1      33.213  21.612  24.947  1.00  0.00     0.009 A 
ATOM     18  C   UNL A   1      34.591  21.495  24.732  1.00  0.00     0.057 A 
ATOM     19  C   UNL A   1      32.422  20.445  25.013  1.00  0.00     0.031 A 
ATOM     20  C   UNL A   1      35.208  20.233  24.623  1.00  0.00     0.029 A 
ATOM     21  C   UNL A   1      33.035  19.196  24.921  1.00  0.00     0.041 A 
ATOM     22  C   UNL A   1      34.407  19.088  24.729  1.00  0.00     0.023 A 
ATOM     23  Cl  UNL A   1      32.082  17.773  25.102  1.00  0.00    -0.084 Cl
BRANCH  16  24
ATOM     24  C   UNL A   1      36.466  23.160  24.467  1.00  0.00     0.284 C 
ATOM     25  O   UNL A   1      36.660  23.668  23.359  1.00  0.00    -0.266 OA
BRANCH  24  26
ATOM     26  C   UNL A   1      37.586  22.906  25.370  1.00  0.00     0.167 A 
ATOM     27  C   UNL A   1      38.305  21.743  25.557  1.00  0.00     0.231 A 
ATOM     28  N   UNL A   1      38.189  23.913  26.113  1.00  0.00    -0.211 NA
ATOM     29  O   UNL A   1      39.340  22.004  26.405  1.00  0.00    -0.451 OA
ATOM     30  C   UNL A   1      39.214  23.328  26.684  1.00  0.00     0.308 A 
ENDBRANCH  24  26
ENDBRANCH  16  24
ENDBRANCH   8  10
ENDBRANCH   5   8
ENDBRANCH   3   4
ENDBRANCH   2   3
ENDBRANCH   1   2
BRANCH   1  31
ATOM     31  C   UNL A   1      34.600  33.539  28.977  1.00  0.00     0.002 C 
BRANCH  31  32
ATOM     32  C   UNL A   1      33.296  34.335  29.026  1.00  0.00     0.021 C 
BRANCH  32  33
ATOM     33  C   UNL A   1      33.422  35.815  29.364  1.00  0.00     0.116 C 
BRANCH  33  34
ATOM     34  N   UNL A   1      32.540  36.247  30.436  1.00  0.00    -0.352 N 
ATOM     35  C   UNL A   1      32.613  35.982  31.783  1.00  0.00     0.251 C 
ATOM     36  H   UNL A   1      31.782  36.810  30.157  1.00  0.00     0.163 HD
ATOM     37  O   UNL A   1      31.726  36.362  32.540  1.00  0.00    -0.269 OA
BRANCH  35  38
ATOM     38  C   UNL A   1      33.750  35.203  32.322  1.00  0.00     0.039 A 
ATOM     39  C   UNL A   1      33.512  33.924  32.833  1.00  0.00     0.014 A 
ATOM     40  C   UNL A   1      35.045  35.726  32.314  1.00  0.00     0.014 A 
ATOM     41  C   UNL A   1      34.582  33.139  33.271  1.00  0.00     0.010 A 
ATOM     42  C   UNL A   1      36.116  34.919  32.683  1.00  0.00     0.010 A 
ATOM     43  C   UNL A   1      35.896  33.618  33.166  1.00  0.00    -0.014 A 
BRANCH  43  44
ATOM     44  C   UNL A   1      37.069  32.803  33.572  1.00  0.00     0.031 A 
ATOM     45  C   UNL A   1      37.774  33.111  34.860  1.00  0.00     0.074 A 
ATOM     46  C   UNL A   1      37.564  31.869  32.737  1.00  0.00     0.049 A 
ATOM     47  N   UNL A   1      38.915  32.658  35.315  1.00  0.00    -0.248 NA
ATOM     48  C   UNL A   1      37.122  34.092  35.740  1.00  0.00     0.031 C 
ATOM     49  C   UNL A   1      36.987  31.497  31.446  1.00  0.00     0.029 A 
ATOM     50  N   UNL A   1      38.688  31.086  32.840  1.00  0.00    -0.354 N 
ATOM     51  C   UNL A   1      39.132  33.325  36.513  1.00  0.00     0.074 A 
ATOM     52  C   UNL A   1      38.029  34.244  36.693  1.00  0.00     0.031 C 
ATOM     53  C   UNL A   1      37.762  30.561  30.873  1.00  0.00     0.029 A 
ATOM     54  C   UNL A   1      38.912  30.302  31.734  1.00  0.00     0.049 A 
ATOM     55  H   UNL A   1      39.276  31.087  33.629  1.00  0.00     0.167 HD
ATOM     56  C   UNL A   1      40.156  33.175  37.389  1.00  0.00     0.037 A 
ATOM     57  C   UNL A   1      39.943  29.486  31.437  1.00  0.00     0.037 A 
ATOM     58  C   UNL A   1      41.234  32.239  37.215  1.00  0.00     0.049 A 
ATOM     59  C   UNL A   1      41.069  29.332  32.423  1.00  0.00     0.074 A 
ATOM     60  C   UNL A   1      42.284  31.964  38.072  1.00  0.00     0.029 A 
ATOM     61  N   UNL A   1      41.401  31.426  36.102  1.00  0.00    -0.354 N 
ATOM     62  N   UNL A   1      41.243  29.928  33.578  1.00  0.00    -0.248 NA
ATOM     63  C   UNL A   1      42.140  28.390  32.068  1.00  0.00     0.031 C 
ATOM     64  C   UNL A   1      43.114  31.020  37.456  1.00  0.00     0.029 A 
ATOM     65  C   UNL A   1      42.549  30.664  36.242  1.00  0.00     0.049 A 
ATOM     66  H   UNL A   1      40.793  31.396  35.328  1.00  0.00     0.167 HD
ATOM     67  C   UNL A   1      42.419  29.409  34.104  1.00  0.00     0.074 A 
ATOM     68  C   UNL A   1      42.920  28.450  33.140  1.00  0.00     0.031 C 
ATOM     69  C   UNL A   1      43.023  29.697  35.282  1.00  0.00     0.037 A 
BRANCH  56  70
ATOM     70  C   UNL A   1      40.159  34.060  38.602  1.00  0.00     0.064 A 
ATOM     71  C   UNL A   1      39.510  33.691  39.791  1.00  0.00     0.173 A 
ATOM     72  C   UNL A   1      40.819  35.297  38.576  1.00  0.00     0.173 A 
ATOM     73  F   UNL A   1      38.855  32.522  39.868  1.00  0.00    -0.203 F 
ATOM     74  C   UNL A   1      39.482  34.546  40.889  1.00  0.00     0.198 A 
ATOM     75  C   UNL A   1      40.820  36.136  39.688  1.00  0.00     0.198 A 
ATOM     76  F   UNL A   1      41.463  35.698  37.469  1.00  0.00    -0.203 F 
ATOM     77  F   UNL A   1      38.795  34.202  41.987  1.00  0.00    -0.200 F 
ATOM     78  C   UNL A   1      40.139  35.766  40.838  1.00  0.00     0.200 A 
ATOM     79  F   UNL A   1      41.469  37.307  39.642  1.00  0.00    -0.200 F 
ATOM     80  F   UNL A   1      40.109  36.591  41.894  1.00  0.00    -0.200 F 
ENDBRANCH  56  70
BRANCH  57  81
ATOM     81  C   UNL A   1      39.937  28.742  30.152  1.00  0.00     0.064 A 
ATOM     82  C   UNL A   1      40.533  29.285  29.005  1.00  0.00     0.173 A 
ATOM     83  C   UNL A   1      39.370  27.463  30.050  1.00  0.00     0.173 A 
ATOM     84  F   UNL A   1      41.072  30.513  29.048  1.00  0.00    -0.203 F 
ATOM     85  C   UNL A   1      40.557  28.579  27.804  1.00  0.00     0.198 A 
ATOM     86  C   UNL A   1      39.417  26.748  28.855  1.00  0.00     0.198 A 
ATOM     87  F   UNL A   1      38.793  26.897  31.120  1.00  0.00    -0.203 F 
ATOM     88  F   UNL A   1      41.109  29.132  26.716  1.00  0.00    -0.200 F 
ATOM     89  C   UNL A   1      40.007  27.308  27.732  1.00  0.00     0.200 A 
ATOM     90  F   UNL A   1      38.899  25.514  28.794  1.00  0.00    -0.200 F 
ATOM     91  F   UNL A   1      40.044  26.623  26.582  1.00  0.00    -0.200 F 
ENDBRANCH  57  81
BRANCH  69  92
ATOM     92  C   UNL A   1      44.266  28.933  35.635  1.00  0.00     0.064 A 
ATOM     93  C   UNL A   1      44.216  27.722  36.337  1.00  0.00     0.173 A 
ATOM     94  C   UNL A   1      45.518  29.383  35.186  1.00  0.00     0.173 A 
ATOM     95  F   UNL A   1      43.046  27.256  36.798  1.00  0.00    -0.203 F 
ATOM     96  C   UNL A   1      45.376  26.992  36.585  1.00  0.00     0.198 A 
ATOM     97  C   UNL A   1      46.671  28.638  35.413  1.00  0.00     0.198 A 
ATOM     98  F   UNL A   1      45.618  30.535  34.504  1.00  0.00    -0.203 F 
ATOM     99  F   UNL A   1      45.311  25.850  37.283  1.00  0.00    -0.200 F 
ATOM    100  C   UNL A   1      46.600  27.445  36.114  1.00  0.00     0.200 A 
ATOM    101  F   UNL A   1      47.849  29.070  34.941  1.00  0.00    -0.200 F 
ATOM    102  F   UNL A   1      47.712  26.730  36.335  1.00  0.00    -0.200 F 
ENDBRANCH  69  92
ENDBRANCH  43  44
ENDBRANCH  35  38
ENDBRANCH  33  34
ENDBRANCH  32  33
ENDBRANCH  31  32
ENDBRANCH   1  31
TORSDOF 16
ENDMDL
MODEL 2
REMARK VINA RESULT:     -12.5      2.190      7.766
REMARK SMILES C[C@H](C(=O)NCCCCCCNC(=O)c1ccc(-c2c3nc(c(-c4c(F)c(F)c(F)c(F)c4F)c4ccc([nH]4)c(-c4c(F)c(F)c(F)c(F)c4F)c4nc(c(-c5c(F)c(F)c(F)c(F)c5F)c5ccc2[nH]5)C=C4)C=C3)cc1)c1ccc2c3cc(Cl)ccc3n(C(=O)c3cocn3)c2c1
REMARK SMILES IDX 8 1 7 2 6 3 5 4 3 5 4 6 2 8 1 9 78 10 79 11 98 12 80 13
REMARK SMILES IDX 97 14 81 15 89 16 82 17 88 18 83 19 87 20 84 21 86 22 85 23
REMARK SMILES IDX 90 24 91 25 92 26 93 27 96 28 94 29 95 30 9 31 10 32 11 33
REMARK SMILES IDX 12 34 13 35 14 37 15 38 16 39 77 40 17 41 76 42 18 43 19 44
REMARK SMILES IDX 20 45 70 46 21 47 75 48 69 49 71 50 22 51 74 52 68 53 67 54
REMARK SMILES IDX 23 56 55 57 35 58 54 59 36 60 39 61 53 62 72 63 37 64 38 65
REMARK SMILES IDX 52 67 73 68 40 69 24 70 25 71 33 72 26 73 27 74 31 75 34 76
REMARK SMILES IDX 28 77 29 78 32 79 30 80 56 81 57 82 65 83 58 84 59 85 63 86
REMARK SMILES IDX 66 87 60 88 61 89 64 90 62 91 41 92 42 93 50 94 43 95 44 96
REMARK SMILES IDX 48 97 51 98 45 99 46 100 49 101 47 102
REMARK H PARENT 5 7 12 36 71 55 39 66
REMARK Flexibility Score: inf
ROOT
ATOM      1  C   UNL A   1      31.111  29.987  25.214  1.00  0.00     0.002 C 
ENDROOT
BRANCH   1   2
ATOM      2  C   UNL A   1      31.911  29.296  24.104  1.00  0.00     0.021 C 
BRANCH   2   3
ATOM      3  C   UNL A   1      31.215  29.124  22.758  1.00  0.00     0.116 C 
BRANCH   3   4
ATOM      4  N   UNL A   1      31.658  27.982  21.988  1.00  0.00    -0.356 N 
ATOM      5  C   UNL A   1      31.533  26.647  22.238  1.00  0.00     0.227 C 
ATOM      6  O   UNL A   1      31.781  25.899  21.281  1.00  0.00    -0.274 OA
ATOM      7  H   UNL A   1      32.125  28.203  21.150  1.00  0.00     0.163 HD
BRANCH   5   8
ATOM      8  C   UNL A   1      31.232  26.024  23.616  1.00  0.00     0.105 C 
ATOM      9  C   UNL A   1      29.874  25.312  23.483  1.00  0.00     0.023 C 
BRANCH   8  10
ATOM     10  C   UNL A   1      32.333  25.202  24.277  1.00  0.00    -0.034 A 
ATOM     11  C   UNL A   1      33.255  25.829  25.124  1.00  0.00     0.005 A 
ATOM     12  C   UNL A   1      32.470  23.822  24.039  1.00  0.00     0.032 A 
ATOM     13  C   UNL A   1      34.400  25.155  25.574  1.00  0.00     0.011 A 
ATOM     14  C   UNL A   1      33.614  23.144  24.500  1.00  0.00     0.058 A 
ATOM     15  C   UNL A   1      34.605  23.807  25.218  1.00  0.00     0.008 A 
ATOM     16  N   UNL A   1      33.979  21.798  24.403  1.00  0.00    -0.274 N 
ATOM     17  C   UNL A   1      35.701  22.906  25.347  1.00  0.00     0.009 A 
ATOM     18  C   UNL A   1      35.310  21.673  24.812  1.00  0.00     0.057 A 
ATOM     19  C   UNL A   1      37.024  23.071  25.811  1.00  0.00     0.031 A 
ATOM     20  C   UNL A   1      36.225  20.609  24.689  1.00  0.00     0.029 A 
ATOM     21  C   UNL A   1      37.933  22.022  25.675  1.00  0.00     0.041 A 
ATOM     22  C   UNL A   1      37.542  20.808  25.122  1.00  0.00     0.023 A 
ATOM     23  Cl  UNL A   1      39.572  22.258  26.148  1.00  0.00    -0.084 Cl
BRANCH  16  24
ATOM     24  C   UNL A   1      33.138  20.774  23.901  1.00  0.00     0.284 C 
ATOM     25  O   UNL A   1      32.535  21.038  22.857  1.00  0.00    -0.266 OA
BRANCH  24  26
ATOM     26  C   UNL A   1      32.908  19.504  24.586  1.00  0.00     0.167 A 
ATOM     27  C   UNL A   1      32.873  19.241  25.940  1.00  0.00     0.231 A 
ATOM     28  N   UNL A   1      32.545  18.347  23.909  1.00  0.00    -0.211 NA
ATOM     29  O   UNL A   1      32.501  17.941  26.120  1.00  0.00    -0.451 OA
ATOM     30  C   UNL A   1      32.308  17.474  24.858  1.00  0.00     0.308 A 
ENDBRANCH  24  26
ENDBRANCH  16  24
ENDBRANCH   8  10
ENDBRANCH   5   8
ENDBRANCH   3   4
ENDBRANCH   2   3
ENDBRANCH   1   2
BRANCH   1  31
ATOM     31  C   UNL A   1      31.898  30.562  26.394  1.00  0.00     0.002 C 
BRANCH  31  32
ATOM     32  C   UNL A   1      31.610  32.014  26.777  1.00  0.00     0.021 C 
BRANCH  32  33
ATOM     33  C   UNL A   1      32.795  32.826  27.284  1.00  0.00     0.116 C 
BRANCH  33  34
ATOM     34  N   UNL A   1      32.446  34.177  27.689  1.00  0.00    -0.352 N 
ATOM     35  C   UNL A   1      33.020  34.974  28.651  1.00  0.00     0.251 C 
ATOM     36  H   UNL A   1      31.691  34.581  27.203  1.00  0.00     0.163 HD
ATOM     37  O   UNL A   1      32.537  36.069  28.920  1.00  0.00    -0.269 OA
BRANCH  35  38
ATOM     38  C   UNL A   1      34.206  34.495  29.395  1.00  0.00     0.039 A 
ATOM     39  C   UNL A   1      34.019  33.826  30.608  1.00  0.00     0.014 A 
ATOM     40  C   UNL A   1      35.495  34.695  28.894  1.00  0.00     0.014 A 
ATOM     41  C   UNL A   1      35.120  33.293  31.286  1.00  0.00     0.010 A 
ATOM     42  C   UNL A   1      36.581  34.104  29.531  1.00  0.00     0.010 A 
ATOM     43  C   UNL A   1      36.405  33.399  30.734  1.00  0.00    -0.014 A 
BRANCH  43  44
ATOM     44  C   UNL A   1      37.597  32.806  31.391  1.00  0.00     0.031 A 
ATOM     45  C   UNL A   1      38.287  31.634  30.754  1.00  0.00     0.074 A 
ATOM     46  C   UNL A   1      37.989  33.243  32.603  1.00  0.00     0.049 A 
ATOM     47  N   UNL A   1      39.217  30.851  31.237  1.00  0.00    -0.248 NA
ATOM     48  C   UNL A   1      37.840  31.274  29.400  1.00  0.00     0.031 C 
ATOM     49  C   UNL A   1      37.384  34.353  33.338  1.00  0.00     0.029 A 
ATOM     50  N   UNL A   1      38.971  32.780  33.444  1.00  0.00    -0.354 N 
ATOM     51  C   UNL A   1      39.438  29.886  30.264  1.00  0.00     0.074 A 
ATOM     52  C   UNL A   1      38.517  30.157  29.182  1.00  0.00     0.031 C 
ATOM     53  C   UNL A   1      38.004  34.483  34.523  1.00  0.00     0.029 A 
ATOM     54  C   UNL A   1      39.016  33.439  34.648  1.00  0.00     0.049 A 
ATOM     55  H   UNL A   1      39.583  32.046  33.207  1.00  0.00     0.167 HD
ATOM     56  C   UNL A   1      40.339  28.874  30.269  1.00  0.00     0.037 A 
ATOM     57  C   UNL A   1      39.772  33.210  35.741  1.00  0.00     0.037 A 
ATOM     58  C   UNL A   1      41.271  28.629  31.338  1.00  0.00     0.049 A 
ATOM     59  C   UNL A   1      40.767  32.082  35.726  1.00  0.00     0.074 A 
ATOM     60  C   UNL A   1      42.265  27.670  31.413  1.00  0.00     0.029 A 
ATOM     61  N   UNL A   1      41.319  29.351  32.522  1.00  0.00    -0.354 N 
ATOM     62  N   UNL A   1      41.008  31.205  34.782  1.00  0.00    -0.248 NA
ATOM     63  C   UNL A   1      41.599  31.913  36.926  1.00  0.00     0.031 C 
ATOM     64  C   UNL A   1      42.882  27.780  32.663  1.00  0.00     0.029 A 
ATOM     65  C   UNL A   1      42.312  28.845  33.343  1.00  0.00     0.049 A 
ATOM     66  H   UNL A   1      40.732  30.110  32.745  1.00  0.00     0.167 HD
ATOM     67  C   UNL A   1      42.039  30.405  35.255  1.00  0.00     0.074 A 
ATOM     68  C   UNL A   1      42.378  30.898  36.574  1.00  0.00     0.031 C 
ATOM     69  C   UNL A   1      42.652  29.361  34.647  1.00  0.00     0.037 A 
BRANCH  56  70
ATOM     70  C   UNL A   1      40.340  27.948  29.086  1.00  0.00     0.064 A 
ATOM     71  C   UNL A   1      41.086  28.224  27.929  1.00  0.00     0.173 A 
ATOM     72  C   UNL A   1      39.583  26.767  29.109  1.00  0.00     0.173 A 
ATOM     73  F   UNL A   1      41.820  29.344  27.850  1.00  0.00    -0.203 F 
ATOM     74  C   UNL A   1      41.035  27.378  26.824  1.00  0.00     0.198 A 
ATOM     75  C   UNL A   1      39.563  25.904  28.016  1.00  0.00     0.198 A 
ATOM     76  F   UNL A   1      38.857  26.449  30.192  1.00  0.00    -0.203 F 
ATOM     77  F   UNL A   1      41.699  27.701  25.705  1.00  0.00    -0.200 F 
ATOM     78  C   UNL A   1      40.277  26.219  26.869  1.00  0.00     0.200 A 
ATOM     79  F   UNL A   1      38.842  24.777  28.067  1.00  0.00    -0.200 F 
ATOM     80  F   UNL A   1      40.226  25.407  25.804  1.00  0.00    -0.200 F 
ENDBRANCH  56  70
BRANCH  57  81
ATOM     81  C   UNL A   1      39.620  34.089  36.929  1.00  0.00     0.064 A 
ATOM     82  C   UNL A   1      38.828  33.694  38.017  1.00  0.00     0.173 A 
ATOM     83  C   UNL A   1      40.287  35.319  37.019  1.00  0.00     0.173 A 
ATOM     84  F   UNL A   1      38.156  32.534  37.969  1.00  0.00    -0.203 F 
ATOM     85  C   UNL A   1      38.706  34.499  39.147  1.00  0.00     0.198 A 
ATOM     86  C   UNL A   1      40.184  36.112  38.160  1.00  0.00     0.198 A 
ATOM     87  F   UNL A   1      41.061  35.739  36.008  1.00  0.00    -0.203 F 
ATOM     88  F   UNL A   1      37.922  34.111  40.162  1.00  0.00    -0.200 F 
ATOM     89  C   UNL A   1      39.391  35.703  39.221  1.00  0.00     0.200 A 
ATOM     90  F   UNL A   1      40.860  37.266  38.235  1.00  0.00    -0.200 F 
ATOM     91  F   UNL A   1      39.285  36.470  40.314  1.00  0.00    -0.200 F 
ENDBRANCH  57  81
BRANCH  69  92
ATOM     92  C   UNL A   1      43.795  28.706  35.367  1.00  0.00     0.064 A 
ATOM     93  C   UNL A   1      45.118  29.132  35.196  1.00  0.00     0.173 A 
ATOM     94  C   UNL A   1      43.544  27.693  36.307  1.00  0.00     0.173 A 
ATOM     95  F   UNL A   1      45.411  30.087  34.302  1.00  0.00    -0.203 F 
ATOM     96  C   UNL A   1      46.153  28.560  35.935  1.00  0.00     0.198 A 
ATOM     97  C   UNL A   1      44.576  27.143  37.060  1.00  0.00     0.198 A 
ATOM     98  F   UNL A   1      42.292  27.255  36.510  1.00  0.00    -0.203 F 
ATOM     99  F   UNL A   1      47.416  28.962  35.736  1.00  0.00    -0.200 F 
ATOM    100  C   UNL A   1      45.880  27.575  36.873  1.00  0.00     0.200 A 
ATOM    101  F   UNL A   1      44.307  26.203  37.977  1.00  0.00    -0.200 F 
ATOM    102  F   UNL A   1      46.874  27.042  37.596  1.00  0.00    -0.200 F 
ENDBRANCH  69  92
ENDBRANCH  43  44
ENDBRANCH  35  38
ENDBRANCH  33  34
ENDBRANCH  32  33
ENDBRANCH  31  32
ENDBRANCH   1  31
TORSDOF 16
ENDMDL
MODEL 3
REMARK VINA RESULT:     -12.4      6.088     11.079
REMARK SMILES C[C@H](C(=O)NCCCCCCNC(=O)c1ccc(-c2c3nc(c(-c4c(F)c(F)c(F)c(F)c4F)c4ccc([nH]4)c(-c4c(F)c(F)c(F)c(F)c4F)c4nc(c(-c5c(F)c(F)c(F)c(F)c5F)c5ccc2[nH]5)C=C4)C=C3)cc1)c1ccc2c3cc(Cl)ccc3n(C(=O)c3cocn3)c2c1
REMARK SMILES IDX 8 1 7 2 6 3 5 4 3 5 4 6 2 8 1 9 78 10 79 11 98 12 80 13
REMARK SMILES IDX 97 14 81 15 89 16 82 17 88 18 83 19 87 20 84 21 86 22 85 23
REMARK SMILES IDX 90 24 91 25 92 26 93 27 96 28 94 29 95 30 9 31 10 32 11 33
REMARK SMILES IDX 12 34 13 35 14 37 15 38 16 39 77 40 17 41 76 42 18 43 19 44
REMARK SMILES IDX 20 45 70 46 21 47 75 48 69 49 71 50 22 51 74 52 68 53 67 54
REMARK SMILES IDX 23 56 55 57 35 58 54 59 36 60 39 61 53 62 72 63 37 64 38 65
REMARK SMILES IDX 52 67 73 68 40 69 24 70 25 71 33 72 26 73 27 74 31 75 34 76
REMARK SMILES IDX 28 77 29 78 32 79 30 80 56 81 57 82 65 83 58 84 59 85 63 86
REMARK SMILES IDX 66 87 60 88 61 89 64 90 62 91 41 92 42 93 50 94 43 95 44 96
REMARK SMILES IDX 48 97 51 98 45 99 46 100 49 101 47 102
REMARK H PARENT 5 7 12 36 71 55 39 66
REMARK Flexibility Score: inf
ROOT
ATOM      1  C   UNL A   1      35.510  20.523  25.186  1.00  0.00     0.002 C 
ENDROOT
BRANCH   1   2
ATOM      2  C   UNL A   1      34.780  19.210  24.885  1.00  0.00     0.021 C 
BRANCH   2   3
ATOM      3  C   UNL A   1      33.283  19.302  24.607  1.00  0.00     0.116 C 
BRANCH   3   4
ATOM      4  N   UNL A   1      32.579  20.288  25.399  1.00  0.00    -0.356 N 
ATOM      5  C   UNL A   1      32.191  21.558  25.087  1.00  0.00     0.227 C 
ATOM      6  O   UNL A   1      31.383  22.076  25.870  1.00  0.00    -0.274 OA
ATOM      7  H   UNL A   1      32.342  19.996  26.309  1.00  0.00     0.163 HD
BRANCH   5   8
ATOM      8  C   UNL A   1      32.764  22.405  23.933  1.00  0.00     0.105 C 
ATOM      9  C   UNL A   1      31.896  22.101  22.699  1.00  0.00     0.023 C 
BRANCH   8  10
ATOM     10  C   UNL A   1      33.018  23.885  24.199  1.00  0.00    -0.034 A 
ATOM     11  C   UNL A   1      34.126  24.274  24.962  1.00  0.00     0.005 A 
ATOM     12  C   UNL A   1      32.149  24.882  23.718  1.00  0.00     0.032 A 
ATOM     13  C   UNL A   1      34.271  25.596  25.406  1.00  0.00     0.011 A 
ATOM     14  C   UNL A   1      32.302  26.210  24.157  1.00  0.00     0.058 A 
ATOM     15  C   UNL A   1      33.319  26.568  25.036  1.00  0.00     0.008 A 
ATOM     16  N   UNL A   1      31.588  27.367  23.829  1.00  0.00    -0.274 N 
ATOM     17  C   UNL A   1      33.071  27.912  25.439  1.00  0.00     0.009 A 
ATOM     18  C   UNL A   1      31.978  28.386  24.704  1.00  0.00     0.057 A 
ATOM     19  C   UNL A   1      33.648  28.735  26.430  1.00  0.00     0.031 A 
ATOM     20  C   UNL A   1      31.418  29.652  24.966  1.00  0.00     0.029 A 
ATOM     21  C   UNL A   1      33.083  29.981  26.698  1.00  0.00     0.041 A 
ATOM     22  C   UNL A   1      31.984  30.436  25.979  1.00  0.00     0.023 A 
ATOM     23  Cl  UNL A   1      33.726  30.942  27.975  1.00  0.00    -0.084 Cl
BRANCH  16  24
ATOM     24  C   UNL A   1      30.594  27.437  22.822  1.00  0.00     0.284 C 
ATOM     25  O   UNL A   1      31.005  27.393  21.658  1.00  0.00    -0.266 OA
BRANCH  24  26
ATOM     26  C   UNL A   1      29.173  27.630  23.096  1.00  0.00     0.167 A 
ATOM     27  C   UNL A   1      28.306  26.821  23.802  1.00  0.00     0.231 A 
ATOM     28  N   UNL A   1      28.500  28.799  22.761  1.00  0.00    -0.211 NA
ATOM     29  O   UNL A   1      27.106  27.460  23.910  1.00  0.00    -0.451 OA
ATOM     30  C   UNL A   1      27.304  28.645  23.275  1.00  0.00     0.308 A 
ENDBRANCH  24  26
ENDBRANCH  16  24
ENDBRANCH   8  10
ENDBRANCH   5   8
ENDBRANCH   3   4
ENDBRANCH   2   3
ENDBRANCH   1   2
BRANCH   1  31
ATOM     31  C   UNL A   1      36.919  20.691  24.612  1.00  0.00     0.002 C 
BRANCH  31  32
ATOM     32  C   UNL A   1      37.941  19.608  24.958  1.00  0.00     0.021 C 
BRANCH  32  33
ATOM     33  C   UNL A   1      39.072  20.021  25.893  1.00  0.00     0.116 C 
BRANCH  33  34
ATOM     34  N   UNL A   1      40.232  19.148  25.827  1.00  0.00    -0.352 N 
ATOM     35  C   UNL A   1      41.558  19.445  26.031  1.00  0.00     0.251 C 
ATOM     36  H   UNL A   1      40.040  18.208  25.606  1.00  0.00     0.163 HD
ATOM     37  O   UNL A   1      42.422  18.593  25.849  1.00  0.00    -0.269 OA
BRANCH  35  38
ATOM     38  C   UNL A   1      41.954  20.813  26.437  1.00  0.00     0.039 A 
ATOM     39  C   UNL A   1      42.214  21.070  27.786  1.00  0.00     0.014 A 
ATOM     40  C   UNL A   1      42.079  21.833  25.491  1.00  0.00     0.014 A 
ATOM     41  C   UNL A   1      42.668  22.331  28.180  1.00  0.00     0.010 A 
ATOM     42  C   UNL A   1      42.601  23.065  25.872  1.00  0.00     0.010 A 
ATOM     43  C   UNL A   1      42.898  23.328  27.219  1.00  0.00    -0.014 A 
BRANCH  43  44
ATOM     44  C   UNL A   1      43.428  24.667  27.582  1.00  0.00     0.031 A 
ATOM     45  C   UNL A   1      42.492  25.715  28.108  1.00  0.00     0.074 A 
ATOM     46  C   UNL A   1      44.717  24.973  27.336  1.00  0.00     0.049 A 
ATOM     47  N   UNL A   1      42.698  26.992  28.308  1.00  0.00    -0.248 NA
ATOM     48  C   UNL A   1      41.124  25.271  28.414  1.00  0.00     0.031 C 
ATOM     49  C   UNL A   1      45.718  24.052  26.801  1.00  0.00     0.029 A 
ATOM     50  N   UNL A   1      45.393  26.160  27.474  1.00  0.00    -0.354 N 
ATOM     51  C   UNL A   1      41.479  27.507  28.728  1.00  0.00     0.074 A 
ATOM     52  C   UNL A   1      40.530  26.416  28.712  1.00  0.00     0.031 C 
ATOM     53  C   UNL A   1      46.881  24.708  26.651  1.00  0.00     0.029 A 
ATOM     54  C   UNL A   1      46.693  26.104  27.036  1.00  0.00     0.049 A 
ATOM     55  H   UNL A   1      44.986  26.973  27.851  1.00  0.00     0.167 HD
ATOM     56  C   UNL A   1      41.184  28.776  29.104  1.00  0.00     0.037 A 
ATOM     57  C   UNL A   1      47.622  27.075  26.931  1.00  0.00     0.037 A 
ATOM     58  C   UNL A   1      42.142  29.848  29.143  1.00  0.00     0.049 A 
ATOM     59  C   UNL A   1      47.276  28.476  27.354  1.00  0.00     0.074 A 
ATOM     60  C   UNL A   1      41.960  31.152  29.568  1.00  0.00     0.029 A 
ATOM     61  N   UNL A   1      43.464  29.739  28.736  1.00  0.00    -0.354 N 
ATOM     62  N   UNL A   1      46.135  28.946  27.800  1.00  0.00    -0.248 NA
ATOM     63  C   UNL A   1      48.344  29.482  27.266  1.00  0.00     0.031 C 
ATOM     64  C   UNL A   1      43.160  31.845  29.373  1.00  0.00     0.029 A 
ATOM     65  C   UNL A   1      44.105  30.959  28.881  1.00  0.00     0.049 A 
ATOM     66  H   UNL A   1      43.884  28.917  28.395  1.00  0.00     0.167 HD
ATOM     67  C   UNL A   1      46.356  30.289  28.079  1.00  0.00     0.074 A 
ATOM     68  C   UNL A   1      47.741  30.560  27.749  1.00  0.00     0.031 C 
ATOM     69  C   UNL A   1      45.491  31.208  28.568  1.00  0.00     0.037 A 
BRANCH  56  70
ATOM     70  C   UNL A   1      39.760  29.067  29.484  1.00  0.00     0.064 A 
ATOM     71  C   UNL A   1      39.313  28.975  30.812  1.00  0.00     0.173 A 
ATOM     72  C   UNL A   1      38.828  29.442  28.506  1.00  0.00     0.173 A 
ATOM     73  F   UNL A   1      40.162  28.611  31.786  1.00  0.00    -0.203 F 
ATOM     74  C   UNL A   1      37.979  29.201  31.137  1.00  0.00     0.198 A 
ATOM     75  C   UNL A   1      37.501  29.703  28.839  1.00  0.00     0.198 A 
ATOM     76  F   UNL A   1      39.201  29.554  27.221  1.00  0.00    -0.203 F 
ATOM     77  F   UNL A   1      37.562  29.037  32.401  1.00  0.00    -0.200 F 
ATOM     78  C   UNL A   1      37.075  29.568  30.153  1.00  0.00     0.200 A 
ATOM     79  F   UNL A   1      36.632  30.072  27.889  1.00  0.00    -0.200 F 
ATOM     80  F   UNL A   1      35.790  29.781  30.465  1.00  0.00    -0.200 F 
ENDBRANCH  56  70
BRANCH  57  81
ATOM     81  C   UNL A   1      48.975  26.737  26.417  1.00  0.00     0.064 A 
ATOM     82  C   UNL A   1      49.954  26.208  27.268  1.00  0.00     0.173 A 
ATOM     83  C   UNL A   1      49.305  26.902  25.063  1.00  0.00     0.173 A 
ATOM     84  F   UNL A   1      49.692  26.050  28.574  1.00  0.00    -0.203 F 
ATOM     85  C   UNL A   1      51.214  25.861  26.786  1.00  0.00     0.198 A 
ATOM     86  C   UNL A   1      50.557  26.530  24.578  1.00  0.00     0.198 A 
ATOM     87  F   UNL A   1      48.400  27.398  24.207  1.00  0.00    -0.203 F 
ATOM     88  F   UNL A   1      52.142  25.382  27.626  1.00  0.00    -0.200 F 
ATOM     89  C   UNL A   1      51.512  26.013  25.440  1.00  0.00     0.200 A 
ATOM     90  F   UNL A   1      50.834  26.664  23.274  1.00  0.00    -0.200 F 
ATOM     91  F   UNL A   1      52.718  25.665  24.974  1.00  0.00    -0.200 F 
ENDBRANCH  57  81
BRANCH  69  92
ATOM     92  C   UNL A   1      46.017  32.588  28.838  1.00  0.00     0.064 A 
ATOM     93  C   UNL A   1      45.940  33.609  27.882  1.00  0.00     0.173 A 
ATOM     94  C   UNL A   1      46.527  32.910  30.106  1.00  0.00     0.173 A 
ATOM     95  F   UNL A   1      45.472  33.350  26.652  1.00  0.00    -0.203 F 
ATOM     96  C   UNL A   1      46.363  34.903  28.183  1.00  0.00     0.198 A 
ATOM     97  C   UNL A   1      46.924  34.208  30.411  1.00  0.00     0.198 A 
ATOM     98  F   UNL A   1      46.616  31.968  31.057  1.00  0.00    -0.203 F 
ATOM     99  F   UNL A   1      46.307  35.859  27.246  1.00  0.00    -0.200 F 
ATOM    100  C   UNL A   1      46.845  35.202  29.449  1.00  0.00     0.200 A 
ATOM    101  F   UNL A   1      47.373  34.498  31.640  1.00  0.00    -0.200 F 
ATOM    102  F   UNL A   1      47.231  36.452  29.742  1.00  0.00    -0.200 F 
ENDBRANCH  69  92
ENDBRANCH  43  44
ENDBRANCH  35  38
ENDBRANCH  33  34
ENDBRANCH  32  33
ENDBRANCH  31  32
ENDBRANCH   1  31
TORSDOF 16
ENDMDL
