MODEL 1
REMARK VINA RESULT:     -12.2      0.000      0.000
REMARK SMILES CC(C)[C@@H](NC(=O)/C(=C\c1ccccc1F)NC(=O)c1ccccc1)C(=O)NCCCCCCNC(=O)c1ccc(-c2c3nc(c(-c4c(F)c(F)c(F)c(F)c4F)c4ccc([nH]4)c(-c4c(F)c(F)c(F)c(F)c4F)c4nc(c(-c5c(F)c(F)c(F)c(F)c5F)c5ccc2[nH]5)C=C4)C=C3)cc1
REMARK SMILES IDX 30 1 29 2 28 3 26 4 27 5 4 7 2 8 1 9 3 10 5 11 6 12 7 14
REMARK SMILES IDX 8 15 9 16 17 17 18 18 19 20 20 21 21 22 25 23 22 24 24 25
REMARK SMILES IDX 23 26 10 27 11 28 15 29 12 30 14 31 16 32 13 33 31 34 32 35
REMARK SMILES IDX 33 36 34 37 35 38 36 39 37 41 38 42 39 43 100 44 40 45 99 46
REMARK SMILES IDX 41 47 42 48 43 49 93 50 44 51 98 52 92 53 94 54 45 55 97 56
REMARK SMILES IDX 91 57 90 58 46 60 78 61 58 62 77 63 59 64 62 65 76 66 95 67
REMARK SMILES IDX 60 68 61 69 75 71 96 72 63 73 47 74 48 75 56 76 49 77 50 78
REMARK SMILES IDX 54 79 57 80 51 81 52 82 55 83 53 84 79 85 80 86 88 87 81 88
REMARK SMILES IDX 82 89 86 90 89 91 83 92 84 93 87 94 85 95 64 96 65 97 73 98
REMARK SMILES IDX 66 99 67 100 71 101 74 102 68 103 69 104 72 105 70 106
REMARK H PARENT 28 6 5 13 17 19 35 40 94 59 62 70
REMARK Flexibility Score: inf
ROOT
ATOM      1  C   UNL A   1      32.095  28.274  27.663  1.00  0.00     0.021 C 
ENDROOT
BRANCH   1   2
ATOM      2  C   UNL A   1      32.189  27.132  26.663  1.00  0.00     0.116 C 
BRANCH   2   3
ATOM      3  N   UNL A   1      30.857  26.623  26.461  1.00  0.00    -0.354 N 
ATOM      4  C   UNL A   1      30.517  25.555  25.699  1.00  0.00     0.242 C 
ATOM      5  O   UNL A   1      29.518  25.663  24.985  1.00  0.00    -0.273 OA
ATOM      6  H   UNL A   1      30.125  27.097  26.917  1.00  0.00     0.163 HD
BRANCH   4   7
ATOM      7  C   UNL A   1      31.450  24.352  25.584  1.00  0.00     0.174 C 
BRANCH   7   8
ATOM      8  C   UNL A   1      31.341  23.496  26.897  1.00  0.00     0.015 C 
ATOM      9  C   UNL A   1      30.107  22.588  26.886  1.00  0.00     0.010 C 
ATOM     10  C   UNL A   1      32.570  22.602  27.162  1.00  0.00     0.010 C 
ENDBRANCH   7   8
BRANCH   7  11
ATOM     11  N   UNL A   1      31.239  23.549  24.350  1.00  0.00    -0.339 N 
ATOM     12  C   UNL A   1      32.226  22.963  23.581  1.00  0.00     0.268 C 
ATOM     13  H   UNL A   1      30.309  23.424  24.054  1.00  0.00     0.164 HD
ATOM     14  O   UNL A   1      32.205  21.740  23.441  1.00  0.00    -0.268 OA
BRANCH  12  15
ATOM     15  C   UNL A   1      33.118  23.799  22.684  1.00  0.00     0.107 C 
ATOM     16  C   UNL A   1      34.454  23.941  22.846  1.00  0.00     0.043 C 
BRANCH  15  17
ATOM     17  N   UNL A   1      32.607  24.412  21.544  1.00  0.00    -0.317 N 
ATOM     18  C   UNL A   1      32.255  25.684  21.174  1.00  0.00     0.255 C 
ATOM     19  H   UNL A   1      32.459  23.766  20.816  1.00  0.00     0.170 HD
ATOM     20  O   UNL A   1      31.781  25.860  20.049  1.00  0.00    -0.269 OA
BRANCH  18  21
ATOM     21  C   UNL A   1      32.404  26.853  22.039  1.00  0.00     0.040 A 
ATOM     22  C   UNL A   1      31.251  27.458  22.547  1.00  0.00     0.014 A 
ATOM     23  C   UNL A   1      33.658  27.435  22.226  1.00  0.00     0.014 A 
ATOM     24  C   UNL A   1      31.366  28.616  23.313  1.00  0.00     0.001 A 
ATOM     25  C   UNL A   1      33.770  28.587  23.002  1.00  0.00     0.001 A 
ATOM     26  C   UNL A   1      32.625  29.170  23.550  1.00  0.00     0.000 A 
ENDBRANCH  18  21
ENDBRANCH  15  17
BRANCH  16  27
ATOM     27  C   UNL A   1      35.367  23.506  23.909  1.00  0.00     0.012 A 
ATOM     28  C   UNL A   1      36.215  22.421  23.617  1.00  0.00     0.011 A 
ATOM     29  C   UNL A   1      35.478  24.118  25.155  1.00  0.00     0.130 A 
ATOM     30  C   UNL A   1      37.240  22.063  24.496  1.00  0.00     0.001 A 
ATOM     31  C   UNL A   1      36.489  23.755  26.043  1.00  0.00     0.040 A 
ATOM     32  F   UNL A   1      34.632  25.092  25.512  1.00  0.00    -0.206 F 
ATOM     33  C   UNL A   1      37.393  22.750  25.699  1.00  0.00     0.003 A 
ENDBRANCH  16  27
ENDBRANCH  12  15
ENDBRANCH   7  11
ENDBRANCH   4   7
ENDBRANCH   2   3
ENDBRANCH   1   2
BRANCH   1  34
ATOM     34  C   UNL A   1      31.659  29.585  26.999  1.00  0.00     0.002 C 
BRANCH  34  35
ATOM     35  C   UNL A   1      32.630  30.752  27.210  1.00  0.00     0.002 C 
BRANCH  35  36
ATOM     36  C   UNL A   1      31.962  32.125  27.273  1.00  0.00     0.021 C 
BRANCH  36  37
ATOM     37  C   UNL A   1      32.901  33.287  26.989  1.00  0.00     0.116 C 
BRANCH  37  38
ATOM     38  N   UNL A   1      32.570  34.468  27.761  1.00  0.00    -0.352 N 
ATOM     39  C   UNL A   1      33.117  34.878  28.950  1.00  0.00     0.251 C 
ATOM     40  H   UNL A   1      31.866  35.045  27.387  1.00  0.00     0.163 HD
ATOM     41  O   UNL A   1      32.643  35.820  29.568  1.00  0.00    -0.269 OA
BRANCH  39  42
ATOM     42  C   UNL A   1      34.279  34.142  29.488  1.00  0.00     0.039 A 
ATOM     43  C   UNL A   1      35.560  34.548  29.113  1.00  0.00     0.014 A 
ATOM     44  C   UNL A   1      34.102  33.071  30.371  1.00  0.00     0.014 A 
ATOM     45  C   UNL A   1      36.671  33.895  29.647  1.00  0.00     0.010 A 
ATOM     46  C   UNL A   1      35.209  32.473  30.960  1.00  0.00     0.010 A 
ATOM     47  C   UNL A   1      36.504  32.864  30.587  1.00  0.00    -0.014 A 
BRANCH  47  48
ATOM     48  C   UNL A   1      37.675  32.147  31.147  1.00  0.00     0.031 A 
ATOM     49  C   UNL A   1      38.155  32.478  32.533  1.00  0.00     0.074 A 
ATOM     50  C   UNL A   1      38.318  31.224  30.407  1.00  0.00     0.049 A 
ATOM     51  N   UNL A   1      39.186  32.005  33.187  1.00  0.00    -0.248 NA
ATOM     52  C   UNL A   1      37.391  33.494  33.277  1.00  0.00     0.031 C 
ATOM     53  C   UNL A   1      37.960  30.838  29.042  1.00  0.00     0.029 A 
ATOM     54  N   UNL A   1      39.405  30.440  30.701  1.00  0.00    -0.354 N 
ATOM     55  C   UNL A   1      39.194  32.668  34.407  1.00  0.00     0.074 A 
ATOM     56  C   UNL A   1      38.109  33.623  34.382  1.00  0.00     0.031 C 
ATOM     57  C   UNL A   1      38.789  29.865  28.630  1.00  0.00     0.029 A 
ATOM     58  C   UNL A   1      39.759  29.586  29.684  1.00  0.00     0.049 A 
ATOM     59  H   UNL A   1      39.886  30.486  31.558  1.00  0.00     0.167 HD
ATOM     60  C   UNL A   1      40.014  32.474  35.466  1.00  0.00     0.037 A 
ATOM     61  C   UNL A   1      40.755  28.681  29.615  1.00  0.00     0.037 A 
ATOM     62  C   UNL A   1      41.071  31.501  35.499  1.00  0.00     0.049 A 
ATOM     63  C   UNL A   1      41.664  28.499  30.800  1.00  0.00     0.074 A 
ATOM     64  C   UNL A   1      41.939  31.207  36.536  1.00  0.00     0.029 A 
ATOM     65  N   UNL A   1      41.398  30.655  34.448  1.00  0.00    -0.354 N 
ATOM     66  N   UNL A   1      41.642  29.108  31.961  1.00  0.00    -0.248 NA
ATOM     67  C   UNL A   1      42.734  27.500  30.670  1.00  0.00     0.031 C 
ATOM     68  C   UNL A   1      42.819  30.213  36.099  1.00  0.00     0.029 A 
ATOM     69  C   UNL A   1      42.463  29.847  34.811  1.00  0.00     0.049 A 
ATOM     70  H   UNL A   1      40.942  30.633  33.577  1.00  0.00     0.167 HD
ATOM     71  C   UNL A   1      42.666  28.544  32.710  1.00  0.00     0.074 A 
ATOM     72  C   UNL A   1      43.289  27.538  31.874  1.00  0.00     0.031 C 
ATOM     73  C   UNL A   1      43.055  28.833  33.975  1.00  0.00     0.037 A 
BRANCH  60  74
ATOM     74  C   UNL A   1      39.789  33.312  36.691  1.00  0.00     0.064 A 
ATOM     75  C   UNL A   1      38.866  32.912  37.670  1.00  0.00     0.173 A 
ATOM     76  C   UNL A   1      40.434  34.547  36.861  1.00  0.00     0.173 A 
ATOM     77  F   UNL A   1      38.221  31.742  37.554  1.00  0.00    -0.203 F 
ATOM     78  C   UNL A   1      38.586  33.727  38.764  1.00  0.00     0.198 A 
ATOM     79  C   UNL A   1      40.173  35.344  37.972  1.00  0.00     0.198 A 
ATOM     80  F   UNL A   1      41.335  34.967  35.960  1.00  0.00    -0.203 F 
ATOM     81  F   UNL A   1      37.673  33.341  39.667  1.00  0.00    -0.200 F 
ATOM     82  C   UNL A   1      39.241  34.939  38.915  1.00  0.00     0.200 A 
ATOM     83  F   UNL A   1      40.827  36.503  38.130  1.00  0.00    -0.200 F 
ATOM     84  F   UNL A   1      38.976  35.717  39.973  1.00  0.00    -0.200 F 
ENDBRANCH  60  74
BRANCH  61  85
ATOM     85  C   UNL A   1      40.911  27.847  28.395  1.00  0.00     0.064 A 
ATOM     86  C   UNL A   1      41.678  28.280  27.303  1.00  0.00     0.173 A 
ATOM     87  C   UNL A   1      40.279  26.600  28.294  1.00  0.00     0.173 A 
ATOM     88  F   UNL A   1      42.298  29.468  27.347  1.00  0.00    -0.203 F 
ATOM     89  C   UNL A   1      41.793  27.503  26.151  1.00  0.00     0.198 A 
ATOM     90  C   UNL A   1      40.418  25.812  27.153  1.00  0.00     0.198 A 
ATOM     91  F   UNL A   1      39.551  26.133  29.319  1.00  0.00    -0.203 F 
ATOM     92  F   UNL A   1      42.506  27.955  25.111  1.00  0.00    -0.200 F 
ATOM     93  C   UNL A   1      41.169  26.267  26.080  1.00  0.00     0.200 A 
ATOM     94  F   UNL A   1      39.835  24.606  27.099  1.00  0.00    -0.200 F 
ATOM     95  F   UNL A   1      41.295  25.513  24.979  1.00  0.00    -0.200 F 
ENDBRANCH  61  85
BRANCH  73  96
ATOM     96  C   UNL A   1      44.175  28.028  34.567  1.00  0.00     0.064 A 
ATOM     97  C   UNL A   1      45.505  28.447  34.405  1.00  0.00     0.173 A 
ATOM     98  C   UNL A   1      43.943  26.803  35.207  1.00  0.00     0.173 A 
ATOM     99  F   UNL A   1      45.779  29.607  33.790  1.00  0.00    -0.203 F 
ATOM    100  C   UNL A   1      46.562  27.657  34.846  1.00  0.00     0.198 A 
ATOM    101  C   UNL A   1      45.003  26.030  35.674  1.00  0.00     0.198 A 
ATOM    102  F   UNL A   1      42.688  26.365  35.393  1.00  0.00    -0.203 F 
ATOM    103  F   UNL A   1      47.825  28.057  34.643  1.00  0.00    -0.200 F 
ATOM    104  C   UNL A   1      46.310  26.452  35.483  1.00  0.00     0.200 A 
ATOM    105  F   UNL A   1      44.757  24.876  36.309  1.00  0.00    -0.200 F 
ATOM    106  F   UNL A   1      47.329  25.694  35.912  1.00  0.00    -0.200 F 
ENDBRANCH  73  96
ENDBRANCH  47  48
ENDBRANCH  39  42
ENDBRANCH  37  38
ENDBRANCH  36  37
ENDBRANCH  35  36
ENDBRANCH  34  35
ENDBRANCH   1  34
TORSDOF 19
ENDMDL
MODEL 2
REMARK VINA RESULT:     -11.7      0.598      7.019
REMARK SMILES CC(C)[C@@H](NC(=O)/C(=C\c1ccccc1F)NC(=O)c1ccccc1)C(=O)NCCCCCCNC(=O)c1ccc(-c2c3nc(c(-c4c(F)c(F)c(F)c(F)c4F)c4ccc([nH]4)c(-c4c(F)c(F)c(F)c(F)c4F)c4nc(c(-c5c(F)c(F)c(F)c(F)c5F)c5ccc2[nH]5)C=C4)C=C3)cc1
REMARK SMILES IDX 30 1 29 2 28 3 26 4 27 5 4 7 2 8 1 9 3 10 5 11 6 12 7 14
REMARK SMILES IDX 8 15 9 16 17 17 18 18 19 20 20 21 21 22 25 23 22 24 24 25
REMARK SMILES IDX 23 26 10 27 11 28 15 29 12 30 14 31 16 32 13 33 31 34 32 35
REMARK SMILES IDX 33 36 34 37 35 38 36 39 37 41 38 42 39 43 100 44 40 45 99 46
REMARK SMILES IDX 41 47 42 48 43 49 93 50 44 51 98 52 92 53 94 54 45 55 97 56
REMARK SMILES IDX 91 57 90 58 46 60 78 61 58 62 77 63 59 64 62 65 76 66 95 67
REMARK SMILES IDX 60 68 61 69 75 71 96 72 63 73 47 74 48 75 56 76 49 77 50 78
REMARK SMILES IDX 54 79 57 80 51 81 52 82 55 83 53 84 79 85 80 86 88 87 81 88
REMARK SMILES IDX 82 89 86 90 89 91 83 92 84 93 87 94 85 95 64 96 65 97 73 98
REMARK SMILES IDX 66 99 67 100 71 101 74 102 68 103 69 104 72 105 70 106
REMARK H PARENT 28 6 5 13 17 19 35 40 94 59 62 70
REMARK Flexibility Score: inf
ROOT
ATOM      1  C   UNL A   1      32.746  28.218  27.518  1.00  0.00     0.021 C 
ENDROOT
BRANCH   1   2
ATOM      2  C   UNL A   1      32.585  27.117  26.481  1.00  0.00     0.116 C 
BRANCH   2   3
ATOM      3  N   UNL A   1      31.194  26.742  26.460  1.00  0.00    -0.354 N 
ATOM      4  C   UNL A   1      30.650  25.730  25.741  1.00  0.00     0.242 C 
ATOM      5  O   UNL A   1      29.578  25.950  25.176  1.00  0.00    -0.273 OA
ATOM      6  H   UNL A   1      30.582  27.272  27.020  1.00  0.00     0.163 HD
BRANCH   4   7
ATOM      7  C   UNL A   1      31.437  24.447  25.484  1.00  0.00     0.174 C 
BRANCH   7   8
ATOM      8  C   UNL A   1      31.284  23.498  26.729  1.00  0.00     0.015 C 
ATOM      9  C   UNL A   1      30.254  22.392  26.480  1.00  0.00     0.010 C 
ATOM     10  C   UNL A   1      32.600  22.817  27.158  1.00  0.00     0.010 C 
ENDBRANCH   7   8
BRANCH   7  11
ATOM     11  N   UNL A   1      31.088  23.780  24.202  1.00  0.00    -0.339 N 
ATOM     12  C   UNL A   1      31.942  23.028  23.418  1.00  0.00     0.268 C 
ATOM     13  H   UNL A   1      30.164  23.885  23.883  1.00  0.00     0.164 HD
ATOM     14  O   UNL A   1      31.650  21.851  23.205  1.00  0.00    -0.268 OA
BRANCH  12  15
ATOM     15  C   UNL A   1      33.025  23.686  22.587  1.00  0.00     0.107 C 
ATOM     16  C   UNL A   1      34.340  23.695  22.909  1.00  0.00     0.043 C 
BRANCH  15  17
ATOM     17  N   UNL A   1      32.730  24.258  21.353  1.00  0.00    -0.317 N 
ATOM     18  C   UNL A   1      32.456  25.514  20.881  1.00  0.00     0.255 C 
ATOM     19  H   UNL A   1      32.711  23.585  20.635  1.00  0.00     0.170 HD
ATOM     20  O   UNL A   1      32.191  25.649  19.684  1.00  0.00    -0.269 OA
BRANCH  18  21
ATOM     21  C   UNL A   1      32.454  26.714  21.716  1.00  0.00     0.040 A 
ATOM     22  C   UNL A   1      33.679  27.302  22.042  1.00  0.00     0.014 A 
ATOM     23  C   UNL A   1      31.267  27.167  22.294  1.00  0.00     0.014 A 
ATOM     24  C   UNL A   1      33.705  28.402  22.896  1.00  0.00     0.001 A 
ATOM     25  C   UNL A   1      31.297  28.274  23.140  1.00  0.00     0.001 A 
ATOM     26  C   UNL A   1      32.514  28.894  23.433  1.00  0.00     0.000 A 
ENDBRANCH  18  21
ENDBRANCH  15  17
BRANCH  16  27
ATOM     27  C   UNL A   1      35.064  23.252  24.105  1.00  0.00     0.012 A 
ATOM     28  C   UNL A   1      35.421  21.892  24.168  1.00  0.00     0.011 A 
ATOM     29  C   UNL A   1      35.452  24.088  25.150  1.00  0.00     0.130 A 
ATOM     30  C   UNL A   1      36.268  21.424  25.175  1.00  0.00     0.001 A 
ATOM     31  C   UNL A   1      36.284  23.624  26.166  1.00  0.00     0.040 A 
ATOM     32  F   UNL A   1      35.057  25.367  25.180  1.00  0.00    -0.206 F 
ATOM     33  C   UNL A   1      36.722  22.299  26.160  1.00  0.00     0.003 A 
ENDBRANCH  16  27
ENDBRANCH  12  15
ENDBRANCH   7  11
ENDBRANCH   4   7
ENDBRANCH   2   3
ENDBRANCH   1   2
BRANCH   1  34
ATOM     34  C   UNL A   1      32.154  29.549  27.040  1.00  0.00     0.002 C 
BRANCH  34  35
ATOM     35  C   UNL A   1      33.010  30.775  27.375  1.00  0.00     0.002 C 
BRANCH  35  36
ATOM     36  C   UNL A   1      32.244  32.098  27.376  1.00  0.00     0.021 C 
BRANCH  36  37
ATOM     37  C   UNL A   1      33.099  33.312  27.046  1.00  0.00     0.116 C 
BRANCH  37  38
ATOM     38  N   UNL A   1      32.677  34.498  27.765  1.00  0.00    -0.352 N 
ATOM     39  C   UNL A   1      33.119  34.946  28.984  1.00  0.00     0.251 C 
ATOM     40  H   UNL A   1      31.989  35.048  27.326  1.00  0.00     0.163 HD
ATOM     41  O   UNL A   1      32.573  35.885  29.543  1.00  0.00    -0.269 OA
BRANCH  39  42
ATOM     42  C   UNL A   1      34.254  34.252  29.627  1.00  0.00     0.039 A 
ATOM     43  C   UNL A   1      35.550  34.584  29.231  1.00  0.00     0.014 A 
ATOM     44  C   UNL A   1      34.038  33.295  30.625  1.00  0.00     0.014 A 
ATOM     45  C   UNL A   1      36.636  33.974  29.859  1.00  0.00     0.010 A 
ATOM     46  C   UNL A   1      35.120  32.746  31.300  1.00  0.00     0.010 A 
ATOM     47  C   UNL A   1      36.430  33.063  30.909  1.00  0.00    -0.014 A 
BRANCH  47  48
ATOM     48  C   UNL A   1      37.575  32.391  31.571  1.00  0.00     0.031 A 
ATOM     49  C   UNL A   1      38.298  31.282  30.857  1.00  0.00     0.074 A 
ATOM     50  C   UNL A   1      37.945  32.757  32.812  1.00  0.00     0.049 A 
ATOM     51  N   UNL A   1      39.287  30.535  31.278  1.00  0.00    -0.248 NA
ATOM     52  C   UNL A   1      37.833  30.949  29.500  1.00  0.00     0.031 C 
ATOM     53  C   UNL A   1      37.303  33.801  33.612  1.00  0.00     0.029 A 
ATOM     54  N   UNL A   1      38.954  32.295  33.617  1.00  0.00    -0.354 N 
ATOM     55  C   UNL A   1      39.555  29.648  30.244  1.00  0.00     0.074 A 
ATOM     56  C   UNL A   1      38.585  29.901  29.202  1.00  0.00     0.031 C 
ATOM     57  C   UNL A   1      37.957  33.924  34.778  1.00  0.00     0.029 A 
ATOM     58  C   UNL A   1      39.037  32.945  34.825  1.00  0.00     0.049 A 
ATOM     59  H   UNL A   1      39.562  31.566  33.355  1.00  0.00     0.167 HD
ATOM     60  C   UNL A   1      40.541  28.726  30.158  1.00  0.00     0.037 A 
ATOM     61  C   UNL A   1      39.891  32.767  35.852  1.00  0.00     0.037 A 
ATOM     62  C   UNL A   1      41.524  28.500  31.184  1.00  0.00     0.049 A 
ATOM     63  C   UNL A   1      40.968  31.722  35.739  1.00  0.00     0.074 A 
ATOM     64  C   UNL A   1      42.583  27.609  31.180  1.00  0.00     0.029 A 
ATOM     65  N   UNL A   1      41.573  29.179  32.393  1.00  0.00    -0.354 N 
ATOM     66  N   UNL A   1      41.232  30.911  34.743  1.00  0.00    -0.248 NA
ATOM     67  C   UNL A   1      41.871  31.570  36.889  1.00  0.00     0.031 C 
ATOM     68  C   UNL A   1      43.247  27.719  32.404  1.00  0.00     0.029 A 
ATOM     69  C   UNL A   1      42.639  28.717  33.147  1.00  0.00     0.049 A 
ATOM     70  H   UNL A   1      40.944  29.882  32.673  1.00  0.00     0.167 HD
ATOM     71  C   UNL A   1      42.348  30.180  35.129  1.00  0.00     0.074 A 
ATOM     72  C   UNL A   1      42.716  30.647  36.450  1.00  0.00     0.031 C 
ATOM     73  C   UNL A   1      43.007  29.211  34.449  1.00  0.00     0.037 A 
BRANCH  60  74
ATOM     74  C   UNL A   1      40.629  27.906  28.905  1.00  0.00     0.064 A 
ATOM     75  C   UNL A   1      41.426  28.328  27.830  1.00  0.00     0.173 A 
ATOM     76  C   UNL A   1      39.868  26.739  28.740  1.00  0.00     0.173 A 
ATOM     77  F   UNL A   1      42.171  29.439  27.934  1.00  0.00    -0.203 F 
ATOM     78  C   UNL A   1      41.443  27.621  26.630  1.00  0.00     0.198 A 
ATOM     79  C   UNL A   1      39.912  26.018  27.550  1.00  0.00     0.198 A 
ATOM     80  F   UNL A   1      39.102  26.285  29.744  1.00  0.00    -0.203 F 
ATOM     81  F   UNL A   1      42.182  28.064  25.604  1.00  0.00    -0.200 F 
ATOM     82  C   UNL A   1      40.689  26.465  26.493  1.00  0.00     0.200 A 
ATOM     83  F   UNL A   1      39.203  24.886  27.429  1.00  0.00    -0.200 F 
ATOM     84  F   UNL A   1      40.714  25.781  25.341  1.00  0.00    -0.200 F 
ENDBRANCH  60  74
BRANCH  61  85
ATOM     85  C   UNL A   1      39.789  33.633  37.056  1.00  0.00     0.064 A 
ATOM     86  C   UNL A   1      38.984  33.278  38.149  1.00  0.00     0.173 A 
ATOM     87  C   UNL A   1      40.487  34.847  37.128  1.00  0.00     0.173 A 
ATOM     88  F   UNL A   1      38.292  32.130  38.128  1.00  0.00    -0.203 F 
ATOM     89  C   UNL A   1      38.871  34.111  39.260  1.00  0.00     0.198 A 
ATOM     90  C   UNL A   1      40.395  35.665  38.251  1.00  0.00     0.198 A 
ATOM     91  F   UNL A   1      41.285  35.221  36.116  1.00  0.00    -0.203 F 
ATOM     92  F   UNL A   1      38.072  33.762  40.277  1.00  0.00    -0.200 F 
ATOM     93  C   UNL A   1      39.582  35.301  39.313  1.00  0.00     0.200 A 
ATOM     94  F   UNL A   1      41.104  36.801  38.310  1.00  0.00    -0.200 F 
ATOM     95  F   UNL A   1      39.486  36.093  40.390  1.00  0.00    -0.200 F 
ENDBRANCH  61  85
BRANCH  73  96
ATOM     96  C   UNL A   1      44.226  28.611  35.088  1.00  0.00     0.064 A 
ATOM     97  C   UNL A   1      45.499  29.125  34.797  1.00  0.00     0.173 A 
ATOM     98  C   UNL A   1      44.145  27.477  35.909  1.00  0.00     0.173 A 
ATOM     99  F   UNL A   1      45.629  30.202  34.008  1.00  0.00    -0.203 F 
ATOM    100  C   UNL A   1      46.647  28.513  35.288  1.00  0.00     0.198 A 
ATOM    101  C   UNL A   1      45.295  26.886  36.423  1.00  0.00     0.198 A 
ATOM    102  F   UNL A   1      42.949  26.955  36.224  1.00  0.00    -0.203 F 
ATOM    103  F   UNL A   1      47.855  28.995  34.962  1.00  0.00    -0.200 F 
ATOM    104  C   UNL A   1      46.544  27.396  36.103  1.00  0.00     0.200 A 
ATOM    105  F   UNL A   1      45.193  25.820  37.229  1.00  0.00    -0.200 F 
ATOM    106  F   UNL A   1      47.652  26.810  36.581  1.00  0.00    -0.200 F 
ENDBRANCH  73  96
ENDBRANCH  47  48
ENDBRANCH  39  42
ENDBRANCH  37  38
ENDBRANCH  36  37
ENDBRANCH  35  36
ENDBRANCH  34  35
ENDBRANCH   1  34
TORSDOF 19
ENDMDL
MODEL 3
REMARK VINA RESULT:     -11.2      1.713      3.374
REMARK SMILES CC(C)[C@@H](NC(=O)/C(=C\c1ccccc1F)NC(=O)c1ccccc1)C(=O)NCCCCCCNC(=O)c1ccc(-c2c3nc(c(-c4c(F)c(F)c(F)c(F)c4F)c4ccc([nH]4)c(-c4c(F)c(F)c(F)c(F)c4F)c4nc(c(-c5c(F)c(F)c(F)c(F)c5F)c5ccc2[nH]5)C=C4)C=C3)cc1
REMARK SMILES IDX 30 1 29 2 28 3 26 4 27 5 4 7 2 8 1 9 3 10 5 11 6 12 7 14
REMARK SMILES IDX 8 15 9 16 17 17 18 18 19 20 20 21 21 22 25 23 22 24 24 25
REMARK SMILES IDX 23 26 10 27 11 28 15 29 12 30 14 31 16 32 13 33 31 34 32 35
REMARK SMILES IDX 33 36 34 37 35 38 36 39 37 41 38 42 39 43 100 44 40 45 99 46
REMARK SMILES IDX 41 47 42 48 43 49 93 50 44 51 98 52 92 53 94 54 45 55 97 56
REMARK SMILES IDX 91 57 90 58 46 60 78 61 58 62 77 63 59 64 62 65 76 66 95 67
REMARK SMILES IDX 60 68 61 69 75 71 96 72 63 73 47 74 48 75 56 76 49 77 50 78
REMARK SMILES IDX 54 79 57 80 51 81 52 82 55 83 53 84 79 85 80 86 88 87 81 88
REMARK SMILES IDX 82 89 86 90 89 91 83 92 84 93 87 94 85 95 64 96 65 97 73 98
REMARK SMILES IDX 66 99 67 100 71 101 74 102 68 103 69 104 72 105 70 106
REMARK H PARENT 28 6 5 13 17 19 35 40 94 59 62 70
REMARK Flexibility Score: inf
ROOT
ATOM      1  C   UNL A   1      33.109  28.871  26.761  1.00  0.00     0.021 C 
ENDROOT
BRANCH   1   2
ATOM      2  C   UNL A   1      32.868  27.537  26.071  1.00  0.00     0.116 C 
BRANCH   2   3
ATOM      3  N   UNL A   1      32.992  27.755  24.653  1.00  0.00    -0.354 N 
ATOM      4  C   UNL A   1      33.527  26.892  23.755  1.00  0.00     0.242 C 
ATOM      5  O   UNL A   1      34.269  27.361  22.891  1.00  0.00    -0.273 OA
ATOM      6  H   UNL A   1      32.658  28.612  24.303  1.00  0.00     0.163 HD
BRANCH   4   7
ATOM      7  C   UNL A   1      33.373  25.383  23.939  1.00  0.00     0.174 C 
BRANCH   7   8
ATOM      8  C   UNL A   1      32.440  24.825  22.803  1.00  0.00     0.015 C 
ATOM      9  C   UNL A   1      31.062  24.427  23.341  1.00  0.00     0.010 C 
ATOM     10  C   UNL A   1      32.215  25.812  21.640  1.00  0.00     0.010 C 
ENDBRANCH   7   8
BRANCH   7  11
ATOM     11  N   UNL A   1      34.668  24.659  24.032  1.00  0.00    -0.339 N 
ATOM     12  C   UNL A   1      34.869  23.315  23.781  1.00  0.00     0.268 C 
ATOM     13  H   UNL A   1      35.455  25.187  24.297  1.00  0.00     0.164 HD
ATOM     14  O   UNL A   1      35.653  23.001  22.886  1.00  0.00    -0.268 OA
BRANCH  12  15
ATOM     15  C   UNL A   1      34.398  22.258  24.761  1.00  0.00     0.107 C 
ATOM     16  C   UNL A   1      35.218  21.428  25.447  1.00  0.00     0.043 C 
BRANCH  15  17
ATOM     17  N   UNL A   1      33.052  22.143  25.092  1.00  0.00    -0.317 N 
ATOM     18  C   UNL A   1      32.087  21.173  25.007  1.00  0.00     0.255 C 
ATOM     19  H   UNL A   1      32.701  22.972  25.491  1.00  0.00     0.170 HD
ATOM     20  O   UNL A   1      30.943  21.445  25.379  1.00  0.00    -0.269 OA
BRANCH  18  21
ATOM     21  C   UNL A   1      32.332  19.826  24.495  1.00  0.00     0.040 A 
ATOM     22  C   UNL A   1      32.822  18.856  25.374  1.00  0.00     0.014 A 
ATOM     23  C   UNL A   1      32.223  19.562  23.129  1.00  0.00     0.014 A 
ATOM     24  C   UNL A   1      33.131  17.587  24.890  1.00  0.00     0.001 A 
ATOM     25  C   UNL A   1      32.524  18.288  22.651  1.00  0.00     0.001 A 
ATOM     26  C   UNL A   1      32.970  17.301  23.533  1.00  0.00     0.000 A 
ENDBRANCH  18  21
ENDBRANCH  15  17
BRANCH  16  27
ATOM     27  C   UNL A   1      36.664  21.193  25.375  1.00  0.00     0.012 A 
ATOM     28  C   UNL A   1      37.504  22.257  25.755  1.00  0.00     0.011 A 
ATOM     29  C   UNL A   1      37.252  19.986  25.001  1.00  0.00     0.130 A 
ATOM     30  C   UNL A   1      38.880  22.062  25.897  1.00  0.00     0.001 A 
ATOM     31  C   UNL A   1      38.626  19.791  25.125  1.00  0.00     0.040 A 
ATOM     32  F   UNL A   1      36.500  18.977  24.544  1.00  0.00    -0.206 F 
ATOM     33  C   UNL A   1      39.437  20.818  25.607  1.00  0.00     0.003 A 
ENDBRANCH  16  27
ENDBRANCH  12  15
ENDBRANCH   7  11
ENDBRANCH   4   7
ENDBRANCH   2   3
ENDBRANCH   1   2
BRANCH   1  34
ATOM     34  C   UNL A   1      32.587  30.050  25.933  1.00  0.00     0.002 C 
BRANCH  34  35
ATOM     35  C   UNL A   1      31.361  30.747  26.532  1.00  0.00     0.002 C 
BRANCH  35  36
ATOM     36  C   UNL A   1      31.424  32.274  26.499  1.00  0.00     0.021 C 
BRANCH  36  37
ATOM     37  C   UNL A   1      32.665  32.858  27.157  1.00  0.00     0.116 C 
BRANCH  37  38
ATOM     38  N   UNL A   1      32.439  34.193  27.674  1.00  0.00    -0.352 N 
ATOM     39  C   UNL A   1      33.088  34.817  28.709  1.00  0.00     0.251 C 
ATOM     40  H   UNL A   1      31.733  34.716  27.229  1.00  0.00     0.163 HD
ATOM     41  O   UNL A   1      32.699  35.894  29.137  1.00  0.00    -0.269 OA
BRANCH  39  42
ATOM     42  C   UNL A   1      34.255  34.149  29.320  1.00  0.00     0.039 A 
ATOM     43  C   UNL A   1      34.043  33.283  30.394  1.00  0.00     0.014 A 
ATOM     44  C   UNL A   1      35.545  34.362  28.823  1.00  0.00     0.014 A 
ATOM     45  C   UNL A   1      35.127  32.607  30.954  1.00  0.00     0.010 A 
ATOM     46  C   UNL A   1      36.611  33.631  29.332  1.00  0.00     0.010 A 
ATOM     47  C   UNL A   1      36.416  32.763  30.417  1.00  0.00    -0.014 A 
BRANCH  47  48
ATOM     48  C   UNL A   1      37.580  32.066  31.015  1.00  0.00     0.031 A 
ATOM     49  C   UNL A   1      38.016  32.415  32.412  1.00  0.00     0.074 A 
ATOM     50  C   UNL A   1      38.256  31.147  30.301  1.00  0.00     0.049 A 
ATOM     51  N   UNL A   1      39.034  31.961  33.098  1.00  0.00    -0.248 NA
ATOM     52  C   UNL A   1      37.217  33.425  33.126  1.00  0.00     0.031 C 
ATOM     53  C   UNL A   1      37.943  30.746  28.929  1.00  0.00     0.029 A 
ATOM     54  N   UNL A   1      39.345  30.381  30.631  1.00  0.00    -0.354 N 
ATOM     55  C   UNL A   1      38.999  32.632  34.313  1.00  0.00     0.074 A 
ATOM     56  C   UNL A   1      37.901  33.572  34.250  1.00  0.00     0.031 C 
ATOM     57  C   UNL A   1      38.796  29.781  28.549  1.00  0.00     0.029 A 
ATOM     58  C   UNL A   1      39.739  29.524  29.632  1.00  0.00     0.049 A 
ATOM     59  H   UNL A   1      39.801  30.439  31.502  1.00  0.00     0.167 HD
ATOM     60  C   UNL A   1      39.790  32.458  35.396  1.00  0.00     0.037 A 
ATOM     61  C   UNL A   1      40.749  28.633  29.598  1.00  0.00     0.037 A 
ATOM     62  C   UNL A   1      40.860  31.499  35.466  1.00  0.00     0.049 A 
ATOM     63  C   UNL A   1      41.627  28.472  30.810  1.00  0.00     0.074 A 
ATOM     64  C   UNL A   1      41.702  31.225  36.530  1.00  0.00     0.029 A 
ATOM     65  N   UNL A   1      41.228  30.651  34.432  1.00  0.00    -0.354 N 
ATOM     66  N   UNL A   1      41.564  29.089  31.965  1.00  0.00    -0.248 NA
ATOM     67  C   UNL A   1      42.714  27.486  30.718  1.00  0.00     0.031 C 
ATOM     68  C   UNL A   1      42.607  30.241  36.125  1.00  0.00     0.029 A 
ATOM     69  C   UNL A   1      42.293  29.860  34.831  1.00  0.00     0.049 A 
ATOM     70  H   UNL A   1      40.797  30.616  33.548  1.00  0.00     0.167 HD
ATOM     71  C   UNL A   1      42.574  28.544  32.747  1.00  0.00     0.074 A 
ATOM     72  C   UNL A   1      43.233  27.541  31.936  1.00  0.00     0.031 C 
ATOM     73  C   UNL A   1      42.922  28.849  34.020  1.00  0.00     0.037 A 
BRANCH  60  74
ATOM     74  C   UNL A   1      39.519  33.301  36.607  1.00  0.00     0.064 A 
ATOM     75  C   UNL A   1      38.601  32.879  37.581  1.00  0.00     0.173 A 
ATOM     76  C   UNL A   1      40.115  34.562  36.769  1.00  0.00     0.173 A 
ATOM     77  F   UNL A   1      38.002  31.684  37.472  1.00  0.00    -0.203 F 
ATOM     78  C   UNL A   1      38.276  33.696  38.661  1.00  0.00     0.198 A 
ATOM     79  C   UNL A   1      39.811  35.362  37.867  1.00  0.00     0.198 A 
ATOM     80  F   UNL A   1      41.011  35.005  35.874  1.00  0.00    -0.203 F 
ATOM     81  F   UNL A   1      37.369  33.287  39.558  1.00  0.00    -0.200 F 
ATOM     82  C   UNL A   1      38.884  34.934  38.804  1.00  0.00     0.200 A 
ATOM     83  F   UNL A   1      40.420  36.547  38.018  1.00  0.00    -0.200 F 
ATOM     84  F   UNL A   1      38.577  35.714  39.849  1.00  0.00    -0.200 F 
ENDBRANCH  60  74
BRANCH  61  85
ATOM     85  C   UNL A   1      40.951  27.791  28.390  1.00  0.00     0.064 A 
ATOM     86  C   UNL A   1      41.837  28.171  27.370  1.00  0.00     0.173 A 
ATOM     87  C   UNL A   1      40.245  26.591  28.225  1.00  0.00     0.173 A 
ATOM     88  F   UNL A   1      42.532  29.313  27.477  1.00  0.00    -0.203 F 
ATOM     89  C   UNL A   1      41.997  27.391  26.227  1.00  0.00     0.198 A 
ATOM     90  C   UNL A   1      40.427  25.798  27.094  1.00  0.00     0.198 A 
ATOM     91  F   UNL A   1      39.401  26.175  29.181  1.00  0.00    -0.203 F 
ATOM     92  F   UNL A   1      42.826  27.793  25.255  1.00  0.00    -0.200 F 
ATOM     93  C   UNL A   1      41.296  26.201  26.093  1.00  0.00     0.200 A 
ATOM     94  F   UNL A   1      39.769  24.636  26.981  1.00  0.00    -0.200 F 
ATOM     95  F   UNL A   1      41.464  25.442  25.002  1.00  0.00    -0.200 F 
ENDBRANCH  61  85
BRANCH  73  96
ATOM     96  C   UNL A   1      44.036  28.064  34.649  1.00  0.00     0.064 A 
ATOM     97  C   UNL A   1      43.757  26.873  35.338  1.00  0.00     0.173 A 
ATOM     98  C   UNL A   1      45.356  28.534  34.654  1.00  0.00     0.173 A 
ATOM     99  F   UNL A   1      42.507  26.388  35.371  1.00  0.00    -0.203 F 
ATOM    100  C   UNL A   1      44.758  26.192  36.023  1.00  0.00     0.198 A 
ATOM    101  C   UNL A   1      46.361  27.833  35.316  1.00  0.00     0.198 A 
ATOM    102  F   UNL A   1      45.674  29.663  34.002  1.00  0.00    -0.203 F 
ATOM    103  F   UNL A   1      44.461  25.079  36.710  1.00  0.00    -0.200 F 
ATOM    104  C   UNL A   1      46.059  26.671  36.009  1.00  0.00     0.200 A 
ATOM    105  F   UNL A   1      47.622  28.285  35.283  1.00  0.00    -0.200 F 
ATOM    106  F   UNL A   1      47.024  26.011  36.666  1.00  0.00    -0.200 F 
ENDBRANCH  73  96
ENDBRANCH  47  48
ENDBRANCH  39  42
ENDBRANCH  37  38
ENDBRANCH  36  37
ENDBRANCH  35  36
ENDBRANCH  34  35
ENDBRANCH   1  34
TORSDOF 19
ENDMDL
