MODEL 1
REMARK VINA RESULT:     -11.3      0.000      0.000
REMARK SMILES C[C@H](Cc1ccc(N)cc1)C(=O)NCCCCCCNC(=O)c1ccc(-c2c3nc(c(-c4c(F)c(F)c(F)c(F)c4F)c4ccc([nH]4)c(-c4c(F)c(F)c(F)c(F)c4F)c4nc(c(-c5c(F)c(F)c(F)c(F)c5F)c5ccc2[nH]5)C=C4)C=C3)cc1
REMARK SMILES IDX 16 1 15 2 14 3 13 4 11 5 12 6 2 8 1 9 3 10 4 11 5 12 10 13
REMARK SMILES IDX 6 14 9 15 7 16 8 17 17 20 18 21 19 22 20 23 21 24 22 26
REMARK SMILES IDX 23 27 24 28 85 29 25 30 84 31 26 32 27 33 28 34 78 35 29 36
REMARK SMILES IDX 83 37 77 38 79 39 30 40 82 41 76 42 75 43 31 45 63 46 43 47
REMARK SMILES IDX 62 48 44 49 47 50 61 51 80 52 45 53 46 54 60 56 81 57 48 58
REMARK SMILES IDX 32 59 33 60 41 61 34 62 35 63 39 64 42 65 36 66 37 67 40 68
REMARK SMILES IDX 38 69 64 70 65 71 73 72 66 73 67 74 71 75 74 76 68 77 69 78
REMARK SMILES IDX 72 79 70 80 49 81 50 82 58 83 51 84 52 85 56 86 59 87 53 88
REMARK SMILES IDX 54 89 57 90 55 91
REMARK H PARENT 13 7 8 18 8 19 20 25 79 44 47 55
REMARK Flexibility Score: inf
ROOT
ATOM      1  C   UNL A   1      32.464  29.880  26.290  1.00  0.00     0.002 C 
ENDROOT
BRANCH   1   2
ATOM      2  C   UNL A   1      33.243  29.094  25.231  1.00  0.00     0.021 C 
BRANCH   2   3
ATOM      3  C   UNL A   1      33.617  27.675  25.657  1.00  0.00     0.116 C 
BRANCH   3   4
ATOM      4  N   UNL A   1      33.286  26.717  24.626  1.00  0.00    -0.356 N 
ATOM      5  C   UNL A   1      32.084  26.204  24.250  1.00  0.00     0.223 C 
ATOM      6  O   UNL A   1      32.087  25.326  23.383  1.00  0.00    -0.275 OA
ATOM      7  H   UNL A   1      34.056  26.381  24.113  1.00  0.00     0.163 HD
BRANCH   5   8
ATOM      8  C   UNL A   1      30.764  26.703  24.838  1.00  0.00     0.079 C 
ATOM      9  C   UNL A   1      30.479  26.013  26.175  1.00  0.00     0.018 C 
BRANCH   8  10
ATOM     10  C   UNL A   1      29.629  26.776  23.787  1.00  0.00     0.048 C 
BRANCH  10  11
ATOM     11  C   UNL A   1      29.380  28.119  23.139  1.00  0.00    -0.047 A 
ATOM     12  C   UNL A   1      30.432  28.849  22.575  1.00  0.00     0.006 A 
ATOM     13  C   UNL A   1      28.090  28.654  23.065  1.00  0.00     0.006 A 
ATOM     14  C   UNL A   1      30.185  30.018  21.851  1.00  0.00     0.026 A 
ATOM     15  C   UNL A   1      27.850  29.834  22.354  1.00  0.00     0.026 A 
ATOM     16  C   UNL A   1      28.886  30.495  21.693  1.00  0.00     0.031 A 
BRANCH  16  17
ATOM     17  N   UNL A   1      28.648  31.671  21.001  1.00  0.00    -0.399 N 
ATOM     18  H   UNL A   1      28.247  32.442  21.464  1.00  0.00     0.156 HD
ATOM     19  H   UNL A   1      28.879  31.736  20.046  1.00  0.00     0.156 HD
ENDBRANCH  16  17
ENDBRANCH  10  11
ENDBRANCH   8  10
ENDBRANCH   5   8
ENDBRANCH   3   4
ENDBRANCH   2   3
ENDBRANCH   1   2
BRANCH   1  20
ATOM     20  C   UNL A   1      31.399  30.831  25.731  1.00  0.00     0.002 C 
BRANCH  20  21
ATOM     21  C   UNL A   1      31.184  32.121  26.529  1.00  0.00     0.021 C 
BRANCH  21  22
ATOM     22  C   UNL A   1      32.440  32.687  27.186  1.00  0.00     0.116 C 
BRANCH  22  23
ATOM     23  N   UNL A   1      32.297  34.095  27.517  1.00  0.00    -0.352 N 
ATOM     24  C   UNL A   1      32.945  34.842  28.465  1.00  0.00     0.251 C 
ATOM     25  H   UNL A   1      31.635  34.587  26.979  1.00  0.00     0.163 HD
ATOM     26  O   UNL A   1      32.545  35.973  28.739  1.00  0.00    -0.269 OA
BRANCH  24  27
ATOM     27  C   UNL A   1      34.121  34.293  29.173  1.00  0.00     0.039 A 
ATOM     28  C   UNL A   1      33.919  33.556  30.342  1.00  0.00     0.014 A 
ATOM     29  C   UNL A   1      35.417  34.528  28.705  1.00  0.00     0.014 A 
ATOM     30  C   UNL A   1      35.014  33.007  31.013  1.00  0.00     0.010 A 
ATOM     31  C   UNL A   1      36.502  33.923  29.336  1.00  0.00     0.010 A 
ATOM     32  C   UNL A   1      36.312  33.161  30.498  1.00  0.00    -0.014 A 
BRANCH  32  33
ATOM     33  C   UNL A   1      37.478  32.525  31.160  1.00  0.00     0.031 A 
ATOM     34  C   UNL A   1      38.212  31.400  30.488  1.00  0.00     0.074 A 
ATOM     35  C   UNL A   1      37.833  32.917  32.398  1.00  0.00     0.049 A 
ATOM     36  N   UNL A   1      39.212  30.679  30.933  1.00  0.00    -0.248 NA
ATOM     37  C   UNL A   1      37.742  31.013  29.150  1.00  0.00     0.031 C 
ATOM     38  C   UNL A   1      37.166  33.962  33.174  1.00  0.00     0.029 A 
ATOM     39  N   UNL A   1      38.833  32.473  33.226  1.00  0.00    -0.354 N 
ATOM     40  C   UNL A   1      39.480  29.750  29.937  1.00  0.00     0.074 A 
ATOM     41  C   UNL A   1      38.503  29.960  28.890  1.00  0.00     0.031 C 
ATOM     42  C   UNL A   1      37.784  34.090  34.359  1.00  0.00     0.029 A 
ATOM     43  C   UNL A   1      38.867  33.115  34.439  1.00  0.00     0.049 A 
ATOM     44  H   UNL A   1      39.466  31.762  32.974  1.00  0.00     0.167 HD
ATOM     45  C   UNL A   1      40.464  28.821  29.890  1.00  0.00     0.037 A 
ATOM     46  C   UNL A   1      39.675  32.931  35.501  1.00  0.00     0.037 A 
ATOM     47  C   UNL A   1      41.444  28.626  30.929  1.00  0.00     0.049 A 
ATOM     48  C   UNL A   1      40.761  31.894  35.428  1.00  0.00     0.074 A 
ATOM     49  C   UNL A   1      42.521  27.757  30.949  1.00  0.00     0.029 A 
ATOM     50  N   UNL A   1      41.459  29.309  32.137  1.00  0.00    -0.354 N 
ATOM     51  N   UNL A   1      41.053  31.070  34.451  1.00  0.00    -0.248 NA
ATOM     52  C   UNL A   1      41.634  31.767  36.602  1.00  0.00     0.031 C 
ATOM     53  C   UNL A   1      43.158  27.879  32.189  1.00  0.00     0.029 A 
ATOM     54  C   UNL A   1      42.511  28.861  32.922  1.00  0.00     0.049 A 
ATOM     55  H   UNL A   1      40.817  30.008  32.399  1.00  0.00     0.167 HD
ATOM     56  C   UNL A   1      42.154  30.341  34.881  1.00  0.00     0.074 A 
ATOM     57  C   UNL A   1      42.487  30.834  36.202  1.00  0.00     0.031 C 
ATOM     58  C   UNL A   1      42.826  29.356  34.238  1.00  0.00     0.037 A 
BRANCH  45  59
ATOM     59  C   UNL A   1      40.524  27.939  28.675  1.00  0.00     0.064 A 
ATOM     60  C   UNL A   1      39.843  26.713  28.620  1.00  0.00     0.173 A 
ATOM     61  C   UNL A   1      41.262  28.329  27.547  1.00  0.00     0.173 A 
ATOM     62  F   UNL A   1      39.132  26.288  29.674  1.00  0.00    -0.203 F 
ATOM     63  C   UNL A   1      39.934  25.891  27.499  1.00  0.00     0.198 A 
ATOM     64  C   UNL A   1      41.323  27.520  26.415  1.00  0.00     0.198 A 
ATOM     65  F   UNL A   1      41.926  29.495  27.542  1.00  0.00    -0.203 F 
ATOM     66  F   UNL A   1      39.327  24.697  27.495  1.00  0.00    -0.200 F 
ATOM     67  C   UNL A   1      40.669  26.298  26.395  1.00  0.00     0.200 A 
ATOM     68  F   UNL A   1      42.023  27.921  25.344  1.00  0.00    -0.200 F 
ATOM     69  F   UNL A   1      40.756  25.506  25.318  1.00  0.00    -0.200 F 
ENDBRANCH  45  59
BRANCH  46  70
ATOM     70  C   UNL A   1      39.495  33.773  36.711  1.00  0.00     0.064 A 
ATOM     71  C   UNL A   1      38.763  33.306  37.811  1.00  0.00     0.173 A 
ATOM     72  C   UNL A   1      40.073  35.048  36.804  1.00  0.00     0.173 A 
ATOM     73  F   UNL A   1      38.176  32.100  37.760  1.00  0.00    -0.203 F 
ATOM     74  C   UNL A   1      38.610  34.083  38.955  1.00  0.00     0.198 A 
ATOM     75  C   UNL A   1      39.941  35.814  37.959  1.00  0.00     0.198 A 
ATOM     76  F   UNL A   1      40.789  35.537  35.781  1.00  0.00    -0.203 F 
ATOM     77  F   UNL A   1      37.879  33.626  39.981  1.00  0.00    -0.200 F 
ATOM     78  C   UNL A   1      39.205  35.334  39.032  1.00  0.00     0.200 A 
ATOM     79  F   UNL A   1      40.531  37.015  38.036  1.00  0.00    -0.200 F 
ATOM     80  F   UNL A   1      39.068  36.077  40.138  1.00  0.00    -0.200 F 
ENDBRANCH  46  70
BRANCH  58  81
ATOM     81  C   UNL A   1      44.005  28.755  34.948  1.00  0.00     0.064 A 
ATOM     82  C   UNL A   1      45.292  29.300  34.828  1.00  0.00     0.173 A 
ATOM     83  C   UNL A   1      43.839  27.642  35.788  1.00  0.00     0.173 A 
ATOM     84  F   UNL A   1      45.507  30.352  34.025  1.00  0.00    -0.203 F 
ATOM     85  C   UNL A   1      46.373  28.739  35.503  1.00  0.00     0.198 A 
ATOM     86  C   UNL A   1      44.916  27.103  36.485  1.00  0.00     0.198 A 
ATOM     87  F   UNL A   1      42.627  27.087  35.941  1.00  0.00    -0.203 F 
ATOM     88  F   UNL A   1      47.602  29.247  35.337  1.00  0.00    -0.200 F 
ATOM     89  C   UNL A   1      46.183  27.647  36.337  1.00  0.00     0.200 A 
ATOM     90  F   UNL A   1      44.728  26.056  37.300  1.00  0.00    -0.200 F 
ATOM     91  F   UNL A   1      47.223  27.113  36.993  1.00  0.00    -0.200 F 
ENDBRANCH  58  81
ENDBRANCH  32  33
ENDBRANCH  24  27
ENDBRANCH  22  23
ENDBRANCH  21  22
ENDBRANCH  20  21
ENDBRANCH   1  20
TORSDOF 16
ENDMDL
MODEL 2
REMARK VINA RESULT:     -11.1      5.588      9.763
REMARK SMILES C[C@H](Cc1ccc(N)cc1)C(=O)NCCCCCCNC(=O)c1ccc(-c2c3nc(c(-c4c(F)c(F)c(F)c(F)c4F)c4ccc([nH]4)c(-c4c(F)c(F)c(F)c(F)c4F)c4nc(c(-c5c(F)c(F)c(F)c(F)c5F)c5ccc2[nH]5)C=C4)C=C3)cc1
REMARK SMILES IDX 16 1 15 2 14 3 13 4 11 5 12 6 2 8 1 9 3 10 4 11 5 12 10 13
REMARK SMILES IDX 6 14 9 15 7 16 8 17 17 20 18 21 19 22 20 23 21 24 22 26
REMARK SMILES IDX 23 27 24 28 85 29 25 30 84 31 26 32 27 33 28 34 78 35 29 36
REMARK SMILES IDX 83 37 77 38 79 39 30 40 82 41 76 42 75 43 31 45 63 46 43 47
REMARK SMILES IDX 62 48 44 49 47 50 61 51 80 52 45 53 46 54 60 56 81 57 48 58
REMARK SMILES IDX 32 59 33 60 41 61 34 62 35 63 39 64 42 65 36 66 37 67 40 68
REMARK SMILES IDX 38 69 64 70 65 71 73 72 66 73 67 74 71 75 74 76 68 77 69 78
REMARK SMILES IDX 72 79 70 80 49 81 50 82 58 83 51 84 52 85 56 86 59 87 53 88
REMARK SMILES IDX 54 89 57 90 55 91
REMARK H PARENT 13 7 8 18 8 19 20 25 79 44 47 55
REMARK Flexibility Score: inf
ROOT
ATOM      1  C   UNL A   1      42.537  23.021  28.762  1.00  0.00     0.002 C 
ENDROOT
BRANCH   1   2
ATOM      2  C   UNL A   1      43.991  22.975  29.241  1.00  0.00     0.021 C 
BRANCH   2   3
ATOM      3  C   UNL A   1      44.984  23.631  28.283  1.00  0.00     0.116 C 
BRANCH   3   4
ATOM      4  N   UNL A   1      45.641  22.641  27.457  1.00  0.00    -0.356 N 
ATOM      5  C   UNL A   1      45.653  22.486  26.107  1.00  0.00     0.223 C 
ATOM      6  O   UNL A   1      46.234  21.495  25.654  1.00  0.00    -0.275 OA
ATOM      7  H   UNL A   1      46.165  21.972  27.954  1.00  0.00     0.163 HD
BRANCH   5   8
ATOM      8  C   UNL A   1      45.010  23.501  25.163  1.00  0.00     0.079 C 
ATOM      9  C   UNL A   1      44.655  22.841  23.827  1.00  0.00     0.018 C 
BRANCH   8  10
ATOM     10  C   UNL A   1      45.758  24.857  25.141  1.00  0.00     0.048 C 
BRANCH  10  11
ATOM     11  C   UNL A   1      44.973  26.080  25.560  1.00  0.00    -0.047 A 
ATOM     12  C   UNL A   1      45.574  27.094  26.314  1.00  0.00     0.006 A 
ATOM     13  C   UNL A   1      43.637  26.241  25.182  1.00  0.00     0.006 A 
ATOM     14  C   UNL A   1      44.897  28.287  26.578  1.00  0.00     0.026 A 
ATOM     15  C   UNL A   1      42.956  27.430  25.464  1.00  0.00     0.026 A 
ATOM     16  C   UNL A   1      43.599  28.485  26.113  1.00  0.00     0.031 A 
BRANCH  16  17
ATOM     17  N   UNL A   1      42.919  29.656  26.404  1.00  0.00    -0.399 N 
ATOM     18  H   UNL A   1      42.823  29.951  27.339  1.00  0.00     0.156 HD
ATOM     19  H   UNL A   1      42.531  30.194  25.677  1.00  0.00     0.156 HD
ENDBRANCH  16  17
ENDBRANCH  10  11
ENDBRANCH   8  10
ENDBRANCH   5   8
ENDBRANCH   3   4
ENDBRANCH   2   3
ENDBRANCH   1   2
BRANCH   1  20
ATOM     20  C   UNL A   1      42.361  23.326  27.269  1.00  0.00     0.002 C 
BRANCH  20  21
ATOM     21  C   UNL A   1      41.778  22.186  26.427  1.00  0.00     0.021 C 
BRANCH  21  22
ATOM     22  C   UNL A   1      40.477  21.593  26.962  1.00  0.00     0.116 C 
BRANCH  22  23
ATOM     23  N   UNL A   1      39.343  21.907  26.110  1.00  0.00    -0.352 N 
ATOM     24  C   UNL A   1      38.588  23.048  26.042  1.00  0.00     0.251 C 
ATOM     25  H   UNL A   1      39.076  21.192  25.487  1.00  0.00     0.163 HD
ATOM     26  O   UNL A   1      37.537  23.056  25.402  1.00  0.00    -0.269 OA
BRANCH  24  27
ATOM     27  C   UNL A   1      39.022  24.274  26.745  1.00  0.00     0.039 A 
ATOM     28  C   UNL A   1      38.682  24.436  28.090  1.00  0.00     0.014 A 
ATOM     29  C   UNL A   1      39.735  25.273  26.076  1.00  0.00     0.014 A 
ATOM     30  C   UNL A   1      39.104  25.574  28.780  1.00  0.00     0.010 A 
ATOM     31  C   UNL A   1      40.213  26.375  26.781  1.00  0.00     0.010 A 
ATOM     32  C   UNL A   1      39.899  26.538  28.139  1.00  0.00    -0.014 A 
BRANCH  32  33
ATOM     33  C   UNL A   1      40.413  27.719  28.876  1.00  0.00     0.031 A 
ATOM     34  C   UNL A   1      41.828  27.742  29.380  1.00  0.00     0.074 A 
ATOM     35  C   UNL A   1      39.584  28.743  29.151  1.00  0.00     0.049 A 
ATOM     36  N   UNL A   1      42.440  28.653  30.096  1.00  0.00    -0.248 NA
ATOM     37  C   UNL A   1      42.660  26.571  29.062  1.00  0.00     0.031 C 
ATOM     38  C   UNL A   1      38.175  28.814  28.761  1.00  0.00     0.029 A 
ATOM     39  N   UNL A   1      39.800  29.913  29.835  1.00  0.00    -0.354 N 
ATOM     40  C   UNL A   1      43.717  28.161  30.323  1.00  0.00     0.074 A 
ATOM     41  C   UNL A   1      43.777  26.848  29.718  1.00  0.00     0.031 C 
ATOM     42  C   UNL A   1      37.658  29.972  29.198  1.00  0.00     0.029 A 
ATOM     43  C   UNL A   1      38.686  30.709  29.926  1.00  0.00     0.049 A 
ATOM     44  H   UNL A   1      40.672  30.157  30.222  1.00  0.00     0.167 HD
ATOM     45  C   UNL A   1      44.753  28.759  30.958  1.00  0.00     0.037 A 
ATOM     46  C   UNL A   1      38.510  31.896  30.537  1.00  0.00     0.037 A 
ATOM     47  C   UNL A   1      44.693  30.074  31.545  1.00  0.00     0.049 A 
ATOM     48  C   UNL A   1      39.674  32.543  31.238  1.00  0.00     0.074 A 
ATOM     49  C   UNL A   1      45.705  30.795  32.153  1.00  0.00     0.029 A 
ATOM     50  N   UNL A   1      43.552  30.861  31.601  1.00  0.00    -0.354 N 
ATOM     51  N   UNL A   1      40.900  32.102  31.383  1.00  0.00    -0.248 NA
ATOM     52  C   UNL A   1      39.430  33.855  31.851  1.00  0.00     0.031 C 
ATOM     53  C   UNL A   1      45.164  31.998  32.622  1.00  0.00     0.029 A 
ATOM     54  C   UNL A   1      43.827  32.050  32.259  1.00  0.00     0.049 A 
ATOM     55  H   UNL A   1      42.675  30.611  31.229  1.00  0.00     0.167 HD
ATOM     56  C   UNL A   1      41.580  33.087  32.085  1.00  0.00     0.074 A 
ATOM     57  C   UNL A   1      40.633  34.158  32.321  1.00  0.00     0.031 C 
ATOM     58  C   UNL A   1      42.872  33.103  32.494  1.00  0.00     0.037 A 
BRANCH  45  59
ATOM     59  C   UNL A   1      46.040  27.989  31.055  1.00  0.00     0.064 A 
ATOM     60  C   UNL A   1      46.267  27.060  32.083  1.00  0.00     0.173 A 
ATOM     61  C   UNL A   1      47.055  28.174  30.105  1.00  0.00     0.173 A 
ATOM     62  F   UNL A   1      45.335  26.853  33.024  1.00  0.00    -0.203 F 
ATOM     63  C   UNL A   1      47.478  26.378  32.179  1.00  0.00     0.198 A 
ATOM     64  C   UNL A   1      48.251  27.465  30.184  1.00  0.00     0.198 A 
ATOM     65  F   UNL A   1      46.889  29.043  29.096  1.00  0.00    -0.203 F 
ATOM     66  F   UNL A   1      47.695  25.543  33.204  1.00  0.00    -0.200 F 
ATOM     67  C   UNL A   1      48.466  26.576  31.227  1.00  0.00     0.200 A 
ATOM     68  F   UNL A   1      49.201  27.648  29.256  1.00  0.00    -0.200 F 
ATOM     69  F   UNL A   1      49.630  25.919  31.321  1.00  0.00    -0.200 F 
ENDBRANCH  45  59
BRANCH  46  70
ATOM     70  C   UNL A   1      37.181  32.556  30.485  1.00  0.00     0.064 A 
ATOM     71  C   UNL A   1      36.233  32.345  31.496  1.00  0.00     0.173 A 
ATOM     72  C   UNL A   1      36.842  33.431  29.443  1.00  0.00     0.173 A 
ATOM     73  F   UNL A   1      36.505  31.502  32.503  1.00  0.00    -0.203 F 
ATOM     74  C   UNL A   1      34.993  32.977  31.462  1.00  0.00     0.198 A 
ATOM     75  C   UNL A   1      35.611  34.083  29.424  1.00  0.00     0.198 A 
ATOM     76  F   UNL A   1      37.717  33.672  28.456  1.00  0.00    -0.203 F 
ATOM     77  F   UNL A   1      34.092  32.734  32.423  1.00  0.00    -0.200 F 
ATOM     78  C   UNL A   1      34.686  33.852  30.431  1.00  0.00     0.200 A 
ATOM     79  F   UNL A   1      35.325  34.940  28.434  1.00  0.00    -0.200 F 
ATOM     80  F   UNL A   1      33.498  34.471  30.405  1.00  0.00    -0.200 F 
ENDBRANCH  46  70
BRANCH  58  81
ATOM     81  C   UNL A   1      43.345  34.326  33.226  1.00  0.00     0.064 A 
ATOM     82  C   UNL A   1      43.819  35.455  32.541  1.00  0.00     0.173 A 
ATOM     83  C   UNL A   1      43.286  34.384  34.627  1.00  0.00     0.173 A 
ATOM     84  F   UNL A   1      43.911  35.444  31.203  1.00  0.00    -0.203 F 
ATOM     85  C   UNL A   1      44.241  36.587  33.234  1.00  0.00     0.198 A 
ATOM     86  C   UNL A   1      43.680  35.528  35.314  1.00  0.00     0.198 A 
ATOM     87  F   UNL A   1      42.835  33.333  35.328  1.00  0.00    -0.203 F 
ATOM     88  F   UNL A   1      44.735  37.636  32.562  1.00  0.00    -0.200 F 
ATOM     89  C   UNL A   1      44.164  36.626  34.618  1.00  0.00     0.200 A 
ATOM     90  F   UNL A   1      43.593  35.569  36.651  1.00  0.00    -0.200 F 
ATOM     91  F   UNL A   1      44.563  37.719  35.283  1.00  0.00    -0.200 F 
ENDBRANCH  58  81
ENDBRANCH  32  33
ENDBRANCH  24  27
ENDBRANCH  22  23
ENDBRANCH  21  22
ENDBRANCH  20  21
ENDBRANCH   1  20
TORSDOF 16
ENDMDL
MODEL 3
REMARK VINA RESULT:     -11.1      6.885     11.546
REMARK SMILES C[C@H](Cc1ccc(N)cc1)C(=O)NCCCCCCNC(=O)c1ccc(-c2c3nc(c(-c4c(F)c(F)c(F)c(F)c4F)c4ccc([nH]4)c(-c4c(F)c(F)c(F)c(F)c4F)c4nc(c(-c5c(F)c(F)c(F)c(F)c5F)c5ccc2[nH]5)C=C4)C=C3)cc1
REMARK SMILES IDX 16 1 15 2 14 3 13 4 11 5 12 6 2 8 1 9 3 10 4 11 5 12 10 13
REMARK SMILES IDX 6 14 9 15 7 16 8 17 17 20 18 21 19 22 20 23 21 24 22 26
REMARK SMILES IDX 23 27 24 28 85 29 25 30 84 31 26 32 27 33 28 34 78 35 29 36
REMARK SMILES IDX 83 37 77 38 79 39 30 40 82 41 76 42 75 43 31 45 63 46 43 47
REMARK SMILES IDX 62 48 44 49 47 50 61 51 80 52 45 53 46 54 60 56 81 57 48 58
REMARK SMILES IDX 32 59 33 60 41 61 34 62 35 63 39 64 42 65 36 66 37 67 40 68
REMARK SMILES IDX 38 69 64 70 65 71 73 72 66 73 67 74 71 75 74 76 68 77 69 78
REMARK SMILES IDX 72 79 70 80 49 81 50 82 58 83 51 84 52 85 56 86 59 87 53 88
REMARK SMILES IDX 54 89 57 90 55 91
REMARK H PARENT 13 7 8 18 8 19 20 25 79 44 47 55
REMARK Flexibility Score: inf
ROOT
ATOM      1  C   UNL A   1      42.059  21.407  27.367  1.00  0.00     0.002 C 
ENDROOT
BRANCH   1   2
ATOM      2  C   UNL A   1      41.241  22.039  26.238  1.00  0.00     0.021 C 
BRANCH   2   3
ATOM      3  C   UNL A   1      39.794  21.552  26.168  1.00  0.00     0.116 C 
BRANCH   3   4
ATOM      4  N   UNL A   1      38.867  22.639  26.396  1.00  0.00    -0.356 N 
ATOM      5  C   UNL A   1      37.718  22.969  25.748  1.00  0.00     0.223 C 
ATOM      6  O   UNL A   1      37.150  24.009  26.094  1.00  0.00    -0.275 OA
ATOM      7  H   UNL A   1      39.107  23.237  27.140  1.00  0.00     0.163 HD
BRANCH   5   8
ATOM      8  C   UNL A   1      37.114  22.087  24.656  1.00  0.00     0.079 C 
ATOM      9  C   UNL A   1      36.486  22.950  23.558  1.00  0.00     0.018 C 
BRANCH   8  10
ATOM     10  C   UNL A   1      36.295  20.903  25.227  1.00  0.00     0.048 C 
BRANCH  10  11
ATOM     11  C   UNL A   1      34.832  21.157  25.512  1.00  0.00    -0.047 A 
ATOM     12  C   UNL A   1      34.435  21.854  26.658  1.00  0.00     0.006 A 
ATOM     13  C   UNL A   1      33.840  20.724  24.626  1.00  0.00     0.006 A 
ATOM     14  C   UNL A   1      33.100  22.215  26.852  1.00  0.00     0.026 A 
ATOM     15  C   UNL A   1      32.501  21.073  24.833  1.00  0.00     0.026 A 
ATOM     16  C   UNL A   1      32.128  21.870  25.916  1.00  0.00     0.031 A 
BRANCH  16  17
ATOM     17  N   UNL A   1      30.800  22.202  26.126  1.00  0.00    -0.399 N 
ATOM     18  H   UNL A   1      30.519  23.145  26.102  1.00  0.00     0.156 HD
ATOM     19  H   UNL A   1      30.137  21.496  26.301  1.00  0.00     0.156 HD
ENDBRANCH  16  17
ENDBRANCH  10  11
ENDBRANCH   8  10
ENDBRANCH   5   8
ENDBRANCH   3   4
ENDBRANCH   2   3
ENDBRANCH   1   2
BRANCH   1  20
ATOM     20  C   UNL A   1      41.762  19.924  27.626  1.00  0.00     0.002 C 
BRANCH  20  21
ATOM     21  C   UNL A   1      42.653  18.932  26.873  1.00  0.00     0.021 C 
BRANCH  21  22
ATOM     22  C   UNL A   1      42.635  19.079  25.353  1.00  0.00     0.116 C 
BRANCH  22  23
ATOM     23  N   UNL A   1      43.907  18.711  24.754  1.00  0.00    -0.352 N 
ATOM     24  C   UNL A   1      44.970  19.500  24.404  1.00  0.00     0.251 C 
ATOM     25  H   UNL A   1      44.022  17.750  24.572  1.00  0.00     0.163 HD
ATOM     26  O   UNL A   1      45.882  19.038  23.718  1.00  0.00    -0.269 OA
BRANCH  24  27
ATOM     27  C   UNL A   1      45.026  20.913  24.834  1.00  0.00     0.039 A 
ATOM     28  C   UNL A   1      45.473  21.207  26.125  1.00  0.00     0.014 A 
ATOM     29  C   UNL A   1      44.612  21.942  23.984  1.00  0.00     0.014 A 
ATOM     30  C   UNL A   1      45.558  22.536  26.544  1.00  0.00     0.010 A 
ATOM     31  C   UNL A   1      44.761  23.270  24.377  1.00  0.00     0.010 A 
ATOM     32  C   UNL A   1      45.231  23.580  25.662  1.00  0.00    -0.014 A 
BRANCH  32  33
ATOM     33  C   UNL A   1      45.381  24.999  26.068  1.00  0.00     0.031 A 
ATOM     34  C   UNL A   1      46.722  25.672  25.992  1.00  0.00     0.074 A 
ATOM     35  C   UNL A   1      44.323  25.662  26.570  1.00  0.00     0.049 A 
ATOM     36  N   UNL A   1      47.065  26.882  26.359  1.00  0.00    -0.248 NA
ATOM     37  C   UNL A   1      47.833  24.869  25.460  1.00  0.00     0.031 C 
ATOM     38  C   UNL A   1      42.982  25.101  26.742  1.00  0.00     0.029 A 
ATOM     39  N   UNL A   1      44.210  26.946  27.040  1.00  0.00    -0.354 N 
ATOM     40  C   UNL A   1      48.428  26.979  26.114  1.00  0.00     0.074 A 
ATOM     41  C   UNL A   1      48.860  25.689  25.621  1.00  0.00     0.031 C 
ATOM     42  C   UNL A   1      42.179  26.040  27.265  1.00  0.00     0.029 A 
ATOM     43  C   UNL A   1      42.953  27.256  27.496  1.00  0.00     0.049 A 
ATOM     44  H   UNL A   1      44.960  27.584  27.049  1.00  0.00     0.167 HD
ATOM     45  C   UNL A   1      49.240  28.053  26.265  1.00  0.00     0.037 A 
ATOM     46  C   UNL A   1      42.479  28.389  28.048  1.00  0.00     0.037 A 
ATOM     47  C   UNL A   1      48.800  29.340  26.742  1.00  0.00     0.049 A 
ATOM     48  C   UNL A   1      43.398  29.569  28.208  1.00  0.00     0.074 A 
ATOM     49  C   UNL A   1      49.530  30.509  26.870  1.00  0.00     0.029 A 
ATOM     50  N   UNL A   1      47.513  29.622  27.177  1.00  0.00    -0.354 N 
ATOM     51  N   UNL A   1      44.669  29.674  27.903  1.00  0.00    -0.248 NA
ATOM     52  C   UNL A   1      42.814  30.789  28.779  1.00  0.00     0.031 C 
ATOM     53  C   UNL A   1      48.697  31.485  27.428  1.00  0.00     0.029 A 
ATOM     54  C   UNL A   1      47.434  30.940  27.600  1.00  0.00     0.049 A 
ATOM     55  H   UNL A   1      46.766  28.981  27.185  1.00  0.00     0.167 HD
ATOM     56  C   UNL A   1      45.033  30.974  28.226  1.00  0.00     0.074 A 
ATOM     57  C   UNL A   1      43.843  31.625  28.734  1.00  0.00     0.031 C 
ATOM     58  C   UNL A   1      46.244  31.573  28.110  1.00  0.00     0.037 A 
BRANCH  45  59
ATOM     59  C   UNL A   1      50.691  27.876  25.916  1.00  0.00     0.064 A 
ATOM     60  C   UNL A   1      51.658  27.611  26.898  1.00  0.00     0.173 A 
ATOM     61  C   UNL A   1      51.118  27.960  24.583  1.00  0.00     0.173 A 
ATOM     62  F   UNL A   1      51.305  27.531  28.189  1.00  0.00    -0.203 F 
ATOM     63  C   UNL A   1      53.004  27.482  26.563  1.00  0.00     0.198 A 
ATOM     64  C   UNL A   1      52.460  27.796  24.248  1.00  0.00     0.198 A 
ATOM     65  F   UNL A   1      50.235  28.203  23.602  1.00  0.00    -0.203 F 
ATOM     66  F   UNL A   1      53.917  27.292  27.526  1.00  0.00    -0.200 F 
ATOM     67  C   UNL A   1      53.403  27.569  25.238  1.00  0.00     0.200 A 
ATOM     68  F   UNL A   1      52.843  27.868  22.965  1.00  0.00    -0.200 F 
ATOM     69  F   UNL A   1      54.698  27.444  24.918  1.00  0.00    -0.200 F 
ENDBRANCH  45  59
BRANCH  46  70
ATOM     70  C   UNL A   1      41.055  28.461  28.462  1.00  0.00     0.064 A 
ATOM     71  C   UNL A   1      40.661  28.077  29.751  1.00  0.00     0.173 A 
ATOM     72  C   UNL A   1      40.066  28.941  27.591  1.00  0.00     0.173 A 
ATOM     73  F   UNL A   1      41.569  27.595  30.613  1.00  0.00    -0.203 F 
ATOM     74  C   UNL A   1      39.330  28.163  30.151  1.00  0.00     0.198 A 
ATOM     75  C   UNL A   1      38.740  29.051  28.001  1.00  0.00     0.198 A 
ATOM     76  F   UNL A   1      40.394  29.328  26.350  1.00  0.00    -0.203 F 
ATOM     77  F   UNL A   1      38.973  27.760  31.378  1.00  0.00    -0.200 F 
ATOM     78  C   UNL A   1      38.371  28.657  29.279  1.00  0.00     0.200 A 
ATOM     79  F   UNL A   1      37.819  29.544  27.160  1.00  0.00    -0.200 F 
ATOM     80  F   UNL A   1      37.093  28.752  29.668  1.00  0.00    -0.200 F 
ENDBRANCH  46  70
BRANCH  58  81
ATOM     81  C   UNL A   1      46.339  33.013  28.524  1.00  0.00     0.064 A 
ATOM     82  C   UNL A   1      46.702  33.382  29.827  1.00  0.00     0.173 A 
ATOM     83  C   UNL A   1      46.101  34.037  27.593  1.00  0.00     0.173 A 
ATOM     84  F   UNL A   1      46.923  32.441  30.757  1.00  0.00    -0.203 F 
ATOM     85  C   UNL A   1      46.799  34.722  30.191  1.00  0.00     0.198 A 
ATOM     86  C   UNL A   1      46.229  35.376  27.953  1.00  0.00     0.198 A 
ATOM     87  F   UNL A   1      45.756  33.738  26.332  1.00  0.00    -0.203 F 
ATOM     88  F   UNL A   1      47.101  35.051  31.455  1.00  0.00    -0.200 F 
ATOM     89  C   UNL A   1      46.571  35.718  29.253  1.00  0.00     0.200 A 
ATOM     90  F   UNL A   1      46.020  36.336  27.042  1.00  0.00    -0.200 F 
ATOM     91  F   UNL A   1      46.673  37.007  29.603  1.00  0.00    -0.200 F 
ENDBRANCH  58  81
ENDBRANCH  32  33
ENDBRANCH  24  27
ENDBRANCH  22  23
ENDBRANCH  21  22
ENDBRANCH  20  21
ENDBRANCH   1  20
TORSDOF 16
ENDMDL
