MODEL 1
REMARK VINA RESULT:     -12.5      0.000      0.000
REMARK SMILES Cc1cccc([C@@H](CC(F)(F)F)C(=O)NCCCCCCNC(=O)c2ccc(-c3c4nc(c(-c5c(F)c(F)c(F)c(F)c5F)c5ccc([nH]5)c(-c5c(F)c(F)c(F)c(F)c5F)c5nc(c(-c6c(F)c(F)c(F)c(F)c6F)c6ccc3[nH]6)C=C5)C=C4)cc2)c1
REMARK SMILES IDX 18 1 17 2 16 3 15 4 13 5 14 6 7 8 6 9 1 10 2 11 3 12 88 13
REMARK SMILES IDX 4 14 5 15 8 16 9 17 10 18 11 19 12 20 19 21 20 22 21 23
REMARK SMILES IDX 22 24 23 25 24 27 25 28 26 29 87 30 27 31 86 32 28 33 29 34
REMARK SMILES IDX 30 35 80 36 31 37 85 38 79 39 81 40 32 41 84 42 78 43 77 44
REMARK SMILES IDX 33 46 65 47 45 48 64 49 46 50 49 51 63 52 82 53 47 54 48 55
REMARK SMILES IDX 62 57 83 58 50 59 34 60 35 61 43 62 36 63 37 64 41 65 44 66
REMARK SMILES IDX 38 67 39 68 42 69 40 70 66 71 67 72 75 73 68 74 69 75 73 76
REMARK SMILES IDX 76 77 70 78 71 79 74 80 72 81 51 82 52 83 60 84 53 85 54 86
REMARK SMILES IDX 58 87 61 88 55 89 56 90 59 91 57 92
REMARK H PARENT 15 7 22 26 81 45 49 56
REMARK Flexibility Score: inf
ROOT
ATOM      1  C   UNL A   1      32.954  29.255  24.992  1.00  0.00     0.002 C 
ENDROOT
BRANCH   1   2
ATOM      2  C   UNL A   1      32.830  29.084  23.472  1.00  0.00     0.021 C 
BRANCH   2   3
ATOM      3  C   UNL A   1      34.073  28.546  22.765  1.00  0.00     0.116 C 
BRANCH   3   4
ATOM      4  N   UNL A   1      33.793  27.579  21.733  1.00  0.00    -0.356 N 
ATOM      5  C   UNL A   1      33.459  26.266  21.795  1.00  0.00     0.227 C 
ATOM      6  O   UNL A   1      33.061  25.764  20.734  1.00  0.00    -0.274 OA
ATOM      7  H   UNL A   1      33.856  27.936  20.819  1.00  0.00     0.163 HD
BRANCH   5   8
ATOM      8  C   UNL A   1      33.528  25.389  23.055  1.00  0.00     0.117 C 
BRANCH   8   9
ATOM      9  C   UNL A   1      32.475  25.674  24.125  1.00  0.00    -0.035 A 
ATOM     10  C   UNL A   1      28.717  26.448  24.151  1.00  0.00     0.044 C 
ATOM     11  C   UNL A   1      30.113  26.167  24.623  1.00  0.00    -0.051 A 
ATOM     12  C   UNL A   1      30.404  26.180  25.987  1.00  0.00     0.003 A 
ATOM     13  C   UNL A   1      31.141  25.892  23.711  1.00  0.00     0.008 A 
ATOM     14  C   UNL A   1      31.709  25.969  26.419  1.00  0.00     0.001 A 
ATOM     15  C   UNL A   1      32.736  25.742  25.497  1.00  0.00     0.004 A 
ENDBRANCH   8   9
BRANCH   8  16
ATOM     16  C   UNL A   1      34.061  23.955  22.907  1.00  0.00     0.133 C 
BRANCH  16  17
ATOM     17  C   UNL A   1      35.234  23.501  23.728  1.00  0.00     0.390 C 
ATOM     18  F   UNL A   1      34.984  22.347  24.376  1.00  0.00    -0.171 F 
ATOM     19  F   UNL A   1      36.298  23.275  22.921  1.00  0.00    -0.171 F 
ATOM     20  F   UNL A   1      35.625  24.419  24.633  1.00  0.00    -0.171 F 
ENDBRANCH  16  17
ENDBRANCH   8  16
ENDBRANCH   5   8
ENDBRANCH   3   4
ENDBRANCH   2   3
ENDBRANCH   1   2
BRANCH   1  21
ATOM     21  C   UNL A   1      31.889  30.116  25.699  1.00  0.00     0.002 C 
BRANCH  21  22
ATOM     22  C   UNL A   1      32.295  30.773  27.022  1.00  0.00     0.021 C 
BRANCH  22  23
ATOM     23  C   UNL A   1      33.686  30.393  27.510  1.00  0.00     0.116 C 
BRANCH  23  24
ATOM     24  N   UNL A   1      34.264  31.351  28.449  1.00  0.00    -0.352 N 
ATOM     25  C   UNL A   1      35.437  31.249  29.177  1.00  0.00     0.251 C 
ATOM     26  H   UNL A   1      33.750  32.181  28.581  1.00  0.00     0.163 HD
ATOM     27  O   UNL A   1      35.787  32.130  29.943  1.00  0.00    -0.269 OA
BRANCH  25  28
ATOM     28  C   UNL A   1      36.326  30.097  28.908  1.00  0.00     0.039 A 
ATOM     29  C   UNL A   1      36.709  29.305  29.995  1.00  0.00     0.014 A 
ATOM     30  C   UNL A   1      36.963  29.973  27.676  1.00  0.00     0.014 A 
ATOM     31  C   UNL A   1      37.894  28.581  29.918  1.00  0.00     0.010 A 
ATOM     32  C   UNL A   1      38.183  29.330  27.627  1.00  0.00     0.010 A 
ATOM     33  C   UNL A   1      38.684  28.705  28.774  1.00  0.00    -0.014 A 
BRANCH  33  34
ATOM     34  C   UNL A   1      40.090  28.320  28.741  1.00  0.00     0.031 A 
ATOM     35  C   UNL A   1      40.487  26.960  28.333  1.00  0.00     0.074 A 
ATOM     36  C   UNL A   1      41.036  29.240  29.032  1.00  0.00     0.049 A 
ATOM     37  N   UNL A   1      41.622  26.416  28.615  1.00  0.00    -0.248 NA
ATOM     38  C   UNL A   1      39.592  26.080  27.598  1.00  0.00     0.031 C 
ATOM     39  C   UNL A   1      42.479  29.127  28.839  1.00  0.00     0.029 A 
ATOM     40  N   UNL A   1      40.879  30.404  29.806  1.00  0.00    -0.354 N 
ATOM     41  C   UNL A   1      41.722  25.246  27.899  1.00  0.00     0.074 A 
ATOM     42  C   UNL A   1      40.406  25.053  27.333  1.00  0.00     0.031 C 
ATOM     43  C   UNL A   1      43.091  29.940  29.713  1.00  0.00     0.029 A 
ATOM     44  C   UNL A   1      42.064  30.491  30.578  1.00  0.00     0.049 A 
ATOM     45  H   UNL A   1      40.113  31.022  29.810  1.00  0.00     0.167 HD
ATOM     46  C   UNL A   1      42.944  24.647  27.780  1.00  0.00     0.037 A 
ATOM     47  C   UNL A   1      42.019  30.357  31.935  1.00  0.00     0.037 A 
ATOM     48  C   UNL A   1      43.946  25.298  28.629  1.00  0.00     0.049 A 
ATOM     49  C   UNL A   1      42.811  29.190  32.489  1.00  0.00     0.074 A 
ATOM     50  C   UNL A   1      44.985  26.190  28.413  1.00  0.00     0.029 A 
ATOM     51  N   UNL A   1      43.768  25.258  30.002  1.00  0.00    -0.354 N 
ATOM     52  N   UNL A   1      43.435  28.302  31.766  1.00  0.00    -0.248 NA
ATOM     53  C   UNL A   1      42.859  28.876  33.918  1.00  0.00     0.031 C 
ATOM     54  C   UNL A   1      45.427  26.679  29.679  1.00  0.00     0.029 A 
ATOM     55  C   UNL A   1      44.655  26.087  30.660  1.00  0.00     0.049 A 
ATOM     56  H   UNL A   1      43.089  24.706  30.454  1.00  0.00     0.167 HD
ATOM     57  C   UNL A   1      43.912  27.309  32.580  1.00  0.00     0.074 A 
ATOM     58  C   UNL A   1      43.518  27.707  33.918  1.00  0.00     0.031 C 
ATOM     59  C   UNL A   1      44.559  26.204  32.104  1.00  0.00     0.037 A 
BRANCH  46  60
ATOM     60  C   UNL A   1      43.286  23.624  26.714  1.00  0.00     0.064 A 
ATOM     61  C   UNL A   1      42.962  22.261  26.892  1.00  0.00     0.173 A 
ATOM     62  C   UNL A   1      43.994  23.899  25.530  1.00  0.00     0.173 A 
ATOM     63  F   UNL A   1      42.182  21.850  27.899  1.00  0.00    -0.203 F 
ATOM     64  C   UNL A   1      43.432  21.256  26.039  1.00  0.00     0.198 A 
ATOM     65  C   UNL A   1      44.516  22.893  24.710  1.00  0.00     0.198 A 
ATOM     66  F   UNL A   1      44.145  25.150  25.081  1.00  0.00    -0.203 F 
ATOM     67  F   UNL A   1      43.100  19.977  26.272  1.00  0.00    -0.200 F 
ATOM     68  C   UNL A   1      44.249  21.567  24.974  1.00  0.00     0.200 A 
ATOM     69  F   UNL A   1      45.280  23.223  23.657  1.00  0.00    -0.200 F 
ATOM     70  F   UNL A   1      44.745  20.603  24.189  1.00  0.00    -0.200 F 
ENDBRANCH  46  60
BRANCH  47  71
ATOM     71  C   UNL A   1      40.761  30.888  32.529  1.00  0.00     0.064 A 
ATOM     72  C   UNL A   1      40.560  32.282  32.554  1.00  0.00     0.173 A 
ATOM     73  C   UNL A   1      39.646  30.071  32.745  1.00  0.00     0.173 A 
ATOM     74  F   UNL A   1      41.596  33.113  32.350  1.00  0.00    -0.203 F 
ATOM     75  C   UNL A   1      39.285  32.830  32.672  1.00  0.00     0.198 A 
ATOM     76  C   UNL A   1      38.373  30.625  32.887  1.00  0.00     0.198 A 
ATOM     77  F   UNL A   1      39.761  28.737  32.707  1.00  0.00    -0.203 F 
ATOM     78  F   UNL A   1      39.115  34.156  32.575  1.00  0.00    -0.200 F 
ATOM     79  C   UNL A   1      38.189  31.998  32.816  1.00  0.00     0.200 A 
ATOM     80  F   UNL A   1      37.309  29.817  33.000  1.00  0.00    -0.200 F 
ATOM     81  F   UNL A   1      36.952  32.515  32.845  1.00  0.00    -0.200 F 
ENDBRANCH  47  71
BRANCH  59  82
ATOM     82  C   UNL A   1      45.126  25.128  32.987  1.00  0.00     0.064 A 
ATOM     83  C   UNL A   1      44.318  24.174  33.630  1.00  0.00     0.173 A 
ATOM     84  C   UNL A   1      46.501  25.082  33.303  1.00  0.00     0.173 A 
ATOM     85  F   UNL A   1      42.986  24.185  33.474  1.00  0.00    -0.203 F 
ATOM     86  C   UNL A   1      44.859  23.196  34.468  1.00  0.00     0.198 A 
ATOM     87  C   UNL A   1      47.031  24.138  34.182  1.00  0.00     0.198 A 
ATOM     88  F   UNL A   1      47.376  25.933  32.750  1.00  0.00    -0.203 F 
ATOM     89  F   UNL A   1      44.057  22.266  35.006  1.00  0.00    -0.200 F 
ATOM     90  C   UNL A   1      46.212  23.183  34.749  1.00  0.00     0.200 A 
ATOM     91  F   UNL A   1      48.340  24.157  34.468  1.00  0.00    -0.200 F 
ATOM     92  F   UNL A   1      46.727  22.253  35.565  1.00  0.00    -0.200 F 
ENDBRANCH  59  82
ENDBRANCH  33  34
ENDBRANCH  25  28
ENDBRANCH  23  24
ENDBRANCH  22  23
ENDBRANCH  21  22
ENDBRANCH   1  21
TORSDOF 16
ENDMDL
MODEL 2
REMARK VINA RESULT:     -12.3      1.588      2.650
REMARK SMILES Cc1cccc([C@@H](CC(F)(F)F)C(=O)NCCCCCCNC(=O)c2ccc(-c3c4nc(c(-c5c(F)c(F)c(F)c(F)c5F)c5ccc([nH]5)c(-c5c(F)c(F)c(F)c(F)c5F)c5nc(c(-c6c(F)c(F)c(F)c(F)c6F)c6ccc3[nH]6)C=C5)C=C4)cc2)c1
REMARK SMILES IDX 18 1 17 2 16 3 15 4 13 5 14 6 7 8 6 9 1 10 2 11 3 12 88 13
REMARK SMILES IDX 4 14 5 15 8 16 9 17 10 18 11 19 12 20 19 21 20 22 21 23
REMARK SMILES IDX 22 24 23 25 24 27 25 28 26 29 87 30 27 31 86 32 28 33 29 34
REMARK SMILES IDX 30 35 80 36 31 37 85 38 79 39 81 40 32 41 84 42 78 43 77 44
REMARK SMILES IDX 33 46 65 47 45 48 64 49 46 50 49 51 63 52 82 53 47 54 48 55
REMARK SMILES IDX 62 57 83 58 50 59 34 60 35 61 43 62 36 63 37 64 41 65 44 66
REMARK SMILES IDX 38 67 39 68 42 69 40 70 66 71 67 72 75 73 68 74 69 75 73 76
REMARK SMILES IDX 76 77 70 78 71 79 74 80 72 81 51 82 52 83 60 84 53 85 54 86
REMARK SMILES IDX 58 87 61 88 55 89 56 90 59 91 57 92
REMARK H PARENT 15 7 22 26 81 45 49 56
REMARK Flexibility Score: inf
ROOT
ATOM      1  C   UNL A   1      32.222  28.227  27.248  1.00  0.00     0.002 C 
ENDROOT
BRANCH   1   2
ATOM      2  C   UNL A   1      31.526  27.082  26.500  1.00  0.00     0.021 C 
BRANCH   2   3
ATOM      3  C   UNL A   1      32.429  26.233  25.607  1.00  0.00     0.116 C 
BRANCH   3   4
ATOM      4  N   UNL A   1      32.455  24.834  25.953  1.00  0.00    -0.356 N 
ATOM      5  C   UNL A   1      33.347  23.852  25.670  1.00  0.00     0.227 C 
ATOM      6  O   UNL A   1      33.203  22.798  26.304  1.00  0.00    -0.274 OA
ATOM      7  H   UNL A   1      31.688  24.538  26.492  1.00  0.00     0.163 HD
BRANCH   5   8
ATOM      8  C   UNL A   1      34.496  23.961  24.655  1.00  0.00     0.117 C 
BRANCH   8   9
ATOM      9  C   UNL A   1      35.815  23.308  25.067  1.00  0.00    -0.035 A 
ATOM     10  C   UNL A   1      37.438  19.859  24.626  1.00  0.00     0.044 C 
ATOM     11  C   UNL A   1      37.233  21.294  25.013  1.00  0.00    -0.051 A 
ATOM     12  C   UNL A   1      38.222  21.972  25.724  1.00  0.00     0.003 A 
ATOM     13  C   UNL A   1      36.055  21.972  24.672  1.00  0.00     0.008 A 
ATOM     14  C   UNL A   1      38.010  23.287  26.126  1.00  0.00     0.001 A 
ATOM     15  C   UNL A   1      36.810  23.939  25.821  1.00  0.00     0.004 A 
ENDBRANCH   8   9
BRANCH   8  16
ATOM     16  C   UNL A   1      34.136  24.017  23.162  1.00  0.00     0.133 C 
BRANCH  16  17
ATOM     17  C   UNL A   1      33.100  23.083  22.603  1.00  0.00     0.390 C 
ATOM     18  F   UNL A   1      31.848  23.545  22.790  1.00  0.00    -0.171 F 
ATOM     19  F   UNL A   1      33.274  22.953  21.266  1.00  0.00    -0.171 F 
ATOM     20  F   UNL A   1      33.177  21.844  23.125  1.00  0.00    -0.171 F 
ENDBRANCH  16  17
ENDBRANCH   8  16
ENDBRANCH   5   8
ENDBRANCH   3   4
ENDBRANCH   2   3
ENDBRANCH   1   2
BRANCH   1  21
ATOM     21  C   UNL A   1      31.828  29.666  26.867  1.00  0.00     0.002 C 
BRANCH  21  22
ATOM     22  C   UNL A   1      32.860  30.764  27.142  1.00  0.00     0.021 C 
BRANCH  22  23
ATOM     23  C   UNL A   1      34.165  30.262  27.743  1.00  0.00     0.116 C 
BRANCH  23  24
ATOM     24  N   UNL A   1      34.732  31.153  28.751  1.00  0.00    -0.352 N 
ATOM     25  C   UNL A   1      35.904  31.007  29.474  1.00  0.00     0.251 C 
ATOM     26  H   UNL A   1      34.211  31.966  28.942  1.00  0.00     0.163 HD
ATOM     27  O   UNL A   1      36.244  31.833  30.304  1.00  0.00    -0.269 OA
BRANCH  25  28
ATOM     28  C   UNL A   1      36.804  29.886  29.124  1.00  0.00     0.039 A 
ATOM     29  C   UNL A   1      37.099  28.954  30.124  1.00  0.00     0.014 A 
ATOM     30  C   UNL A   1      37.531  29.912  27.936  1.00  0.00     0.014 A 
ATOM     31  C   UNL A   1      38.282  28.227  30.041  1.00  0.00     0.010 A 
ATOM     32  C   UNL A   1      38.748  29.261  27.895  1.00  0.00     0.010 A 
ATOM     33  C   UNL A   1      39.156  28.485  28.984  1.00  0.00    -0.014 A 
BRANCH  33  34
ATOM     34  C   UNL A   1      40.558  28.085  29.006  1.00  0.00     0.031 A 
ATOM     35  C   UNL A   1      40.972  26.768  28.489  1.00  0.00     0.074 A 
ATOM     36  C   UNL A   1      41.489  28.957  29.453  1.00  0.00     0.049 A 
ATOM     37  N   UNL A   1      42.081  26.182  28.789  1.00  0.00    -0.248 NA
ATOM     38  C   UNL A   1      40.122  25.981  27.610  1.00  0.00     0.031 C 
ATOM     39  C   UNL A   1      42.942  28.844  29.346  1.00  0.00     0.029 A 
ATOM     40  N   UNL A   1      41.289  30.039  30.329  1.00  0.00    -0.354 N 
ATOM     41  C   UNL A   1      42.221  25.090  27.965  1.00  0.00     0.074 A 
ATOM     42  C   UNL A   1      40.944  24.974  27.296  1.00  0.00     0.031 C 
ATOM     43  C   UNL A   1      43.499  29.555  30.337  1.00  0.00     0.029 A 
ATOM     44  C   UNL A   1      42.420  30.030  31.183  1.00  0.00     0.049 A 
ATOM     45  H   UNL A   1      40.530  30.665  30.346  1.00  0.00     0.167 HD
ATOM     46  C   UNL A   1      43.443  24.488  27.867  1.00  0.00     0.037 A 
ATOM     47  C   UNL A   1      42.282  29.760  32.514  1.00  0.00     0.037 A 
ATOM     48  C   UNL A   1      44.391  25.035  28.843  1.00  0.00     0.049 A 
ATOM     49  C   UNL A   1      43.026  28.531  32.997  1.00  0.00     0.074 A 
ATOM     50  C   UNL A   1      45.448  25.929  28.789  1.00  0.00     0.029 A 
ATOM     51  N   UNL A   1      44.119  24.858  30.190  1.00  0.00    -0.354 N 
ATOM     52  N   UNL A   1      43.690  27.712  32.229  1.00  0.00    -0.248 NA
ATOM     53  C   UNL A   1      42.974  28.073  34.386  1.00  0.00     0.031 C 
ATOM     54  C   UNL A   1      45.807  26.281  30.125  1.00  0.00     0.029 A 
ATOM     55  C   UNL A   1      44.966  25.603  30.987  1.00  0.00     0.049 A 
ATOM     56  H   UNL A   1      43.407  24.273  30.537  1.00  0.00     0.167 HD
ATOM     57  C   UNL A   1      44.104  26.634  32.968  1.00  0.00     0.074 A 
ATOM     58  C   UNL A   1      43.623  26.901  34.310  1.00  0.00     0.031 C 
ATOM     59  C   UNL A   1      44.773  25.575  32.425  1.00  0.00     0.037 A 
BRANCH  46  60
ATOM     60  C   UNL A   1      43.849  23.573  26.727  1.00  0.00     0.064 A 
ATOM     61  C   UNL A   1      43.370  22.246  26.662  1.00  0.00     0.173 A 
ATOM     62  C   UNL A   1      44.759  23.910  25.708  1.00  0.00     0.173 A 
ATOM     63  F   UNL A   1      42.404  21.808  27.478  1.00  0.00    -0.203 F 
ATOM     64  C   UNL A   1      43.870  21.308  25.752  1.00  0.00     0.198 A 
ATOM     65  C   UNL A   1      45.304  22.960  24.838  1.00  0.00     0.198 A 
ATOM     66  F   UNL A   1      45.100  25.181  25.468  1.00  0.00    -0.203 F 
ATOM     67  F   UNL A   1      43.382  20.059  25.751  1.00  0.00    -0.200 F 
ATOM     68  C   UNL A   1      44.871  21.653  24.870  1.00  0.00     0.200 A 
ATOM     69  F   UNL A   1      46.253  23.328  23.964  1.00  0.00    -0.200 F 
ATOM     70  F   UNL A   1      45.389  20.743  24.036  1.00  0.00    -0.200 F 
ENDBRANCH  46  60
BRANCH  47  71
ATOM     71  C   UNL A   1      40.991  30.245  33.073  1.00  0.00     0.064 A 
ATOM     72  C   UNL A   1      40.791  31.634  33.208  1.00  0.00     0.173 A 
ATOM     73  C   UNL A   1      39.863  29.421  33.149  1.00  0.00     0.173 A 
ATOM     74  F   UNL A   1      41.839  32.472  33.141  1.00  0.00    -0.203 F 
ATOM     75  C   UNL A   1      39.512  32.178  33.295  1.00  0.00     0.198 A 
ATOM     76  C   UNL A   1      38.585  29.969  33.261  1.00  0.00     0.198 A 
ATOM     77  F   UNL A   1      39.979  28.094  33.001  1.00  0.00    -0.203 F 
ATOM     78  F   UNL A   1      39.351  33.509  33.304  1.00  0.00    -0.200 F 
ATOM     79  C   UNL A   1      38.408  31.344  33.298  1.00  0.00     0.200 A 
ATOM     80  F   UNL A   1      37.514  29.162  33.237  1.00  0.00    -0.200 F 
ATOM     81  F   UNL A   1      37.173  31.865  33.297  1.00  0.00    -0.200 F 
ENDBRANCH  47  71
BRANCH  59  82
ATOM     82  C   UNL A   1      45.271  24.406  33.230  1.00  0.00     0.064 A 
ATOM     83  C   UNL A   1      44.465  23.293  33.524  1.00  0.00     0.173 A 
ATOM     84  C   UNL A   1      46.551  24.412  33.825  1.00  0.00     0.173 A 
ATOM     85  F   UNL A   1      43.198  23.227  33.087  1.00  0.00    -0.203 F 
ATOM     86  C   UNL A   1      44.935  22.227  34.294  1.00  0.00     0.198 A 
ATOM     87  C   UNL A   1      46.998  23.372  34.638  1.00  0.00     0.198 A 
ATOM     88  F   UNL A   1      47.416  25.414  33.616  1.00  0.00    -0.203 F 
ATOM     89  F   UNL A   1      44.153  21.156  34.492  1.00  0.00    -0.200 F 
ATOM     90  C   UNL A   1      46.197  22.270  34.857  1.00  0.00     0.200 A 
ATOM     91  F   UNL A   1      48.213  23.443  35.200  1.00  0.00    -0.200 F 
ATOM     92  F   UNL A   1      46.641  21.253  35.608  1.00  0.00    -0.200 F 
ENDBRANCH  59  82
ENDBRANCH  33  34
ENDBRANCH  25  28
ENDBRANCH  23  24
ENDBRANCH  22  23
ENDBRANCH  21  22
ENDBRANCH   1  21
TORSDOF 16
ENDMDL
MODEL 3
REMARK VINA RESULT:     -12.3      1.821      2.438
REMARK SMILES Cc1cccc([C@@H](CC(F)(F)F)C(=O)NCCCCCCNC(=O)c2ccc(-c3c4nc(c(-c5c(F)c(F)c(F)c(F)c5F)c5ccc([nH]5)c(-c5c(F)c(F)c(F)c(F)c5F)c5nc(c(-c6c(F)c(F)c(F)c(F)c6F)c6ccc3[nH]6)C=C5)C=C4)cc2)c1
REMARK SMILES IDX 18 1 17 2 16 3 15 4 13 5 14 6 7 8 6 9 1 10 2 11 3 12 88 13
REMARK SMILES IDX 4 14 5 15 8 16 9 17 10 18 11 19 12 20 19 21 20 22 21 23
REMARK SMILES IDX 22 24 23 25 24 27 25 28 26 29 87 30 27 31 86 32 28 33 29 34
REMARK SMILES IDX 30 35 80 36 31 37 85 38 79 39 81 40 32 41 84 42 78 43 77 44
REMARK SMILES IDX 33 46 65 47 45 48 64 49 46 50 49 51 63 52 82 53 47 54 48 55
REMARK SMILES IDX 62 57 83 58 50 59 34 60 35 61 43 62 36 63 37 64 41 65 44 66
REMARK SMILES IDX 38 67 39 68 42 69 40 70 66 71 67 72 75 73 68 74 69 75 73 76
REMARK SMILES IDX 76 77 70 78 71 79 74 80 72 81 51 82 52 83 60 84 53 85 54 86
REMARK SMILES IDX 58 87 61 88 55 89 56 90 59 91 57 92
REMARK H PARENT 15 7 22 26 81 45 49 56
REMARK Flexibility Score: inf
ROOT
ATOM      1  C   UNL A   1      33.383  27.917  26.835  1.00  0.00     0.002 C 
ENDROOT
BRANCH   1   2
ATOM      2  C   UNL A   1      33.555  27.377  25.409  1.00  0.00     0.021 C 
BRANCH   2   3
ATOM      3  C   UNL A   1      33.391  25.867  25.252  1.00  0.00     0.116 C 
BRANCH   3   4
ATOM      4  N   UNL A   1      32.256  25.320  25.953  1.00  0.00    -0.356 N 
ATOM      5  C   UNL A   1      32.048  24.107  26.523  1.00  0.00     0.227 C 
ATOM      6  O   UNL A   1      31.048  24.021  27.249  1.00  0.00    -0.274 OA
ATOM      7  H   UNL A   1      31.496  25.939  26.033  1.00  0.00     0.163 HD
BRANCH   5   8
ATOM      8  C   UNL A   1      32.946  22.873  26.342  1.00  0.00     0.117 C 
BRANCH   8   9
ATOM      9  C   UNL A   1      32.691  22.040  25.086  1.00  0.00    -0.035 A 
ATOM     10  C   UNL A   1      32.631  18.301  24.228  1.00  0.00     0.044 C 
ATOM     11  C   UNL A   1      32.523  19.791  24.094  1.00  0.00    -0.051 A 
ATOM     12  C   UNL A   1      32.208  20.359  22.861  1.00  0.00     0.003 A 
ATOM     13  C   UNL A   1      32.737  20.632  25.196  1.00  0.00     0.008 A 
ATOM     14  C   UNL A   1      32.159  21.742  22.727  1.00  0.00     0.001 A 
ATOM     15  C   UNL A   1      32.421  22.573  23.822  1.00  0.00     0.004 A 
ENDBRANCH   8   9
BRANCH   8  16
ATOM     16  C   UNL A   1      34.372  22.930  26.913  1.00  0.00     0.133 C 
BRANCH  16  17
ATOM     17  C   UNL A   1      35.554  22.930  25.985  1.00  0.00     0.390 C 
ATOM     18  F   UNL A   1      35.238  23.398  24.762  1.00  0.00    -0.171 F 
ATOM     19  F   UNL A   1      36.521  23.740  26.477  1.00  0.00    -0.171 F 
ATOM     20  F   UNL A   1      36.106  21.711  25.843  1.00  0.00    -0.171 F 
ENDBRANCH  16  17
ENDBRANCH   8  16
ENDBRANCH   5   8
ENDBRANCH   3   4
ENDBRANCH   2   3
ENDBRANCH   1   2
BRANCH   1  21
ATOM     21  C   UNL A   1      32.346  29.036  27.050  1.00  0.00     0.002 C 
BRANCH  21  22
ATOM     22  C   UNL A   1      32.889  30.455  27.252  1.00  0.00     0.021 C 
BRANCH  22  23
ATOM     23  C   UNL A   1      34.406  30.541  27.328  1.00  0.00     0.116 C 
BRANCH  23  24
ATOM     24  N   UNL A   1      34.897  31.311  28.468  1.00  0.00    -0.352 N 
ATOM     25  C   UNL A   1      35.881  30.972  29.382  1.00  0.00     0.251 C 
ATOM     26  H   UNL A   1      34.471  32.188  28.605  1.00  0.00     0.163 HD
ATOM     27  O   UNL A   1      36.175  31.716  30.302  1.00  0.00    -0.269 OA
BRANCH  25  28
ATOM     28  C   UNL A   1      36.661  29.738  29.141  1.00  0.00     0.039 A 
ATOM     29  C   UNL A   1      37.034  28.978  30.254  1.00  0.00     0.014 A 
ATOM     30  C   UNL A   1      37.223  29.494  27.890  1.00  0.00     0.014 A 
ATOM     31  C   UNL A   1      38.152  28.155  30.165  1.00  0.00     0.010 A 
ATOM     32  C   UNL A   1      38.384  28.750  27.823  1.00  0.00     0.010 A 
ATOM     33  C   UNL A   1      38.890  28.150  28.981  1.00  0.00    -0.014 A 
BRANCH  33  34
ATOM     34  C   UNL A   1      40.258  27.649  28.907  1.00  0.00     0.031 A 
ATOM     35  C   UNL A   1      40.524  26.243  28.556  1.00  0.00     0.074 A 
ATOM     36  C   UNL A   1      41.287  28.501  29.106  1.00  0.00     0.049 A 
ATOM     37  N   UNL A   1      41.624  25.622  28.816  1.00  0.00    -0.248 NA
ATOM     38  C   UNL A   1      39.527  25.404  27.909  1.00  0.00     0.031 C 
ATOM     39  C   UNL A   1      42.706  28.261  28.856  1.00  0.00     0.029 A 
ATOM     40  N   UNL A   1      41.262  29.712  29.822  1.00  0.00    -0.354 N 
ATOM     41  C   UNL A   1      41.595  24.413  28.160  1.00  0.00     0.074 A 
ATOM     42  C   UNL A   1      40.242  24.302  27.664  1.00  0.00     0.031 C 
ATOM     43  C   UNL A   1      43.423  29.063  29.657  1.00  0.00     0.029 A 
ATOM     44  C   UNL A   1      42.486  29.739  30.535  1.00  0.00     0.049 A 
ATOM     45  H   UNL A   1      40.549  30.391  29.827  1.00  0.00     0.167 HD
ATOM     46  C   UNL A   1      42.758  23.710  28.020  1.00  0.00     0.037 A 
ATOM     47  C   UNL A   1      42.496  29.678  31.899  1.00  0.00     0.037 A 
ATOM     48  C   UNL A   1      43.849  24.317  28.787  1.00  0.00     0.049 A 
ATOM     49  C   UNL A   1      43.218  28.478  32.479  1.00  0.00     0.074 A 
ATOM     50  C   UNL A   1      44.944  25.109  28.478  1.00  0.00     0.029 A 
ATOM     51  N   UNL A   1      43.735  24.361  30.167  1.00  0.00    -0.354 N 
ATOM     52  N   UNL A   1      43.733  27.507  31.777  1.00  0.00    -0.248 NA
ATOM     53  C   UNL A   1      43.310  28.233  33.920  1.00  0.00     0.031 C 
ATOM     54  C   UNL A   1      45.485  25.623  29.695  1.00  0.00     0.029 A 
ATOM     55  C   UNL A   1      44.717  25.146  30.740  1.00  0.00     0.049 A 
ATOM     56  H   UNL A   1      43.037  23.890  30.678  1.00  0.00     0.167 HD
ATOM     57  C   UNL A   1      44.168  26.519  32.623  1.00  0.00     0.074 A 
ATOM     58  C   UNL A   1      43.873  27.015  33.953  1.00  0.00     0.031 C 
ATOM     59  C   UNL A   1      44.700  25.343  32.178  1.00  0.00     0.037 A 
BRANCH  46  60
ATOM     60  C   UNL A   1      42.965  22.610  26.996  1.00  0.00     0.064 A 
ATOM     61  C   UNL A   1      42.308  21.367  27.131  1.00  0.00     0.173 A 
ATOM     62  C   UNL A   1      43.847  22.682  25.902  1.00  0.00     0.173 A 
ATOM     63  F   UNL A   1      41.344  21.177  28.040  1.00  0.00    -0.203 F 
ATOM     64  C   UNL A   1      42.619  20.260  26.334  1.00  0.00     0.198 A 
ATOM     65  C   UNL A   1      44.204  21.562  25.144  1.00  0.00     0.198 A 
ATOM     66  F   UNL A   1      44.341  23.850  25.479  1.00  0.00    -0.203 F 
ATOM     67  F   UNL A   1      41.968  19.102  26.522  1.00  0.00    -0.200 F 
ATOM     68  C   UNL A   1      43.601  20.344  25.371  1.00  0.00     0.200 A 
ATOM     69  F   UNL A   1      45.137  21.677  24.188  1.00  0.00    -0.200 F 
ATOM     70  F   UNL A   1      43.938  19.271  24.644  1.00  0.00    -0.200 F 
ENDBRANCH  46  60
BRANCH  47  71
ATOM     71  C   UNL A   1      41.315  30.339  32.518  1.00  0.00     0.064 A 
ATOM     72  C   UNL A   1      41.219  31.744  32.459  1.00  0.00     0.173 A 
ATOM     73  C   UNL A   1      40.157  29.626  32.845  1.00  0.00     0.173 A 
ATOM     74  F   UNL A   1      42.299  32.479  32.148  1.00  0.00    -0.203 F 
ATOM     75  C   UNL A   1      39.995  32.394  32.605  1.00  0.00     0.198 A 
ATOM     76  C   UNL A   1      38.938  30.283  33.013  1.00  0.00     0.198 A 
ATOM     77  F   UNL A   1      40.173  28.287  32.890  1.00  0.00    -0.203 F 
ATOM     78  F   UNL A   1      39.917  33.720  32.428  1.00  0.00    -0.200 F 
ATOM     79  C   UNL A   1      38.851  31.659  32.859  1.00  0.00     0.200 A 
ATOM     80  F   UNL A   1      37.825  29.568  33.233  1.00  0.00    -0.200 F 
ATOM     81  F   UNL A   1      37.659  32.269  32.916  1.00  0.00    -0.200 F 
ENDBRANCH  47  71
BRANCH  59  82
ATOM     82  C   UNL A   1      45.221  24.269  33.092  1.00  0.00     0.064 A 
ATOM     83  C   UNL A   1      44.434  23.180  33.505  1.00  0.00     0.173 A 
ATOM     84  C   UNL A   1      46.506  24.353  33.671  1.00  0.00     0.173 A 
ATOM     85  F   UNL A   1      43.165  23.053  33.089  1.00  0.00    -0.203 F 
ATOM     86  C   UNL A   1      44.925  22.205  34.375  1.00  0.00     0.198 A 
ATOM     87  C   UNL A   1      46.975  23.407  34.581  1.00  0.00     0.198 A 
ATOM     88  F   UNL A   1      47.355  25.340  33.354  1.00  0.00    -0.203 F 
ATOM     89  F   UNL A   1      44.161  21.149  34.688  1.00  0.00    -0.200 F 
ATOM     90  C   UNL A   1      46.192  22.322  34.918  1.00  0.00     0.200 A 
ATOM     91  F   UNL A   1      48.193  23.550  35.122  1.00  0.00    -0.200 F 
ATOM     92  F   UNL A   1      46.656  21.393  35.764  1.00  0.00    -0.200 F 
ENDBRANCH  59  82
ENDBRANCH  33  34
ENDBRANCH  25  28
ENDBRANCH  23  24
ENDBRANCH  22  23
ENDBRANCH  21  22
ENDBRANCH   1  21
TORSDOF 16
ENDMDL
