MODEL 1
REMARK VINA RESULT:     -11.9      0.000      0.000
REMARK SMILES COCC[C@]1(C(=O)NCCCCCCNC(=O)c2ccc(-c3c4nc(c(-c5c(F)c(F)c(F)c(F)c5F)c5ccc([nH]5)c(-c5c(F)c(F)c(F)c(F)c5F)c5nc(c(-c6c(F)c(F)c(F)c(F)c6F)c6ccc3[nH]6)C=C5)C=C4)cc2)CCCN(C(=O)c2ccc(=O)[nH]c2)C1
REMARK SMILES IDX 11 1 10 2 9 3 8 4 6 5 7 6 5 8 81 9 94 10 82 11 84 12 83 13
REMARK SMILES IDX 4 14 3 15 2 16 1 17 85 18 86 19 87 20 88 21 93 22 89 23
REMARK SMILES IDX 92 24 90 25 91 27 12 28 13 29 14 30 15 31 16 32 17 34 18 35
REMARK SMILES IDX 19 36 80 37 20 38 79 39 21 40 22 41 23 42 73 43 24 44 78 45
REMARK SMILES IDX 72 46 74 47 25 48 77 49 71 50 70 51 26 53 58 54 38 55 57 56
REMARK SMILES IDX 39 57 42 58 56 59 75 60 40 61 41 62 55 64 76 65 43 66 27 67
REMARK SMILES IDX 28 68 36 69 29 70 30 71 34 72 37 73 31 74 32 75 35 76 33 77
REMARK SMILES IDX 59 78 60 79 68 80 61 81 62 82 66 83 69 84 63 85 64 86 67 87
REMARK SMILES IDX 65 88 44 89 45 90 53 91 46 92 47 93 51 94 54 95 48 96 49 97
REMARK SMILES IDX 52 98 50 99
REMARK H PARENT 8 7 92 26 15 33 74 52 42 63
REMARK Flexibility Score: inf
ROOT
ATOM      1  C   UNL A   1      37.218  22.195  24.690  1.00  0.00     0.002 C 
ENDROOT
BRANCH   1   2
ATOM      2  C   UNL A   1      36.793  23.160  25.801  1.00  0.00     0.021 C 
BRANCH   2   3
ATOM      3  C   UNL A   1      35.823  24.279  25.395  1.00  0.00     0.116 C 
BRANCH   3   4
ATOM      4  N   UNL A   1      34.446  23.909  25.622  1.00  0.00    -0.356 N 
ATOM      5  C   UNL A   1      33.309  24.646  25.577  1.00  0.00     0.228 C 
ATOM      6  O   UNL A   1      32.516  24.360  26.481  1.00  0.00    -0.274 OA
ATOM      7  H   UNL A   1      34.309  22.960  25.849  1.00  0.00     0.163 HD
BRANCH   5   8
ATOM      8  C   UNL A   1      33.061  25.858  24.633  1.00  0.00     0.069 C 
ATOM      9  C   UNL A   1      33.722  25.403  23.279  1.00  0.00     0.021 C 
ATOM     10  C   UNL A   1      31.583  26.316  24.440  1.00  0.00     0.136 C 
ATOM     11  C   UNL A   1      33.120  25.843  21.941  1.00  0.00     0.023 C 
ATOM     12  N   UNL A   1      31.407  26.979  23.133  1.00  0.00    -0.338 N 
ATOM     13  C   UNL A   1      31.628  26.078  22.021  1.00  0.00     0.120 C 
BRANCH   8  14
ATOM     14  C   UNL A   1      33.860  27.077  25.237  1.00  0.00     0.047 C 
BRANCH  14  15
ATOM     15  C   UNL A   1      33.150  27.923  26.329  1.00  0.00     0.161 C 
BRANCH  15  16
ATOM     16  O   UNL A   1      33.209  29.319  26.053  1.00  0.00    -0.385 OA
ATOM     17  C   UNL A   1      32.482  30.138  26.959  1.00  0.00     0.194 C 
ENDBRANCH  15  16
ENDBRANCH  14  15
ENDBRANCH   8  14
BRANCH  12  18
ATOM     18  C   UNL A   1      31.489  28.372  23.016  1.00  0.00     0.255 C 
ATOM     19  O   UNL A   1      32.492  28.959  22.619  1.00  0.00    -0.269 OA
BRANCH  18  20
ATOM     20  C   UNL A   1      30.229  29.146  23.288  1.00  0.00     0.056 A 
ATOM     21  C   UNL A   1      28.924  28.684  22.853  1.00  0.00     0.021 A 
ATOM     22  C   UNL A   1      30.334  30.353  23.872  1.00  0.00     0.099 A 
ATOM     23  C   UNL A   1      27.851  29.486  22.928  1.00  0.00     0.072 A 
ATOM     24  N   UNL A   1      29.235  31.178  23.972  1.00  0.00    -0.328 N 
ATOM     25  C   UNL A   1      27.984  30.854  23.499  1.00  0.00     0.247 A 
ATOM     26  H   UNL A   1      29.351  32.053  24.410  1.00  0.00     0.169 HD
ATOM     27  O   UNL A   1      27.038  31.627  23.528  1.00  0.00    -0.270 OA
ENDBRANCH  18  20
ENDBRANCH  12  18
ENDBRANCH   5   8
ENDBRANCH   3   4
ENDBRANCH   2   3
ENDBRANCH   1   2
BRANCH   1  28
ATOM     28  C   UNL A   1      36.858  20.730  24.919  1.00  0.00     0.002 C 
BRANCH  28  29
ATOM     29  C   UNL A   1      38.044  19.764  24.884  1.00  0.00     0.021 C 
BRANCH  29  30
ATOM     30  C   UNL A   1      39.234  20.188  25.738  1.00  0.00     0.116 C 
BRANCH  30  31
ATOM     31  N   UNL A   1      40.215  19.126  25.873  1.00  0.00    -0.352 N 
ATOM     32  C   UNL A   1      41.565  19.224  26.112  1.00  0.00     0.251 C 
ATOM     33  H   UNL A   1      39.866  18.211  25.783  1.00  0.00     0.163 HD
ATOM     34  O   UNL A   1      42.295  18.249  25.980  1.00  0.00    -0.269 OA
BRANCH  32  35
ATOM     35  C   UNL A   1      42.136  20.527  26.513  1.00  0.00     0.039 A 
ATOM     36  C   UNL A   1      42.704  21.349  25.537  1.00  0.00     0.014 A 
ATOM     37  C   UNL A   1      42.103  20.935  27.849  1.00  0.00     0.014 A 
ATOM     38  C   UNL A   1      43.183  22.611  25.893  1.00  0.00     0.010 A 
ATOM     39  C   UNL A   1      42.509  22.221  28.188  1.00  0.00     0.010 A 
ATOM     40  C   UNL A   1      43.056  23.071  27.215  1.00  0.00    -0.014 A 
BRANCH  40  41
ATOM     41  C   UNL A   1      43.495  24.436  27.605  1.00  0.00     0.031 A 
ATOM     42  C   UNL A   1      42.472  25.487  27.934  1.00  0.00     0.074 A 
ATOM     43  C   UNL A   1      44.805  24.745  27.596  1.00  0.00     0.049 A 
ATOM     44  N   UNL A   1      42.645  26.757  28.203  1.00  0.00    -0.248 NA
ATOM     45  C   UNL A   1      41.064  25.060  27.935  1.00  0.00     0.031 C 
ATOM     46  C   UNL A   1      45.891  23.821  27.261  1.00  0.00     0.029 A 
ATOM     47  N   UNL A   1      45.449  25.928  27.864  1.00  0.00    -0.354 N 
ATOM     48  C   UNL A   1      41.373  27.279  28.394  1.00  0.00     0.074 A 
ATOM     49  C   UNL A   1      40.434  26.206  28.151  1.00  0.00     0.031 C 
ATOM     50  C   UNL A   1      47.064  24.465  27.365  1.00  0.00     0.029 A 
ATOM     51  C   UNL A   1      46.814  25.857  27.728  1.00  0.00     0.049 A 
ATOM     52  H   UNL A   1      44.976  26.750  28.129  1.00  0.00     0.167 HD
ATOM     53  C   UNL A   1      41.021  28.533  28.765  1.00  0.00     0.037 A 
ATOM     54  C   UNL A   1      47.755  26.810  27.866  1.00  0.00     0.037 A 
ATOM     55  C   UNL A   1      41.960  29.593  29.022  1.00  0.00     0.049 A 
ATOM     56  C   UNL A   1      47.333  28.207  28.241  1.00  0.00     0.074 A 
ATOM     57  C   UNL A   1      41.707  30.887  29.443  1.00  0.00     0.029 A 
ATOM     58  N   UNL A   1      43.336  29.480  28.879  1.00  0.00    -0.354 N 
ATOM     59  N   UNL A   1      46.130  28.674  28.477  1.00  0.00    -0.248 NA
ATOM     60  C   UNL A   1      48.401  29.208  28.375  1.00  0.00     0.031 C 
ATOM     61  C   UNL A   1      42.924  31.572  29.503  1.00  0.00     0.029 A 
ATOM     62  C   UNL A   1      43.942  30.689  29.180  1.00  0.00     0.049 A 
ATOM     63  H   UNL A   1      43.810  28.662  28.604  1.00  0.00     0.167 HD
ATOM     64  C   UNL A   1      46.300  30.009  28.821  1.00  0.00     0.074 A 
ATOM     65  C   UNL A   1      47.723  30.274  28.774  1.00  0.00     0.031 C 
ATOM     66  C   UNL A   1      45.362  30.932  29.146  1.00  0.00     0.037 A 
BRANCH  53  67
ATOM     67  C   UNL A   1      39.556  28.828  28.919  1.00  0.00     0.064 A 
ATOM     68  C   UNL A   1      38.903  28.689  30.153  1.00  0.00     0.173 A 
ATOM     69  C   UNL A   1      38.803  29.293  27.831  1.00  0.00     0.173 A 
ATOM     70  F   UNL A   1      39.573  28.238  31.225  1.00  0.00    -0.203 F 
ATOM     71  C   UNL A   1      37.546  28.974  30.285  1.00  0.00     0.198 A 
ATOM     72  C   UNL A   1      37.454  29.611  27.972  1.00  0.00     0.198 A 
ATOM     73  F   UNL A   1      39.377  29.450  26.628  1.00  0.00    -0.203 F 
ATOM     74  F   UNL A   1      36.934  28.783  31.462  1.00  0.00    -0.200 F 
ATOM     75  C   UNL A   1      36.826  29.443  29.197  1.00  0.00     0.200 A 
ATOM     76  F   UNL A   1      36.763  30.077  26.924  1.00  0.00    -0.200 F 
ATOM     77  F   UNL A   1      35.522  29.727  29.328  1.00  0.00    -0.200 F 
ENDBRANCH  53  67
BRANCH  54  78
ATOM     78  C   UNL A   1      49.192  26.480  27.666  1.00  0.00     0.064 A 
ATOM     79  C   UNL A   1      50.027  26.211  28.759  1.00  0.00     0.173 A 
ATOM     80  C   UNL A   1      49.764  26.447  26.386  1.00  0.00     0.173 A 
ATOM     81  F   UNL A   1      49.532  26.250  30.005  1.00  0.00    -0.203 F 
ATOM     82  C   UNL A   1      51.385  25.950  28.583  1.00  0.00     0.198 A 
ATOM     83  C   UNL A   1      51.114  26.155  26.208  1.00  0.00     0.198 A 
ATOM     84  F   UNL A   1      49.009  26.692  25.305  1.00  0.00    -0.203 F 
ATOM     85  F   UNL A   1      52.170  25.753  29.650  1.00  0.00    -0.200 F 
ATOM     86  C   UNL A   1      51.926  25.918  27.307  1.00  0.00     0.200 A 
ATOM     87  F   UNL A   1      51.630  26.107  24.972  1.00  0.00    -0.200 F 
ATOM     88  F   UNL A   1      53.232  25.667  27.136  1.00  0.00    -0.200 F 
ENDBRANCH  54  78
BRANCH  66  89
ATOM     89  C   UNL A   1      45.843  32.303  29.528  1.00  0.00     0.064 A 
ATOM     90  C   UNL A   1      46.177  32.628  30.850  1.00  0.00     0.173 A 
ATOM     91  C   UNL A   1      46.018  33.288  28.544  1.00  0.00     0.173 A 
ATOM     92  F   UNL A   1      46.013  31.727  31.830  1.00  0.00    -0.203 F 
ATOM     93  C   UNL A   1      46.648  33.897  31.177  1.00  0.00     0.198 A 
ATOM     94  C   UNL A   1      46.522  34.545  28.868  1.00  0.00     0.198 A 
ATOM     95  F   UNL A   1      45.720  33.026  27.262  1.00  0.00    -0.203 F 
ATOM     96  F   UNL A   1      46.916  34.202  32.454  1.00  0.00    -0.200 F 
ATOM     97  C   UNL A   1      46.828  34.851  30.185  1.00  0.00     0.200 A 
ATOM     98  F   UNL A   1      46.710  35.458  27.907  1.00  0.00    -0.200 F 
ATOM     99  F   UNL A   1      47.294  36.067  30.500  1.00  0.00    -0.200 F 
ENDBRANCH  66  89
ENDBRANCH  40  41
ENDBRANCH  32  35
ENDBRANCH  30  31
ENDBRANCH  29  30
ENDBRANCH  28  29
ENDBRANCH   1  28
TORSDOF 18
ENDMDL
MODEL 2
REMARK VINA RESULT:     -11.8      5.288     10.943
REMARK SMILES COCC[C@]1(C(=O)NCCCCCCNC(=O)c2ccc(-c3c4nc(c(-c5c(F)c(F)c(F)c(F)c5F)c5ccc([nH]5)c(-c5c(F)c(F)c(F)c(F)c5F)c5nc(c(-c6c(F)c(F)c(F)c(F)c6F)c6ccc3[nH]6)C=C5)C=C4)cc2)CCCN(C(=O)c2ccc(=O)[nH]c2)C1
REMARK SMILES IDX 11 1 10 2 9 3 8 4 6 5 7 6 5 8 81 9 94 10 82 11 84 12 83 13
REMARK SMILES IDX 4 14 3 15 2 16 1 17 85 18 86 19 87 20 88 21 93 22 89 23
REMARK SMILES IDX 92 24 90 25 91 27 12 28 13 29 14 30 15 31 16 32 17 34 18 35
REMARK SMILES IDX 19 36 80 37 20 38 79 39 21 40 22 41 23 42 73 43 24 44 78 45
REMARK SMILES IDX 72 46 74 47 25 48 77 49 71 50 70 51 26 53 58 54 38 55 57 56
REMARK SMILES IDX 39 57 42 58 56 59 75 60 40 61 41 62 55 64 76 65 43 66 27 67
REMARK SMILES IDX 28 68 36 69 29 70 30 71 34 72 37 73 31 74 32 75 35 76 33 77
REMARK SMILES IDX 59 78 60 79 68 80 61 81 62 82 66 83 69 84 63 85 64 86 67 87
REMARK SMILES IDX 65 88 44 89 45 90 53 91 46 92 47 93 51 94 54 95 48 96 49 97
REMARK SMILES IDX 52 98 50 99
REMARK H PARENT 8 7 92 26 15 33 74 52 42 63
REMARK Flexibility Score: inf
ROOT
ATOM      1  C   UNL A   1      31.998  29.661  27.216  1.00  0.00     0.002 C 
ENDROOT
BRANCH   1   2
ATOM      2  C   UNL A   1      32.932  28.520  26.804  1.00  0.00     0.021 C 
BRANCH   2   3
ATOM      3  C   UNL A   1      32.332  27.455  25.873  1.00  0.00     0.116 C 
BRANCH   3   4
ATOM      4  N   UNL A   1      31.475  26.537  26.586  1.00  0.00    -0.356 N 
ATOM      5  C   UNL A   1      31.124  25.256  26.313  1.00  0.00     0.228 C 
ATOM      6  O   UNL A   1      29.933  25.024  26.552  1.00  0.00    -0.274 OA
ATOM      7  H   UNL A   1      31.077  26.903  27.410  1.00  0.00     0.163 HD
BRANCH   5   8
ATOM      8  C   UNL A   1      32.027  24.209  25.600  1.00  0.00     0.069 C 
ATOM      9  C   UNL A   1      33.423  24.397  26.302  1.00  0.00     0.021 C 
ATOM     10  C   UNL A   1      31.552  22.724  25.630  1.00  0.00     0.136 C 
ATOM     11  C   UNL A   1      34.350  23.196  26.512  1.00  0.00     0.023 C 
ATOM     12  N   UNL A   1      32.701  21.804  25.518  1.00  0.00    -0.338 N 
ATOM     13  C   UNL A   1      33.594  21.893  26.654  1.00  0.00     0.120 C 
BRANCH   8  14
ATOM     14  C   UNL A   1      32.124  24.646  24.087  1.00  0.00     0.047 C 
BRANCH  14  15
ATOM     15  C   UNL A   1      33.472  25.250  23.606  1.00  0.00     0.161 C 
BRANCH  15  16
ATOM     16  O   UNL A   1      33.663  25.093  22.204  1.00  0.00    -0.385 OA
ATOM     17  C   UNL A   1      32.848  25.928  21.393  1.00  0.00     0.194 C 
ENDBRANCH  15  16
ENDBRANCH  14  15
ENDBRANCH   8  14
BRANCH  12  18
ATOM     18  C   UNL A   1      33.093  21.291  24.276  1.00  0.00     0.255 C 
ATOM     19  O   UNL A   1      33.372  21.997  23.310  1.00  0.00    -0.269 OA
BRANCH  18  20
ATOM     20  C   UNL A   1      33.284  19.802  24.192  1.00  0.00     0.056 A 
ATOM     21  C   UNL A   1      34.503  19.149  24.634  1.00  0.00     0.021 A 
ATOM     22  C   UNL A   1      32.327  19.067  23.599  1.00  0.00     0.099 A 
ATOM     23  C   UNL A   1      34.727  17.854  24.362  1.00  0.00     0.072 A 
ATOM     24  N   UNL A   1      32.537  17.732  23.330  1.00  0.00    -0.328 N 
ATOM     25  C   UNL A   1      33.700  17.061  23.631  1.00  0.00     0.247 A 
ATOM     26  H   UNL A   1      31.811  17.227  22.899  1.00  0.00     0.169 HD
ATOM     27  O   UNL A   1      33.900  15.896  23.319  1.00  0.00    -0.270 OA
ENDBRANCH  18  20
ENDBRANCH  12  18
ENDBRANCH   5   8
ENDBRANCH   3   4
ENDBRANCH   2   3
ENDBRANCH   1   2
BRANCH   1  28
ATOM     28  C   UNL A   1      31.650  30.657  26.113  1.00  0.00     0.002 C 
BRANCH  28  29
ATOM     29  C   UNL A   1      31.412  32.090  26.593  1.00  0.00     0.021 C 
BRANCH  29  30
ATOM     30  C   UNL A   1      32.603  32.728  27.301  1.00  0.00     0.116 C 
BRANCH  30  31
ATOM     31  N   UNL A   1      32.379  34.135  27.583  1.00  0.00    -0.352 N 
ATOM     32  C   UNL A   1      32.966  34.926  28.541  1.00  0.00     0.251 C 
ATOM     33  H   UNL A   1      31.718  34.584  27.008  1.00  0.00     0.163 HD
ATOM     34  O   UNL A   1      32.513  36.035  28.798  1.00  0.00    -0.269 OA
BRANCH  32  35
ATOM     35  C   UNL A   1      34.143  34.419  29.277  1.00  0.00     0.039 A 
ATOM     36  C   UNL A   1      33.952  33.764  30.495  1.00  0.00     0.014 A 
ATOM     37  C   UNL A   1      35.430  34.585  28.758  1.00  0.00     0.014 A 
ATOM     38  C   UNL A   1      35.049  33.218  31.164  1.00  0.00     0.010 A 
ATOM     39  C   UNL A   1      36.511  33.975  29.385  1.00  0.00     0.010 A 
ATOM     40  C   UNL A   1      36.333  33.289  30.596  1.00  0.00    -0.014 A 
BRANCH  40  41
ATOM     41  C   UNL A   1      37.506  32.658  31.253  1.00  0.00     0.031 A 
ATOM     42  C   UNL A   1      38.217  31.515  30.583  1.00  0.00     0.074 A 
ATOM     43  C   UNL A   1      37.886  33.066  32.479  1.00  0.00     0.049 A 
ATOM     44  N   UNL A   1      39.197  30.771  31.031  1.00  0.00    -0.248 NA
ATOM     45  C   UNL A   1      37.747  31.143  29.239  1.00  0.00     0.031 C 
ATOM     46  C   UNL A   1      37.254  34.141  33.247  1.00  0.00     0.029 A 
ATOM     47  N   UNL A   1      38.888  32.617  33.302  1.00  0.00    -0.354 N 
ATOM     48  C   UNL A   1      39.450  29.841  30.032  1.00  0.00     0.074 A 
ATOM     49  C   UNL A   1      38.485  30.074  28.981  1.00  0.00     0.031 C 
ATOM     50  C   UNL A   1      37.897  34.282  34.417  1.00  0.00     0.029 A 
ATOM     51  C   UNL A   1      38.955  33.280  34.504  1.00  0.00     0.049 A 
ATOM     52  H   UNL A   1      39.503  31.888  33.055  1.00  0.00     0.167 HD
ATOM     53  C   UNL A   1      40.419  28.895  29.984  1.00  0.00     0.037 A 
ATOM     54  C   UNL A   1      39.768  33.091  35.561  1.00  0.00     0.037 A 
ATOM     55  C   UNL A   1      41.388  28.678  31.026  1.00  0.00     0.049 A 
ATOM     56  C   UNL A   1      40.811  32.005  35.497  1.00  0.00     0.074 A 
ATOM     57  C   UNL A   1      42.435  27.774  31.055  1.00  0.00     0.029 A 
ATOM     58  N   UNL A   1      41.426  29.375  32.225  1.00  0.00    -0.354 N 
ATOM     59  N   UNL A   1      41.080  31.171  34.522  1.00  0.00    -0.248 NA
ATOM     60  C   UNL A   1      41.668  31.841  36.680  1.00  0.00     0.031 C 
ATOM     61  C   UNL A   1      43.074  27.886  32.294  1.00  0.00     0.029 A 
ATOM     62  C   UNL A   1      42.464  28.902  33.012  1.00  0.00     0.049 A 
ATOM     63  H   UNL A   1      40.807  30.097  32.480  1.00  0.00     0.167 HD
ATOM     64  C   UNL A   1      42.156  30.409  34.958  1.00  0.00     0.074 A 
ATOM     65  C   UNL A   1      42.498  30.888  36.281  1.00  0.00     0.031 C 
ATOM     66  C   UNL A   1      42.803  29.403  34.320  1.00  0.00     0.037 A 
BRANCH  53  67
ATOM     67  C   UNL A   1      40.481  28.024  28.762  1.00  0.00     0.064 A 
ATOM     68  C   UNL A   1      41.257  28.374  27.647  1.00  0.00     0.173 A 
ATOM     69  C   UNL A   1      39.789  26.804  28.719  1.00  0.00     0.173 A 
ATOM     70  F   UNL A   1      41.930  29.535  27.630  1.00  0.00    -0.203 F 
ATOM     71  C   UNL A   1      41.314  27.553  26.523  1.00  0.00     0.198 A 
ATOM     72  C   UNL A   1      39.874  25.968  27.608  1.00  0.00     0.198 A 
ATOM     73  F   UNL A   1      39.036  26.415  29.760  1.00  0.00    -0.203 F 
ATOM     74  F   UNL A   1      42.019  27.936  25.451  1.00  0.00    -0.200 F 
ATOM     75  C   UNL A   1      40.629  26.347  26.509  1.00  0.00     0.200 A 
ATOM     76  F   UNL A   1      39.225  24.796  27.601  1.00  0.00    -0.200 F 
ATOM     77  F   UNL A   1      40.692  25.553  25.431  1.00  0.00    -0.200 F 
ENDBRANCH  53  67
BRANCH  54  78
ATOM     78  C   UNL A   1      39.644  33.954  36.766  1.00  0.00     0.064 A 
ATOM     79  C   UNL A   1      40.334  35.171  36.853  1.00  0.00     0.173 A 
ATOM     80  C   UNL A   1      38.854  33.574  37.861  1.00  0.00     0.173 A 
ATOM     81  F   UNL A   1      41.119  35.569  35.840  1.00  0.00    -0.203 F 
ATOM     82  C   UNL A   1      40.262  35.961  37.999  1.00  0.00     0.198 A 
ATOM     83  C   UNL A   1      38.757  34.379  38.994  1.00  0.00     0.198 A 
ATOM     84  F   UNL A   1      38.168  32.422  37.828  1.00  0.00    -0.203 F 
ATOM     85  F   UNL A   1      40.977  37.091  38.076  1.00  0.00    -0.200 F 
ATOM     86  C   UNL A   1      39.470  35.566  39.066  1.00  0.00     0.200 A 
ATOM     87  F   UNL A   1      37.977  34.003  40.016  1.00  0.00    -0.200 F 
ATOM     88  F   UNL A   1      39.401  36.325  40.169  1.00  0.00    -0.200 F 
ENDBRANCH  54  78
BRANCH  66  89
ATOM     89  C   UNL A   1      43.980  28.783  35.019  1.00  0.00     0.064 A 
ATOM     90  C   UNL A   1      43.841  27.662  35.849  1.00  0.00     0.173 A 
ATOM     91  C   UNL A   1      45.272  29.292  34.812  1.00  0.00     0.173 A 
ATOM     92  F   UNL A   1      42.626  27.146  36.091  1.00  0.00    -0.203 F 
ATOM     93  C   UNL A   1      44.949  27.086  36.465  1.00  0.00     0.198 A 
ATOM     94  C   UNL A   1      46.381  28.693  35.402  1.00  0.00     0.198 A 
ATOM     95  F   UNL A   1      45.460  30.359  34.021  1.00  0.00    -0.203 F 
ATOM     96  F   UNL A   1      44.788  26.044  37.292  1.00  0.00    -0.200 F 
ATOM     97  C   UNL A   1      46.218  27.597  36.234  1.00  0.00     0.200 A 
ATOM     98  F   UNL A   1      47.608  29.178  35.164  1.00  0.00    -0.200 F 
ATOM     99  F   UNL A   1      47.285  27.033  36.817  1.00  0.00    -0.200 F 
ENDBRANCH  66  89
ENDBRANCH  40  41
ENDBRANCH  32  35
ENDBRANCH  30  31
ENDBRANCH  29  30
ENDBRANCH  28  29
ENDBRANCH   1  28
TORSDOF 18
ENDMDL
MODEL 3
REMARK VINA RESULT:     -11.7      5.245     10.841
REMARK SMILES COCC[C@]1(C(=O)NCCCCCCNC(=O)c2ccc(-c3c4nc(c(-c5c(F)c(F)c(F)c(F)c5F)c5ccc([nH]5)c(-c5c(F)c(F)c(F)c(F)c5F)c5nc(c(-c6c(F)c(F)c(F)c(F)c6F)c6ccc3[nH]6)C=C5)C=C4)cc2)CCCN(C(=O)c2ccc(=O)[nH]c2)C1
REMARK SMILES IDX 11 1 10 2 9 3 8 4 6 5 7 6 5 8 81 9 94 10 82 11 84 12 83 13
REMARK SMILES IDX 4 14 3 15 2 16 1 17 85 18 86 19 87 20 88 21 93 22 89 23
REMARK SMILES IDX 92 24 90 25 91 27 12 28 13 29 14 30 15 31 16 32 17 34 18 35
REMARK SMILES IDX 19 36 80 37 20 38 79 39 21 40 22 41 23 42 73 43 24 44 78 45
REMARK SMILES IDX 72 46 74 47 25 48 77 49 71 50 70 51 26 53 58 54 38 55 57 56
REMARK SMILES IDX 39 57 42 58 56 59 75 60 40 61 41 62 55 64 76 65 43 66 27 67
REMARK SMILES IDX 28 68 36 69 29 70 30 71 34 72 37 73 31 74 32 75 35 76 33 77
REMARK SMILES IDX 59 78 60 79 68 80 61 81 62 82 66 83 69 84 63 85 64 86 67 87
REMARK SMILES IDX 65 88 44 89 45 90 53 91 46 92 47 93 51 94 54 95 48 96 49 97
REMARK SMILES IDX 52 98 50 99
REMARK H PARENT 8 7 92 26 15 33 74 52 42 63
REMARK Flexibility Score: inf
ROOT
ATOM      1  C   UNL A   1      32.487  29.796  27.098  1.00  0.00     0.002 C 
ENDROOT
BRANCH   1   2
ATOM      2  C   UNL A   1      33.811  29.276  26.530  1.00  0.00     0.021 C 
BRANCH   2   3
ATOM      3  C   UNL A   1      33.847  27.789  26.148  1.00  0.00     0.116 C 
BRANCH   3   4
ATOM      4  N   UNL A   1      33.296  27.556  24.833  1.00  0.00    -0.356 N 
ATOM      5  C   UNL A   1      33.438  26.508  23.984  1.00  0.00     0.228 C 
ATOM      6  O   UNL A   1      33.555  26.860  22.805  1.00  0.00    -0.274 OA
ATOM      7  H   UNL A   1      32.721  28.281  24.496  1.00  0.00     0.163 HD
BRANCH   5   8
ATOM      8  C   UNL A   1      33.629  25.025  24.411  1.00  0.00     0.069 C 
ATOM      9  C   UNL A   1      33.985  24.302  23.060  1.00  0.00     0.021 C 
ATOM     10  C   UNL A   1      34.681  24.736  25.526  1.00  0.00     0.136 C 
ATOM     11  C   UNL A   1      34.950  23.112  23.052  1.00  0.00     0.023 C 
ATOM     12  N   UNL A   1      35.215  23.366  25.399  1.00  0.00    -0.338 N 
ATOM     13  C   UNL A   1      35.963  23.174  24.174  1.00  0.00     0.120 C 
BRANCH   8  14
ATOM     14  C   UNL A   1      32.230  24.519  24.937  1.00  0.00     0.047 C 
BRANCH  14  15
ATOM     15  C   UNL A   1      31.921  24.722  26.446  1.00  0.00     0.161 C 
BRANCH  15  16
ATOM     16  O   UNL A   1      30.773  25.538  26.657  1.00  0.00    -0.385 OA
ATOM     17  C   UNL A   1      30.090  25.925  25.472  1.00  0.00     0.194 C 
ENDBRANCH  15  16
ENDBRANCH  14  15
ENDBRANCH   8  14
BRANCH  12  18
ATOM     18  C   UNL A   1      34.663  22.308  26.131  1.00  0.00     0.255 C 
ATOM     19  O   UNL A   1      34.420  22.372  27.333  1.00  0.00    -0.269 OA
BRANCH  18  20
ATOM     20  C   UNL A   1      34.250  21.091  25.350  1.00  0.00     0.056 A 
ATOM     21  C   UNL A   1      32.903  20.915  24.842  1.00  0.00     0.021 A 
ATOM     22  C   UNL A   1      35.141  20.094  25.203  1.00  0.00     0.099 A 
ATOM     23  C   UNL A   1      32.510  19.738  24.329  1.00  0.00     0.072 A 
ATOM     24  N   UNL A   1      34.755  18.887  24.661  1.00  0.00    -0.328 N 
ATOM     25  C   UNL A   1      33.474  18.607  24.243  1.00  0.00     0.247 A 
ATOM     26  H   UNL A   1      35.437  18.184  24.566  1.00  0.00     0.169 HD
ATOM     27  O   UNL A   1      33.131  17.507  23.834  1.00  0.00    -0.270 OA
ENDBRANCH  18  20
ENDBRANCH  12  18
ENDBRANCH   5   8
ENDBRANCH   3   4
ENDBRANCH   2   3
ENDBRANCH   1   2
BRANCH   1  28
ATOM     28  C   UNL A   1      31.700  30.729  26.181  1.00  0.00     0.002 C 
BRANCH  28  29
ATOM     29  C   UNL A   1      31.448  32.127  26.750  1.00  0.00     0.021 C 
BRANCH  29  30
ATOM     30  C   UNL A   1      32.695  32.836  27.266  1.00  0.00     0.116 C 
BRANCH  30  31
ATOM     31  N   UNL A   1      32.437  34.229  27.589  1.00  0.00    -0.352 N 
ATOM     32  C   UNL A   1      32.985  34.999  28.586  1.00  0.00     0.251 C 
ATOM     33  H   UNL A   1      31.780  34.683  27.014  1.00  0.00     0.163 HD
ATOM     34  O   UNL A   1      32.504  36.090  28.869  1.00  0.00    -0.269 OA
BRANCH  32  35
ATOM     35  C   UNL A   1      34.155  34.491  29.333  1.00  0.00     0.039 A 
ATOM     36  C   UNL A   1      33.957  33.877  30.572  1.00  0.00     0.014 A 
ATOM     37  C   UNL A   1      35.443  34.615  28.803  1.00  0.00     0.014 A 
ATOM     38  C   UNL A   1      35.046  33.331  31.252  1.00  0.00     0.010 A 
ATOM     39  C   UNL A   1      36.514  34.003  29.445  1.00  0.00     0.010 A 
ATOM     40  C   UNL A   1      36.328  33.358  30.677  1.00  0.00    -0.014 A 
BRANCH  40  41
ATOM     41  C   UNL A   1      37.492  32.724  31.349  1.00  0.00     0.031 A 
ATOM     42  C   UNL A   1      38.209  31.580  30.686  1.00  0.00     0.074 A 
ATOM     43  C   UNL A   1      37.857  33.130  32.580  1.00  0.00     0.049 A 
ATOM     44  N   UNL A   1      39.181  30.834  31.146  1.00  0.00    -0.248 NA
ATOM     45  C   UNL A   1      37.755  31.211  29.336  1.00  0.00     0.031 C 
ATOM     46  C   UNL A   1      37.217  34.206  33.340  1.00  0.00     0.029 A 
ATOM     47  N   UNL A   1      38.847  32.678  33.415  1.00  0.00    -0.354 N 
ATOM     48  C   UNL A   1      39.445  29.904  30.149  1.00  0.00     0.074 A 
ATOM     49  C   UNL A   1      38.494  30.140  29.086  1.00  0.00     0.031 C 
ATOM     50  C   UNL A   1      37.845  34.344  34.519  1.00  0.00     0.029 A 
ATOM     51  C   UNL A   1      38.900  33.340  34.618  1.00  0.00     0.049 A 
ATOM     52  H   UNL A   1      39.463  31.948  33.175  1.00  0.00     0.167 HD
ATOM     53  C   UNL A   1      40.413  28.957  30.113  1.00  0.00     0.037 A 
ATOM     54  C   UNL A   1      39.699  33.148  35.685  1.00  0.00     0.037 A 
ATOM     55  C   UNL A   1      41.368  28.736  31.167  1.00  0.00     0.049 A 
ATOM     56  C   UNL A   1      40.741  32.061  35.633  1.00  0.00     0.074 A 
ATOM     57  C   UNL A   1      42.413  27.830  31.209  1.00  0.00     0.029 A 
ATOM     58  N   UNL A   1      41.392  29.432  32.367  1.00  0.00    -0.354 N 
ATOM     59  N   UNL A   1      41.020  31.227  34.661  1.00  0.00    -0.248 NA
ATOM     60  C   UNL A   1      41.582  31.893  36.827  1.00  0.00     0.031 C 
ATOM     61  C   UNL A   1      43.036  27.939  32.456  1.00  0.00     0.029 A 
ATOM     62  C   UNL A   1      42.419  28.956  33.167  1.00  0.00     0.049 A 
ATOM     63  H   UNL A   1      40.772  30.155  32.615  1.00  0.00     0.167 HD
ATOM     64  C   UNL A   1      42.089  30.462  35.110  1.00  0.00     0.074 A 
ATOM     65  C   UNL A   1      42.416  30.939  36.438  1.00  0.00     0.031 C 
ATOM     66  C   UNL A   1      42.742  29.455  34.479  1.00  0.00     0.037 A 
BRANCH  53  67
ATOM     67  C   UNL A   1      40.489  28.086  28.891  1.00  0.00     0.064 A 
ATOM     68  C   UNL A   1      39.777  26.880  28.802  1.00  0.00     0.173 A 
ATOM     69  C   UNL A   1      41.249  28.479  27.780  1.00  0.00     0.173 A 
ATOM     70  F   UNL A   1      39.042  26.451  29.839  1.00  0.00    -0.203 F 
ATOM     71  C   UNL A   1      39.848  26.086  27.660  1.00  0.00     0.198 A 
ATOM     72  C   UNL A   1      41.293  27.700  26.626  1.00  0.00     0.198 A 
ATOM     73  F   UNL A   1      41.946  29.626  27.807  1.00  0.00    -0.203 F 
ATOM     74  F   UNL A   1      39.202  24.913  27.620  1.00  0.00    -0.200 F 
ATOM     75  C   UNL A   1      40.599  26.501  26.571  1.00  0.00     0.200 A 
ATOM     76  F   UNL A   1      42.006  28.110  25.569  1.00  0.00    -0.200 F 
ATOM     77  F   UNL A   1      40.659  25.741  25.469  1.00  0.00    -0.200 F 
ENDBRANCH  53  67
BRANCH  54  78
ATOM     78  C   UNL A   1      39.561  34.010  36.889  1.00  0.00     0.064 A 
ATOM     79  C   UNL A   1      40.220  35.245  36.969  1.00  0.00     0.173 A 
ATOM     80  C   UNL A   1      38.790  33.612  37.991  1.00  0.00     0.173 A 
ATOM     81  F   UNL A   1      40.986  35.662  35.949  1.00  0.00    -0.203 F 
ATOM     82  C   UNL A   1      40.136  36.035  38.113  1.00  0.00     0.198 A 
ATOM     83  C   UNL A   1      38.680  34.417  39.123  1.00  0.00     0.198 A 
ATOM     84  F   UNL A   1      38.135  32.442  37.966  1.00  0.00    -0.203 F 
ATOM     85  F   UNL A   1      40.822  37.184  38.183  1.00  0.00    -0.200 F 
ATOM     86  C   UNL A   1      39.362  35.623  39.187  1.00  0.00     0.200 A 
ATOM     87  F   UNL A   1      37.918  34.023  40.151  1.00  0.00    -0.200 F 
ATOM     88  F   UNL A   1      39.282  36.382  40.289  1.00  0.00    -0.200 F 
ENDBRANCH  54  78
BRANCH  66  89
ATOM     89  C   UNL A   1      43.909  28.832  35.193  1.00  0.00     0.064 A 
ATOM     90  C   UNL A   1      43.756  27.716  36.027  1.00  0.00     0.173 A 
ATOM     91  C   UNL A   1      45.205  29.333  34.996  1.00  0.00     0.173 A 
ATOM     92  F   UNL A   1      42.536  27.208  36.259  1.00  0.00    -0.203 F 
ATOM     93  C   UNL A   1      44.854  27.137  36.656  1.00  0.00     0.198 A 
ATOM     94  C   UNL A   1      46.306  28.731  35.599  1.00  0.00     0.198 A 
ATOM     95  F   UNL A   1      45.407  30.396  34.202  1.00  0.00    -0.203 F 
ATOM     96  F   UNL A   1      44.680  26.100  37.487  1.00  0.00    -0.200 F 
ATOM     97  C   UNL A   1      46.129  27.639  36.435  1.00  0.00     0.200 A 
ATOM     98  F   UNL A   1      47.537  29.208  35.372  1.00  0.00    -0.200 F 
ATOM     99  F   UNL A   1      47.187  27.073  37.031  1.00  0.00    -0.200 F 
ENDBRANCH  66  89
ENDBRANCH  40  41
ENDBRANCH  32  35
ENDBRANCH  30  31
ENDBRANCH  29  30
ENDBRANCH  28  29
ENDBRANCH   1  28
TORSDOF 18
ENDMDL
