MODEL 1
REMARK VINA RESULT:     -12.8      0.000      0.000
REMARK SMILES CS(=O)(=O)c1ccc(C2=NN(c3ccc(C(=O)NCCCCCCNC(=O)c4ccc(-c5c6nc(c(-c7c(F)c(F)c(F)c(F)c7F)c7ccc([nH]7)c(-c7c(F)c(F)c(F)c(F)c7F)c7nc(c(-c8c(F)c(F)c(F)c(F)c8F)c8ccc5[nH]8)C=C7)C=C6)cc4)cc3)[C@H](c3ccccc3)C2)cc1
REMARK SMILES IDX 21 1 20 2 19 3 18 4 16 5 17 6 15 8 12 9 13 10 92 11 14 12
REMARK SMILES IDX 91 13 11 14 9 15 10 16 100 17 93 18 8 19 5 20 6 21 102 22
REMARK SMILES IDX 7 23 101 24 2 25 1 26 3 27 4 28 94 29 95 30 99 31 96 32
REMARK SMILES IDX 98 33 97 34 22 35 23 36 24 37 25 38 26 39 27 41 28 42 29 43
REMARK SMILES IDX 90 44 30 45 89 46 31 47 32 48 33 49 83 50 34 51 88 52 82 53
REMARK SMILES IDX 84 54 35 55 87 56 81 57 80 58 36 60 68 61 48 62 67 63 49 64
REMARK SMILES IDX 52 65 66 66 85 67 50 68 51 69 65 71 86 72 53 73 37 74 38 75
REMARK SMILES IDX 46 76 39 77 40 78 44 79 47 80 41 81 42 82 45 83 43 84 69 85
REMARK SMILES IDX 70 86 78 87 71 88 72 89 76 90 79 91 73 92 74 93 77 94 75 95
REMARK SMILES IDX 54 96 55 97 63 98 56 99 57 100 61 101 64 102 58 103 59 104
REMARK SMILES IDX 62 105 60 106
REMARK H PARENT 18 7 25 40 84 59 52 70
REMARK Flexibility Score: inf
ROOT
ATOM      1  C   UNL A   1      31.846  29.947  25.446  1.00  0.00     0.002 C 
ENDROOT
BRANCH   1   2
ATOM      2  C   UNL A   1      30.740  29.807  24.392  1.00  0.00     0.021 C 
BRANCH   2   3
ATOM      3  C   UNL A   1      31.007  28.696  23.376  1.00  0.00     0.116 C 
BRANCH   3   4
ATOM      4  N   UNL A   1      32.141  29.042  22.539  1.00  0.00    -0.352 N 
ATOM      5  C   UNL A   1      33.300  28.364  22.262  1.00  0.00     0.251 C 
ATOM      6  O   UNL A   1      34.099  28.860  21.471  1.00  0.00    -0.269 OA
ATOM      7  H   UNL A   1      32.066  29.916  22.094  1.00  0.00     0.163 HD
BRANCH   5   8
ATOM      8  C   UNL A   1      33.574  27.019  22.829  1.00  0.00     0.039 A 
ATOM      9  C   UNL A   1      34.276  24.559  23.996  1.00  0.00     0.060 A 
ATOM     10  C   UNL A   1      34.203  25.716  24.776  1.00  0.00     0.029 A 
ATOM     11  C   UNL A   1      33.917  24.634  22.648  1.00  0.00     0.029 A 
ATOM     12  C   UNL A   1      33.849  26.938  24.199  1.00  0.00     0.016 A 
ATOM     13  C   UNL A   1      33.552  25.849  22.068  1.00  0.00     0.016 A 
BRANCH   9  14
ATOM     14  N   UNL A   1      34.685  23.352  24.527  1.00  0.00    -0.257 N 
ATOM     15  C   UNL A   1      36.158  21.910  25.005  1.00  0.00     0.071 C 
ATOM     16  N   UNL A   1      35.976  23.186  24.876  1.00  0.00    -0.176 NA
ATOM     17  C   UNL A   1      34.962  21.049  24.691  1.00  0.00     0.091 C 
ATOM     18  C   UNL A   1      33.876  22.134  24.565  1.00  0.00     0.144 C 
BRANCH  15  19
ATOM     19  C   UNL A   1      37.468  21.360  25.390  1.00  0.00    -0.002 A 
ATOM     20  C   UNL A   1      40.044  20.492  25.976  1.00  0.00     0.067 A 
ATOM     21  C   UNL A   1      39.658  21.784  26.337  1.00  0.00     0.021 A 
ATOM     22  C   UNL A   1      39.152  19.630  25.325  1.00  0.00     0.021 A 
ATOM     23  C   UNL A   1      38.370  22.217  26.034  1.00  0.00     0.011 A 
ATOM     24  C   UNL A   1      37.851  20.061  25.043  1.00  0.00     0.011 A 
BRANCH  20  25
ATOM     25  S   UNL A   1      41.712  19.962  26.289  1.00  0.00     0.175 S 
ATOM     26  C   UNL A   1      42.694  21.398  25.955  1.00  0.00     0.163 C 
ATOM     27  O   UNL A   1      42.053  18.965  25.297  1.00  0.00    -0.224 OA
ATOM     28  O   UNL A   1      41.798  19.671  27.709  1.00  0.00    -0.224 OA
ENDBRANCH  20  25
ENDBRANCH  15  19
BRANCH  18  29
ATOM     29  C   UNL A   1      32.836  22.239  25.681  1.00  0.00    -0.023 A 
ATOM     30  C   UNL A   1      33.151  22.289  27.047  1.00  0.00     0.006 A 
ATOM     31  C   UNL A   1      31.478  22.360  25.319  1.00  0.00     0.006 A 
ATOM     32  C   UNL A   1      32.147  22.437  28.012  1.00  0.00     0.000 A 
ATOM     33  C   UNL A   1      30.479  22.533  26.279  1.00  0.00     0.000 A 
ATOM     34  C   UNL A   1      30.814  22.565  27.629  1.00  0.00     0.000 A 
ENDBRANCH  18  29
ENDBRANCH   9  14
ENDBRANCH   5   8
ENDBRANCH   3   4
ENDBRANCH   2   3
ENDBRANCH   1   2
BRANCH   1  35
ATOM     35  C   UNL A   1      31.419  30.662  26.734  1.00  0.00     0.002 C 
BRANCH  35  36
ATOM     36  C   UNL A   1      31.426  32.191  26.655  1.00  0.00     0.021 C 
BRANCH  36  37
ATOM     37  C   UNL A   1      32.702  32.843  27.178  1.00  0.00     0.116 C 
BRANCH  37  38
ATOM     38  N   UNL A   1      32.478  34.224  27.576  1.00  0.00    -0.352 N 
ATOM     39  C   UNL A   1      33.032  34.931  28.612  1.00  0.00     0.251 C 
ATOM     40  H   UNL A   1      31.838  34.724  27.021  1.00  0.00     0.163 HD
ATOM     41  O   UNL A   1      32.568  36.018  28.941  1.00  0.00    -0.269 OA
BRANCH  39  42
ATOM     42  C   UNL A   1      34.187  34.375  29.348  1.00  0.00     0.039 A 
ATOM     43  C   UNL A   1      33.959  33.663  30.529  1.00  0.00     0.014 A 
ATOM     44  C   UNL A   1      35.492  34.572  28.887  1.00  0.00     0.014 A 
ATOM     45  C   UNL A   1      35.036  33.103  31.218  1.00  0.00     0.010 A 
ATOM     46  C   UNL A   1      36.557  33.955  29.536  1.00  0.00     0.010 A 
ATOM     47  C   UNL A   1      36.341  33.219  30.710  1.00  0.00    -0.014 A 
BRANCH  47  48
ATOM     48  C   UNL A   1      37.491  32.581  31.397  1.00  0.00     0.031 A 
ATOM     49  C   UNL A   1      38.204  31.421  30.760  1.00  0.00     0.074 A 
ATOM     50  C   UNL A   1      37.851  33.005  32.624  1.00  0.00     0.049 A 
ATOM     51  N   UNL A   1      39.181  30.689  31.231  1.00  0.00    -0.248 NA
ATOM     52  C   UNL A   1      37.737  31.012  29.425  1.00  0.00     0.031 C 
ATOM     53  C   UNL A   1      37.207  34.089  33.365  1.00  0.00     0.029 A 
ATOM     54  N   UNL A   1      38.839  32.565  33.469  1.00  0.00    -0.354 N 
ATOM     55  C   UNL A   1      39.434  29.727  30.263  1.00  0.00     0.074 A 
ATOM     56  C   UNL A   1      38.476  29.935  29.199  1.00  0.00     0.031 C 
ATOM     57  C   UNL A   1      37.829  34.246  34.544  1.00  0.00     0.029 A 
ATOM     58  C   UNL A   1      38.890  33.250  34.658  1.00  0.00     0.049 A 
ATOM     59  H   UNL A   1      39.453  31.830  33.244  1.00  0.00     0.167 HD
ATOM     60  C   UNL A   1      40.393  28.770  30.253  1.00  0.00     0.037 A 
ATOM     61  C   UNL A   1      39.697  33.087  35.724  1.00  0.00     0.037 A 
ATOM     62  C   UNL A   1      41.362  28.585  31.302  1.00  0.00     0.049 A 
ATOM     63  C   UNL A   1      40.754  32.017  35.687  1.00  0.00     0.074 A 
ATOM     64  C   UNL A   1      42.415  27.689  31.354  1.00  0.00     0.029 A 
ATOM     65  N   UNL A   1      41.393  29.310  32.484  1.00  0.00    -0.354 N 
ATOM     66  N   UNL A   1      41.028  31.157  34.737  1.00  0.00    -0.248 NA
ATOM     67  C   UNL A   1      41.618  31.898  36.870  1.00  0.00     0.031 C 
ATOM     68  C   UNL A   1      43.054  27.837  32.590  1.00  0.00     0.029 A 
ATOM     69  C   UNL A   1      42.433  28.863  33.285  1.00  0.00     0.049 A 
ATOM     70  H   UNL A   1      40.769  30.034  32.720  1.00  0.00     0.167 HD
ATOM     71  C   UNL A   1      42.111  30.416  35.193  1.00  0.00     0.074 A 
ATOM     72  C   UNL A   1      42.452  30.937  36.500  1.00  0.00     0.031 C 
ATOM     73  C   UNL A   1      42.763  29.396  34.582  1.00  0.00     0.037 A 
BRANCH  60  74
ATOM     74  C   UNL A   1      40.443  27.846  29.070  1.00  0.00     0.064 A 
ATOM     75  C   UNL A   1      41.249  28.119  27.954  1.00  0.00     0.173 A 
ATOM     76  C   UNL A   1      39.704  26.653  29.068  1.00  0.00     0.173 A 
ATOM     77  F   UNL A   1      41.967  29.252  27.902  1.00  0.00    -0.203 F 
ATOM     78  C   UNL A   1      41.293  27.247  26.870  1.00  0.00     0.198 A 
ATOM     79  C   UNL A   1      39.775  25.767  27.995  1.00  0.00     0.198 A 
ATOM     80  F   UNL A   1      38.921  26.339  30.111  1.00  0.00    -0.203 F 
ATOM     81  F   UNL A   1      42.033  27.553  25.796  1.00  0.00    -0.200 F 
ATOM     82  C   UNL A   1      40.563  26.070  26.894  1.00  0.00     0.200 A 
ATOM     83  F   UNL A   1      39.080  24.623  28.026  1.00  0.00    -0.200 F 
ATOM     84  F   UNL A   1      40.613  25.226  25.854  1.00  0.00    -0.200 F 
ENDBRANCH  60  74
BRANCH  61  85
ATOM     85  C   UNL A   1      39.553  33.977  36.905  1.00  0.00     0.064 A 
ATOM     86  C   UNL A   1      40.186  35.228  36.943  1.00  0.00     0.173 A 
ATOM     87  C   UNL A   1      38.781  33.603  38.014  1.00  0.00     0.173 A 
ATOM     88  F   UNL A   1      40.952  35.622  35.914  1.00  0.00    -0.203 F 
ATOM     89  C   UNL A   1      40.068  36.061  38.053  1.00  0.00     0.198 A 
ATOM     90  C   UNL A   1      38.640  34.448  39.112  1.00  0.00     0.198 A 
ATOM     91  F   UNL A   1      38.151  32.419  38.025  1.00  0.00    -0.203 F 
ATOM     92  F   UNL A   1      40.718  37.232  38.082  1.00  0.00    -0.200 F 
ATOM     93  C   UNL A   1      39.289  35.674  39.134  1.00  0.00     0.200 A 
ATOM     94  F   UNL A   1      37.876  34.077  40.147  1.00  0.00    -0.200 F 
ATOM     95  F   UNL A   1      39.172  36.478  40.199  1.00  0.00    -0.200 F 
ENDBRANCH  61  85
BRANCH  73  96
ATOM     96  C   UNL A   1      43.934  28.798  35.305  1.00  0.00     0.064 A 
ATOM     97  C   UNL A   1      45.242  29.263  35.102  1.00  0.00     0.173 A 
ATOM     98  C   UNL A   1      43.739  27.774  36.246  1.00  0.00     0.173 A 
ATOM     99  F   UNL A   1      45.482  30.228  34.202  1.00  0.00    -0.203 F 
ATOM    100  C   UNL A   1      46.314  28.707  35.795  1.00  0.00     0.198 A 
ATOM    101  C   UNL A   1      44.809  27.243  36.960  1.00  0.00     0.198 A 
ATOM    102  F   UNL A   1      42.506  27.300  36.483  1.00  0.00    -0.203 F 
ATOM    103  F   UNL A   1      47.560  29.133  35.550  1.00  0.00    -0.200 F 
ATOM    104  C   UNL A   1      46.096  27.705  36.728  1.00  0.00     0.200 A 
ATOM    105  F   UNL A   1      44.595  26.286  37.872  1.00  0.00    -0.200 F 
ATOM    106  F   UNL A   1      47.129  27.177  37.401  1.00  0.00    -0.200 F 
ENDBRANCH  73  96
ENDBRANCH  47  48
ENDBRANCH  39  42
ENDBRANCH  37  38
ENDBRANCH  36  37
ENDBRANCH  35  36
ENDBRANCH   1  35
TORSDOF 17
ENDMDL
MODEL 2
REMARK VINA RESULT:     -12.6      5.753     11.391
REMARK SMILES CS(=O)(=O)c1ccc(C2=NN(c3ccc(C(=O)NCCCCCCNC(=O)c4ccc(-c5c6nc(c(-c7c(F)c(F)c(F)c(F)c7F)c7ccc([nH]7)c(-c7c(F)c(F)c(F)c(F)c7F)c7nc(c(-c8c(F)c(F)c(F)c(F)c8F)c8ccc5[nH]8)C=C7)C=C6)cc4)cc3)[C@H](c3ccccc3)C2)cc1
REMARK SMILES IDX 21 1 20 2 19 3 18 4 16 5 17 6 15 8 12 9 13 10 92 11 14 12
REMARK SMILES IDX 91 13 11 14 9 15 10 16 100 17 93 18 8 19 5 20 6 21 102 22
REMARK SMILES IDX 7 23 101 24 2 25 1 26 3 27 4 28 94 29 95 30 99 31 96 32
REMARK SMILES IDX 98 33 97 34 22 35 23 36 24 37 25 38 26 39 27 41 28 42 29 43
REMARK SMILES IDX 90 44 30 45 89 46 31 47 32 48 33 49 83 50 34 51 88 52 82 53
REMARK SMILES IDX 84 54 35 55 87 56 81 57 80 58 36 60 68 61 48 62 67 63 49 64
REMARK SMILES IDX 52 65 66 66 85 67 50 68 51 69 65 71 86 72 53 73 37 74 38 75
REMARK SMILES IDX 46 76 39 77 40 78 44 79 47 80 41 81 42 82 45 83 43 84 69 85
REMARK SMILES IDX 70 86 78 87 71 88 72 89 76 90 79 91 73 92 74 93 77 94 75 95
REMARK SMILES IDX 54 96 55 97 63 98 56 99 57 100 61 101 64 102 58 103 59 104
REMARK SMILES IDX 62 105 60 106
REMARK H PARENT 18 7 25 40 84 59 52 70
REMARK Flexibility Score: inf
ROOT
ATOM      1  C   UNL A   1      41.706  21.580  27.074  1.00  0.00     0.002 C 
ENDROOT
BRANCH   1   2
ATOM      2  C   UNL A   1      40.823  22.310  26.053  1.00  0.00     0.021 C 
BRANCH   2   3
ATOM      3  C   UNL A   1      39.341  22.320  26.429  1.00  0.00     0.116 C 
BRANCH   3   4
ATOM      4  N   UNL A   1      38.668  21.174  25.848  1.00  0.00    -0.352 N 
ATOM      5  C   UNL A   1      37.391  21.021  25.372  1.00  0.00     0.251 C 
ATOM      6  O   UNL A   1      37.071  19.942  24.877  1.00  0.00    -0.269 OA
ATOM      7  H   UNL A   1      39.225  20.364  25.783  1.00  0.00     0.163 HD
BRANCH   5   8
ATOM      8  C   UNL A   1      36.418  22.143  25.368  1.00  0.00     0.039 A 
ATOM      9  C   UNL A   1      34.751  24.407  25.335  1.00  0.00     0.060 A 
ATOM     10  C   UNL A   1      35.686  24.203  24.317  1.00  0.00     0.029 A 
ATOM     11  C   UNL A   1      34.606  23.427  26.320  1.00  0.00     0.029 A 
ATOM     12  C   UNL A   1      36.512  23.076  24.329  1.00  0.00     0.016 A 
ATOM     13  C   UNL A   1      35.420  22.294  26.331  1.00  0.00     0.016 A 
BRANCH   9  14
ATOM     14  N   UNL A   1      33.967  25.542  25.382  1.00  0.00    -0.257 N 
ATOM     15  C   UNL A   1      33.444  27.436  26.171  1.00  0.00     0.071 C 
ATOM     16  N   UNL A   1      34.460  26.662  25.947  1.00  0.00    -0.176 NA
ATOM     17  C   UNL A   1      32.100  26.861  25.809  1.00  0.00     0.091 C 
ATOM     18  C   UNL A   1      32.544  25.596  25.050  1.00  0.00     0.144 C 
BRANCH  15  19
ATOM     19  C   UNL A   1      33.615  28.763  26.783  1.00  0.00    -0.002 A 
ATOM     20  C   UNL A   1      33.899  31.366  27.719  1.00  0.00     0.067 A 
ATOM     21  C   UNL A   1      32.683  30.968  27.161  1.00  0.00     0.021 A 
ATOM     22  C   UNL A   1      34.974  30.472  27.814  1.00  0.00     0.021 A 
ATOM     23  C   UNL A   1      32.548  29.666  26.685  1.00  0.00     0.011 A 
ATOM     24  C   UNL A   1      34.826  29.158  27.357  1.00  0.00     0.011 A 
BRANCH  20  25
ATOM     25  S   UNL A   1      34.103  33.049  28.254  1.00  0.00     0.175 S 
ATOM     26  C   UNL A   1      34.527  32.911  29.969  1.00  0.00     0.163 C 
ATOM     27  O   UNL A   1      32.811  33.697  28.179  1.00  0.00    -0.224 OA
ATOM     28  O   UNL A   1      35.253  33.577  27.541  1.00  0.00    -0.224 OA
ENDBRANCH  20  25
ENDBRANCH  15  19
BRANCH  18  29
ATOM     29  C   UNL A   1      32.367  25.572  23.531  1.00  0.00    -0.023 A 
ATOM     30  C   UNL A   1      31.845  26.639  22.784  1.00  0.00     0.006 A 
ATOM     31  C   UNL A   1      32.815  24.437  22.823  1.00  0.00     0.006 A 
ATOM     32  C   UNL A   1      31.759  26.565  21.388  1.00  0.00     0.000 A 
ATOM     33  C   UNL A   1      32.753  24.374  21.430  1.00  0.00     0.000 A 
ATOM     34  C   UNL A   1      32.218  25.437  20.712  1.00  0.00     0.000 A 
ENDBRANCH  18  29
ENDBRANCH   9  14
ENDBRANCH   5   8
ENDBRANCH   3   4
ENDBRANCH   2   3
ENDBRANCH   1   2
BRANCH   1  35
ATOM     35  C   UNL A   1      41.536  20.056  27.096  1.00  0.00     0.002 C 
BRANCH  35  36
ATOM     36  C   UNL A   1      42.115  19.325  25.882  1.00  0.00     0.021 C 
BRANCH  36  37
ATOM     37  C   UNL A   1      43.470  18.671  26.128  1.00  0.00     0.116 C 
BRANCH  37  38
ATOM     38  N   UNL A   1      44.225  18.514  24.894  1.00  0.00    -0.352 N 
ATOM     39  C   UNL A   1      44.796  19.472  24.095  1.00  0.00     0.251 C 
ATOM     40  H   UNL A   1      44.344  17.586  24.589  1.00  0.00     0.163 HD
ATOM     41  O   UNL A   1      45.205  19.183  22.975  1.00  0.00    -0.269 OA
BRANCH  39  42
ATOM     42  C   UNL A   1      44.906  20.863  24.580  1.00  0.00     0.039 A 
ATOM     43  C   UNL A   1      45.468  21.099  25.838  1.00  0.00     0.014 A 
ATOM     44  C   UNL A   1      44.437  21.930  23.808  1.00  0.00     0.014 A 
ATOM     45  C   UNL A   1      45.609  22.411  26.296  1.00  0.00     0.010 A 
ATOM     46  C   UNL A   1      44.642  23.238  24.236  1.00  0.00     0.010 A 
ATOM     47  C   UNL A   1      45.225  23.491  25.486  1.00  0.00    -0.014 A 
BRANCH  47  48
ATOM     48  C   UNL A   1      45.421  24.893  25.932  1.00  0.00     0.031 A 
ATOM     49  C   UNL A   1      46.783  25.526  25.860  1.00  0.00     0.074 A 
ATOM     50  C   UNL A   1      44.387  25.572  26.463  1.00  0.00     0.049 A 
ATOM     51  N   UNL A   1      47.169  26.710  26.265  1.00  0.00    -0.248 NA
ATOM     52  C   UNL A   1      47.861  24.709  25.281  1.00  0.00     0.031 C 
ATOM     53  C   UNL A   1      43.030  25.050  26.629  1.00  0.00     0.029 A 
ATOM     54  N   UNL A   1      44.318  26.845  26.972  1.00  0.00    -0.354 N 
ATOM     55  C   UNL A   1      48.531  26.772  26.006  1.00  0.00     0.074 A 
ATOM     56  C   UNL A   1      48.917  25.491  25.456  1.00  0.00     0.031 C 
ATOM     57  C   UNL A   1      42.258  26.001  27.179  1.00  0.00     0.029 A 
ATOM     58  C   UNL A   1      43.072  27.184  27.440  1.00  0.00     0.049 A 
ATOM     59  H   UNL A   1      45.088  27.458  26.999  1.00  0.00     0.167 HD
ATOM     60  C   UNL A   1      49.378  27.813  26.190  1.00  0.00     0.037 A 
ATOM     61  C   UNL A   1      42.638  28.318  28.021  1.00  0.00     0.037 A 
ATOM     62  C   UNL A   1      48.984  29.095  26.712  1.00  0.00     0.049 A 
ATOM     63  C   UNL A   1      43.599  29.459  28.213  1.00  0.00     0.074 A 
ATOM     64  C   UNL A   1      49.753  30.235  26.872  1.00  0.00     0.029 A 
ATOM     65  N   UNL A   1      47.708  29.407  27.159  1.00  0.00    -0.354 N 
ATOM     66  N   UNL A   1      44.870  29.531  27.902  1.00  0.00    -0.248 NA
ATOM     67  C   UNL A   1      43.065  30.678  28.835  1.00  0.00     0.031 C 
ATOM     68  C   UNL A   1      48.955  31.220  27.464  1.00  0.00     0.029 A 
ATOM     69  C   UNL A   1      47.675  30.713  27.620  1.00  0.00     0.049 A 
ATOM     70  H   UNL A   1      46.940  28.791  27.150  1.00  0.00     0.167 HD
ATOM     71  C   UNL A   1      45.280  30.808  28.261  1.00  0.00     0.074 A 
ATOM     72  C   UNL A   1      44.118  31.482  28.801  1.00  0.00     0.031 C 
ATOM     73  C   UNL A   1      46.508  31.372  28.151  1.00  0.00     0.037 A 
BRANCH  60  74
ATOM     74  C   UNL A   1      50.821  27.609  25.825  1.00  0.00     0.064 A 
ATOM     75  C   UNL A   1      51.774  27.216  26.778  1.00  0.00     0.173 A 
ATOM     76  C   UNL A   1      51.249  27.768  24.498  1.00  0.00     0.173 A 
ATOM     77  F   UNL A   1      51.420  27.060  28.063  1.00  0.00    -0.203 F 
ATOM     78  C   UNL A   1      53.106  27.020  26.421  1.00  0.00     0.198 A 
ATOM     79  C   UNL A   1      52.575  27.540  24.140  1.00  0.00     0.198 A 
ATOM     80  F   UNL A   1      50.378  28.136  23.547  1.00  0.00    -0.203 F 
ATOM     81  F   UNL A   1      54.007  26.693  27.358  1.00  0.00    -0.200 F 
ATOM     82  C   UNL A   1      53.503  27.174  25.103  1.00  0.00     0.200 A 
ATOM     83  F   UNL A   1      52.955  27.676  22.862  1.00  0.00    -0.200 F 
ATOM     84  F   UNL A   1      54.783  26.976  24.759  1.00  0.00    -0.200 F 
ENDBRANCH  60  74
BRANCH  61  85
ATOM     85  C   UNL A   1      41.216  28.439  28.437  1.00  0.00     0.064 A 
ATOM     86  C   UNL A   1      40.808  28.051  29.721  1.00  0.00     0.173 A 
ATOM     87  C   UNL A   1      40.240  28.946  27.568  1.00  0.00     0.173 A 
ATOM     88  F   UNL A   1      41.701  27.541  30.582  1.00  0.00    -0.203 F 
ATOM     89  C   UNL A   1      39.474  28.148  30.112  1.00  0.00     0.198 A 
ATOM     90  C   UNL A   1      38.912  29.070  27.969  1.00  0.00     0.198 A 
ATOM     91  F   UNL A   1      40.580  29.337  26.330  1.00  0.00    -0.203 F 
ATOM     92  F   UNL A   1      39.103  27.729  31.330  1.00  0.00    -0.200 F 
ATOM     93  C   UNL A   1      38.529  28.663  29.238  1.00  0.00     0.200 A 
ATOM     94  F   UNL A   1      38.005  29.582  27.128  1.00  0.00    -0.200 F 
ATOM     95  F   UNL A   1      37.247  28.761  29.617  1.00  0.00    -0.200 F 
ENDBRANCH  61  85
BRANCH  73  96
ATOM     96  C   UNL A   1      46.652  32.799  28.593  1.00  0.00     0.064 A 
ATOM     97  C   UNL A   1      46.422  33.869  27.717  1.00  0.00     0.173 A 
ATOM     98  C   UNL A   1      46.985  33.098  29.924  1.00  0.00     0.173 A 
ATOM     99  F   UNL A   1      46.118  33.635  26.431  1.00  0.00    -0.203 F 
ATOM    100  C   UNL A   1      46.544  35.187  28.150  1.00  0.00     0.198 A 
ATOM    101  C   UNL A   1      47.074  34.417  30.361  1.00  0.00     0.198 A 
ATOM    102  F   UNL A   1      47.207  32.110  30.805  1.00  0.00    -0.203 F 
ATOM    103  F   UNL A   1      46.366  36.193  27.284  1.00  0.00    -0.200 F 
ATOM    104  C   UNL A   1      46.861  35.459  29.472  1.00  0.00     0.200 A 
ATOM    105  F   UNL A   1      47.366  34.678  31.642  1.00  0.00    -0.200 F 
ATOM    106  F   UNL A   1      46.969  36.729  29.889  1.00  0.00    -0.200 F 
ENDBRANCH  73  96
ENDBRANCH  47  48
ENDBRANCH  39  42
ENDBRANCH  37  38
ENDBRANCH  36  37
ENDBRANCH  35  36
ENDBRANCH   1  35
TORSDOF 17
ENDMDL
MODEL 3
REMARK VINA RESULT:     -12.6      5.296      9.479
REMARK SMILES CS(=O)(=O)c1ccc(C2=NN(c3ccc(C(=O)NCCCCCCNC(=O)c4ccc(-c5c6nc(c(-c7c(F)c(F)c(F)c(F)c7F)c7ccc([nH]7)c(-c7c(F)c(F)c(F)c(F)c7F)c7nc(c(-c8c(F)c(F)c(F)c(F)c8F)c8ccc5[nH]8)C=C7)C=C6)cc4)cc3)[C@H](c3ccccc3)C2)cc1
REMARK SMILES IDX 21 1 20 2 19 3 18 4 16 5 17 6 15 8 12 9 13 10 92 11 14 12
REMARK SMILES IDX 91 13 11 14 9 15 10 16 100 17 93 18 8 19 5 20 6 21 102 22
REMARK SMILES IDX 7 23 101 24 2 25 1 26 3 27 4 28 94 29 95 30 99 31 96 32
REMARK SMILES IDX 98 33 97 34 22 35 23 36 24 37 25 38 26 39 27 41 28 42 29 43
REMARK SMILES IDX 90 44 30 45 89 46 31 47 32 48 33 49 83 50 34 51 88 52 82 53
REMARK SMILES IDX 84 54 35 55 87 56 81 57 80 58 36 60 68 61 48 62 67 63 49 64
REMARK SMILES IDX 52 65 66 66 85 67 50 68 51 69 65 71 86 72 53 73 37 74 38 75
REMARK SMILES IDX 46 76 39 77 40 78 44 79 47 80 41 81 42 82 45 83 43 84 69 85
REMARK SMILES IDX 70 86 78 87 71 88 72 89 76 90 79 91 73 92 74 93 77 94 75 95
REMARK SMILES IDX 54 96 55 97 63 98 56 99 57 100 61 101 64 102 58 103 59 104
REMARK SMILES IDX 62 105 60 106
REMARK H PARENT 18 7 25 40 84 59 52 70
REMARK Flexibility Score: inf
ROOT
ATOM      1  C   UNL A   1      36.286  29.705  30.094  1.00  0.00     0.002 C 
ENDROOT
BRANCH   1   2
ATOM      2  C   UNL A   1      37.171  29.530  28.853  1.00  0.00     0.021 C 
BRANCH   2   3
ATOM      3  C   UNL A   1      36.534  30.072  27.573  1.00  0.00     0.116 C 
BRANCH   3   4
ATOM      4  N   UNL A   1      35.438  30.966  27.897  1.00  0.00    -0.352 N 
ATOM      5  C   UNL A   1      34.112  30.933  27.550  1.00  0.00     0.251 C 
ATOM      6  O   UNL A   1      33.363  31.799  27.999  1.00  0.00    -0.269 OA
ATOM      7  H   UNL A   1      35.691  31.730  28.464  1.00  0.00     0.163 HD
BRANCH   5   8
ATOM      8  C   UNL A   1      33.548  29.840  26.718  1.00  0.00     0.039 A 
ATOM      9  C   UNL A   1      32.622  27.631  25.246  1.00  0.00     0.060 A 
ATOM     10  C   UNL A   1      32.681  27.576  26.641  1.00  0.00     0.029 A 
ATOM     11  C   UNL A   1      32.954  28.827  24.606  1.00  0.00     0.029 A 
ATOM     12  C   UNL A   1      33.135  28.674  27.375  1.00  0.00     0.016 A 
ATOM     13  C   UNL A   1      33.398  29.932  25.334  1.00  0.00     0.016 A 
BRANCH   9  14
ATOM     14  N   UNL A   1      32.237  26.539  24.493  1.00  0.00    -0.257 N 
ATOM     15  C   UNL A   1      32.414  24.521  23.879  1.00  0.00     0.071 C 
ATOM     16  N   UNL A   1      32.581  25.301  24.900  1.00  0.00    -0.176 NA
ATOM     17  C   UNL A   1      31.968  25.201  22.610  1.00  0.00     0.091 C 
ATOM     18  C   UNL A   1      31.647  26.605  23.157  1.00  0.00     0.144 C 
BRANCH  15  19
ATOM     19  C   UNL A   1      32.693  23.079  23.964  1.00  0.00    -0.002 A 
ATOM     20  C   UNL A   1      32.979  20.319  24.146  1.00  0.00     0.067 A 
ATOM     21  C   UNL A   1      32.269  20.864  23.076  1.00  0.00     0.021 A 
ATOM     22  C   UNL A   1      33.548  21.143  25.126  1.00  0.00     0.021 A 
ATOM     23  C   UNL A   1      32.120  22.247  22.993  1.00  0.00     0.011 A 
ATOM     24  C   UNL A   1      33.417  22.532  25.027  1.00  0.00     0.011 A 
BRANCH  20  25
ATOM     25  S   UNL A   1      33.103  18.552  24.299  1.00  0.00     0.175 S 
ATOM     26  C   UNL A   1      32.535  17.941  22.736  1.00  0.00     0.163 C 
ATOM     27  O   UNL A   1      32.150  18.127  25.302  1.00  0.00    -0.224 OA
ATOM     28  O   UNL A   1      34.516  18.242  24.424  1.00  0.00    -0.224 OA
ENDBRANCH  20  25
ENDBRANCH  15  19
BRANCH  18  29
ATOM     29  C   UNL A   1      30.178  27.015  23.260  1.00  0.00    -0.023 A 
ATOM     30  C   UNL A   1      29.187  26.240  23.882  1.00  0.00     0.006 A 
ATOM     31  C   UNL A   1      29.799  28.279  22.761  1.00  0.00     0.006 A 
ATOM     32  C   UNL A   1      27.870  26.703  23.983  1.00  0.00     0.000 A 
ATOM     33  C   UNL A   1      28.491  28.751  22.885  1.00  0.00     0.000 A 
ATOM     34  C   UNL A   1      27.523  27.959  23.491  1.00  0.00     0.000 A 
ENDBRANCH  18  29
ENDBRANCH   9  14
ENDBRANCH   5   8
ENDBRANCH   3   4
ENDBRANCH   2   3
ENDBRANCH   1   2
BRANCH   1  35
ATOM     35  C   UNL A   1      37.044  30.068  31.378  1.00  0.00     0.002 C 
BRANCH  35  36
ATOM     36  C   UNL A   1      36.278  30.974  32.345  1.00  0.00     0.021 C 
BRANCH  36  37
ATOM     37  C   UNL A   1      35.562  32.144  31.679  1.00  0.00     0.116 C 
BRANCH  37  38
ATOM     38  N   UNL A   1      35.892  33.411  32.315  1.00  0.00    -0.352 N 
ATOM     39  C   UNL A   1      37.120  33.983  32.528  1.00  0.00     0.251 C 
ATOM     40  H   UNL A   1      35.123  33.933  32.637  1.00  0.00     0.163 HD
ATOM     41  O   UNL A   1      37.233  34.949  33.275  1.00  0.00    -0.269 OA
BRANCH  39  42
ATOM     42  C   UNL A   1      38.317  33.424  31.865  1.00  0.00     0.039 A 
ATOM     43  C   UNL A   1      39.300  32.811  32.647  1.00  0.00     0.014 A 
ATOM     44  C   UNL A   1      38.480  33.524  30.480  1.00  0.00     0.014 A 
ATOM     45  C   UNL A   1      40.421  32.250  32.032  1.00  0.00     0.010 A 
ATOM     46  C   UNL A   1      39.562  32.903  29.864  1.00  0.00     0.010 A 
ATOM     47  C   UNL A   1      40.546  32.265  30.634  1.00  0.00    -0.014 A 
BRANCH  47  48
ATOM     48  C   UNL A   1      41.701  31.621  29.959  1.00  0.00     0.031 A 
ATOM     49  C   UNL A   1      42.947  32.412  29.674  1.00  0.00     0.074 A 
ATOM     50  C   UNL A   1      41.600  30.343  29.545  1.00  0.00     0.049 A 
ATOM     51  N   UNL A   1      44.030  32.049  29.034  1.00  0.00    -0.248 NA
ATOM     52  C   UNL A   1      42.967  33.805  30.147  1.00  0.00     0.031 C 
ATOM     53  C   UNL A   1      40.426  29.488  29.722  1.00  0.00     0.029 A 
ATOM     54  N   UNL A   1      42.496  29.545  28.879  1.00  0.00    -0.354 N 
ATOM     55  C   UNL A   1      44.850  33.168  29.014  1.00  0.00     0.074 A 
ATOM     56  C   UNL A   1      44.121  34.239  29.660  1.00  0.00     0.031 C 
ATOM     57  C   UNL A   1      40.681  28.279  29.198  1.00  0.00     0.029 A 
ATOM     58  C   UNL A   1      42.020  28.284  28.616  1.00  0.00     0.049 A 
ATOM     59  H   UNL A   1      43.395  29.847  28.615  1.00  0.00     0.167 HD
ATOM     60  C   UNL A   1      46.106  33.287  28.520  1.00  0.00     0.037 A 
ATOM     61  C   UNL A   1      42.595  27.252  27.971  1.00  0.00     0.037 A 
ATOM     62  C   UNL A   1      46.837  32.211  27.903  1.00  0.00     0.049 A 
ATOM     63  C   UNL A   1      43.991  27.409  27.432  1.00  0.00     0.074 A 
ATOM     64  C   UNL A   1      48.139  32.211  27.433  1.00  0.00     0.029 A 
ATOM     65  N   UNL A   1      46.327  30.942  27.670  1.00  0.00    -0.354 N 
ATOM     66  N   UNL A   1      44.783  28.452  27.479  1.00  0.00    -0.248 NA
ATOM     67  C   UNL A   1      44.575  26.243  26.755  1.00  0.00     0.031 C 
ATOM     68  C   UNL A   1      48.400  30.958  26.869  1.00  0.00     0.029 A 
ATOM     69  C   UNL A   1      47.281  30.158  27.038  1.00  0.00     0.049 A 
ATOM     70  H   UNL A   1      45.423  30.642  27.917  1.00  0.00     0.167 HD
ATOM     71  C   UNL A   1      45.966  28.062  26.866  1.00  0.00     0.074 A 
ATOM     72  C   UNL A   1      45.793  26.681  26.467  1.00  0.00     0.031 C 
ATOM     73  C   UNL A   1      47.094  28.783  26.653  1.00  0.00     0.037 A 
BRANCH  60  74
ATOM     74  C   UNL A   1      46.772  34.629  28.625  1.00  0.00     0.064 A 
ATOM     75  C   UNL A   1      47.544  34.983  29.742  1.00  0.00     0.173 A 
ATOM     76  C   UNL A   1      46.669  35.558  27.578  1.00  0.00     0.173 A 
ATOM     77  F   UNL A   1      47.666  34.135  30.775  1.00  0.00    -0.203 F 
ATOM     78  C   UNL A   1      48.165  36.227  29.819  1.00  0.00     0.198 A 
ATOM     79  C   UNL A   1      47.317  36.788  27.645  1.00  0.00     0.198 A 
ATOM     80  F   UNL A   1      45.949  35.268  26.484  1.00  0.00    -0.203 F 
ATOM     81  F   UNL A   1      48.856  36.562  30.917  1.00  0.00    -0.200 F 
ATOM     82  C   UNL A   1      48.057  37.125  28.769  1.00  0.00     0.200 A 
ATOM     83  F   UNL A   1      47.224  37.650  26.623  1.00  0.00    -0.200 F 
ATOM     84  F   UNL A   1      48.663  38.319  28.841  1.00  0.00    -0.200 F 
ENDBRANCH  60  74
BRANCH  61  85
ATOM     85  C   UNL A   1      41.860  25.969  27.824  1.00  0.00     0.064 A 
ATOM     86  C   UNL A   1      40.795  25.850  26.919  1.00  0.00     0.173 A 
ATOM     87  C   UNL A   1      42.206  24.837  28.576  1.00  0.00     0.173 A 
ATOM     88  F   UNL A   1      40.414  26.911  26.192  1.00  0.00    -0.203 F 
ATOM     89  C   UNL A   1      40.092  24.655  26.788  1.00  0.00     0.198 A 
ATOM     90  C   UNL A   1      41.521  23.634  28.424  1.00  0.00     0.198 A 
ATOM     91  F   UNL A   1      43.220  24.897  29.451  1.00  0.00    -0.203 F 
ATOM     92  F   UNL A   1      39.050  24.581  25.948  1.00  0.00    -0.200 F 
ATOM     93  C   UNL A   1      40.460  23.546  27.535  1.00  0.00     0.200 A 
ATOM     94  F   UNL A   1      41.888  22.561  29.136  1.00  0.00    -0.200 F 
ATOM     95  F   UNL A   1      39.786  22.394  27.404  1.00  0.00    -0.200 F 
ENDBRANCH  61  85
BRANCH  73  96
ATOM     96  C   UNL A   1      48.243  28.082  25.988  1.00  0.00     0.064 A 
ATOM     97  C   UNL A   1      49.354  27.633  26.717  1.00  0.00     0.173 A 
ATOM     98  C   UNL A   1      48.211  27.820  24.609  1.00  0.00     0.173 A 
ATOM     99  F   UNL A   1      49.439  27.873  28.034  1.00  0.00    -0.203 F 
ATOM    100  C   UNL A   1      50.403  26.969  26.085  1.00  0.00     0.198 A 
ATOM    101  C   UNL A   1      49.247  27.129  23.987  1.00  0.00     0.198 A 
ATOM    102  F   UNL A   1      47.167  28.222  23.868  1.00  0.00    -0.203 F 
ATOM    103  F   UNL A   1      51.476  26.592  26.792  1.00  0.00    -0.200 F 
ATOM    104  C   UNL A   1      50.344  26.711  24.724  1.00  0.00     0.200 A 
ATOM    105  F   UNL A   1      49.182  26.866  22.675  1.00  0.00    -0.200 F 
ATOM    106  F   UNL A   1      51.351  26.064  24.119  1.00  0.00    -0.200 F 
ENDBRANCH  73  96
ENDBRANCH  47  48
ENDBRANCH  39  42
ENDBRANCH  37  38
ENDBRANCH  36  37
ENDBRANCH  35  36
ENDBRANCH   1  35
TORSDOF 17
ENDMDL
