MODEL 1
REMARK VINA RESULT:     -10.6      0.000      0.000
REMARK SMILES CCN1C(=O)/C(=C/c2cc([N+](=O)[O-])ccc2O)S/C1=[NH+]\c1ccc(C(=O)NCCCCCCNC(=O)c2ccc(-c3c4nc(c(-c5c(F)c(F)c(F)c(F)c5F)c5ccc([nH]5)c(-c5c(F)c(F)c(F)c(F)c5F)c5nc(c(-c6c(F)c(F)c(F)c(F)c6F)c6ccc3[nH]6)C=C5)C=C4)cc2)cc1
REMARK SMILES IDX 30 1 29 2 28 3 27 4 25 5 26 6 24 8 21 9 22 10 101 11 23 12
REMARK SMILES IDX 100 13 20 14 3 15 4 16 19 17 5 18 6 19 18 20 7 21 2 23 1 24
REMARK SMILES IDX 8 25 9 26 16 27 10 28 15 29 14 30 17 31 11 33 12 34 13 35
REMARK SMILES IDX 31 36 32 37 33 38 34 39 35 40 36 42 37 43 38 44 99 45 39 46
REMARK SMILES IDX 98 47 40 48 41 49 42 50 92 51 43 52 97 53 91 54 93 55 44 56
REMARK SMILES IDX 96 57 90 58 89 59 45 61 77 62 57 63 76 64 58 65 61 66 75 67
REMARK SMILES IDX 94 68 59 69 60 70 74 72 95 73 62 74 46 75 47 76 55 77 48 78
REMARK SMILES IDX 49 79 53 80 56 81 50 82 51 83 54 84 52 85 78 86 79 87 87 88
REMARK SMILES IDX 80 89 81 90 85 91 88 92 82 93 83 94 86 95 84 96 63 97 64 98
REMARK SMILES IDX 72 99 65 100 66 101 70 102 73 103 67 104 68 105 71 106
REMARK SMILES IDX 69 107
REMARK H PARENT 27 7 20 22 17 32 34 41 93 60 61 71
REMARK Flexibility Score: inf
ROOT
ATOM      1  C   UNL A   1      35.802  31.387  28.099  1.00  0.00     0.002 C 
ENDROOT
BRANCH   1   2
ATOM      2  C   UNL A   1      36.020  29.895  27.814  1.00  0.00     0.021 C 
BRANCH   2   3
ATOM      3  C   UNL A   1      36.881  29.202  28.872  1.00  0.00     0.116 C 
BRANCH   3   4
ATOM      4  N   UNL A   1      38.185  29.834  28.941  1.00  0.00    -0.352 N 
ATOM      5  C   UNL A   1      39.451  29.350  28.740  1.00  0.00     0.251 C 
ATOM      6  O   UNL A   1      40.396  30.130  28.852  1.00  0.00    -0.269 OA
ATOM      7  H   UNL A   1      38.155  30.790  29.175  1.00  0.00     0.163 HD
BRANCH   5   8
ATOM      8  C   UNL A   1      39.716  27.945  28.333  1.00  0.00     0.040 A 
ATOM      9  C   UNL A   1      40.162  25.339  27.371  1.00  0.00     0.125 A 
ATOM     10  C   UNL A   1      40.585  26.439  26.628  1.00  0.00     0.052 A 
ATOM     11  C   UNL A   1      39.601  25.548  28.634  1.00  0.00     0.052 A 
ATOM     12  C   UNL A   1      40.358  27.736  27.103  1.00  0.00     0.018 A 
ATOM     13  C   UNL A   1      39.396  26.839  29.120  1.00  0.00     0.018 A 
BRANCH   9  14
ATOM     14  N   UNL A   1      40.392  24.035  26.922  1.00  0.00    -0.234 N 
ATOM     15  N   UNL A   1      39.593  21.989  26.130  1.00  0.00    -0.186 N 
ATOM     16  C   UNL A   1      38.490  21.342  25.615  1.00  0.00     0.348 C 
ATOM     17  C   UNL A   1      39.433  23.325  26.423  1.00  0.00     0.324 C 
ATOM     18  O   UNL A   1      38.410  20.167  25.275  1.00  0.00    -0.240 OA
ATOM     19  C   UNL A   1      37.335  22.280  25.525  1.00  0.00     0.110 C 
ATOM     20  S   UNL A   1      37.802  23.843  26.063  1.00  0.00     0.007 SA
ATOM     21  C   UNL A   1      36.129  21.893  25.085  1.00  0.00     0.036 C 
ATOM     22  H   UNL A   1      41.297  23.651  26.986  1.00  0.00     0.313 HD
BRANCH  15  23
ATOM     23  C   UNL A   1      40.897  21.356  26.326  1.00  0.00     0.244 C 
ATOM     24  C   UNL A   1      41.041  20.432  27.523  1.00  0.00     0.055 C 
ENDBRANCH  15  23
BRANCH  21  25
ATOM     25  C   UNL A   1      34.972  22.783  24.904  1.00  0.00     0.024 A 
ATOM     26  C   UNL A   1      34.039  22.919  25.940  1.00  0.00     0.097 A 
ATOM     27  C   UNL A   1      34.783  23.507  23.714  1.00  0.00     0.123 A 
ATOM     28  C   UNL A   1      32.953  23.795  25.783  1.00  0.00     0.270 A 
ATOM     29  C   UNL A   1      33.705  24.377  23.560  1.00  0.00     0.054 A 
ATOM     30  C   UNL A   1      32.786  24.528  24.599  1.00  0.00     0.089 A 
BRANCH  27  31
ATOM     31  O   UNL A   1      35.676  23.345  22.688  1.00  0.00    -0.507 OA
ATOM     32  H   UNL A   1      35.387  23.003  21.865  1.00  0.00     0.293 HD
ENDBRANCH  27  31
BRANCH  28  33
ATOM     33  N   UNL A   1      31.982  23.956  26.873  1.00  0.00     0.062 N 
ATOM     34  O   UNL A   1      31.342  25.016  26.923  1.00  0.00    -0.258 OA
ATOM     35  O   UNL A   1      31.853  23.019  27.673  1.00  0.00    -0.258 OA
ENDBRANCH  28  33
ENDBRANCH  21  25
ENDBRANCH   9  14
ENDBRANCH   5   8
ENDBRANCH   3   4
ENDBRANCH   2   3
ENDBRANCH   1   2
BRANCH   1  36
ATOM     36  C   UNL A   1      34.434  31.925  27.664  1.00  0.00     0.002 C 
BRANCH  36  37
ATOM     37  C   UNL A   1      34.107  33.330  28.174  1.00  0.00     0.021 C 
BRANCH  37  38
ATOM     38  C   UNL A   1      34.746  33.663  29.517  1.00  0.00     0.116 C 
BRANCH  38  39
ATOM     39  N   UNL A   1      33.813  34.349  30.398  1.00  0.00    -0.352 N 
ATOM     40  C   UNL A   1      33.826  34.450  31.765  1.00  0.00     0.251 C 
ATOM     41  H   UNL A   1      33.065  34.804  29.948  1.00  0.00     0.163 HD
ATOM     42  O   UNL A   1      32.834  34.846  32.368  1.00  0.00    -0.269 OA
BRANCH  40  43
ATOM     43  C   UNL A   1      35.042  34.072  32.512  1.00  0.00     0.039 A 
ATOM     44  C   UNL A   1      35.160  32.772  33.008  1.00  0.00     0.014 A 
ATOM     45  C   UNL A   1      36.060  35.005  32.729  1.00  0.00     0.014 A 
ATOM     46  C   UNL A   1      36.324  32.393  33.677  1.00  0.00     0.010 A 
ATOM     47  C   UNL A   1      37.252  34.603  33.320  1.00  0.00     0.010 A 
ATOM     48  C   UNL A   1      37.391  33.297  33.810  1.00  0.00    -0.014 A 
BRANCH  48  49
ATOM     49  C   UNL A   1      38.662  32.893  34.462  1.00  0.00     0.031 A 
ATOM     50  C   UNL A   1      39.699  32.130  33.688  1.00  0.00     0.074 A 
ATOM     51  C   UNL A   1      38.850  33.158  35.768  1.00  0.00     0.049 A 
ATOM     52  N   UNL A   1      40.849  31.651  34.091  1.00  0.00    -0.248 NA
ATOM     53  C   UNL A   1      39.390  31.840  32.280  1.00  0.00     0.031 C 
ATOM     54  C   UNL A   1      37.897  33.851  36.635  1.00  0.00     0.029 A 
ATOM     55  N   UNL A   1      39.907  32.872  36.595  1.00  0.00    -0.354 N 
ATOM     56  C   UNL A   1      41.389  30.993  32.995  1.00  0.00     0.074 A 
ATOM     57  C   UNL A   1      40.414  31.079  31.929  1.00  0.00     0.031 C 
ATOM     58  C   UNL A   1      38.427  33.969  37.863  1.00  0.00     0.029 A 
ATOM     59  C   UNL A   1      39.735  33.323  37.880  1.00  0.00     0.049 A 
ATOM     60  H   UNL A   1      40.710  32.388  36.296  1.00  0.00     0.167 HD
ATOM     61  C   UNL A   1      42.597  30.390  32.880  1.00  0.00     0.037 A 
ATOM     62  C   UNL A   1      40.543  33.223  38.953  1.00  0.00     0.037 A 
ATOM     63  C   UNL A   1      43.565  30.319  33.944  1.00  0.00     0.049 A 
ATOM     64  C   UNL A   1      41.867  32.526  38.809  1.00  0.00     0.074 A 
ATOM     65  C   UNL A   1      44.844  29.793  33.914  1.00  0.00     0.029 A 
ATOM     66  N   UNL A   1      43.353  30.779  35.237  1.00  0.00    -0.354 N 
ATOM     67  N   UNL A   1      42.406  31.978  37.748  1.00  0.00    -0.248 NA
ATOM     68  C   UNL A   1      42.699  32.437  40.018  1.00  0.00     0.031 C 
ATOM     69  C   UNL A   1      45.380  29.873  35.205  1.00  0.00     0.029 A 
ATOM     70  C   UNL A   1      44.464  30.514  36.023  1.00  0.00     0.049 A 
ATOM     71  H   UNL A   1      42.534  31.229  35.550  1.00  0.00     0.167 HD
ATOM     72  C   UNL A   1      43.649  31.508  38.147  1.00  0.00     0.074 A 
ATOM     73  C   UNL A   1      43.790  31.848  39.549  1.00  0.00     0.031 C 
ATOM     74  C   UNL A   1      44.590  30.857  37.419  1.00  0.00     0.037 A 
BRANCH  61  75
ATOM     75  C   UNL A   1      42.924  29.743  31.563  1.00  0.00     0.064 A 
ATOM     76  C   UNL A   1      43.551  30.450  30.523  1.00  0.00     0.173 A 
ATOM     77  C   UNL A   1      42.607  28.396  31.334  1.00  0.00     0.173 A 
ATOM     78  F   UNL A   1      43.869  31.745  30.683  1.00  0.00    -0.203 F 
ATOM     79  C   UNL A   1      43.799  29.848  29.292  1.00  0.00     0.198 A 
ATOM     80  C   UNL A   1      42.893  27.786  30.115  1.00  0.00     0.198 A 
ATOM     81  F   UNL A   1      42.016  27.667  32.292  1.00  0.00    -0.203 F 
ATOM     82  F   UNL A   1      44.330  30.567  28.292  1.00  0.00    -0.200 F 
ATOM     83  C   UNL A   1      43.475  28.516  29.091  1.00  0.00     0.200 A 
ATOM     84  F   UNL A   1      42.594  26.493  29.928  1.00  0.00    -0.200 F 
ATOM     85  F   UNL A   1      43.713  27.939  27.905  1.00  0.00    -0.200 F 
ENDBRANCH  61  75
BRANCH  62  86
ATOM     86  C   UNL A   1      40.135  33.840  40.242  1.00  0.00     0.064 A 
ATOM     87  C   UNL A   1      40.511  35.153  40.556  1.00  0.00     0.173 A 
ATOM     88  C   UNL A   1      39.351  33.144  41.175  1.00  0.00     0.173 A 
ATOM     89  F   UNL A   1      41.278  35.851  39.705  1.00  0.00    -0.203 F 
ATOM     90  C   UNL A   1      40.127  35.744  41.757  1.00  0.00     0.198 A 
ATOM     91  C   UNL A   1      38.945  33.746  42.364  1.00  0.00     0.198 A 
ATOM     92  F   UNL A   1      38.962  31.887  40.919  1.00  0.00    -0.203 F 
ATOM     93  F   UNL A   1      40.533  36.988  42.048  1.00  0.00    -0.200 F 
ATOM     94  C   UNL A   1      39.338  35.043  42.657  1.00  0.00     0.200 A 
ATOM     95  F   UNL A   1      38.172  33.072  43.225  1.00  0.00    -0.200 F 
ATOM     96  F   UNL A   1      38.963  35.617  43.808  1.00  0.00    -0.200 F 
ENDBRANCH  62  86
BRANCH  74  97
ATOM     97  C   UNL A   1      45.874  30.500  38.113  1.00  0.00     0.064 A 
ATOM     98  C   UNL A   1      46.946  31.401  38.199  1.00  0.00     0.173 A 
ATOM     99  C   UNL A   1      46.019  29.249  38.734  1.00  0.00     0.173 A 
ATOM    100  F   UNL A   1      46.866  32.604  37.612  1.00  0.00    -0.203 F 
ATOM    101  C   UNL A   1      48.124  31.052  38.856  1.00  0.00     0.198 A 
ATOM    102  C   UNL A   1      47.184  28.918  39.420  1.00  0.00     0.198 A 
ATOM    103  F   UNL A   1      45.023  28.351  38.688  1.00  0.00    -0.203 F 
ATOM    104  F   UNL A   1      49.155  31.908  38.879  1.00  0.00    -0.200 F 
ATOM    105  C   UNL A   1      48.239  29.815  39.473  1.00  0.00     0.200 A 
ATOM    106  F   UNL A   1      47.286  27.728  40.030  1.00  0.00    -0.200 F 
ATOM    107  F   UNL A   1      49.369  29.486  40.112  1.00  0.00    -0.200 F 
ENDBRANCH  74  97
ENDBRANCH  48  49
ENDBRANCH  40  43
ENDBRANCH  38  39
ENDBRANCH  37  38
ENDBRANCH  36  37
ENDBRANCH   1  36
TORSDOF 18
ENDMDL
MODEL 2
REMARK VINA RESULT:     -10.6      0.841      1.705
REMARK SMILES CCN1C(=O)/C(=C/c2cc([N+](=O)[O-])ccc2O)S/C1=[NH+]\c1ccc(C(=O)NCCCCCCNC(=O)c2ccc(-c3c4nc(c(-c5c(F)c(F)c(F)c(F)c5F)c5ccc([nH]5)c(-c5c(F)c(F)c(F)c(F)c5F)c5nc(c(-c6c(F)c(F)c(F)c(F)c6F)c6ccc3[nH]6)C=C5)C=C4)cc2)cc1
REMARK SMILES IDX 30 1 29 2 28 3 27 4 25 5 26 6 24 8 21 9 22 10 101 11 23 12
REMARK SMILES IDX 100 13 20 14 3 15 4 16 19 17 5 18 6 19 18 20 7 21 2 23 1 24
REMARK SMILES IDX 8 25 9 26 16 27 10 28 15 29 14 30 17 31 11 33 12 34 13 35
REMARK SMILES IDX 31 36 32 37 33 38 34 39 35 40 36 42 37 43 38 44 99 45 39 46
REMARK SMILES IDX 98 47 40 48 41 49 42 50 92 51 43 52 97 53 91 54 93 55 44 56
REMARK SMILES IDX 96 57 90 58 89 59 45 61 77 62 57 63 76 64 58 65 61 66 75 67
REMARK SMILES IDX 94 68 59 69 60 70 74 72 95 73 62 74 46 75 47 76 55 77 48 78
REMARK SMILES IDX 49 79 53 80 56 81 50 82 51 83 54 84 52 85 78 86 79 87 87 88
REMARK SMILES IDX 80 89 81 90 85 91 88 92 82 93 83 94 86 95 84 96 63 97 64 98
REMARK SMILES IDX 72 99 65 100 66 101 70 102 73 103 67 104 68 105 71 106
REMARK SMILES IDX 69 107
REMARK H PARENT 27 7 20 22 17 32 34 41 93 60 61 71
REMARK Flexibility Score: inf
ROOT
ATOM      1  C   UNL A   1      36.350  31.109  29.696  1.00  0.00     0.002 C 
ENDROOT
BRANCH   1   2
ATOM      2  C   UNL A   1      35.845  30.039  28.717  1.00  0.00     0.021 C 
BRANCH   2   3
ATOM      3  C   UNL A   1      36.978  29.303  27.998  1.00  0.00     0.116 C 
BRANCH   3   4
ATOM      4  N   UNL A   1      38.255  29.890  28.356  1.00  0.00    -0.352 N 
ATOM      5  C   UNL A   1      39.519  29.364  28.427  1.00  0.00     0.251 C 
ATOM      6  O   UNL A   1      40.441  30.110  28.753  1.00  0.00    -0.269 OA
ATOM      7  H   UNL A   1      38.205  30.844  28.592  1.00  0.00     0.163 HD
BRANCH   5   8
ATOM      8  C   UNL A   1      39.820  27.953  28.067  1.00  0.00     0.040 A 
ATOM      9  C   UNL A   1      40.343  25.332  27.190  1.00  0.00     0.125 A 
ATOM     10  C   UNL A   1      40.781  26.420  26.437  1.00  0.00     0.052 A 
ATOM     11  C   UNL A   1      39.727  25.563  28.423  1.00  0.00     0.052 A 
ATOM     12  C   UNL A   1      40.516  27.724  26.870  1.00  0.00     0.018 A 
ATOM     13  C   UNL A   1      39.484  26.862  28.868  1.00  0.00     0.018 A 
BRANCH   9  14
ATOM     14  N   UNL A   1      40.611  24.021  26.783  1.00  0.00    -0.234 N 
ATOM     15  N   UNL A   1      39.869  21.901  26.145  1.00  0.00    -0.186 N 
ATOM     16  C   UNL A   1      38.768  21.176  25.741  1.00  0.00     0.348 C 
ATOM     17  C   UNL A   1      39.658  23.240  26.388  1.00  0.00     0.324 C 
ATOM     18  O   UNL A   1      38.727  19.983  25.460  1.00  0.00    -0.240 OA
ATOM     19  C   UNL A   1      37.561  22.049  25.694  1.00  0.00     0.110 C 
ATOM     20  S   UNL A   1      37.980  23.658  26.126  1.00  0.00     0.007 SA
ATOM     21  C   UNL A   1      36.348  21.581  25.362  1.00  0.00     0.036 C 
ATOM     22  H   UNL A   1      41.537  23.687  26.798  1.00  0.00     0.313 HD
BRANCH  15  23
ATOM     23  C   UNL A   1      41.215  21.345  26.271  1.00  0.00     0.244 C 
ATOM     24  C   UNL A   1      41.495  20.493  27.497  1.00  0.00     0.055 C 
ENDBRANCH  15  23
BRANCH  21  25
ATOM     25  C   UNL A   1      35.136  22.402  25.227  1.00  0.00     0.024 A 
ATOM     26  C   UNL A   1      34.735  22.834  23.956  1.00  0.00     0.097 A 
ATOM     27  C   UNL A   1      34.364  22.759  26.346  1.00  0.00     0.123 A 
ATOM     28  C   UNL A   1      33.559  23.588  23.820  1.00  0.00     0.270 A 
ATOM     29  C   UNL A   1      33.195  23.507  26.209  1.00  0.00     0.054 A 
ATOM     30  C   UNL A   1      32.785  23.921  24.941  1.00  0.00     0.089 A 
BRANCH  27  31
ATOM     31  O   UNL A   1      34.777  22.367  27.591  1.00  0.00    -0.507 OA
ATOM     32  H   UNL A   1      34.200  21.877  28.143  1.00  0.00     0.293 HD
ENDBRANCH  27  31
BRANCH  28  33
ATOM     33  N   UNL A   1      33.124  24.027  22.488  1.00  0.00     0.062 N 
ATOM     34  O   UNL A   1      33.650  23.490  21.503  1.00  0.00    -0.258 OA
ATOM     35  O   UNL A   1      32.248  24.902  22.427  1.00  0.00    -0.258 OA
ENDBRANCH  28  33
ENDBRANCH  21  25
ENDBRANCH   9  14
ENDBRANCH   5   8
ENDBRANCH   3   4
ENDBRANCH   2   3
ENDBRANCH   1   2
BRANCH   1  36
ATOM     36  C   UNL A   1      36.149  32.552  29.220  1.00  0.00     0.002 C 
BRANCH  36  37
ATOM     37  C   UNL A   1      34.693  33.025  29.209  1.00  0.00     0.021 C 
BRANCH  37  38
ATOM     38  C   UNL A   1      34.529  34.523  29.433  1.00  0.00     0.116 C 
BRANCH  38  39
ATOM     39  N   UNL A   1      33.576  34.803  30.497  1.00  0.00    -0.352 N 
ATOM     40  C   UNL A   1      33.650  34.496  31.831  1.00  0.00     0.251 C 
ATOM     41  H   UNL A   1      32.762  35.282  30.218  1.00  0.00     0.163 HD
ATOM     42  O   UNL A   1      32.655  34.577  32.543  1.00  0.00    -0.269 OA
BRANCH  40  43
ATOM     43  C   UNL A   1      34.937  34.057  32.407  1.00  0.00     0.039 A 
ATOM     44  C   UNL A   1      35.994  34.966  32.480  1.00  0.00     0.014 A 
ATOM     45  C   UNL A   1      35.098  32.748  32.867  1.00  0.00     0.014 A 
ATOM     46  C   UNL A   1      37.200  34.575  33.063  1.00  0.00     0.010 A 
ATOM     47  C   UNL A   1      36.269  32.385  33.522  1.00  0.00     0.010 A 
ATOM     48  C   UNL A   1      37.335  33.291  33.616  1.00  0.00    -0.014 A 
BRANCH  48  49
ATOM     49  C   UNL A   1      38.587  32.876  34.297  1.00  0.00     0.031 A 
ATOM     50  C   UNL A   1      39.638  32.110  33.545  1.00  0.00     0.074 A 
ATOM     51  C   UNL A   1      38.746  33.135  35.608  1.00  0.00     0.049 A 
ATOM     52  N   UNL A   1      40.775  31.622  33.973  1.00  0.00    -0.248 NA
ATOM     53  C   UNL A   1      39.362  31.827  32.128  1.00  0.00     0.031 C 
ATOM     54  C   UNL A   1      37.776  33.831  36.454  1.00  0.00     0.029 A 
ATOM     55  N   UNL A   1      39.780  32.839  36.459  1.00  0.00    -0.354 N 
ATOM     56  C   UNL A   1      41.337  30.965  32.888  1.00  0.00     0.074 A 
ATOM     57  C   UNL A   1      40.389  31.062  31.799  1.00  0.00     0.031 C 
ATOM     58  C   UNL A   1      38.277  33.940  37.695  1.00  0.00     0.029 A 
ATOM     59  C   UNL A   1      39.580  33.285  37.742  1.00  0.00     0.049 A 
ATOM     60  H   UNL A   1      40.588  32.351  36.178  1.00  0.00     0.167 HD
ATOM     61  C   UNL A   1      42.544  30.355  32.800  1.00  0.00     0.037 A 
ATOM     62  C   UNL A   1      40.361  33.176  38.833  1.00  0.00     0.037 A 
ATOM     63  C   UNL A   1      43.486  30.273  33.887  1.00  0.00     0.049 A 
ATOM     64  C   UNL A   1      41.684  32.471  38.719  1.00  0.00     0.074 A 
ATOM     65  C   UNL A   1      44.761  29.739  33.886  1.00  0.00     0.029 A 
ATOM     66  N   UNL A   1      43.245  30.729  35.176  1.00  0.00    -0.354 N 
ATOM     67  N   UNL A   1      42.244  31.924  37.668  1.00  0.00    -0.248 NA
ATOM     68  C   UNL A   1      42.485  32.371  39.947  1.00  0.00     0.031 C 
ATOM     69  C   UNL A   1      45.266  29.810  35.189  1.00  0.00     0.029 A 
ATOM     70  C   UNL A   1      44.334  30.454  35.988  1.00  0.00     0.049 A 
ATOM     71  H   UNL A   1      42.421  31.183  35.471  1.00  0.00     0.167 HD
ATOM     72  C   UNL A   1      43.475  31.444  38.096  1.00  0.00     0.074 A 
ATOM     73  C   UNL A   1      43.584  31.777  39.503  1.00  0.00     0.031 C 
ATOM     74  C   UNL A   1      44.429  30.790  37.388  1.00  0.00     0.037 A 
BRANCH  61  75
ATOM     75  C   UNL A   1      42.899  29.711  31.488  1.00  0.00     0.064 A 
ATOM     76  C   UNL A   1      43.539  30.424  30.460  1.00  0.00     0.173 A 
ATOM     77  C   UNL A   1      42.596  28.362  31.253  1.00  0.00     0.173 A 
ATOM     78  F   UNL A   1      43.844  31.720  30.626  1.00  0.00    -0.203 F 
ATOM     79  C   UNL A   1      43.813  29.825  29.233  1.00  0.00     0.198 A 
ATOM     80  C   UNL A   1      42.908  27.755  30.039  1.00  0.00     0.198 A 
ATOM     81  F   UNL A   1      41.993  27.628  32.201  1.00  0.00    -0.203 F 
ATOM     82  F   UNL A   1      44.356  30.548  28.243  1.00  0.00    -0.200 F 
ATOM     83  C   UNL A   1      43.502  28.490  29.025  1.00  0.00     0.200 A 
ATOM     84  F   UNL A   1      42.621  26.460  29.846  1.00  0.00    -0.200 F 
ATOM     85  F   UNL A   1      43.765  27.915  27.843  1.00  0.00    -0.200 F 
ENDBRANCH  61  75
BRANCH  62  86
ATOM     86  C   UNL A   1      39.926  33.790  40.115  1.00  0.00     0.064 A 
ATOM     87  C   UNL A   1      40.318  35.093  40.451  1.00  0.00     0.173 A 
ATOM     88  C   UNL A   1      39.100  33.103  41.017  1.00  0.00     0.173 A 
ATOM     89  F   UNL A   1      41.124  35.782  39.630  1.00  0.00    -0.203 F 
ATOM     90  C   UNL A   1      39.909  35.682  41.646  1.00  0.00     0.198 A 
ATOM     91  C   UNL A   1      38.670  33.702  42.198  1.00  0.00     0.198 A 
ATOM     92  F   UNL A   1      38.695  31.856  40.738  1.00  0.00    -0.203 F 
ATOM     93  F   UNL A   1      40.330  36.915  41.960  1.00  0.00    -0.200 F 
ATOM     94  C   UNL A   1      39.079  34.989  42.514  1.00  0.00     0.200 A 
ATOM     95  F   UNL A   1      37.857  33.037  43.030  1.00  0.00    -0.200 F 
ATOM     96  F   UNL A   1      38.680  35.560  43.659  1.00  0.00    -0.200 F 
ENDBRANCH  62  86
BRANCH  74  97
ATOM     97  C   UNL A   1      45.694  30.422  38.112  1.00  0.00     0.064 A 
ATOM     98  C   UNL A   1      45.883  29.150  38.673  1.00  0.00     0.173 A 
ATOM     99  C   UNL A   1      46.747  31.345  38.212  1.00  0.00     0.173 A 
ATOM    100  F   UNL A   1      44.903  28.235  38.618  1.00  0.00    -0.203 F 
ATOM    101  C   UNL A   1      47.066  28.827  39.333  1.00  0.00     0.198 A 
ATOM    102  C   UNL A   1      47.942  31.005  38.839  1.00  0.00     0.198 A 
ATOM    103  F   UNL A   1      46.623  32.573  37.687  1.00  0.00    -0.203 F 
ATOM    104  F   UNL A   1      47.203  27.624  39.908  1.00  0.00    -0.200 F 
ATOM    105  C   UNL A   1      48.098  29.751  39.407  1.00  0.00     0.200 A 
ATOM    106  F   UNL A   1      48.944  31.895  38.895  1.00  0.00    -0.200 F 
ATOM    107  F   UNL A   1      49.239  29.434  40.033  1.00  0.00    -0.200 F 
ENDBRANCH  74  97
ENDBRANCH  48  49
ENDBRANCH  40  43
ENDBRANCH  38  39
ENDBRANCH  37  38
ENDBRANCH  36  37
ENDBRANCH   1  36
TORSDOF 18
ENDMDL
MODEL 3
REMARK VINA RESULT:     -10.5      0.503      6.897
REMARK SMILES CCN1C(=O)/C(=C/c2cc([N+](=O)[O-])ccc2O)S/C1=[NH+]\c1ccc(C(=O)NCCCCCCNC(=O)c2ccc(-c3c4nc(c(-c5c(F)c(F)c(F)c(F)c5F)c5ccc([nH]5)c(-c5c(F)c(F)c(F)c(F)c5F)c5nc(c(-c6c(F)c(F)c(F)c(F)c6F)c6ccc3[nH]6)C=C5)C=C4)cc2)cc1
REMARK SMILES IDX 30 1 29 2 28 3 27 4 25 5 26 6 24 8 21 9 22 10 101 11 23 12
REMARK SMILES IDX 100 13 20 14 3 15 4 16 19 17 5 18 6 19 18 20 7 21 2 23 1 24
REMARK SMILES IDX 8 25 9 26 16 27 10 28 15 29 14 30 17 31 11 33 12 34 13 35
REMARK SMILES IDX 31 36 32 37 33 38 34 39 35 40 36 42 37 43 38 44 99 45 39 46
REMARK SMILES IDX 98 47 40 48 41 49 42 50 92 51 43 52 97 53 91 54 93 55 44 56
REMARK SMILES IDX 96 57 90 58 89 59 45 61 77 62 57 63 76 64 58 65 61 66 75 67
REMARK SMILES IDX 94 68 59 69 60 70 74 72 95 73 62 74 46 75 47 76 55 77 48 78
REMARK SMILES IDX 49 79 53 80 56 81 50 82 51 83 54 84 52 85 78 86 79 87 87 88
REMARK SMILES IDX 80 89 81 90 85 91 88 92 82 93 83 94 86 95 84 96 63 97 64 98
REMARK SMILES IDX 72 99 65 100 66 101 70 102 73 103 67 104 68 105 71 106
REMARK SMILES IDX 69 107
REMARK H PARENT 27 7 20 22 17 32 34 41 93 60 61 71
REMARK Flexibility Score: inf
ROOT
ATOM      1  C   UNL A   1      36.701  31.107  30.449  1.00  0.00     0.002 C 
ENDROOT
BRANCH   1   2
ATOM      2  C   UNL A   1      36.304  29.701  29.978  1.00  0.00     0.021 C 
BRANCH   2   3
ATOM      3  C   UNL A   1      37.124  29.216  28.781  1.00  0.00     0.116 C 
BRANCH   3   4
ATOM      4  N   UNL A   1      38.459  29.779  28.835  1.00  0.00    -0.352 N 
ATOM      5  C   UNL A   1      39.697  29.228  28.624  1.00  0.00     0.251 C 
ATOM      6  O   UNL A   1      40.682  29.957  28.725  1.00  0.00    -0.269 OA
ATOM      7  H   UNL A   1      38.482  30.736  29.066  1.00  0.00     0.163 HD
BRANCH   5   8
ATOM      8  C   UNL A   1      39.883  27.809  28.221  1.00  0.00     0.040 A 
ATOM      9  C   UNL A   1      40.185  25.181  27.264  1.00  0.00     0.125 A 
ATOM     10  C   UNL A   1      40.678  26.254  26.523  1.00  0.00     0.052 A 
ATOM     11  C   UNL A   1      39.627  25.423  28.522  1.00  0.00     0.052 A 
ATOM     12  C   UNL A   1      40.522  27.562  26.996  1.00  0.00     0.018 A 
ATOM     13  C   UNL A   1      39.493  26.724  29.006  1.00  0.00     0.018 A 
BRANCH   9  14
ATOM     14  N   UNL A   1      40.344  23.865  26.817  1.00  0.00    -0.234 N 
ATOM     15  N   UNL A   1      39.433  21.861  26.040  1.00  0.00    -0.186 N 
ATOM     16  C   UNL A   1      38.293  21.271  25.536  1.00  0.00     0.348 C 
ATOM     17  C   UNL A   1      39.345  23.204  26.329  1.00  0.00     0.324 C 
ATOM     18  O   UNL A   1      38.150  20.100  25.201  1.00  0.00    -0.240 OA
ATOM     19  C   UNL A   1      37.188  22.268  25.452  1.00  0.00     0.110 C 
ATOM     20  S   UNL A   1      37.740  23.806  25.981  1.00  0.00     0.007 SA
ATOM     21  C   UNL A   1      35.959  21.942  25.024  1.00  0.00     0.036 C 
ATOM     22  H   UNL A   1      41.228  23.435  26.875  1.00  0.00     0.313 HD
BRANCH  15  23
ATOM     23  C   UNL A   1      40.703  21.162  26.226  1.00  0.00     0.244 C 
ATOM     24  C   UNL A   1      40.990  20.612  27.613  1.00  0.00     0.055 C 
ENDBRANCH  15  23
BRANCH  21  25
ATOM     25  C   UNL A   1      34.849  22.891  24.849  1.00  0.00     0.024 A 
ATOM     26  C   UNL A   1      33.904  23.041  25.873  1.00  0.00     0.097 A 
ATOM     27  C   UNL A   1      34.716  23.656  23.678  1.00  0.00     0.123 A 
ATOM     28  C   UNL A   1      32.863  23.971  25.723  1.00  0.00     0.270 A 
ATOM     29  C   UNL A   1      33.683  24.581  23.531  1.00  0.00     0.054 A 
ATOM     30  C   UNL A   1      32.752  24.745  24.559  1.00  0.00     0.089 A 
BRANCH  27  31
ATOM     31  O   UNL A   1      35.618  23.481  22.664  1.00  0.00    -0.507 OA
ATOM     32  H   UNL A   1      36.117  22.689  22.611  1.00  0.00     0.293 HD
ENDBRANCH  27  31
BRANCH  28  33
ATOM     33  N   UNL A   1      31.881  24.147  26.802  1.00  0.00     0.062 N 
ATOM     34  O   UNL A   1      31.836  23.281  27.687  1.00  0.00    -0.258 OA
ATOM     35  O   UNL A   1      31.164  25.157  26.768  1.00  0.00    -0.258 OA
ENDBRANCH  28  33
ENDBRANCH  21  25
ENDBRANCH   9  14
ENDBRANCH   5   8
ENDBRANCH   3   4
ENDBRANCH   2   3
ENDBRANCH   1   2
BRANCH   1  36
ATOM     36  C   UNL A   1      36.369  32.227  29.458  1.00  0.00     0.002 C 
BRANCH  36  37
ATOM     37  C   UNL A   1      34.930  32.744  29.535  1.00  0.00     0.021 C 
BRANCH  37  38
ATOM     38  C   UNL A   1      34.822  34.262  29.600  1.00  0.00     0.116 C 
BRANCH  38  39
ATOM     39  N   UNL A   1      33.829  34.685  30.576  1.00  0.00    -0.352 N 
ATOM     40  C   UNL A   1      33.823  34.512  31.937  1.00  0.00     0.251 C 
ATOM     41  H   UNL A   1      33.052  35.163  30.208  1.00  0.00     0.163 HD
ATOM     42  O   UNL A   1      32.798  34.704  32.582  1.00  0.00    -0.269 OA
BRANCH  40  43
ATOM     43  C   UNL A   1      35.059  34.086  32.623  1.00  0.00     0.039 A 
ATOM     44  C   UNL A   1      35.084  32.851  33.274  1.00  0.00     0.014 A 
ATOM     45  C   UNL A   1      36.187  34.911  32.629  1.00  0.00     0.014 A 
ATOM     46  C   UNL A   1      36.261  32.420  33.888  1.00  0.00     0.010 A 
ATOM     47  C   UNL A   1      37.380  34.445  33.168  1.00  0.00     0.010 A 
ATOM     48  C   UNL A   1      37.426  33.201  33.812  1.00  0.00    -0.014 A 
BRANCH  48  49
ATOM     49  C   UNL A   1      38.704  32.731  34.403  1.00  0.00     0.031 A 
ATOM     50  C   UNL A   1      39.042  33.059  35.830  1.00  0.00     0.074 A 
ATOM     51  C   UNL A   1      39.585  32.066  33.634  1.00  0.00     0.049 A 
ATOM     52  N   UNL A   1      40.124  32.779  36.512  1.00  0.00    -0.248 NA
ATOM     53  C   UNL A   1      38.043  33.833  36.583  1.00  0.00     0.031 C 
ATOM     54  C   UNL A   1      39.389  31.729  32.224  1.00  0.00     0.029 A 
ATOM     55  N   UNL A   1      40.825  31.558  33.930  1.00  0.00    -0.354 N 
ATOM     56  C   UNL A   1      39.942  33.354  37.762  1.00  0.00     0.074 A 
ATOM     57  C   UNL A   1      38.675  34.051  37.726  1.00  0.00     0.031 C 
ATOM     58  C   UNL A   1      40.454  31.039  31.786  1.00  0.00     0.029 A 
ATOM     59  C   UNL A   1      41.424  30.923  32.870  1.00  0.00     0.049 A 
ATOM     60  H   UNL A   1      41.245  31.642  34.816  1.00  0.00     0.167 HD
ATOM     61  C   UNL A   1      40.748  33.287  38.849  1.00  0.00     0.037 A 
ATOM     62  C   UNL A   1      42.624  30.317  32.785  1.00  0.00     0.037 A 
ATOM     63  C   UNL A   1      42.002  32.580  38.879  1.00  0.00     0.049 A 
ATOM     64  C   UNL A   1      43.513  30.279  33.996  1.00  0.00     0.074 A 
ATOM     65  C   UNL A   1      42.862  32.393  39.946  1.00  0.00     0.029 A 
ATOM     66  N   UNL A   1      42.583  31.956  37.783  1.00  0.00    -0.354 N 
ATOM     67  N   UNL A   1      43.297  30.753  35.199  1.00  0.00    -0.248 NA
ATOM     68  C   UNL A   1      44.814  29.616  33.837  1.00  0.00     0.031 C 
ATOM     69  C   UNL A   1      43.994  31.714  39.481  1.00  0.00     0.029 A 
ATOM     70  C   UNL A   1      43.808  31.415  38.141  1.00  0.00     0.049 A 
ATOM     71  H   UNL A   1      42.183  31.903  36.885  1.00  0.00     0.167 HD
ATOM     72  C   UNL A   1      44.418  30.421  35.949  1.00  0.00     0.074 A 
ATOM     73  C   UNL A   1      45.306  29.691  35.066  1.00  0.00     0.031 C 
ATOM     74  C   UNL A   1      44.684  30.691  37.251  1.00  0.00     0.037 A 
BRANCH  61  75
ATOM     75  C   UNL A   1      40.301  34.017  40.086  1.00  0.00     0.064 A 
ATOM     76  C   UNL A   1      40.677  35.346  40.341  1.00  0.00     0.173 A 
ATOM     77  C   UNL A   1      39.485  33.378  41.032  1.00  0.00     0.173 A 
ATOM     78  F   UNL A   1      41.464  36.004  39.475  1.00  0.00    -0.203 F 
ATOM     79  C   UNL A   1      40.296  35.988  41.518  1.00  0.00     0.198 A 
ATOM     80  C   UNL A   1      39.073  34.037  42.188  1.00  0.00     0.198 A 
ATOM     81  F   UNL A   1      39.087  32.112  40.838  1.00  0.00    -0.203 F 
ATOM     82  F   UNL A   1      40.730  37.230  41.771  1.00  0.00    -0.200 F 
ATOM     83  C   UNL A   1      39.491  35.334  42.437  1.00  0.00     0.200 A 
ATOM     84  F   UNL A   1      38.281  33.408  43.068  1.00  0.00    -0.200 F 
ATOM     85  F   UNL A   1      39.127  35.952  43.569  1.00  0.00    -0.200 F 
ENDBRANCH  61  75
BRANCH  62  86
ATOM     86  C   UNL A   1      43.028  29.660  31.514  1.00  0.00     0.064 A 
ATOM     87  C   UNL A   1      43.817  30.341  30.577  1.00  0.00     0.173 A 
ATOM     88  C   UNL A   1      42.654  28.340  31.218  1.00  0.00     0.173 A 
ATOM     89  F   UNL A   1      44.181  31.611  30.806  1.00  0.00    -0.203 F 
ATOM     90  C   UNL A   1      44.208  29.731  29.387  1.00  0.00     0.198 A 
ATOM     91  C   UNL A   1      43.069  27.722  30.040  1.00  0.00     0.198 A 
ATOM     92  F   UNL A   1      41.904  27.645  32.085  1.00  0.00    -0.203 F 
ATOM     93  F   UNL A   1      44.931  30.419  28.492  1.00  0.00    -0.200 F 
ATOM     94  C   UNL A   1      43.841  28.420  29.124  1.00  0.00     0.200 A 
ATOM     95  F   UNL A   1      42.725  26.452  29.793  1.00  0.00    -0.200 F 
ATOM     96  F   UNL A   1      44.226  27.832  27.982  1.00  0.00    -0.200 F 
ENDBRANCH  62  86
BRANCH  74  97
ATOM     97  C   UNL A   1      45.975  30.166  37.814  1.00  0.00     0.064 A 
ATOM     98  C   UNL A   1      46.071  28.883  38.375  1.00  0.00     0.173 A 
ATOM     99  C   UNL A   1      47.141  30.945  37.757  1.00  0.00     0.173 A 
ATOM    100  F   UNL A   1      44.984  28.103  38.467  1.00  0.00    -0.203 F 
ATOM    101  C   UNL A   1      47.280  28.413  38.883  1.00  0.00     0.198 A 
ATOM    102  C   UNL A   1      48.355  30.457  38.231  1.00  0.00     0.198 A 
ATOM    103  F   UNL A   1      47.108  32.175  37.224  1.00  0.00    -0.203 F 
ATOM    104  F   UNL A   1      47.335  27.206  39.464  1.00  0.00    -0.200 F 
ATOM    105  C   UNL A   1      48.422  29.196  38.803  1.00  0.00     0.200 A 
ATOM    106  F   UNL A   1      49.461  31.209  38.138  1.00  0.00    -0.200 F 
ATOM    107  F   UNL A   1      49.585  28.737  39.283  1.00  0.00    -0.200 F 
ENDBRANCH  74  97
ENDBRANCH  48  49
ENDBRANCH  40  43
ENDBRANCH  38  39
ENDBRANCH  37  38
ENDBRANCH  36  37
ENDBRANCH   1  36
TORSDOF 18
ENDMDL
