MODEL 1
REMARK VINA RESULT:     -11.9      0.000      0.000
REMARK SMILES O=C(C[N@@H+]1CCC[C@@H]1C(=O)NCCCCCCNC(=O)c1ccc(-c2c3nc(c(-c4c(F)c(F)c(F)c(F)c4F)c4ccc([nH]4)c(-c4c(F)c(F)c(F)c(F)c4F)c4nc(c(-c5c(F)c(F)c(F)c(F)c5F)c5ccc2[nH]5)C=C4)C=C3)cc1)NCc1ccc(Cl)cc1
REMARK SMILES IDX 13 1 12 2 11 3 9 4 10 5 8 7 4 8 5 9 6 11 7 12 3 13 2 14 1 15
REMARK SMILES IDX 84 16 85 18 86 19 87 20 92 21 88 22 91 23 89 24 90 25 14 26
REMARK SMILES IDX 15 27 16 28 17 29 18 30 19 31 20 33 21 34 22 35 83 36 23 37
REMARK SMILES IDX 82 38 24 39 25 40 26 41 76 42 27 43 81 44 75 45 77 46 28 47
REMARK SMILES IDX 80 48 74 49 73 50 29 52 61 53 41 54 60 55 42 56 45 57 59 58
REMARK SMILES IDX 78 59 43 60 44 61 58 63 79 64 46 65 30 66 31 67 39 68 32 69
REMARK SMILES IDX 33 70 37 71 40 72 34 73 35 74 38 75 36 76 62 77 63 78 71 79
REMARK SMILES IDX 64 80 65 81 69 82 72 83 66 84 67 85 70 86 68 87 47 88 48 89
REMARK SMILES IDX 56 90 49 91 50 92 54 93 57 94 51 95 52 96 55 97 53 98
REMARK H PARENT 11 6 4 10 84 17 18 32 77 51 45 62
REMARK Flexibility Score: inf
ROOT
ATOM      1  C   UNL A   1      31.402  27.953  26.070  1.00  0.00     0.021 C 
ENDROOT
BRANCH   1   2
ATOM      2  C   UNL A   1      32.201  26.750  26.534  1.00  0.00     0.116 C 
BRANCH   2   3
ATOM      3  N   UNL A   1      31.391  25.563  26.674  1.00  0.00    -0.351 N 
ATOM      4  C   UNL A   1      31.778  24.267  26.821  1.00  0.00     0.278 C 
ATOM      5  O   UNL A   1      30.925  23.482  27.252  1.00  0.00    -0.268 OA
ATOM      6  H   UNL A   1      30.418  25.712  26.663  1.00  0.00     0.163 HD
BRANCH   4   7
ATOM      7  C   UNL A   1      33.208  23.770  26.567  1.00  0.00     0.274 C 
ATOM      8  N   UNL A   1      33.582  23.494  25.162  1.00  0.00    -0.317 N 
ATOM      9  C   UNL A   1      34.458  22.318  25.163  1.00  0.00     0.263 C 
ATOM     10  H   UNL A   1      34.059  24.340  24.848  1.00  0.00     0.349 HD
ATOM     11  C   UNL A   1      34.161  21.544  26.435  1.00  0.00     0.068 C 
ATOM     12  C   UNL A   1      33.667  22.589  27.420  1.00  0.00     0.081 C 
BRANCH   8  13
ATOM     13  C   UNL A   1      32.575  23.501  24.098  1.00  0.00     0.364 C 
BRANCH  13  14
ATOM     14  C   UNL A   1      32.763  24.638  23.086  1.00  0.00     0.275 C 
ATOM     15  O   UNL A   1      33.628  24.567  22.213  1.00  0.00    -0.268 OA
ATOM     16  N   UNL A   1      31.840  25.656  23.128  1.00  0.00    -0.347 N 
ATOM     17  H   UNL A   1      31.179  25.670  23.858  1.00  0.00     0.164 HD
BRANCH  16  18
ATOM     18  C   UNL A   1      31.811  26.706  22.137  1.00  0.00     0.151 C 
BRANCH  18  19
ATOM     19  C   UNL A   1      30.747  27.749  22.403  1.00  0.00    -0.029 A 
ATOM     20  C   UNL A   1      30.934  29.107  22.094  1.00  0.00     0.007 A 
ATOM     21  C   UNL A   1      29.573  27.372  23.075  1.00  0.00     0.007 A 
ATOM     22  C   UNL A   1      29.963  30.057  22.429  1.00  0.00     0.021 A 
ATOM     23  C   UNL A   1      28.605  28.321  23.416  1.00  0.00     0.021 A 
ATOM     24  C   UNL A   1      28.805  29.659  23.091  1.00  0.00     0.041 A 
ATOM     25  Cl  UNL A   1      27.623  30.831  23.528  1.00  0.00    -0.084 Cl
ENDBRANCH  18  19
ENDBRANCH  16  18
ENDBRANCH  13  14
ENDBRANCH   8  13
ENDBRANCH   4   7
ENDBRANCH   2   3
ENDBRANCH   1   2
BRANCH   1  26
ATOM     26  C   UNL A   1      31.901  29.279  26.651  1.00  0.00     0.002 C 
BRANCH  26  27
ATOM     27  C   UNL A   1      31.664  30.513  25.770  1.00  0.00     0.002 C 
BRANCH  27  28
ATOM     28  C   UNL A   1      31.402  31.818  26.525  1.00  0.00     0.021 C 
BRANCH  28  29
ATOM     29  C   UNL A   1      32.646  32.463  27.123  1.00  0.00     0.116 C 
BRANCH  29  30
ATOM     30  N   UNL A   1      32.421  33.857  27.472  1.00  0.00    -0.352 N 
ATOM     31  C   UNL A   1      33.002  34.606  28.459  1.00  0.00     0.251 C 
ATOM     32  H   UNL A   1      31.758  34.328  26.919  1.00  0.00     0.163 HD
ATOM     33  O   UNL A   1      32.551  35.713  28.744  1.00  0.00    -0.269 OA
BRANCH  31  34
ATOM     34  C   UNL A   1      34.163  34.070  29.196  1.00  0.00     0.039 A 
ATOM     35  C   UNL A   1      33.939  33.266  30.315  1.00  0.00     0.014 A 
ATOM     36  C   UNL A   1      35.467  34.366  28.785  1.00  0.00     0.014 A 
ATOM     37  C   UNL A   1      35.025  32.715  30.994  1.00  0.00     0.010 A 
ATOM     38  C   UNL A   1      36.544  33.752  29.414  1.00  0.00     0.010 A 
ATOM     39  C   UNL A   1      36.335  32.928  30.529  1.00  0.00    -0.014 A 
BRANCH  39  40
ATOM     40  C   UNL A   1      37.497  32.302  31.206  1.00  0.00     0.031 A 
ATOM     41  C   UNL A   1      38.240  31.177  30.543  1.00  0.00     0.074 A 
ATOM     42  C   UNL A   1      37.848  32.714  32.439  1.00  0.00     0.049 A 
ATOM     43  N   UNL A   1      39.245  30.469  30.993  1.00  0.00    -0.248 NA
ATOM     44  C   UNL A   1      37.774  30.775  29.206  1.00  0.00     0.031 C 
ATOM     45  C   UNL A   1      37.176  33.768  33.200  1.00  0.00     0.029 A 
ATOM     46  N   UNL A   1      38.852  32.292  33.272  1.00  0.00    -0.354 N 
ATOM     47  C   UNL A   1      39.524  29.537  30.002  1.00  0.00     0.074 A 
ATOM     48  C   UNL A   1      38.543  29.726  28.956  1.00  0.00     0.031 C 
ATOM     49  C   UNL A   1      37.803  33.931  34.375  1.00  0.00     0.029 A 
ATOM     50  C   UNL A   1      38.894  32.965  34.469  1.00  0.00     0.049 A 
ATOM     51  H   UNL A   1      39.484  31.575  33.034  1.00  0.00     0.167 HD
ATOM     52  C   UNL A   1      40.525  28.626  29.958  1.00  0.00     0.037 A 
ATOM     53  C   UNL A   1      39.715  32.813  35.525  1.00  0.00     0.037 A 
ATOM     54  C   UNL A   1      41.505  28.454  30.998  1.00  0.00     0.049 A 
ATOM     55  C   UNL A   1      40.801  31.772  35.462  1.00  0.00     0.074 A 
ATOM     56  C   UNL A   1      42.589  27.594  31.029  1.00  0.00     0.029 A 
ATOM     57  N   UNL A   1      41.514  29.152  32.197  1.00  0.00    -0.354 N 
ATOM     58  N   UNL A   1      41.100  30.943  34.491  1.00  0.00    -0.248 NA
ATOM     59  C   UNL A   1      41.667  31.650  36.642  1.00  0.00     0.031 C 
ATOM     60  C   UNL A   1      43.219  27.731  32.270  1.00  0.00     0.029 A 
ATOM     61  C   UNL A   1      42.569  28.721  32.988  1.00  0.00     0.049 A 
ATOM     62  H   UNL A   1      40.869  29.851  32.450  1.00  0.00     0.167 HD
ATOM     63  C   UNL A   1      42.203  30.224  34.929  1.00  0.00     0.074 A 
ATOM     64  C   UNL A   1      42.531  30.727  36.247  1.00  0.00     0.031 C 
ATOM     65  C   UNL A   1      42.884  29.236  34.297  1.00  0.00     0.037 A 
BRANCH  52  66
ATOM     66  C   UNL A   1      40.604  27.741  28.746  1.00  0.00     0.064 A 
ATOM     67  C   UNL A   1      39.892  26.533  28.666  1.00  0.00     0.173 A 
ATOM     68  C   UNL A   1      41.381  28.115  27.639  1.00  0.00     0.173 A 
ATOM     69  F   UNL A   1      39.143  26.121  29.701  1.00  0.00    -0.203 F 
ATOM     70  C   UNL A   1      39.985  25.717  27.542  1.00  0.00     0.198 A 
ATOM     71  C   UNL A   1      41.442  27.313  26.502  1.00  0.00     0.198 A 
ATOM     72  F   UNL A   1      42.077  29.261  27.657  1.00  0.00    -0.203 F 
ATOM     73  F   UNL A   1      39.344  24.541  27.515  1.00  0.00    -0.200 F 
ATOM     74  C   UNL A   1      40.753  26.111  26.457  1.00  0.00     0.200 A 
ATOM     75  F   UNL A   1      42.174  27.704  25.448  1.00  0.00    -0.200 F 
ATOM     76  F   UNL A   1      40.837  25.329  25.373  1.00  0.00    -0.200 F 
ENDBRANCH  52  66
BRANCH  53  77
ATOM     77  C   UNL A   1      39.557  33.682  36.720  1.00  0.00     0.064 A 
ATOM     78  C   UNL A   1      38.759  33.281  37.801  1.00  0.00     0.173 A 
ATOM     79  C   UNL A   1      40.192  34.930  36.807  1.00  0.00     0.173 A 
ATOM     80  F   UNL A   1      38.116  32.105  37.757  1.00  0.00    -0.203 F 
ATOM     81  C   UNL A   1      38.584  34.102  38.912  1.00  0.00     0.198 A 
ATOM     82  C   UNL A   1      40.043  35.737  37.932  1.00  0.00     0.198 A 
ATOM     83  F   UNL A   1      40.972  35.358  35.804  1.00  0.00    -0.203 F 
ATOM     84  F   UNL A   1      37.776  33.715  39.907  1.00  0.00    -0.200 F 
ATOM     85  C   UNL A   1      39.231  35.328  38.980  1.00  0.00     0.200 A 
ATOM     86  F   UNL A   1      40.682  36.912  38.001  1.00  0.00    -0.200 F 
ATOM     87  F   UNL A   1      39.065  36.116  40.050  1.00  0.00    -0.200 F 
ENDBRANCH  53  77
BRANCH  65  88
ATOM     88  C   UNL A   1      44.074  28.656  35.008  1.00  0.00     0.064 A 
ATOM     89  C   UNL A   1      45.355  29.214  34.879  1.00  0.00     0.173 A 
ATOM     90  C   UNL A   1      43.923  27.551  35.858  1.00  0.00     0.173 A 
ATOM     91  F   UNL A   1      45.556  30.263  34.066  1.00  0.00    -0.203 F 
ATOM     92  C   UNL A   1      46.445  28.667  35.551  1.00  0.00     0.198 A 
ATOM     93  C   UNL A   1      45.009  27.029  36.557  1.00  0.00     0.198 A 
ATOM     94  F   UNL A   1      42.719  26.984  36.024  1.00  0.00    -0.203 F 
ATOM     95  F   UNL A   1      47.669  29.183  35.369  1.00  0.00    -0.200 F 
ATOM     96  C   UNL A   1      46.269  27.581  36.396  1.00  0.00     0.200 A 
ATOM     97  F   UNL A   1      44.833  25.991  37.386  1.00  0.00    -0.200 F 
ATOM     98  F   UNL A   1      47.318  27.063  37.049  1.00  0.00    -0.200 F 
ENDBRANCH  65  88
ENDBRANCH  39  40
ENDBRANCH  31  34
ENDBRANCH  29  30
ENDBRANCH  28  29
ENDBRANCH  27  28
ENDBRANCH  26  27
ENDBRANCH   1  26
TORSDOF 17
ENDMDL
MODEL 2
REMARK VINA RESULT:     -11.8      4.265      8.238
REMARK SMILES O=C(C[N@@H+]1CCC[C@@H]1C(=O)NCCCCCCNC(=O)c1ccc(-c2c3nc(c(-c4c(F)c(F)c(F)c(F)c4F)c4ccc([nH]4)c(-c4c(F)c(F)c(F)c(F)c4F)c4nc(c(-c5c(F)c(F)c(F)c(F)c5F)c5ccc2[nH]5)C=C4)C=C3)cc1)NCc1ccc(Cl)cc1
REMARK SMILES IDX 13 1 12 2 11 3 9 4 10 5 8 7 4 8 5 9 6 11 7 12 3 13 2 14 1 15
REMARK SMILES IDX 84 16 85 18 86 19 87 20 92 21 88 22 91 23 89 24 90 25 14 26
REMARK SMILES IDX 15 27 16 28 17 29 18 30 19 31 20 33 21 34 22 35 83 36 23 37
REMARK SMILES IDX 82 38 24 39 25 40 26 41 76 42 27 43 81 44 75 45 77 46 28 47
REMARK SMILES IDX 80 48 74 49 73 50 29 52 61 53 41 54 60 55 42 56 45 57 59 58
REMARK SMILES IDX 78 59 43 60 44 61 58 63 79 64 46 65 30 66 31 67 39 68 32 69
REMARK SMILES IDX 33 70 37 71 40 72 34 73 35 74 38 75 36 76 62 77 63 78 71 79
REMARK SMILES IDX 64 80 65 81 69 82 72 83 66 84 67 85 70 86 68 87 47 88 48 89
REMARK SMILES IDX 56 90 49 91 50 92 54 93 57 94 51 95 52 96 55 97 53 98
REMARK H PARENT 11 6 4 10 84 17 18 32 77 51 45 62
REMARK Flexibility Score: inf
ROOT
ATOM      1  C   UNL A   1      32.898  24.119  22.408  1.00  0.00     0.021 C 
ENDROOT
BRANCH   1   2
ATOM      2  C   UNL A   1      32.955  25.479  21.737  1.00  0.00     0.116 C 
BRANCH   2   3
ATOM      3  N   UNL A   1      31.678  26.154  21.734  1.00  0.00    -0.351 N 
ATOM      4  C   UNL A   1      31.266  27.224  22.466  1.00  0.00     0.278 C 
ATOM      5  O   UNL A   1      30.263  27.820  22.054  1.00  0.00    -0.268 OA
ATOM      6  H   UNL A   1      31.009  25.787  21.112  1.00  0.00     0.163 HD
BRANCH   4   7
ATOM      7  C   UNL A   1      32.020  27.760  23.690  1.00  0.00     0.274 C 
ATOM      8  N   UNL A   1      31.684  27.157  25.000  1.00  0.00    -0.317 N 
ATOM      9  C   UNL A   1      31.732  28.228  26.002  1.00  0.00     0.263 C 
ATOM     10  H   UNL A   1      32.400  26.446  25.150  1.00  0.00     0.349 HD
ATOM     11  C   UNL A   1      31.518  29.537  25.263  1.00  0.00     0.068 C 
ATOM     12  C   UNL A   1      32.030  29.279  23.857  1.00  0.00     0.081 C 
BRANCH   8  13
ATOM     13  C   UNL A   1      30.549  26.242  25.141  1.00  0.00     0.364 C 
BRANCH  13  14
ATOM     14  C   UNL A   1      30.903  24.935  25.861  1.00  0.00     0.275 C 
ATOM     15  O   UNL A   1      31.394  24.951  26.989  1.00  0.00    -0.268 OA
ATOM     16  N   UNL A   1      30.522  23.769  25.238  1.00  0.00    -0.347 N 
ATOM     17  H   UNL A   1      30.148  23.816  24.329  1.00  0.00     0.164 HD
BRANCH  16  18
ATOM     18  C   UNL A   1      30.656  22.481  25.876  1.00  0.00     0.151 C 
BRANCH  18  19
ATOM     19  C   UNL A   1      31.965  21.790  25.559  1.00  0.00    -0.029 A 
ATOM     20  C   UNL A   1      32.134  20.992  24.416  1.00  0.00     0.007 A 
ATOM     21  C   UNL A   1      33.018  21.861  26.487  1.00  0.00     0.007 A 
ATOM     22  C   UNL A   1      33.331  20.301  24.197  1.00  0.00     0.021 A 
ATOM     23  C   UNL A   1      34.211  21.167  26.272  1.00  0.00     0.021 A 
ATOM     24  C   UNL A   1      34.362  20.390  25.127  1.00  0.00     0.041 A 
ATOM     25  Cl  UNL A   1      35.824  19.519  24.871  1.00  0.00    -0.084 Cl
ENDBRANCH  18  19
ENDBRANCH  16  18
ENDBRANCH  13  14
ENDBRANCH   8  13
ENDBRANCH   4   7
ENDBRANCH   2   3
ENDBRANCH   1   2
BRANCH   1  26
ATOM     26  C   UNL A   1      34.278  23.509  22.669  1.00  0.00     0.002 C 
BRANCH  26  27
ATOM     27  C   UNL A   1      34.959  23.961  23.968  1.00  0.00     0.002 C 
BRANCH  27  28
ATOM     28  C   UNL A   1      36.351  23.374  24.216  1.00  0.00     0.021 C 
BRANCH  28  29
ATOM     29  C   UNL A   1      36.856  23.527  25.645  1.00  0.00     0.116 C 
BRANCH  29  30
ATOM     30  N   UNL A   1      37.921  22.585  25.950  1.00  0.00    -0.352 N 
ATOM     31  C   UNL A   1      39.171  22.825  26.454  1.00  0.00     0.251 C 
ATOM     32  H   UNL A   1      37.713  21.641  25.768  1.00  0.00     0.163 HD
ATOM     33  O   UNL A   1      40.017  21.934  26.463  1.00  0.00    -0.269 OA
BRANCH  31  34
ATOM     34  C   UNL A   1      39.504  24.166  26.971  1.00  0.00     0.039 A 
ATOM     35  C   UNL A   1      39.220  24.464  28.305  1.00  0.00     0.014 A 
ATOM     36  C   UNL A   1      40.091  25.126  26.140  1.00  0.00     0.014 A 
ATOM     37  C   UNL A   1      39.571  25.711  28.821  1.00  0.00     0.010 A 
ATOM     38  C   UNL A   1      40.513  26.338  26.677  1.00  0.00     0.010 A 
ATOM     39  C   UNL A   1      40.248  26.645  28.019  1.00  0.00    -0.014 A 
BRANCH  39  40
ATOM     40  C   UNL A   1      40.680  27.954  28.569  1.00  0.00     0.031 A 
ATOM     41  C   UNL A   1      42.122  28.185  28.923  1.00  0.00     0.074 A 
ATOM     42  C   UNL A   1      39.763  28.913  28.796  1.00  0.00     0.049 A 
ATOM     43  N   UNL A   1      42.685  29.237  29.462  1.00  0.00    -0.248 NA
ATOM     44  C   UNL A   1      43.052  27.074  28.665  1.00  0.00     0.031 C 
ATOM     45  C   UNL A   1      38.329  28.790  28.532  1.00  0.00     0.029 A 
ATOM     46  N   UNL A   1      39.899  30.179  29.308  1.00  0.00    -0.354 N 
ATOM     47  C   UNL A   1      44.026  28.913  29.611  1.00  0.00     0.074 A 
ATOM     48  C   UNL A   1      44.182  27.545  29.169  1.00  0.00     0.031 C 
ATOM     49  C   UNL A   1      37.721  29.942  28.855  1.00  0.00     0.029 A 
ATOM     50  C   UNL A   1      38.714  30.869  29.389  1.00  0.00     0.049 A 
ATOM     51  H   UNL A   1      40.764  30.557  29.588  1.00  0.00     0.167 HD
ATOM     52  C   UNL A   1      45.039  29.695  30.052  1.00  0.00     0.037 A 
ATOM     53  C   UNL A   1      38.459  32.108  29.850  1.00  0.00     0.037 A 
ATOM     54  C   UNL A   1      44.877  31.061  30.478  1.00  0.00     0.049 A 
ATOM     55  C   UNL A   1      39.599  32.947  30.363  1.00  0.00     0.074 A 
ATOM     56  C   UNL A   1      45.847  31.956  30.895  1.00  0.00     0.029 A 
ATOM     57  N   UNL A   1      43.662  31.726  30.549  1.00  0.00    -0.354 N 
ATOM     58  N   UNL A   1      40.875  32.655  30.435  1.00  0.00    -0.248 NA
ATOM     59  C   UNL A   1      39.261  34.289  30.853  1.00  0.00     0.031 C 
ATOM     60  C   UNL A   1      45.211  33.143  31.274  1.00  0.00     0.029 A 
ATOM     61  C   UNL A   1      43.854  33.012  31.031  1.00  0.00     0.049 A 
ATOM     62  H   UNL A   1      42.792  31.343  30.294  1.00  0.00     0.167 HD
ATOM     63  C   UNL A   1      41.496  33.784  30.949  1.00  0.00     0.074 A 
ATOM     64  C   UNL A   1      40.457  34.774  31.154  1.00  0.00     0.031 C 
ATOM     65  C   UNL A   1      42.808  33.986  31.226  1.00  0.00     0.037 A 
BRANCH  52  66
ATOM     66  C   UNL A   1      46.414  29.089  30.101  1.00  0.00     0.064 A 
ATOM     67  C   UNL A   1      46.895  28.443  31.252  1.00  0.00     0.173 A 
ATOM     68  C   UNL A   1      47.253  29.130  28.977  1.00  0.00     0.173 A 
ATOM     69  F   UNL A   1      46.139  28.385  32.360  1.00  0.00    -0.203 F 
ATOM     70  C   UNL A   1      48.175  27.896  31.286  1.00  0.00     0.198 A 
ATOM     71  C   UNL A   1      48.518  28.550  29.004  1.00  0.00     0.198 A 
ATOM     72  F   UNL A   1      46.842  29.728  27.849  1.00  0.00    -0.203 F 
ATOM     73  F   UNL A   1      48.633  27.339  32.416  1.00  0.00    -0.200 F 
ATOM     74  C   UNL A   1      48.983  27.943  30.161  1.00  0.00     0.200 A 
ATOM     75  F   UNL A   1      49.292  28.583  27.910  1.00  0.00    -0.200 F 
ATOM     76  F   UNL A   1      50.212  27.411  30.193  1.00  0.00    -0.200 F 
ENDBRANCH  52  66
BRANCH  53  77
ATOM     77  C   UNL A   1      37.070  32.638  29.826  1.00  0.00     0.064 A 
ATOM     78  C   UNL A   1      36.219  32.476  30.928  1.00  0.00     0.173 A 
ATOM     79  C   UNL A   1      36.562  33.311  28.704  1.00  0.00     0.173 A 
ATOM     80  F   UNL A   1      36.651  31.822  32.016  1.00  0.00    -0.203 F 
ATOM     81  C   UNL A   1      34.908  32.945  30.902  1.00  0.00     0.198 A 
ATOM     82  C   UNL A   1      35.261  33.808  28.691  1.00  0.00     0.198 A 
ATOM     83  F   UNL A   1      37.337  33.499  27.627  1.00  0.00    -0.203 F 
ATOM     84  F   UNL A   1      34.101  32.731  31.950  1.00  0.00    -0.200 F 
ATOM     85  C   UNL A   1      34.431  33.616  29.786  1.00  0.00     0.200 A 
ATOM     86  F   UNL A   1      34.810  34.471  27.618  1.00  0.00    -0.200 F 
ATOM     87  F   UNL A   1      33.171  34.071  29.762  1.00  0.00    -0.200 F 
ENDBRANCH  53  77
BRANCH  65  88
ATOM     88  C   UNL A   1      43.202  35.338  31.749  1.00  0.00     0.064 A 
ATOM     89  C   UNL A   1      43.162  35.641  33.119  1.00  0.00     0.173 A 
ATOM     90  C   UNL A   1      43.661  36.331  30.871  1.00  0.00     0.173 A 
ATOM     91  F   UNL A   1      42.717  34.732  33.999  1.00  0.00    -0.203 F 
ATOM     92  C   UNL A   1      43.538  36.898  33.585  1.00  0.00     0.198 A 
ATOM     93  C   UNL A   1      44.070  37.575  31.345  1.00  0.00     0.198 A 
ATOM     94  F   UNL A   1      43.727  36.092  29.553  1.00  0.00    -0.203 F 
ATOM     95  F   UNL A   1      43.440  37.183  34.891  1.00  0.00    -0.200 F 
ATOM     96  C   UNL A   1      44.000  37.860  32.699  1.00  0.00     0.200 A 
ATOM     97  F   UNL A   1      44.532  38.497  30.489  1.00  0.00    -0.200 F 
ATOM     98  F   UNL A   1      44.370  39.067  33.151  1.00  0.00    -0.200 F 
ENDBRANCH  65  88
ENDBRANCH  39  40
ENDBRANCH  31  34
ENDBRANCH  29  30
ENDBRANCH  28  29
ENDBRANCH  27  28
ENDBRANCH  26  27
ENDBRANCH   1  26
TORSDOF 17
ENDMDL
MODEL 3
REMARK VINA RESULT:     -11.6      1.875      3.885
REMARK SMILES O=C(C[N@@H+]1CCC[C@@H]1C(=O)NCCCCCCNC(=O)c1ccc(-c2c3nc(c(-c4c(F)c(F)c(F)c(F)c4F)c4ccc([nH]4)c(-c4c(F)c(F)c(F)c(F)c4F)c4nc(c(-c5c(F)c(F)c(F)c(F)c5F)c5ccc2[nH]5)C=C4)C=C3)cc1)NCc1ccc(Cl)cc1
REMARK SMILES IDX 13 1 12 2 11 3 9 4 10 5 8 7 4 8 5 9 6 11 7 12 3 13 2 14 1 15
REMARK SMILES IDX 84 16 85 18 86 19 87 20 92 21 88 22 91 23 89 24 90 25 14 26
REMARK SMILES IDX 15 27 16 28 17 29 18 30 19 31 20 33 21 34 22 35 83 36 23 37
REMARK SMILES IDX 82 38 24 39 25 40 26 41 76 42 27 43 81 44 75 45 77 46 28 47
REMARK SMILES IDX 80 48 74 49 73 50 29 52 61 53 41 54 60 55 42 56 45 57 59 58
REMARK SMILES IDX 78 59 43 60 44 61 58 63 79 64 46 65 30 66 31 67 39 68 32 69
REMARK SMILES IDX 33 70 37 71 40 72 34 73 35 74 38 75 36 76 62 77 63 78 71 79
REMARK SMILES IDX 64 80 65 81 69 82 72 83 66 84 67 85 70 86 68 87 47 88 48 89
REMARK SMILES IDX 56 90 49 91 50 92 54 93 57 94 51 95 52 96 55 97 53 98
REMARK H PARENT 11 6 4 10 84 17 18 32 77 51 45 62
REMARK Flexibility Score: inf
ROOT
ATOM      1  C   UNL A   1      33.934  29.781  26.654  1.00  0.00     0.021 C 
ENDROOT
BRANCH   1   2
ATOM      2  C   UNL A   1      33.935  28.445  25.934  1.00  0.00     0.116 C 
BRANCH   2   3
ATOM      3  N   UNL A   1      33.880  28.586  24.497  1.00  0.00    -0.351 N 
ATOM      4  C   UNL A   1      32.797  28.652  23.678  1.00  0.00     0.278 C 
ATOM      5  O   UNL A   1      32.991  29.102  22.542  1.00  0.00    -0.268 OA
ATOM      6  H   UNL A   1      34.753  28.644  24.046  1.00  0.00     0.163 HD
BRANCH   4   7
ATOM      7  C   UNL A   1      31.372  28.286  24.117  1.00  0.00     0.274 C 
ATOM      8  N   UNL A   1      30.966  26.871  23.964  1.00  0.00    -0.317 N 
ATOM      9  C   UNL A   1      29.557  26.859  23.562  1.00  0.00     0.263 C 
ATOM     10  H   UNL A   1      31.117  26.457  24.885  1.00  0.00     0.349 HD
ATOM     11  C   UNL A   1      29.268  28.201  22.914  1.00  0.00     0.068 C 
ATOM     12  C   UNL A   1      30.254  29.162  23.555  1.00  0.00     0.081 C 
BRANCH   8  13
ATOM     13  C   UNL A   1      31.814  25.917  23.244  1.00  0.00     0.364 C 
BRANCH  13  14
ATOM     14  C   UNL A   1      32.743  25.112  24.160  1.00  0.00     0.275 C 
ATOM     15  O   UNL A   1      33.955  25.331  24.177  1.00  0.00    -0.268 OA
ATOM     16  N   UNL A   1      32.139  24.243  25.038  1.00  0.00    -0.347 N 
ATOM     17  H   UNL A   1      31.167  24.096  24.968  1.00  0.00     0.164 HD
BRANCH  16  18
ATOM     18  C   UNL A   1      32.883  23.540  26.056  1.00  0.00     0.151 C 
BRANCH  18  19
ATOM     19  C   UNL A   1      33.273  22.136  25.648  1.00  0.00    -0.029 A 
ATOM     20  C   UNL A   1      34.613  21.753  25.465  1.00  0.00     0.007 A 
ATOM     21  C   UNL A   1      32.264  21.208  25.340  1.00  0.00     0.007 A 
ATOM     22  C   UNL A   1      34.934  20.471  25.007  1.00  0.00     0.021 A 
ATOM     23  C   UNL A   1      32.584  19.929  24.877  1.00  0.00     0.021 A 
ATOM     24  C   UNL A   1      33.917  19.566  24.712  1.00  0.00     0.041 A 
ATOM     25  Cl  UNL A   1      34.311  17.998  24.123  1.00  0.00    -0.084 Cl
ENDBRANCH  18  19
ENDBRANCH  16  18
ENDBRANCH  13  14
ENDBRANCH   8  13
ENDBRANCH   4   7
ENDBRANCH   2   3
ENDBRANCH   1   2
BRANCH   1  26
ATOM     26  C   UNL A   1      32.579  30.142  27.269  1.00  0.00     0.002 C 
BRANCH  26  27
ATOM     27  C   UNL A   1      31.645  30.960  26.367  1.00  0.00     0.002 C 
BRANCH  27  28
ATOM     28  C   UNL A   1      31.469  32.428  26.764  1.00  0.00     0.021 C 
BRANCH  28  29
ATOM     29  C   UNL A   1      32.728  33.092  27.306  1.00  0.00     0.116 C 
BRANCH  29  30
ATOM     30  N   UNL A   1      32.476  34.452  27.753  1.00  0.00    -0.352 N 
ATOM     31  C   UNL A   1      33.029  35.135  28.802  1.00  0.00     0.251 C 
ATOM     32  H   UNL A   1      31.814  34.953  27.224  1.00  0.00     0.163 HD
ATOM     33  O   UNL A   1      32.556  36.212  29.159  1.00  0.00    -0.269 OA
BRANCH  31  34
ATOM     34  C   UNL A   1      34.186  34.564  29.517  1.00  0.00     0.039 A 
ATOM     35  C   UNL A   1      33.980  33.956  30.756  1.00  0.00     0.014 A 
ATOM     36  C   UNL A   1      35.470  34.633  28.967  1.00  0.00     0.014 A 
ATOM     37  C   UNL A   1      35.056  33.371  31.423  1.00  0.00     0.010 A 
ATOM     38  C   UNL A   1      36.526  33.980  29.594  1.00  0.00     0.010 A 
ATOM     39  C   UNL A   1      36.331  33.351  30.832  1.00  0.00    -0.014 A 
BRANCH  39  40
ATOM     40  C   UNL A   1      37.474  32.683  31.501  1.00  0.00     0.031 A 
ATOM     41  C   UNL A   1      38.164  31.525  30.838  1.00  0.00     0.074 A 
ATOM     42  C   UNL A   1      37.852  33.087  32.728  1.00  0.00     0.049 A 
ATOM     43  N   UNL A   1      39.144  30.779  31.283  1.00  0.00    -0.248 NA
ATOM     44  C   UNL A   1      37.669  31.134  29.509  1.00  0.00     0.031 C 
ATOM     45  C   UNL A   1      37.231  34.172  33.489  1.00  0.00     0.029 A 
ATOM     46  N   UNL A   1      38.847  32.629  33.554  1.00  0.00    -0.354 N 
ATOM     47  C   UNL A   1      39.375  29.831  30.295  1.00  0.00     0.074 A 
ATOM     48  C   UNL A   1      38.393  30.053  29.257  1.00  0.00     0.031 C 
ATOM     49  C   UNL A   1      37.876  34.316  34.658  1.00  0.00     0.029 A 
ATOM     50  C   UNL A   1      38.928  33.307  34.747  1.00  0.00     0.049 A 
ATOM     51  H   UNL A   1      39.448  31.886  33.315  1.00  0.00     0.167 HD
ATOM     52  C   UNL A   1      40.338  28.880  30.247  1.00  0.00     0.037 A 
ATOM     53  C   UNL A   1      39.753  33.128  35.796  1.00  0.00     0.037 A 
ATOM     54  C   UNL A   1      41.320  28.675  31.279  1.00  0.00     0.049 A 
ATOM     55  C   UNL A   1      40.794  32.043  35.729  1.00  0.00     0.074 A 
ATOM     56  C   UNL A   1      42.369  27.772  31.305  1.00  0.00     0.029 A 
ATOM     57  N   UNL A   1      41.370  29.379  32.473  1.00  0.00    -0.354 N 
ATOM     58  N   UNL A   1      41.050  31.198  34.761  1.00  0.00    -0.248 NA
ATOM     59  C   UNL A   1      41.666  31.894  36.902  1.00  0.00     0.031 C 
ATOM     60  C   UNL A   1      43.017  27.890  32.539  1.00  0.00     0.029 A 
ATOM     61  C   UNL A   1      42.414  28.910  33.257  1.00  0.00     0.049 A 
ATOM     62  H   UNL A   1      40.755  30.104  32.728  1.00  0.00     0.167 HD
ATOM     63  C   UNL A   1      42.128  30.437  35.192  1.00  0.00     0.074 A 
ATOM     64  C   UNL A   1      42.489  30.935  36.504  1.00  0.00     0.031 C 
ATOM     65  C   UNL A   1      42.762  29.419  34.560  1.00  0.00     0.037 A 
BRANCH  52  66
ATOM     66  C   UNL A   1      40.370  27.986  29.040  1.00  0.00     0.064 A 
ATOM     67  C   UNL A   1      41.139  28.302  27.907  1.00  0.00     0.173 A 
ATOM     68  C   UNL A   1      39.644  26.786  29.020  1.00  0.00     0.173 A 
ATOM     69  F   UNL A   1      41.844  29.444  27.867  1.00  0.00    -0.203 F 
ATOM     70  C   UNL A   1      41.150  27.470  26.792  1.00  0.00     0.198 A 
ATOM     71  C   UNL A   1      39.686  25.939  27.916  1.00  0.00     0.198 A 
ATOM     72  F   UNL A   1      38.897  26.431  30.076  1.00  0.00    -0.203 F 
ATOM     73  F   UNL A   1      41.844  27.824  25.701  1.00  0.00    -0.200 F 
ATOM     74  C   UNL A   1      40.430  26.286  26.799  1.00  0.00     0.200 A 
ATOM     75  F   UNL A   1      39.001  24.786  27.931  1.00  0.00    -0.200 F 
ATOM     76  F   UNL A   1      40.446  25.483  25.727  1.00  0.00    -0.200 F 
ENDBRANCH  52  66
BRANCH  53  77
ATOM     77  C   UNL A   1      39.641  34.009  36.987  1.00  0.00     0.064 A 
ATOM     78  C   UNL A   1      38.862  33.634  38.091  1.00  0.00     0.173 A 
ATOM     79  C   UNL A   1      40.303  35.245  37.048  1.00  0.00     0.173 A 
ATOM     80  F   UNL A   1      38.194  32.471  38.072  1.00  0.00    -0.203 F 
ATOM     81  C   UNL A   1      38.731  34.467  39.199  1.00  0.00     0.198 A 
ATOM     82  C   UNL A   1      40.197  36.064  38.170  1.00  0.00     0.198 A 
ATOM     83  F   UNL A   1      41.066  35.650  36.023  1.00  0.00    -0.203 F 
ATOM     84  F   UNL A   1      37.940  34.105  40.217  1.00  0.00    -0.200 F 
ATOM     85  C   UNL A   1      39.403  35.680  39.240  1.00  0.00     0.200 A 
ATOM     86  F   UNL A   1      40.861  37.227  38.213  1.00  0.00    -0.200 F 
ATOM     87  F   UNL A   1      39.280  36.480  40.308  1.00  0.00    -0.200 F 
ENDBRANCH  53  77
BRANCH  65  88
ATOM     88  C   UNL A   1      43.935  28.796  35.263  1.00  0.00     0.064 A 
ATOM     89  C   UNL A   1      43.784  27.691  36.114  1.00  0.00     0.173 A 
ATOM     90  C   UNL A   1      45.231  29.289  35.051  1.00  0.00     0.173 A 
ATOM     91  F   UNL A   1      42.564  27.190  36.362  1.00  0.00    -0.203 F 
ATOM     92  C   UNL A   1      44.884  27.122  36.751  1.00  0.00     0.198 A 
ATOM     93  C   UNL A   1      46.333  28.696  35.662  1.00  0.00     0.198 A 
ATOM     94  F   UNL A   1      45.432  30.339  34.241  1.00  0.00    -0.203 F 
ATOM     95  F   UNL A   1      44.710  26.102  37.602  1.00  0.00    -0.200 F 
ATOM     96  C   UNL A   1      46.158  27.620  36.517  1.00  0.00     0.200 A 
ATOM     97  F   UNL A   1      47.564  29.166  35.420  1.00  0.00    -0.200 F 
ATOM     98  F   UNL A   1      47.217  27.065  37.124  1.00  0.00    -0.200 F 
ENDBRANCH  65  88
ENDBRANCH  39  40
ENDBRANCH  31  34
ENDBRANCH  29  30
ENDBRANCH  28  29
ENDBRANCH  27  28
ENDBRANCH  26  27
ENDBRANCH   1  26
TORSDOF 17
ENDMDL
