MODEL 1
REMARK VINA RESULT:     -12.7      0.000      0.000
REMARK SMILES C[C@@H](NC(=O)/C(=C/c1ccc(Cl)cc1)NC(=O)c1ccc(C(C)(C)C)cc1)C(=O)NCCCCCCNC(=O)c1ccc(-c2c3nc(c(-c4c(F)c(F)c(F)c(F)c4F)c4ccc([nH]4)c(-c4c(F)c(F)c(F)c(F)c4F)c4nc(c(-c5c(F)c(F)c(F)c(F)c5F)c5ccc2[nH]5)C=C4)C=C3)cc1
REMARK SMILES IDX 32 1 31 2 30 3 28 4 29 5 2 7 1 8 3 9 4 10 5 12 6 13 7 14
REMARK SMILES IDX 15 15 16 16 17 18 18 19 19 20 27 21 20 22 26 23 21 24 22 25
REMARK SMILES IDX 23 26 24 27 25 28 8 29 9 30 14 31 10 32 13 33 11 34 12 35
REMARK SMILES IDX 33 36 34 37 35 38 36 39 37 40 38 41 39 43 40 44 41 45 102 46
REMARK SMILES IDX 42 47 101 48 43 49 44 50 45 51 95 52 46 53 100 54 94 55
REMARK SMILES IDX 96 56 47 57 99 58 93 59 92 60 48 62 80 63 60 64 79 65 61 66
REMARK SMILES IDX 64 67 78 68 97 69 62 70 63 71 77 73 98 74 65 75 49 76 50 77
REMARK SMILES IDX 58 78 51 79 52 80 56 81 59 82 53 83 54 84 57 85 55 86 81 87
REMARK SMILES IDX 82 88 90 89 83 90 84 91 88 92 91 93 85 94 86 95 89 96 87 97
REMARK SMILES IDX 66 98 67 99 75 100 68 101 69 102 73 103 76 104 70 105 71 106
REMARK SMILES IDX 74 107 72 108
REMARK H PARENT 30 6 3 11 15 17 37 42 96 61 64 72
REMARK Flexibility Score: inf
ROOT
ATOM      1  C   UNL A   1      33.465  28.957  27.202  1.00  0.00     0.021 C 
ENDROOT
BRANCH   1   2
ATOM      2  C   UNL A   1      33.591  27.962  26.055  1.00  0.00     0.116 C 
BRANCH   2   3
ATOM      3  N   UNL A   1      33.892  28.656  24.821  1.00  0.00    -0.354 N 
ATOM      4  C   UNL A   1      33.179  28.708  23.667  1.00  0.00     0.242 C 
ATOM      5  O   UNL A   1      33.691  29.284  22.702  1.00  0.00    -0.273 OA
ATOM      6  H   UNL A   1      34.736  29.161  24.819  1.00  0.00     0.163 HD
BRANCH   4   7
ATOM      7  C   UNL A   1      31.837  27.972  23.510  1.00  0.00     0.168 C 
ATOM      8  C   UNL A   1      30.848  28.950  22.865  1.00  0.00     0.041 C 
BRANCH   7   9
ATOM      9  N   UNL A   1      31.818  26.672  22.813  1.00  0.00    -0.339 N 
ATOM     10  C   UNL A   1      31.576  25.460  23.429  1.00  0.00     0.268 C 
ATOM     11  H   UNL A   1      31.990  26.668  21.843  1.00  0.00     0.164 HD
ATOM     12  O   UNL A   1      30.574  24.816  23.132  1.00  0.00    -0.268 OA
BRANCH  10  13
ATOM     13  C   UNL A   1      32.655  24.876  24.297  1.00  0.00     0.107 C 
ATOM     14  C   UNL A   1      33.882  24.787  23.745  1.00  0.00     0.040 C 
BRANCH  13  15
ATOM     15  N   UNL A   1      32.430  24.535  25.617  1.00  0.00    -0.317 N 
ATOM     16  C   UNL A   1      32.370  23.361  26.325  1.00  0.00     0.255 C 
ATOM     17  H   UNL A   1      32.275  25.323  26.186  1.00  0.00     0.170 HD
ATOM     18  O   UNL A   1      32.070  23.398  27.519  1.00  0.00    -0.269 OA
BRANCH  16  19
ATOM     19  C   UNL A   1      32.640  22.052  25.724  1.00  0.00     0.040 A 
ATOM     20  C   UNL A   1      33.655  21.274  26.276  1.00  0.00     0.014 A 
ATOM     21  C   UNL A   1      31.952  21.616  24.595  1.00  0.00     0.014 A 
ATOM     22  C   UNL A   1      33.904  20.002  25.761  1.00  0.00     0.005 A 
ATOM     23  C   UNL A   1      32.202  20.336  24.088  1.00  0.00     0.005 A 
ATOM     24  C   UNL A   1      33.151  19.486  24.689  1.00  0.00    -0.043 A 
BRANCH  24  25
ATOM     25  C   UNL A   1      33.370  18.032  24.235  1.00  0.00    -0.013 C 
ATOM     26  C   UNL A   1      32.849  17.856  22.795  1.00  0.00     0.016 C 
ATOM     27  C   UNL A   1      34.878  17.690  24.276  1.00  0.00     0.016 C 
ATOM     28  C   UNL A   1      32.656  16.993  25.129  1.00  0.00     0.016 C 
ENDBRANCH  24  25
ENDBRANCH  16  19
ENDBRANCH  13  15
BRANCH  14  29
ATOM     29  C   UNL A   1      35.097  24.084  24.216  1.00  0.00    -0.023 A 
ATOM     30  C   UNL A   1      35.755  24.387  25.418  1.00  0.00     0.010 A 
ATOM     31  C   UNL A   1      35.515  22.945  23.512  1.00  0.00     0.010 A 
ATOM     32  C   UNL A   1      36.828  23.616  25.875  1.00  0.00     0.021 A 
ATOM     33  C   UNL A   1      36.577  22.158  23.975  1.00  0.00     0.021 A 
ATOM     34  C   UNL A   1      37.233  22.502  25.153  1.00  0.00     0.041 A 
ATOM     35  Cl  UNL A   1      38.528  21.531  25.733  1.00  0.00    -0.084 Cl
ENDBRANCH  14  29
ENDBRANCH  10  13
ENDBRANCH   7   9
ENDBRANCH   4   7
ENDBRANCH   2   3
ENDBRANCH   1   2
BRANCH   1  36
ATOM     36  C   UNL A   1      34.687  29.870  27.347  1.00  0.00     0.002 C 
BRANCH  36  37
ATOM     37  C   UNL A   1      34.473  31.078  28.266  1.00  0.00     0.002 C 
BRANCH  37  38
ATOM     38  C   UNL A   1      33.198  31.879  28.011  1.00  0.00     0.021 C 
BRANCH  38  39
ATOM     39  C   UNL A   1      33.372  33.086  27.099  1.00  0.00     0.116 C 
BRANCH  39  40
ATOM     40  N   UNL A   1      32.778  34.294  27.649  1.00  0.00    -0.352 N 
ATOM     41  C   UNL A   1      33.108  34.964  28.802  1.00  0.00     0.251 C 
ATOM     42  H   UNL A   1      32.041  34.684  27.124  1.00  0.00     0.163 HD
ATOM     43  O   UNL A   1      32.426  35.893  29.207  1.00  0.00    -0.269 OA
BRANCH  41  44
ATOM     44  C   UNL A   1      34.287  34.515  29.568  1.00  0.00     0.039 A 
ATOM     45  C   UNL A   1      34.092  33.880  30.796  1.00  0.00     0.014 A 
ATOM     46  C   UNL A   1      35.573  34.670  29.043  1.00  0.00     0.014 A 
ATOM     47  C   UNL A   1      35.186  33.335  31.467  1.00  0.00     0.010 A 
ATOM     48  C   UNL A   1      36.651  34.062  29.675  1.00  0.00     0.010 A 
ATOM     49  C   UNL A   1      36.467  33.385  30.891  1.00  0.00    -0.014 A 
BRANCH  49  50
ATOM     50  C   UNL A   1      37.625  32.719  31.534  1.00  0.00     0.031 A 
ATOM     51  C   UNL A   1      38.265  31.527  30.885  1.00  0.00     0.074 A 
ATOM     52  C   UNL A   1      38.044  33.139  32.743  1.00  0.00     0.049 A 
ATOM     53  N   UNL A   1      39.227  30.759  31.328  1.00  0.00    -0.248 NA
ATOM     54  C   UNL A   1      37.730  31.127  29.574  1.00  0.00     0.031 C 
ATOM     55  C   UNL A   1      37.463  34.248  33.501  1.00  0.00     0.029 A 
ATOM     56  N   UNL A   1      39.045  32.669  33.557  1.00  0.00    -0.354 N 
ATOM     57  C   UNL A   1      39.404  29.781  30.358  1.00  0.00     0.074 A 
ATOM     58  C   UNL A   1      38.411  30.016  29.333  1.00  0.00     0.031 C 
ATOM     59  C   UNL A   1      38.121  34.379  34.663  1.00  0.00     0.029 A 
ATOM     60  C   UNL A   1      39.146  33.344  34.749  1.00  0.00     0.049 A 
ATOM     61  H   UNL A   1      39.634  31.920  33.309  1.00  0.00     0.167 HD
ATOM     62  C   UNL A   1      40.329  28.793  30.316  1.00  0.00     0.037 A 
ATOM     63  C   UNL A   1      39.964  33.140  35.799  1.00  0.00     0.037 A 
ATOM     64  C   UNL A   1      41.325  28.575  31.332  1.00  0.00     0.049 A 
ATOM     65  C   UNL A   1      40.981  32.034  35.732  1.00  0.00     0.074 A 
ATOM     66  C   UNL A   1      42.349  27.645  31.353  1.00  0.00     0.029 A 
ATOM     67  N   UNL A   1      41.415  29.295  32.515  1.00  0.00    -0.354 N 
ATOM     68  N   UNL A   1      41.193  31.163  34.776  1.00  0.00    -0.248 NA
ATOM     69  C   UNL A   1      41.877  31.886  36.888  1.00  0.00     0.031 C 
ATOM     70  C   UNL A   1      43.027  27.768  32.571  1.00  0.00     0.029 A 
ATOM     71  C   UNL A   1      42.460  28.810  33.287  1.00  0.00     0.049 A 
ATOM     72  H   UNL A   1      40.824  30.041  32.769  1.00  0.00     0.167 HD
ATOM     73  C   UNL A   1      42.253  30.376  35.202  1.00  0.00     0.074 A 
ATOM     74  C   UNL A   1      42.653  30.885  36.498  1.00  0.00     0.031 C 
ATOM     75  C   UNL A   1      42.839  29.324  34.579  1.00  0.00     0.037 A 
BRANCH  62  76
ATOM     76  C   UNL A   1      40.302  27.875  29.128  1.00  0.00     0.064 A 
ATOM     77  C   UNL A   1      39.561  26.683  29.135  1.00  0.00     0.173 A 
ATOM     78  C   UNL A   1      41.018  28.194  27.964  1.00  0.00     0.173 A 
ATOM     79  F   UNL A   1      38.868  26.325  30.227  1.00  0.00    -0.203 F 
ATOM     80  C   UNL A   1      39.567  25.827  28.036  1.00  0.00     0.198 A 
ATOM     81  C   UNL A   1      40.996  27.350  26.855  1.00  0.00     0.198 A 
ATOM     82  F   UNL A   1      41.740  29.322  27.901  1.00  0.00    -0.203 F 
ATOM     83  F   UNL A   1      38.901  24.665  28.091  1.00  0.00    -0.200 F 
ATOM     84  C   UNL A   1      40.280  26.163  26.896  1.00  0.00     0.200 A 
ATOM     85  F   UNL A   1      41.676  27.684  25.749  1.00  0.00    -0.200 F 
ATOM     86  F   UNL A   1      40.286  25.339  25.840  1.00  0.00    -0.200 F 
ENDBRANCH  62  76
BRANCH  63  87
ATOM     87  C   UNL A   1      39.855  34.015  36.994  1.00  0.00     0.064 A 
ATOM     88  C   UNL A   1      40.532  35.240  37.058  1.00  0.00     0.173 A 
ATOM     89  C   UNL A   1      39.055  33.653  38.088  1.00  0.00     0.173 A 
ATOM     90  F   UNL A   1      41.326  35.619  36.046  1.00  0.00    -0.203 F 
ATOM     91  C   UNL A   1      40.424  36.065  38.176  1.00  0.00     0.198 A 
ATOM     92  C   UNL A   1      38.925  34.491  39.193  1.00  0.00     0.198 A 
ATOM     93  F   UNL A   1      38.381  32.494  38.074  1.00  0.00    -0.203 F 
ATOM     94  F   UNL A   1      41.112  37.213  38.227  1.00  0.00    -0.200 F 
ATOM     95  C   UNL A   1      39.614  35.693  39.239  1.00  0.00     0.200 A 
ATOM     96  F   UNL A   1      38.131  34.135  40.212  1.00  0.00    -0.200 F 
ATOM     97  F   UNL A   1      39.504  36.491  40.310  1.00  0.00    -0.200 F 
ENDBRANCH  63  87
BRANCH  75  98
ATOM     98  C   UNL A   1      43.987  28.661  35.283  1.00  0.00     0.064 A 
ATOM     99  C   UNL A   1      45.312  29.069  35.072  1.00  0.00     0.173 A 
ATOM    100  C   UNL A   1      43.755  27.637  36.214  1.00  0.00     0.173 A 
ATOM    101  F   UNL A   1      45.587  30.033  34.180  1.00  0.00    -0.203 F 
ATOM    102  C   UNL A   1      46.365  28.463  35.753  1.00  0.00     0.198 A 
ATOM    103  C   UNL A   1      44.806  27.054  36.915  1.00  0.00     0.198 A 
ATOM    104  F   UNL A   1      42.506  27.214  36.457  1.00  0.00    -0.203 F 
ATOM    105  F   UNL A   1      47.626  28.840  35.504  1.00  0.00    -0.200 F 
ATOM    106  C   UNL A   1      46.111  27.463  36.680  1.00  0.00     0.200 A 
ATOM    107  F   UNL A   1      44.559  26.097  37.819  1.00  0.00    -0.200 F 
ATOM    108  F   UNL A   1      47.124  26.889  37.342  1.00  0.00    -0.200 F 
ENDBRANCH  75  98
ENDBRANCH  49  50
ENDBRANCH  41  44
ENDBRANCH  39  40
ENDBRANCH  38  39
ENDBRANCH  37  38
ENDBRANCH  36  37
ENDBRANCH   1  36
TORSDOF 19
ENDMDL
MODEL 2
REMARK VINA RESULT:     -12.1      1.005      7.070
REMARK SMILES C[C@@H](NC(=O)/C(=C/c1ccc(Cl)cc1)NC(=O)c1ccc(C(C)(C)C)cc1)C(=O)NCCCCCCNC(=O)c1ccc(-c2c3nc(c(-c4c(F)c(F)c(F)c(F)c4F)c4ccc([nH]4)c(-c4c(F)c(F)c(F)c(F)c4F)c4nc(c(-c5c(F)c(F)c(F)c(F)c5F)c5ccc2[nH]5)C=C4)C=C3)cc1
REMARK SMILES IDX 32 1 31 2 30 3 28 4 29 5 2 7 1 8 3 9 4 10 5 12 6 13 7 14
REMARK SMILES IDX 15 15 16 16 17 18 18 19 19 20 27 21 20 22 26 23 21 24 22 25
REMARK SMILES IDX 23 26 24 27 25 28 8 29 9 30 14 31 10 32 13 33 11 34 12 35
REMARK SMILES IDX 33 36 34 37 35 38 36 39 37 40 38 41 39 43 40 44 41 45 102 46
REMARK SMILES IDX 42 47 101 48 43 49 44 50 45 51 95 52 46 53 100 54 94 55
REMARK SMILES IDX 96 56 47 57 99 58 93 59 92 60 48 62 80 63 60 64 79 65 61 66
REMARK SMILES IDX 64 67 78 68 97 69 62 70 63 71 77 73 98 74 65 75 49 76 50 77
REMARK SMILES IDX 58 78 51 79 52 80 56 81 59 82 53 83 54 84 57 85 55 86 81 87
REMARK SMILES IDX 82 88 90 89 83 90 84 91 88 92 91 93 85 94 86 95 89 96 87 97
REMARK SMILES IDX 66 98 67 99 75 100 68 101 69 102 73 103 76 104 70 105 71 106
REMARK SMILES IDX 74 107 72 108
REMARK H PARENT 30 6 3 11 15 17 37 42 96 61 64 72
REMARK Flexibility Score: inf
ROOT
ATOM      1  C   UNL A   1      33.414  28.251  27.265  1.00  0.00     0.021 C 
ENDROOT
BRANCH   1   2
ATOM      2  C   UNL A   1      31.955  28.024  26.888  1.00  0.00     0.116 C 
BRANCH   2   3
ATOM      3  N   UNL A   1      31.500  29.069  25.996  1.00  0.00    -0.354 N 
ATOM      4  C   UNL A   1      30.975  28.967  24.749  1.00  0.00     0.242 C 
ATOM      5  O   UNL A   1      30.754  30.014  24.133  1.00  0.00    -0.273 OA
ATOM      6  H   UNL A   1      31.585  29.986  26.344  1.00  0.00     0.163 HD
BRANCH   4   7
ATOM      7  C   UNL A   1      30.777  27.605  24.062  1.00  0.00     0.168 C 
ATOM      8  C   UNL A   1      29.363  27.589  23.468  1.00  0.00     0.041 C 
BRANCH   7   9
ATOM      9  N   UNL A   1      31.768  27.163  23.064  1.00  0.00    -0.339 N 
ATOM     10  C   UNL A   1      32.104  25.844  22.829  1.00  0.00     0.268 C 
ATOM     11  H   UNL A   1      32.221  27.853  22.528  1.00  0.00     0.164 HD
ATOM     12  O   UNL A   1      31.853  25.336  21.740  1.00  0.00    -0.268 OA
BRANCH  10  13
ATOM     13  C   UNL A   1      32.949  25.133  23.849  1.00  0.00     0.107 C 
ATOM     14  C   UNL A   1      34.207  24.828  23.474  1.00  0.00     0.040 C 
BRANCH  13  15
ATOM     15  N   UNL A   1      32.498  24.888  25.132  1.00  0.00    -0.317 N 
ATOM     16  C   UNL A   1      32.253  23.765  25.882  1.00  0.00     0.255 C 
ATOM     17  H   UNL A   1      32.306  25.717  25.626  1.00  0.00     0.170 HD
ATOM     18  O   UNL A   1      31.772  23.893  27.009  1.00  0.00    -0.269 OA
BRANCH  16  19
ATOM     19  C   UNL A   1      32.530  22.408  25.402  1.00  0.00     0.040 A 
ATOM     20  C   UNL A   1      33.345  21.591  26.181  1.00  0.00     0.014 A 
ATOM     21  C   UNL A   1      32.049  21.960  24.174  1.00  0.00     0.014 A 
ATOM     22  C   UNL A   1      33.587  20.277  25.780  1.00  0.00     0.005 A 
ATOM     23  C   UNL A   1      32.290  20.640  23.782  1.00  0.00     0.005 A 
ATOM     24  C   UNL A   1      33.025  19.758  24.597  1.00  0.00    -0.043 A 
BRANCH  24  25
ATOM     25  C   UNL A   1      33.210  18.268  24.256  1.00  0.00    -0.013 C 
ATOM     26  C   UNL A   1      32.604  17.977  22.870  1.00  0.00     0.016 C 
ATOM     27  C   UNL A   1      34.717  17.917  24.237  1.00  0.00     0.016 C 
ATOM     28  C   UNL A   1      32.547  17.316  25.276  1.00  0.00     0.016 C 
ENDBRANCH  24  25
ENDBRANCH  16  19
ENDBRANCH  13  15
BRANCH  14  29
ATOM     29  C   UNL A   1      35.218  23.961  24.121  1.00  0.00    -0.023 A 
ATOM     30  C   UNL A   1      35.754  22.810  23.523  1.00  0.00     0.010 A 
ATOM     31  C   UNL A   1      35.796  24.402  25.321  1.00  0.00     0.010 A 
ATOM     32  C   UNL A   1      36.792  22.092  24.125  1.00  0.00     0.021 A 
ATOM     33  C   UNL A   1      36.848  23.698  25.918  1.00  0.00     0.021 A 
ATOM     34  C   UNL A   1      37.337  22.541  25.320  1.00  0.00     0.041 A 
ATOM     35  Cl  UNL A   1      38.638  21.680  26.042  1.00  0.00    -0.084 Cl
ENDBRANCH  14  29
ENDBRANCH  10  13
ENDBRANCH   7   9
ENDBRANCH   4   7
ENDBRANCH   2   3
ENDBRANCH   1   2
BRANCH   1  36
ATOM     36  C   UNL A   1      33.995  29.545  26.684  1.00  0.00     0.002 C 
BRANCH  36  37
ATOM     37  C   UNL A   1      34.162  30.680  27.700  1.00  0.00     0.002 C 
BRANCH  37  38
ATOM     38  C   UNL A   1      33.053  31.728  27.703  1.00  0.00     0.021 C 
BRANCH  38  39
ATOM     39  C   UNL A   1      33.428  33.059  27.067  1.00  0.00     0.116 C 
BRANCH  39  40
ATOM     40  N   UNL A   1      32.855  34.197  27.767  1.00  0.00    -0.352 N 
ATOM     41  C   UNL A   1      33.195  34.708  28.996  1.00  0.00     0.251 C 
ATOM     42  H   UNL A   1      32.125  34.664  27.297  1.00  0.00     0.163 HD
ATOM     43  O   UNL A   1      32.530  35.590  29.517  1.00  0.00    -0.269 OA
BRANCH  41  44
ATOM     44  C   UNL A   1      34.367  34.145  29.697  1.00  0.00     0.039 A 
ATOM     45  C   UNL A   1      34.157  33.287  30.778  1.00  0.00     0.014 A 
ATOM     46  C   UNL A   1      35.661  34.419  29.245  1.00  0.00     0.014 A 
ATOM     47  C   UNL A   1      35.247  32.645  31.365  1.00  0.00     0.010 A 
ATOM     48  C   UNL A   1      36.737  33.722  29.782  1.00  0.00     0.010 A 
ATOM     49  C   UNL A   1      36.539  32.825  30.844  1.00  0.00    -0.014 A 
BRANCH  49  50
ATOM     50  C   UNL A   1      37.697  32.072  31.383  1.00  0.00     0.031 A 
ATOM     51  C   UNL A   1      38.270  32.429  32.723  1.00  0.00     0.074 A 
ATOM     52  C   UNL A   1      38.281  31.124  30.626  1.00  0.00     0.049 A 
ATOM     53  N   UNL A   1      39.327  31.949  33.327  1.00  0.00    -0.248 NA
ATOM     54  C   UNL A   1      37.579  33.491  33.472  1.00  0.00     0.031 C 
ATOM     55  C   UNL A   1      37.852  30.731  29.283  1.00  0.00     0.029 A 
ATOM     56  N   UNL A   1      39.376  30.331  30.871  1.00  0.00    -0.354 N 
ATOM     57  C   UNL A   1      39.433  32.655  34.518  1.00  0.00     0.074 A 
ATOM     58  C   UNL A   1      38.372  33.638  34.524  1.00  0.00     0.031 C 
ATOM     59  C   UNL A   1      38.666  29.767  28.827  1.00  0.00     0.029 A 
ATOM     60  C   UNL A   1      39.695  29.499  29.827  1.00  0.00     0.049 A 
ATOM     61  H   UNL A   1      39.882  30.358  31.714  1.00  0.00     0.167 HD
ATOM     62  C   UNL A   1      40.322  32.481  35.524  1.00  0.00     0.037 A 
ATOM     63  C   UNL A   1      40.712  28.628  29.686  1.00  0.00     0.037 A 
ATOM     64  C   UNL A   1      41.367  31.491  35.518  1.00  0.00     0.049 A 
ATOM     65  C   UNL A   1      41.690  28.454  30.816  1.00  0.00     0.074 A 
ATOM     66  C   UNL A   1      42.276  31.189  36.515  1.00  0.00     0.029 A 
ATOM     67  N   UNL A   1      41.645  30.645  34.454  1.00  0.00    -0.354 N 
ATOM     68  N   UNL A   1      41.736  29.072  31.971  1.00  0.00    -0.248 NA
ATOM     69  C   UNL A   1      42.754  27.459  30.625  1.00  0.00     0.031 C 
ATOM     70  C   UNL A   1      43.137  30.196  36.036  1.00  0.00     0.029 A 
ATOM     71  C   UNL A   1      42.732  29.842  34.759  1.00  0.00     0.049 A 
ATOM     72  H   UNL A   1      41.144  30.621  33.606  1.00  0.00     0.167 HD
ATOM     73  C   UNL A   1      42.817  28.532  32.652  1.00  0.00     0.074 A 
ATOM     74  C   UNL A   1      43.390  27.521  31.786  1.00  0.00     0.031 C 
ATOM     75  C   UNL A   1      43.294  28.846  33.882  1.00  0.00     0.037 A 
BRANCH  62  76
ATOM     76  C   UNL A   1      40.197  33.386  36.717  1.00  0.00     0.064 A 
ATOM     77  C   UNL A   1      40.935  34.576  36.819  1.00  0.00     0.173 A 
ATOM     78  C   UNL A   1      39.321  33.067  37.765  1.00  0.00     0.173 A 
ATOM     79  F   UNL A   1      41.795  34.922  35.849  1.00  0.00    -0.203 F 
ATOM     80  C   UNL A   1      40.830  35.391  37.943  1.00  0.00     0.198 A 
ATOM     81  C   UNL A   1      39.195  33.902  38.874  1.00  0.00     0.198 A 
ATOM     82  F   UNL A   1      38.589  31.944  37.718  1.00  0.00    -0.203 F 
ATOM     83  F   UNL A   1      41.591  36.490  38.045  1.00  0.00    -0.200 F 
ATOM     84  C   UNL A   1      39.957  35.057  38.967  1.00  0.00     0.200 A 
ATOM     85  F   UNL A   1      38.341  33.583  39.856  1.00  0.00    -0.200 F 
ATOM     86  F   UNL A   1      39.857  35.841  40.048  1.00  0.00    -0.200 F 
ENDBRANCH  62  76
BRANCH  63  87
ATOM     87  C   UNL A   1      40.844  27.850  28.427  1.00  0.00     0.064 A 
ATOM     88  C   UNL A   1      40.232  26.597  28.285  1.00  0.00     0.173 A 
ATOM     89  C   UNL A   1      41.566  28.352  27.335  1.00  0.00     0.173 A 
ATOM     90  F   UNL A   1      39.548  26.066  29.309  1.00  0.00    -0.203 F 
ATOM     91  C   UNL A   1      40.348  25.871  27.102  1.00  0.00     0.198 A 
ATOM     92  C   UNL A   1      41.659  27.637  26.143  1.00  0.00     0.198 A 
ATOM     93  F   UNL A   1      42.166  29.549  27.419  1.00  0.00    -0.203 F 
ATOM     94  F   UNL A   1      39.785  24.659  27.005  1.00  0.00    -0.200 F 
ATOM     95  C   UNL A   1      41.054  26.395  26.029  1.00  0.00     0.200 A 
ATOM     96  F   UNL A   1      42.330  28.153  25.105  1.00  0.00    -0.200 F 
ATOM     97  F   UNL A   1      41.158  25.699  24.889  1.00  0.00    -0.200 F 
ENDBRANCH  63  87
BRANCH  75  98
ATOM     98  C   UNL A   1      44.489  28.079  34.372  1.00  0.00     0.064 A 
ATOM     99  C   UNL A   1      44.350  26.853  35.038  1.00  0.00     0.173 A 
ATOM    100  C   UNL A   1      45.787  28.554  34.130  1.00  0.00     0.173 A 
ATOM    101  F   UNL A   1      43.130  26.365  35.307  1.00  0.00    -0.203 F 
ATOM    102  C   UNL A   1      45.468  26.139  35.463  1.00  0.00     0.198 A 
ATOM    103  C   UNL A   1      46.902  27.824  34.530  1.00  0.00     0.198 A 
ATOM    104  F   UNL A   1      45.974  29.719  33.492  1.00  0.00    -0.203 F 
ATOM    105  F   UNL A   1      45.311  24.992  36.135  1.00  0.00    -0.200 F 
ATOM    106  C   UNL A   1      46.742  26.621  35.201  1.00  0.00     0.200 A 
ATOM    107  F   UNL A   1      48.132  28.283  34.265  1.00  0.00    -0.200 F 
ATOM    108  F   UNL A   1      47.817  25.927  35.601  1.00  0.00    -0.200 F 
ENDBRANCH  75  98
ENDBRANCH  49  50
ENDBRANCH  41  44
ENDBRANCH  39  40
ENDBRANCH  38  39
ENDBRANCH  37  38
ENDBRANCH  36  37
ENDBRANCH   1  36
TORSDOF 19
ENDMDL
MODEL 3
REMARK VINA RESULT:     -11.6      2.603      7.734
REMARK SMILES C[C@@H](NC(=O)/C(=C/c1ccc(Cl)cc1)NC(=O)c1ccc(C(C)(C)C)cc1)C(=O)NCCCCCCNC(=O)c1ccc(-c2c3nc(c(-c4c(F)c(F)c(F)c(F)c4F)c4ccc([nH]4)c(-c4c(F)c(F)c(F)c(F)c4F)c4nc(c(-c5c(F)c(F)c(F)c(F)c5F)c5ccc2[nH]5)C=C4)C=C3)cc1
REMARK SMILES IDX 32 1 31 2 30 3 28 4 29 5 2 7 1 8 3 9 4 10 5 12 6 13 7 14
REMARK SMILES IDX 15 15 16 16 17 18 18 19 19 20 27 21 20 22 26 23 21 24 22 25
REMARK SMILES IDX 23 26 24 27 25 28 8 29 9 30 14 31 10 32 13 33 11 34 12 35
REMARK SMILES IDX 33 36 34 37 35 38 36 39 37 40 38 41 39 43 40 44 41 45 102 46
REMARK SMILES IDX 42 47 101 48 43 49 44 50 45 51 95 52 46 53 100 54 94 55
REMARK SMILES IDX 96 56 47 57 99 58 93 59 92 60 48 62 80 63 60 64 79 65 61 66
REMARK SMILES IDX 64 67 78 68 97 69 62 70 63 71 77 73 98 74 65 75 49 76 50 77
REMARK SMILES IDX 58 78 51 79 52 80 56 81 59 82 53 83 54 84 57 85 55 86 81 87
REMARK SMILES IDX 82 88 90 89 83 90 84 91 88 92 91 93 85 94 86 95 89 96 87 97
REMARK SMILES IDX 66 98 67 99 75 100 68 101 69 102 73 103 76 104 70 105 71 106
REMARK SMILES IDX 74 107 72 108
REMARK H PARENT 30 6 3 11 15 17 37 42 96 61 64 72
REMARK Flexibility Score: inf
ROOT
ATOM      1  C   UNL A   1      33.553  27.464  26.503  1.00  0.00     0.021 C 
ENDROOT
BRANCH   1   2
ATOM      2  C   UNL A   1      32.105  27.792  26.848  1.00  0.00     0.116 C 
BRANCH   2   3
ATOM      3  N   UNL A   1      31.596  28.813  25.958  1.00  0.00    -0.354 N 
ATOM      4  C   UNL A   1      30.992  28.677  24.750  1.00  0.00     0.242 C 
ATOM      5  O   UNL A   1      30.735  29.708  24.120  1.00  0.00    -0.273 OA
ATOM      6  H   UNL A   1      31.704  29.739  26.274  1.00  0.00     0.163 HD
BRANCH   4   7
ATOM      7  C   UNL A   1      30.749  27.297  24.116  1.00  0.00     0.168 C 
ATOM      8  C   UNL A   1      29.315  27.286  23.573  1.00  0.00     0.041 C 
BRANCH   7   9
ATOM      9  N   UNL A   1      31.697  26.806  23.099  1.00  0.00    -0.339 N 
ATOM     10  C   UNL A   1      32.035  25.478  22.924  1.00  0.00     0.268 C 
ATOM     11  H   UNL A   1      32.119  27.468  22.505  1.00  0.00     0.164 HD
ATOM     12  O   UNL A   1      31.739  24.907  21.879  1.00  0.00    -0.268 OA
BRANCH  10  13
ATOM     13  C   UNL A   1      32.933  24.833  23.943  1.00  0.00     0.107 C 
ATOM     14  C   UNL A   1      34.208  24.616  23.562  1.00  0.00     0.040 C 
BRANCH  13  15
ATOM     15  N   UNL A   1      32.507  24.562  25.229  1.00  0.00    -0.317 N 
ATOM     16  C   UNL A   1      32.297  23.424  25.968  1.00  0.00     0.255 C 
ATOM     17  H   UNL A   1      32.305  25.380  25.737  1.00  0.00     0.170 HD
ATOM     18  O   UNL A   1      31.831  23.527  27.104  1.00  0.00    -0.269 OA
BRANCH  16  19
ATOM     19  C   UNL A   1      32.596  22.080  25.466  1.00  0.00     0.040 A 
ATOM     20  C   UNL A   1      33.471  21.285  26.202  1.00  0.00     0.014 A 
ATOM     21  C   UNL A   1      32.075  21.624  24.258  1.00  0.00     0.014 A 
ATOM     22  C   UNL A   1      33.737  19.983  25.780  1.00  0.00     0.005 A 
ATOM     23  C   UNL A   1      32.340  20.314  23.846  1.00  0.00     0.005 A 
ATOM     24  C   UNL A   1      33.139  19.452  24.621  1.00  0.00    -0.043 A 
BRANCH  24  25
ATOM     25  C   UNL A   1      33.357  17.971  24.261  1.00  0.00    -0.013 C 
ATOM     26  C   UNL A   1      32.580  17.080  25.249  1.00  0.00     0.016 C 
ATOM     27  C   UNL A   1      32.851  17.700  22.824  1.00  0.00     0.016 C 
ATOM     28  C   UNL A   1      34.840  17.541  24.295  1.00  0.00     0.016 C 
ENDBRANCH  24  25
ENDBRANCH  16  19
ENDBRANCH  13  15
BRANCH  14  29
ATOM     29  C   UNL A   1      35.280  23.826  24.207  1.00  0.00    -0.023 A 
ATOM     30  C   UNL A   1      35.855  22.680  23.634  1.00  0.00     0.010 A 
ATOM     31  C   UNL A   1      35.872  24.340  25.370  1.00  0.00     0.010 A 
ATOM     32  C   UNL A   1      36.946  22.037  24.228  1.00  0.00     0.021 A 
ATOM     33  C   UNL A   1      36.976  23.712  25.959  1.00  0.00     0.021 A 
ATOM     34  C   UNL A   1      37.504  22.558  25.388  1.00  0.00     0.041 A 
ATOM     35  Cl  UNL A   1      38.868  21.790  26.098  1.00  0.00    -0.084 Cl
ENDBRANCH  14  29
ENDBRANCH  10  13
ENDBRANCH   7   9
ENDBRANCH   4   7
ENDBRANCH   2   3
ENDBRANCH   1   2
BRANCH   1  36
ATOM     36  C   UNL A   1      34.371  28.695  26.098  1.00  0.00     0.002 C 
BRANCH  36  37
ATOM     37  C   UNL A   1      34.881  29.535  27.274  1.00  0.00     0.002 C 
BRANCH  37  38
ATOM     38  C   UNL A   1      34.063  30.785  27.591  1.00  0.00     0.021 C 
BRANCH  38  39
ATOM     39  C   UNL A   1      34.882  31.988  28.038  1.00  0.00     0.116 C 
BRANCH  39  40
ATOM     40  N   UNL A   1      34.457  32.508  29.328  1.00  0.00    -0.352 N 
ATOM     41  C   UNL A   1      35.022  32.301  30.563  1.00  0.00     0.251 C 
ATOM     42  H   UNL A   1      33.659  33.085  29.313  1.00  0.00     0.163 HD
ATOM     43  O   UNL A   1      34.472  32.695  31.580  1.00  0.00    -0.269 OA
BRANCH  41  44
ATOM     44  C   UNL A   1      36.295  31.558  30.644  1.00  0.00     0.039 A 
ATOM     45  C   UNL A   1      37.448  32.137  30.110  1.00  0.00     0.014 A 
ATOM     46  C   UNL A   1      36.354  30.324  31.297  1.00  0.00     0.014 A 
ATOM     47  C   UNL A   1      38.679  31.508  30.295  1.00  0.00     0.010 A 
ATOM     48  C   UNL A   1      37.589  29.737  31.545  1.00  0.00     0.010 A 
ATOM     49  C   UNL A   1      38.763  30.326  31.050  1.00  0.00    -0.014 A 
BRANCH  49  50
ATOM     50  C   UNL A   1      40.073  29.698  31.350  1.00  0.00     0.031 A 
ATOM     51  C   UNL A   1      40.922  30.225  32.470  1.00  0.00     0.074 A 
ATOM     52  C   UNL A   1      40.531  28.709  30.559  1.00  0.00     0.049 A 
ATOM     53  N   UNL A   1      42.128  29.869  32.834  1.00  0.00    -0.248 NA
ATOM     54  C   UNL A   1      40.350  31.320  33.269  1.00  0.00     0.031 C 
ATOM     55  C   UNL A   1      39.823  28.153  29.405  1.00  0.00     0.029 A 
ATOM     56  N   UNL A   1      41.711  28.007  30.595  1.00  0.00    -0.354 N 
ATOM     57  C   UNL A   1      42.461  30.702  33.893  1.00  0.00     0.074 A 
ATOM     58  C   UNL A   1      41.359  31.620  34.075  1.00  0.00     0.031 C 
ATOM     59  C   UNL A   1      40.577  27.193  28.849  1.00  0.00     0.029 A 
ATOM     60  C   UNL A   1      41.833  27.088  29.583  1.00  0.00     0.049 A 
ATOM     61  H   UNL A   1      42.401  28.150  31.282  1.00  0.00     0.167 HD
ATOM     62  C   UNL A   1      43.577  30.684  34.661  1.00  0.00     0.037 A 
ATOM     63  C   UNL A   1      42.852  26.264  29.273  1.00  0.00     0.037 A 
ATOM     64  C   UNL A   1      44.664  29.757  34.484  1.00  0.00     0.049 A 
ATOM     65  C   UNL A   1      44.084  26.264  30.137  1.00  0.00     0.074 A 
ATOM     66  C   UNL A   1      45.808  29.612  35.248  1.00  0.00     0.029 A 
ATOM     67  N   UNL A   1      44.744  28.821  33.463  1.00  0.00    -0.354 N 
ATOM     68  N   UNL A   1      44.358  27.002  31.185  1.00  0.00    -0.248 NA
ATOM     69  C   UNL A   1      45.146  25.314  29.778  1.00  0.00     0.031 C 
ATOM     70  C   UNL A   1      46.604  28.623  34.660  1.00  0.00     0.029 A 
ATOM     71  C   UNL A   1      45.932  28.114  33.560  1.00  0.00     0.049 A 
ATOM     72  H   UNL A   1      44.057  28.680  32.771  1.00  0.00     0.167 HD
ATOM     73  C   UNL A   1      45.610  26.596  31.622  1.00  0.00     0.074 A 
ATOM     74  C   UNL A   1      46.036  25.533  30.735  1.00  0.00     0.031 C 
ATOM     75  C   UNL A   1      46.343  27.064  32.663  1.00  0.00     0.037 A 
BRANCH  62  76
ATOM     76  C   UNL A   1      43.672  31.701  35.762  1.00  0.00     0.064 A 
ATOM     77  C   UNL A   1      43.086  31.484  37.018  1.00  0.00     0.173 A 
ATOM     78  C   UNL A   1      44.366  32.904  35.563  1.00  0.00     0.173 A 
ATOM     79  F   UNL A   1      42.401  30.355  37.257  1.00  0.00    -0.203 F 
ATOM     80  C   UNL A   1      43.158  32.447  38.021  1.00  0.00     0.198 A 
ATOM     81  C   UNL A   1      44.464  33.852  36.579  1.00  0.00     0.198 A 
ATOM     82  F   UNL A   1      44.949  33.163  34.383  1.00  0.00    -0.203 F 
ATOM     83  F   UNL A   1      42.538  32.242  39.191  1.00  0.00    -0.200 F 
ATOM     84  C   UNL A   1      43.851  33.628  37.803  1.00  0.00     0.200 A 
ATOM     85  F   UNL A   1      45.144  34.988  36.370  1.00  0.00    -0.200 F 
ATOM     86  F   UNL A   1      43.919  34.555  38.767  1.00  0.00    -0.200 F 
ENDBRANCH  62  76
BRANCH  63  87
ATOM     87  C   UNL A   1      42.738  25.366  28.095  1.00  0.00     0.064 A 
ATOM     88  C   UNL A   1      42.994  25.837  26.800  1.00  0.00     0.173 A 
ATOM     89  C   UNL A   1      42.391  24.015  28.242  1.00  0.00     0.173 A 
ATOM     90  F   UNL A   1      43.308  27.126  26.607  1.00  0.00    -0.203 F 
ATOM     91  C   UNL A   1      42.894  24.994  25.696  1.00  0.00     0.198 A 
ATOM     92  C   UNL A   1      42.318  23.167  27.140  1.00  0.00     0.198 A 
ATOM     93  F   UNL A   1      42.142  23.514  29.461  1.00  0.00    -0.203 F 
ATOM     94  F   UNL A   1      43.107  25.479  24.464  1.00  0.00    -0.200 F 
ATOM     95  C   UNL A   1      42.565  23.658  25.867  1.00  0.00     0.200 A 
ATOM     96  F   UNL A   1      42.014  21.873  27.311  1.00  0.00    -0.200 F 
ATOM     97  F   UNL A   1      42.478  22.846  24.805  1.00  0.00    -0.200 F 
ENDBRANCH  63  87
BRANCH  75  98
ATOM     98  C   UNL A   1      47.678  26.420  32.908  1.00  0.00     0.064 A 
ATOM     99  C   UNL A   1      47.789  25.206  33.603  1.00  0.00     0.173 A 
ATOM    100  C   UNL A   1      48.851  26.999  32.402  1.00  0.00     0.173 A 
ATOM    101  F   UNL A   1      46.698  24.622  34.120  1.00  0.00    -0.203 F 
ATOM    102  C   UNL A   1      49.030  24.606  33.800  1.00  0.00     0.198 A 
ATOM    103  C   UNL A   1      50.086  26.381  32.574  1.00  0.00     0.198 A 
ATOM    104  F   UNL A   1      48.798  28.155  31.725  1.00  0.00    -0.203 F 
ATOM    105  F   UNL A   1      49.118  23.470  34.503  1.00  0.00    -0.200 F 
ATOM    106  C   UNL A   1      50.176  25.189  33.278  1.00  0.00     0.200 A 
ATOM    107  F   UNL A   1      51.190  26.937  32.059  1.00  0.00    -0.200 F 
ATOM    108  F   UNL A   1      51.368  24.604  33.458  1.00  0.00    -0.200 F 
ENDBRANCH  75  98
ENDBRANCH  49  50
ENDBRANCH  41  44
ENDBRANCH  39  40
ENDBRANCH  38  39
ENDBRANCH  37  38
ENDBRANCH  36  37
ENDBRANCH   1  36
TORSDOF 19
ENDMDL
