MODEL 1
REMARK VINA RESULT:     -11.7      0.000      0.000
REMARK SMILES C/C=C/c1cncc(-c2ccc([C@@H](C)C(=O)NCCCCCCNC(=O)c3ccc(-c4c5nc(c(-c6c(F)c(F)c(F)c(F)c6F)c6ccc([nH]6)c(-c6c(F)c(F)c(F)c(F)c6F)c6nc(c(-c7c(F)c(F)c(F)c(F)c7F)c7ccc4[nH]7)C=C6)C=C5)cc3)cc2)c1
REMARK SMILES IDX 20 1 19 2 18 3 17 4 15 5 16 6 13 8 14 9 12 10 9 11 10 12
REMARK SMILES IDX 91 13 11 14 90 15 8 16 4 17 5 18 92 19 6 20 7 21 3 22 1 23
REMARK SMILES IDX 2 24 21 25 22 26 23 27 24 28 25 29 26 31 27 32 28 33 89 34
REMARK SMILES IDX 29 35 88 36 30 37 31 38 32 39 82 40 33 41 87 42 81 43 83 44
REMARK SMILES IDX 34 45 86 46 80 47 79 48 35 50 67 51 47 52 66 53 48 54 51 55
REMARK SMILES IDX 65 56 84 57 49 58 50 59 64 61 85 62 52 63 36 64 37 65 45 66
REMARK SMILES IDX 38 67 39 68 43 69 46 70 40 71 41 72 44 73 42 74 68 75 69 76
REMARK SMILES IDX 77 77 70 78 71 79 75 80 78 81 72 82 73 83 76 84 74 85 53 86
REMARK SMILES IDX 54 87 62 88 55 89 56 90 60 91 63 92 57 93 58 94 61 95 59 96
REMARK H PARENT 17 7 24 30 83 49 51 60
REMARK Flexibility Score: inf
ROOT
ATOM      1  C   UNL A   1      31.893  30.053  25.304  1.00  0.00     0.002 C 
ENDROOT
BRANCH   1   2
ATOM      2  C   UNL A   1      31.495  28.590  25.076  1.00  0.00     0.021 C 
BRANCH   2   3
ATOM      3  C   UNL A   1      32.667  27.610  25.149  1.00  0.00     0.116 C 
BRANCH   3   4
ATOM      4  N   UNL A   1      32.244  26.297  25.584  1.00  0.00    -0.356 N 
ATOM      5  C   UNL A   1      32.555  25.052  25.127  1.00  0.00     0.227 C 
ATOM      6  O   UNL A   1      31.950  24.107  25.648  1.00  0.00    -0.274 OA
ATOM      7  H   UNL A   1      31.620  26.303  26.346  1.00  0.00     0.163 HD
BRANCH   5   8
ATOM      8  C   UNL A   1      33.603  24.783  24.036  1.00  0.00     0.105 C 
ATOM      9  C   UNL A   1      33.003  24.431  22.675  1.00  0.00     0.023 C 
BRANCH   8  10
ATOM     10  C   UNL A   1      34.758  23.915  24.513  1.00  0.00    -0.036 A 
ATOM     11  C   UNL A   1      37.001  22.284  25.199  1.00  0.00    -0.017 A 
ATOM     12  C   UNL A   1      36.795  23.538  25.793  1.00  0.00     0.009 A 
ATOM     13  C   UNL A   1      36.030  21.841  24.289  1.00  0.00     0.009 A 
ATOM     14  C   UNL A   1      35.682  24.328  25.476  1.00  0.00     0.005 A 
ATOM     15  C   UNL A   1      34.939  22.646  23.939  1.00  0.00     0.005 A 
BRANCH  11  16
ATOM     16  C   UNL A   1      38.209  21.491  25.495  1.00  0.00     0.001 A 
ATOM     17  C   UNL A   1      40.437  21.268  26.472  1.00  0.00    -0.007 A 
ATOM     18  C   UNL A   1      40.401  19.927  26.107  1.00  0.00     0.119 A 
ATOM     19  C   UNL A   1      39.322  22.050  26.144  1.00  0.00     0.020 A 
ATOM     20  N   UNL A   1      39.362  19.337  25.475  1.00  0.00    -0.263 NA
ATOM     21  C   UNL A   1      38.302  20.132  25.186  1.00  0.00     0.119 A 
BRANCH  17  22
ATOM     22  C   UNL A   1      41.623  21.823  27.131  1.00  0.00     0.005 C 
ATOM     23  C   UNL A   1      42.794  23.004  29.000  1.00  0.00     0.035 C 
ATOM     24  C   UNL A   1      41.586  22.448  28.318  1.00  0.00    -0.030 C 
ENDBRANCH  17  22
ENDBRANCH  11  16
ENDBRANCH   8  10
ENDBRANCH   5   8
ENDBRANCH   3   4
ENDBRANCH   2   3
ENDBRANCH   1   2
BRANCH   1  25
ATOM     25  C   UNL A   1      31.701  30.568  26.736  1.00  0.00     0.002 C 
BRANCH  25  26
ATOM     26  C   UNL A   1      31.509  32.082  26.875  1.00  0.00     0.021 C 
BRANCH  26  27
ATOM     27  C   UNL A   1      32.797  32.876  27.076  1.00  0.00     0.116 C 
BRANCH  27  28
ATOM     28  N   UNL A   1      32.538  34.212  27.589  1.00  0.00    -0.352 N 
ATOM     29  C   UNL A   1      33.054  34.844  28.693  1.00  0.00     0.251 C 
ATOM     30  H   UNL A   1      31.894  34.743  27.066  1.00  0.00     0.163 HD
ATOM     31  O   UNL A   1      32.555  35.892  29.090  1.00  0.00    -0.269 OA
BRANCH  29  32
ATOM     32  C   UNL A   1      34.208  34.264  29.413  1.00  0.00     0.039 A 
ATOM     33  C   UNL A   1      33.970  33.459  30.531  1.00  0.00     0.014 A 
ATOM     34  C   UNL A   1      35.517  34.541  29.013  1.00  0.00     0.014 A 
ATOM     35  C   UNL A   1      35.045  32.891  31.218  1.00  0.00     0.010 A 
ATOM     36  C   UNL A   1      36.585  33.922  29.659  1.00  0.00     0.010 A 
ATOM     37  C   UNL A   1      36.360  33.098  30.771  1.00  0.00    -0.014 A 
BRANCH  37  38
ATOM     38  C   UNL A   1      37.514  32.468  31.459  1.00  0.00     0.031 A 
ATOM     39  C   UNL A   1      38.231  31.310  30.824  1.00  0.00     0.074 A 
ATOM     40  C   UNL A   1      37.875  32.896  32.683  1.00  0.00     0.049 A 
ATOM     41  N   UNL A   1      39.220  30.590  31.291  1.00  0.00    -0.248 NA
ATOM     42  C   UNL A   1      37.754  30.888  29.498  1.00  0.00     0.031 C 
ATOM     43  C   UNL A   1      37.233  33.986  33.419  1.00  0.00     0.029 A 
ATOM     44  N   UNL A   1      38.865  32.461  33.526  1.00  0.00    -0.354 N 
ATOM     45  C   UNL A   1      39.467  29.619  30.330  1.00  0.00     0.074 A 
ATOM     46  C   UNL A   1      38.495  29.813  29.275  1.00  0.00     0.031 C 
ATOM     47  C   UNL A   1      37.865  34.154  34.591  1.00  0.00     0.029 A 
ATOM     48  C   UNL A   1      38.931  33.163  34.705  1.00  0.00     0.049 A 
ATOM     49  H   UNL A   1      39.471  31.717  33.308  1.00  0.00     0.167 HD
ATOM     50  C   UNL A   1      40.430  28.666  30.318  1.00  0.00     0.037 A 
ATOM     51  C   UNL A   1      39.758  33.021  35.757  1.00  0.00     0.037 A 
ATOM     52  C   UNL A   1      41.412  28.496  31.355  1.00  0.00     0.049 A 
ATOM     53  C   UNL A   1      40.811  31.948  35.726  1.00  0.00     0.074 A 
ATOM     54  C   UNL A   1      42.479  27.615  31.400  1.00  0.00     0.029 A 
ATOM     55  N   UNL A   1      41.446  29.224  32.536  1.00  0.00    -0.354 N 
ATOM     56  N   UNL A   1      41.085  31.084  34.780  1.00  0.00    -0.248 NA
ATOM     57  C   UNL A   1      41.671  31.833  36.911  1.00  0.00     0.031 C 
ATOM     58  C   UNL A   1      43.128  27.777  32.630  1.00  0.00     0.029 A 
ATOM     59  C   UNL A   1      42.496  28.791  33.331  1.00  0.00     0.049 A 
ATOM     60  H   UNL A   1      40.815  29.941  32.776  1.00  0.00     0.167 HD
ATOM     61  C   UNL A   1      42.165  30.344  35.239  1.00  0.00     0.074 A 
ATOM     62  C   UNL A   1      42.502  30.866  36.548  1.00  0.00     0.031 C 
ATOM     63  C   UNL A   1      42.821  29.325  34.630  1.00  0.00     0.037 A 
BRANCH  50  64
ATOM     64  C   UNL A   1      40.455  27.727  29.146  1.00  0.00     0.064 A 
ATOM     65  C   UNL A   1      39.649  26.579  29.101  1.00  0.00     0.173 A 
ATOM     66  C   UNL A   1      41.290  27.985  28.048  1.00  0.00     0.173 A 
ATOM     67  F   UNL A   1      38.840  26.282  30.130  1.00  0.00    -0.203 F 
ATOM     68  C   UNL A   1      39.710  25.701  28.022  1.00  0.00     0.198 A 
ATOM     69  C   UNL A   1      41.325  27.121  26.956  1.00  0.00     0.198 A 
ATOM     70  F   UNL A   1      42.075  29.072  28.034  1.00  0.00    -0.203 F 
ATOM     71  F   UNL A   1      38.977  24.580  28.031  1.00  0.00    -0.200 F 
ATOM     72  C   UNL A   1      40.544  25.975  26.949  1.00  0.00     0.200 A 
ATOM     73  F   UNL A   1      42.122  27.393  25.913  1.00  0.00    -0.200 F 
ATOM     74  F   UNL A   1      40.603  25.128  25.911  1.00  0.00    -0.200 F 
ENDBRANCH  50  64
BRANCH  51  75
ATOM     75  C   UNL A   1      39.654  33.953  36.908  1.00  0.00     0.064 A 
ATOM     76  C   UNL A   1      40.309  35.192  36.881  1.00  0.00     0.173 A 
ATOM     77  C   UNL A   1      38.891  33.640  38.043  1.00  0.00     0.173 A 
ATOM     78  F   UNL A   1      41.066  35.525  35.826  1.00  0.00    -0.203 F 
ATOM     79  C   UNL A   1      40.214  36.080  37.950  1.00  0.00     0.198 A 
ATOM     80  C   UNL A   1      38.778  34.539  39.101  1.00  0.00     0.198 A 
ATOM     81  F   UNL A   1      38.243  32.469  38.114  1.00  0.00    -0.203 F 
ATOM     82  F   UNL A   1      40.875  37.245  37.912  1.00  0.00    -0.200 F 
ATOM     83  C   UNL A   1      39.443  35.755  39.057  1.00  0.00     0.200 A 
ATOM     84  F   UNL A   1      38.021  34.228  40.162  1.00  0.00    -0.200 F 
ATOM     85  F   UNL A   1      39.344  36.614  40.080  1.00  0.00    -0.200 F 
ENDBRANCH  51  75
BRANCH  63  86
ATOM     86  C   UNL A   1      43.991  28.731  35.357  1.00  0.00     0.064 A 
ATOM     87  C   UNL A   1      43.840  27.646  36.233  1.00  0.00     0.173 A 
ATOM     88  C   UNL A   1      45.285  29.231  35.146  1.00  0.00     0.173 A 
ATOM     89  F   UNL A   1      42.620  27.145  36.481  1.00  0.00    -0.203 F 
ATOM     90  C   UNL A   1      44.939  27.099  36.889  1.00  0.00     0.198 A 
ATOM     91  C   UNL A   1      46.386  28.663  35.782  1.00  0.00     0.198 A 
ATOM     92  F   UNL A   1      45.484  30.265  34.314  1.00  0.00    -0.203 F 
ATOM     93  F   UNL A   1      44.765  26.092  37.757  1.00  0.00    -0.200 F 
ATOM     94  C   UNL A   1      46.211  27.602  36.658  1.00  0.00     0.200 A 
ATOM     95  F   UNL A   1      47.615  29.143  35.549  1.00  0.00    -0.200 F 
ATOM     96  F   UNL A   1      47.268  27.070  37.286  1.00  0.00    -0.200 F 
ENDBRANCH  63  86
ENDBRANCH  37  38
ENDBRANCH  29  32
ENDBRANCH  27  28
ENDBRANCH  26  27
ENDBRANCH  25  26
ENDBRANCH   1  25
TORSDOF 16
ENDMDL
MODEL 2
REMARK VINA RESULT:     -11.7      0.249      1.584
REMARK SMILES C/C=C/c1cncc(-c2ccc([C@@H](C)C(=O)NCCCCCCNC(=O)c3ccc(-c4c5nc(c(-c6c(F)c(F)c(F)c(F)c6F)c6ccc([nH]6)c(-c6c(F)c(F)c(F)c(F)c6F)c6nc(c(-c7c(F)c(F)c(F)c(F)c7F)c7ccc4[nH]7)C=C6)C=C5)cc3)cc2)c1
REMARK SMILES IDX 20 1 19 2 18 3 17 4 15 5 16 6 13 8 14 9 12 10 9 11 10 12
REMARK SMILES IDX 91 13 11 14 90 15 8 16 4 17 5 18 92 19 6 20 7 21 3 22 1 23
REMARK SMILES IDX 2 24 21 25 22 26 23 27 24 28 25 29 26 31 27 32 28 33 89 34
REMARK SMILES IDX 29 35 88 36 30 37 31 38 32 39 82 40 33 41 87 42 81 43 83 44
REMARK SMILES IDX 34 45 86 46 80 47 79 48 35 50 67 51 47 52 66 53 48 54 51 55
REMARK SMILES IDX 65 56 84 57 49 58 50 59 64 61 85 62 52 63 36 64 37 65 45 66
REMARK SMILES IDX 38 67 39 68 43 69 46 70 40 71 41 72 44 73 42 74 68 75 69 76
REMARK SMILES IDX 77 77 70 78 71 79 75 80 78 81 72 82 73 83 76 84 74 85 53 86
REMARK SMILES IDX 54 87 62 88 55 89 56 90 60 91 63 92 57 93 58 94 61 95 59 96
REMARK H PARENT 17 7 24 30 83 49 51 60
REMARK Flexibility Score: inf
ROOT
ATOM      1  C   UNL A   1      32.026  30.105  25.315  1.00  0.00     0.002 C 
ENDROOT
BRANCH   1   2
ATOM      2  C   UNL A   1      31.591  28.680  24.954  1.00  0.00     0.021 C 
BRANCH   2   3
ATOM      3  C   UNL A   1      32.754  27.708  24.753  1.00  0.00     0.116 C 
BRANCH   3   4
ATOM      4  N   UNL A   1      32.509  26.435  25.394  1.00  0.00    -0.356 N 
ATOM      5  C   UNL A   1      32.976  25.185  25.123  1.00  0.00     0.227 C 
ATOM      6  O   UNL A   1      32.503  24.262  25.798  1.00  0.00    -0.274 OA
ATOM      7  H   UNL A   1      31.896  26.479  26.163  1.00  0.00     0.163 HD
BRANCH   5   8
ATOM      8  C   UNL A   1      34.043  24.886  24.058  1.00  0.00     0.105 C 
ATOM      9  C   UNL A   1      33.466  24.583  22.675  1.00  0.00     0.023 C 
BRANCH   8  10
ATOM     10  C   UNL A   1      35.143  23.959  24.552  1.00  0.00    -0.036 A 
ATOM     11  C   UNL A   1      37.300  22.232  25.276  1.00  0.00    -0.017 A 
ATOM     12  C   UNL A   1      37.074  23.445  25.943  1.00  0.00     0.009 A 
ATOM     13  C   UNL A   1      36.389  21.877  24.270  1.00  0.00     0.009 A 
ATOM     14  C   UNL A   1      36.003  24.281  25.605  1.00  0.00     0.005 A 
ATOM     15  C   UNL A   1      35.341  22.730  23.903  1.00  0.00     0.005 A 
BRANCH  11  16
ATOM     16  C   UNL A   1      38.468  21.391  25.600  1.00  0.00     0.001 A 
ATOM     17  C   UNL A   1      40.550  20.996  26.815  1.00  0.00    -0.007 A 
ATOM     18  C   UNL A   1      40.580  19.731  26.240  1.00  0.00     0.119 A 
ATOM     19  C   UNL A   1      39.478  21.829  26.471  1.00  0.00     0.020 A 
ATOM     20  N   UNL A   1      39.641  19.259  25.389  1.00  0.00    -0.263 NA
ATOM     21  C   UNL A   1      38.619  20.098  25.093  1.00  0.00     0.119 A 
BRANCH  17  22
ATOM     22  C   UNL A   1      41.631  21.429  27.706  1.00  0.00     0.005 C 
ATOM     23  C   UNL A   1      42.847  23.126  29.085  1.00  0.00     0.035 C 
ATOM     24  C   UNL A   1      41.754  22.684  28.166  1.00  0.00    -0.030 C 
ENDBRANCH  17  22
ENDBRANCH  11  16
ENDBRANCH   8  10
ENDBRANCH   5   8
ENDBRANCH   3   4
ENDBRANCH   2   3
ENDBRANCH   1   2
BRANCH   1  25
ATOM     25  C   UNL A   1      31.557  30.605  26.688  1.00  0.00     0.002 C 
BRANCH  25  26
ATOM     26  C   UNL A   1      31.426  32.125  26.829  1.00  0.00     0.021 C 
BRANCH  26  27
ATOM     27  C   UNL A   1      32.731  32.856  27.132  1.00  0.00     0.116 C 
BRANCH  27  28
ATOM     28  N   UNL A   1      32.498  34.209  27.614  1.00  0.00    -0.352 N 
ATOM     29  C   UNL A   1      33.046  34.866  28.686  1.00  0.00     0.251 C 
ATOM     30  H   UNL A   1      31.847  34.731  27.091  1.00  0.00     0.163 HD
ATOM     31  O   UNL A   1      32.567  35.931  29.065  1.00  0.00    -0.269 OA
BRANCH  29  32
ATOM     32  C   UNL A   1      34.210  34.294  29.395  1.00  0.00     0.039 A 
ATOM     33  C   UNL A   1      33.989  33.492  30.519  1.00  0.00     0.014 A 
ATOM     34  C   UNL A   1      35.514  34.577  28.981  1.00  0.00     0.014 A 
ATOM     35  C   UNL A   1      35.074  32.931  31.196  1.00  0.00     0.010 A 
ATOM     36  C   UNL A   1      36.592  33.965  29.617  1.00  0.00     0.010 A 
ATOM     37  C   UNL A   1      36.383  33.143  30.734  1.00  0.00    -0.014 A 
BRANCH  37  38
ATOM     38  C   UNL A   1      37.548  32.522  31.411  1.00  0.00     0.031 A 
ATOM     39  C   UNL A   1      38.243  31.344  30.789  1.00  0.00     0.074 A 
ATOM     40  C   UNL A   1      37.938  32.976  32.617  1.00  0.00     0.049 A 
ATOM     41  N   UNL A   1      39.237  30.627  31.251  1.00  0.00    -0.248 NA
ATOM     42  C   UNL A   1      37.734  30.894  29.484  1.00  0.00     0.031 C 
ATOM     43  C   UNL A   1      37.320  34.087  33.341  1.00  0.00     0.029 A 
ATOM     44  N   UNL A   1      38.944  32.553  33.448  1.00  0.00    -0.354 N 
ATOM     45  C   UNL A   1      39.456  29.632  30.308  1.00  0.00     0.074 A 
ATOM     46  C   UNL A   1      38.463  29.808  29.270  1.00  0.00     0.031 C 
ATOM     47  C   UNL A   1      37.979  34.278  34.494  1.00  0.00     0.029 A 
ATOM     48  C   UNL A   1      39.040  33.282  34.609  1.00  0.00     0.049 A 
ATOM     49  H   UNL A   1      39.540  31.800  33.235  1.00  0.00     0.167 HD
ATOM     50  C   UNL A   1      40.412  28.672  30.298  1.00  0.00     0.037 A 
ATOM     51  C   UNL A   1      39.889  33.159  35.646  1.00  0.00     0.037 A 
ATOM     52  C   UNL A   1      41.416  28.520  31.317  1.00  0.00     0.049 A 
ATOM     53  C   UNL A   1      40.934  32.078  35.617  1.00  0.00     0.074 A 
ATOM     54  C   UNL A   1      42.477  27.632  31.360  1.00  0.00     0.029 A 
ATOM     55  N   UNL A   1      41.480  29.275  32.479  1.00  0.00    -0.354 N 
ATOM     56  N   UNL A   1      41.181  31.190  34.685  1.00  0.00    -0.248 NA
ATOM     57  C   UNL A   1      41.819  31.985  36.785  1.00  0.00     0.031 C 
ATOM     58  C   UNL A   1      43.155  27.818  32.570  1.00  0.00     0.029 A 
ATOM     59  C   UNL A   1      42.544  28.854  33.261  1.00  0.00     0.049 A 
ATOM     60  H   UNL A   1      40.859  30.002  32.716  1.00  0.00     0.167 HD
ATOM     61  C   UNL A   1      42.266  30.453  35.138  1.00  0.00     0.074 A 
ATOM     62  C   UNL A   1      42.635  31.003  36.427  1.00  0.00     0.031 C 
ATOM     63  C   UNL A   1      42.902  29.416  34.539  1.00  0.00     0.037 A 
BRANCH  50  64
ATOM     64  C   UNL A   1      40.405  27.706  29.148  1.00  0.00     0.064 A 
ATOM     65  C   UNL A   1      39.592  26.562  29.149  1.00  0.00     0.173 A 
ATOM     66  C   UNL A   1      41.216  27.933  28.026  1.00  0.00     0.173 A 
ATOM     67  F   UNL A   1      38.805  26.294  30.202  1.00  0.00    -0.203 F 
ATOM     68  C   UNL A   1      39.623  25.659  28.089  1.00  0.00     0.198 A 
ATOM     69  C   UNL A   1      41.221  27.043  26.954  1.00  0.00     0.198 A 
ATOM     70  F   UNL A   1      42.007  29.014  27.968  1.00  0.00    -0.203 F 
ATOM     71  F   UNL A   1      38.884  24.543  28.142  1.00  0.00    -0.200 F 
ATOM     72  C   UNL A   1      40.434  25.902  26.991  1.00  0.00     0.200 A 
ATOM     73  F   UNL A   1      41.996  27.285  25.887  1.00  0.00    -0.200 F 
ATOM     74  F   UNL A   1      40.464  25.030  25.973  1.00  0.00    -0.200 F 
ENDBRANCH  50  64
BRANCH  51  75
ATOM     75  C   UNL A   1      39.817  34.119  36.776  1.00  0.00     0.064 A 
ATOM     76  C   UNL A   1      39.017  33.843  37.893  1.00  0.00     0.173 A 
ATOM     77  C   UNL A   1      40.552  35.313  36.775  1.00  0.00     0.173 A 
ATOM     78  F   UNL A   1      38.281  32.723  37.928  1.00  0.00    -0.203 F 
ATOM     79  C   UNL A   1      38.946  34.731  38.964  1.00  0.00     0.198 A 
ATOM     80  C   UNL A   1      40.498  36.189  37.857  1.00  0.00     0.198 A 
ATOM     81  F   UNL A   1      41.335  35.620  35.731  1.00  0.00    -0.203 F 
ATOM     82  F   UNL A   1      38.149  34.458  40.006  1.00  0.00    -0.200 F 
ATOM     83  C   UNL A   1      39.692  35.901  38.948  1.00  0.00     0.200 A 
ATOM     84  F   UNL A   1      41.231  37.311  37.845  1.00  0.00    -0.200 F 
ATOM     85  F   UNL A   1      39.631  36.749  39.982  1.00  0.00    -0.200 F 
ENDBRANCH  51  75
BRANCH  63  86
ATOM     86  C   UNL A   1      44.083  28.830  35.255  1.00  0.00     0.064 A 
ATOM     87  C   UNL A   1      45.361  29.397  35.153  1.00  0.00     0.173 A 
ATOM     88  C   UNL A   1      43.925  27.708  36.083  1.00  0.00     0.173 A 
ATOM     89  F   UNL A   1      45.567  30.459  34.360  1.00  0.00    -0.203 F 
ATOM     90  C   UNL A   1      46.443  28.848  35.836  1.00  0.00     0.198 A 
ATOM     91  C   UNL A   1      45.003  27.178  36.786  1.00  0.00     0.198 A 
ATOM     92  F   UNL A   1      42.721  27.131  36.218  1.00  0.00    -0.203 F 
ATOM     93  F   UNL A   1      47.665  29.378  35.688  1.00  0.00    -0.200 F 
ATOM     94  C   UNL A   1      46.263  27.745  36.657  1.00  0.00     0.200 A 
ATOM     95  F   UNL A   1      44.825  26.119  37.588  1.00  0.00    -0.200 F 
ATOM     96  F   UNL A   1      47.304  27.221  37.318  1.00  0.00    -0.200 F 
ENDBRANCH  63  86
ENDBRANCH  37  38
ENDBRANCH  29  32
ENDBRANCH  27  28
ENDBRANCH  26  27
ENDBRANCH  25  26
ENDBRANCH   1  25
TORSDOF 16
ENDMDL
MODEL 3
REMARK VINA RESULT:     -11.6      5.770     11.398
REMARK SMILES C/C=C/c1cncc(-c2ccc([C@@H](C)C(=O)NCCCCCCNC(=O)c3ccc(-c4c5nc(c(-c6c(F)c(F)c(F)c(F)c6F)c6ccc([nH]6)c(-c6c(F)c(F)c(F)c(F)c6F)c6nc(c(-c7c(F)c(F)c(F)c(F)c7F)c7ccc4[nH]7)C=C6)C=C5)cc3)cc2)c1
REMARK SMILES IDX 20 1 19 2 18 3 17 4 15 5 16 6 13 8 14 9 12 10 9 11 10 12
REMARK SMILES IDX 91 13 11 14 90 15 8 16 4 17 5 18 92 19 6 20 7 21 3 22 1 23
REMARK SMILES IDX 2 24 21 25 22 26 23 27 24 28 25 29 26 31 27 32 28 33 89 34
REMARK SMILES IDX 29 35 88 36 30 37 31 38 32 39 82 40 33 41 87 42 81 43 83 44
REMARK SMILES IDX 34 45 86 46 80 47 79 48 35 50 67 51 47 52 66 53 48 54 51 55
REMARK SMILES IDX 65 56 84 57 49 58 50 59 64 61 85 62 52 63 36 64 37 65 45 66
REMARK SMILES IDX 38 67 39 68 43 69 46 70 40 71 41 72 44 73 42 74 68 75 69 76
REMARK SMILES IDX 77 77 70 78 71 79 75 80 78 81 72 82 73 83 76 84 74 85 53 86
REMARK SMILES IDX 54 87 62 88 55 89 56 90 60 91 63 92 57 93 58 94 61 95 59 96
REMARK H PARENT 17 7 24 30 83 49 51 60
REMARK Flexibility Score: inf
ROOT
ATOM      1  C   UNL A   1      39.535  21.539  26.209  1.00  0.00     0.002 C 
ENDROOT
BRANCH   1   2
ATOM      2  C   UNL A   1      39.312  23.013  26.565  1.00  0.00     0.021 C 
BRANCH   2   3
ATOM      3  C   UNL A   1      37.966  23.568  26.095  1.00  0.00     0.116 C 
BRANCH   3   4
ATOM      4  N   UNL A   1      37.748  23.329  24.685  1.00  0.00    -0.356 N 
ATOM      5  C   UNL A   1      36.617  23.037  23.985  1.00  0.00     0.227 C 
ATOM      6  O   UNL A   1      36.763  22.785  22.782  1.00  0.00    -0.274 OA
ATOM      7  H   UNL A   1      38.561  23.387  24.133  1.00  0.00     0.163 HD
BRANCH   5   8
ATOM      8  C   UNL A   1      35.211  23.022  24.606  1.00  0.00     0.105 C 
ATOM      9  C   UNL A   1      34.376  21.803  24.215  1.00  0.00     0.023 C 
BRANCH   8  10
ATOM     10  C   UNL A   1      34.512  24.372  24.542  1.00  0.00    -0.036 A 
ATOM     11  C   UNL A   1      33.008  26.796  24.387  1.00  0.00    -0.017 A 
ATOM     12  C   UNL A   1      33.732  26.452  25.539  1.00  0.00     0.009 A 
ATOM     13  C   UNL A   1      33.096  25.922  23.293  1.00  0.00     0.009 A 
ATOM     14  C   UNL A   1      34.489  25.276  25.607  1.00  0.00     0.005 A 
ATOM     15  C   UNL A   1      33.819  24.725  23.373  1.00  0.00     0.005 A 
BRANCH  11  16
ATOM     16  C   UNL A   1      32.165  28.006  24.351  1.00  0.00     0.001 A 
ATOM     17  C   UNL A   1      30.421  29.370  23.319  1.00  0.00    -0.007 A 
ATOM     18  C   UNL A   1      30.548  30.244  24.393  1.00  0.00     0.119 A 
ATOM     19  C   UNL A   1      31.257  28.245  23.308  1.00  0.00     0.020 A 
ATOM     20  N   UNL A   1      31.410  30.069  25.419  1.00  0.00    -0.263 NA
ATOM     21  C   UNL A   1      32.191  28.963  25.369  1.00  0.00     0.119 A 
BRANCH  17  22
ATOM     22  C   UNL A   1      29.476  29.660  22.237  1.00  0.00     0.005 C 
ATOM     23  C   UNL A   1      28.052  31.193  20.865  1.00  0.00     0.035 C 
ATOM     24  C   UNL A   1      29.005  30.890  21.976  1.00  0.00    -0.030 C 
ENDBRANCH  17  22
ENDBRANCH  11  16
ENDBRANCH   8  10
ENDBRANCH   5   8
ENDBRANCH   3   4
ENDBRANCH   2   3
ENDBRANCH   1   2
BRANCH   1  25
ATOM     25  C   UNL A   1      40.903  20.969  26.605  1.00  0.00     0.002 C 
BRANCH  25  26
ATOM     26  C   UNL A   1      41.234  19.586  26.036  1.00  0.00     0.021 C 
BRANCH  26  27
ATOM     27  C   UNL A   1      42.561  18.998  26.508  1.00  0.00     0.116 C 
BRANCH  27  28
ATOM     28  N   UNL A   1      43.435  18.664  25.394  1.00  0.00    -0.352 N 
ATOM     29  C   UNL A   1      44.217  19.480  24.616  1.00  0.00     0.251 C 
ATOM     30  H   UNL A   1      43.469  17.707  25.163  1.00  0.00     0.163 HD
ATOM     31  O   UNL A   1      44.719  19.047  23.583  1.00  0.00    -0.269 OA
BRANCH  29  32
ATOM     32  C   UNL A   1      44.452  20.885  25.012  1.00  0.00     0.039 A 
ATOM     33  C   UNL A   1      43.868  21.906  24.256  1.00  0.00     0.014 A 
ATOM     34  C   UNL A   1      45.275  21.198  26.096  1.00  0.00     0.014 A 
ATOM     35  C   UNL A   1      44.067  23.239  24.620  1.00  0.00     0.010 A 
ATOM     36  C   UNL A   1      45.421  22.523  26.497  1.00  0.00     0.010 A 
ATOM     37  C   UNL A   1      44.825  23.556  25.759  1.00  0.00    -0.014 A 
BRANCH  37  38
ATOM     38  C   UNL A   1      45.013  24.964  26.190  1.00  0.00     0.031 A 
ATOM     39  C   UNL A   1      46.368  25.606  26.098  1.00  0.00     0.074 A 
ATOM     40  C   UNL A   1      43.981  25.641  26.726  1.00  0.00     0.049 A 
ATOM     41  N   UNL A   1      46.748  26.801  26.478  1.00  0.00    -0.248 NA
ATOM     42  C   UNL A   1      47.448  24.787  25.527  1.00  0.00     0.031 C 
ATOM     43  C   UNL A   1      42.627  25.114  26.904  1.00  0.00     0.029 A 
ATOM     44  N   UNL A   1      43.911  26.916  27.226  1.00  0.00    -0.354 N 
ATOM     45  C   UNL A   1      48.110  26.866  26.214  1.00  0.00     0.074 A 
ATOM     46  C   UNL A   1      48.499  25.577  25.684  1.00  0.00     0.031 C 
ATOM     47  C   UNL A   1      41.853  26.068  27.445  1.00  0.00     0.029 A 
ATOM     48  C   UNL A   1      42.663  27.260  27.685  1.00  0.00     0.049 A 
ATOM     49  H   UNL A   1      44.681  27.529  27.252  1.00  0.00     0.167 HD
ATOM     50  C   UNL A   1      48.954  27.913  26.377  1.00  0.00     0.037 A 
ATOM     51  C   UNL A   1      42.223  28.406  28.236  1.00  0.00     0.037 A 
ATOM     52  C   UNL A   1      48.556  29.203  26.875  1.00  0.00     0.049 A 
ATOM     53  C   UNL A   1      43.182  29.550  28.419  1.00  0.00     0.074 A 
ATOM     54  C   UNL A   1      49.315  30.353  27.002  1.00  0.00     0.029 A 
ATOM     55  N   UNL A   1      47.283  29.512  27.334  1.00  0.00    -0.354 N 
ATOM     56  N   UNL A   1      44.449  29.627  28.096  1.00  0.00    -0.248 NA
ATOM     57  C   UNL A   1      42.645  30.767  29.042  1.00  0.00     0.031 C 
ATOM     58  C   UNL A   1      48.514  31.344  27.582  1.00  0.00     0.029 A 
ATOM     59  C   UNL A   1      47.243  30.826  27.773  1.00  0.00     0.049 A 
ATOM     60  H   UNL A   1      46.520  28.889  27.347  1.00  0.00     0.167 HD
ATOM     61  C   UNL A   1      44.855  30.907  28.447  1.00  0.00     0.074 A 
ATOM     62  C   UNL A   1      43.696  31.575  29.002  1.00  0.00     0.031 C 
ATOM     63  C   UNL A   1      46.079  31.478  28.318  1.00  0.00     0.037 A 
BRANCH  50  64
ATOM     64  C   UNL A   1      50.396  27.696  26.021  1.00  0.00     0.064 A 
ATOM     65  C   UNL A   1      50.868  27.867  24.710  1.00  0.00     0.173 A 
ATOM     66  C   UNL A   1      51.322  27.322  27.007  1.00  0.00     0.173 A 
ATOM     67  F   UNL A   1      50.022  28.214  23.729  1.00  0.00    -0.203 F 
ATOM     68  C   UNL A   1      52.202  27.628  24.391  1.00  0.00     0.198 A 
ATOM     69  C   UNL A   1      52.663  27.114  26.689  1.00  0.00     0.198 A 
ATOM     70  F   UNL A   1      50.928  27.153  28.278  1.00  0.00    -0.203 F 
ATOM     71  F   UNL A   1      52.614  27.737  23.121  1.00  0.00    -0.200 F 
ATOM     72  C   UNL A   1      53.099  27.257  25.381  1.00  0.00     0.200 A 
ATOM     73  F   UNL A   1      53.532  26.768  27.650  1.00  0.00    -0.200 F 
ATOM     74  F   UNL A   1      54.383  27.025  25.071  1.00  0.00    -0.200 F 
ENDBRANCH  50  64
BRANCH  51  75
ATOM     75  C   UNL A   1      40.792  28.544  28.609  1.00  0.00     0.064 A 
ATOM     76  C   UNL A   1      40.358  28.206  29.899  1.00  0.00     0.173 A 
ATOM     77  C   UNL A   1      39.839  29.028  27.702  1.00  0.00     0.173 A 
ATOM     78  F   UNL A   1      41.231  27.721  30.792  1.00  0.00    -0.203 F 
ATOM     79  C   UNL A   1      39.020  28.338  30.264  1.00  0.00     0.198 A 
ATOM     80  C   UNL A   1      38.506  29.181  28.077  1.00  0.00     0.198 A 
ATOM     81  F   UNL A   1      40.206  29.368  26.458  1.00  0.00    -0.203 F 
ATOM     82  F   UNL A   1      38.626  27.979  31.493  1.00  0.00    -0.200 F 
ATOM     83  C   UNL A   1      38.097  28.832  29.355  1.00  0.00     0.200 A 
ATOM     84  F   UNL A   1      37.619  29.671  27.201  1.00  0.00    -0.200 F 
ATOM     85  F   UNL A   1      36.812  28.967  29.711  1.00  0.00    -0.200 F 
ENDBRANCH  51  75
BRANCH  63  86
ATOM     86  C   UNL A   1      46.217  32.907  28.754  1.00  0.00     0.064 A 
ATOM     87  C   UNL A   1      46.611  33.245  30.056  1.00  0.00     0.173 A 
ATOM     88  C   UNL A   1      45.987  33.951  27.843  1.00  0.00     0.173 A 
ATOM     89  F   UNL A   1      46.825  32.284  30.967  1.00  0.00    -0.203 F 
ATOM     90  C   UNL A   1      46.747  34.577  30.438  1.00  0.00     0.198 A 
ATOM     91  C   UNL A   1      46.151  35.280  28.220  1.00  0.00     0.198 A 
ATOM     92  F   UNL A   1      45.612  33.680  26.584  1.00  0.00    -0.203 F 
ATOM     93  F   UNL A   1      47.081  34.879  31.701  1.00  0.00    -0.200 F 
ATOM     94  C   UNL A   1      46.525  35.593  29.520  1.00  0.00     0.200 A 
ATOM     95  F   UNL A   1      45.947  36.260  27.330  1.00  0.00    -0.200 F 
ATOM     96  F   UNL A   1      46.663  36.874  29.888  1.00  0.00    -0.200 F 
ENDBRANCH  63  86
ENDBRANCH  37  38
ENDBRANCH  29  32
ENDBRANCH  27  28
ENDBRANCH  26  27
ENDBRANCH  25  26
ENDBRANCH   1  25
TORSDOF 16
ENDMDL
