MODEL 1
REMARK VINA RESULT:     -11.5      0.000      0.000
REMARK SMILES CC[C@@](C)(NC(=O)c1ccncc1F)C(=O)NCCCCCCNC(=O)c1ccc(-c2c3nc(c(-c4c(F)c(F)c(F)c(F)c4F)c4ccc([nH]4)c(-c4c(F)c(F)c(F)c(F)c4F)c4nc(c(-c5c(F)c(F)c(F)c(F)c5F)c5ccc2[nH]5)C=C4)C=C3)cc1
REMARK SMILES IDX 20 1 19 2 18 3 17 4 15 5 16 6 3 8 4 9 2 10 1 11 5 12 6 13
REMARK SMILES IDX 7 15 8 16 9 17 13 18 10 19 12 20 14 21 11 22 21 23 22 24
REMARK SMILES IDX 23 25 24 26 25 27 26 29 27 30 28 31 89 32 29 33 88 34 30 35
REMARK SMILES IDX 31 36 32 37 82 38 33 39 87 40 81 41 83 42 34 43 86 44 80 45
REMARK SMILES IDX 79 46 35 48 67 49 47 50 66 51 48 52 51 53 65 54 84 55 49 56
REMARK SMILES IDX 50 57 64 59 85 60 52 61 36 62 37 63 45 64 38 65 39 66 43 67
REMARK SMILES IDX 46 68 40 69 41 70 44 71 42 72 68 73 69 74 77 75 70 76 71 77
REMARK SMILES IDX 75 78 78 79 72 80 73 81 76 82 74 83 53 84 54 85 62 86 55 87
REMARK SMILES IDX 56 88 60 89 63 90 57 91 58 92 61 93 59 94
REMARK H PARENT 17 7 5 14 24 28 83 47 51 58
REMARK Flexibility Score: inf
ROOT
ATOM      1  C   UNL A   1      32.927  30.060  26.457  1.00  0.00     0.002 C 
ENDROOT
BRANCH   1   2
ATOM      2  C   UNL A   1      33.408  29.506  25.113  1.00  0.00     0.021 C 
BRANCH   2   3
ATOM      3  C   UNL A   1      33.776  28.024  25.065  1.00  0.00     0.116 C 
BRANCH   3   4
ATOM      4  N   UNL A   1      32.872  27.126  25.751  1.00  0.00    -0.354 N 
ATOM      5  C   UNL A   1      31.743  26.458  25.368  1.00  0.00     0.245 C 
ATOM      6  O   UNL A   1      31.351  25.593  26.159  1.00  0.00    -0.272 OA
ATOM      7  H   UNL A   1      33.122  26.962  26.689  1.00  0.00     0.163 HD
BRANCH   5   8
ATOM      8  C   UNL A   1      31.087  26.634  23.966  1.00  0.00     0.116 C 
ATOM      9  C   UNL A   1      30.005  25.519  23.894  1.00  0.00     0.045 C 
BRANCH   8  10
ATOM     10  C   UNL A   1      30.372  28.002  23.766  1.00  0.00     0.035 C 
ATOM     11  C   UNL A   1      30.788  28.853  22.570  1.00  0.00     0.007 C 
ENDBRANCH   8  10
BRANCH   8  12
ATOM     12  N   UNL A   1      31.992  26.433  22.799  1.00  0.00    -0.338 N 
ATOM     13  C   UNL A   1      33.059  25.631  22.483  1.00  0.00     0.255 C 
ATOM     14  H   UNL A   1      31.762  27.037  22.056  1.00  0.00     0.164 HD
ATOM     15  O   UNL A   1      33.771  26.078  21.575  1.00  0.00    -0.269 OA
BRANCH  13  16
ATOM     16  C   UNL A   1      33.440  24.296  23.027  1.00  0.00     0.078 A 
ATOM     17  C   UNL A   1      32.673  23.205  22.573  1.00  0.00     0.037 A 
ATOM     18  C   UNL A   1      34.327  24.034  24.057  1.00  0.00     0.154 A 
ATOM     19  C   UNL A   1      32.811  21.960  23.173  1.00  0.00     0.112 A 
ATOM     20  C   UNL A   1      34.401  22.760  24.602  1.00  0.00     0.151 A 
ATOM     21  F   UNL A   1      35.080  24.965  24.625  1.00  0.00    -0.204 F 
ATOM     22  N   UNL A   1      33.661  21.713  24.187  1.00  0.00    -0.262 NA
ENDBRANCH  13  16
ENDBRANCH   8  12
ENDBRANCH   5   8
ENDBRANCH   3   4
ENDBRANCH   2   3
ENDBRANCH   1   2
BRANCH   1  23
ATOM     23  C   UNL A   1      31.511  30.629  26.486  1.00  0.00     0.002 C 
BRANCH  23  24
ATOM     24  C   UNL A   1      31.420  32.148  26.608  1.00  0.00     0.021 C 
BRANCH  24  25
ATOM     25  C   UNL A   1      32.600  32.808  27.309  1.00  0.00     0.116 C 
BRANCH  25  26
ATOM     26  N   UNL A   1      32.364  34.213  27.598  1.00  0.00    -0.352 N 
ATOM     27  C   UNL A   1      32.960  35.009  28.550  1.00  0.00     0.251 C 
ATOM     28  H   UNL A   1      31.685  34.654  27.039  1.00  0.00     0.163 HD
ATOM     29  O   UNL A   1      32.536  36.127  28.787  1.00  0.00    -0.269 OA
BRANCH  27  30
ATOM     30  C   UNL A   1      34.116  34.479  29.307  1.00  0.00     0.039 A 
ATOM     31  C   UNL A   1      33.893  33.863  30.540  1.00  0.00     0.014 A 
ATOM     32  C   UNL A   1      35.410  34.573  28.786  1.00  0.00     0.014 A 
ATOM     33  C   UNL A   1      34.964  33.284  31.224  1.00  0.00     0.010 A 
ATOM     34  C   UNL A   1      36.462  33.931  29.433  1.00  0.00     0.010 A 
ATOM     35  C   UNL A   1      36.251  33.286  30.661  1.00  0.00    -0.014 A 
BRANCH  35  36
ATOM     36  C   UNL A   1      37.392  32.634  31.351  1.00  0.00     0.031 A 
ATOM     37  C   UNL A   1      38.107  31.485  30.696  1.00  0.00     0.074 A 
ATOM     38  C   UNL A   1      37.745  33.033  32.588  1.00  0.00     0.049 A 
ATOM     39  N   UNL A   1      39.087  30.748  31.155  1.00  0.00    -0.248 NA
ATOM     40  C   UNL A   1      37.641  31.094  29.356  1.00  0.00     0.031 C 
ATOM     41  C   UNL A   1      37.095  34.100  33.351  1.00  0.00     0.029 A 
ATOM     42  N   UNL A   1      38.734  32.581  33.426  1.00  0.00    -0.354 N 
ATOM     43  C   UNL A   1      39.341  29.803  30.169  1.00  0.00     0.074 A 
ATOM     44  C   UNL A   1      38.376  30.021  29.113  1.00  0.00     0.031 C 
ATOM     45  C   UNL A   1      37.716  34.236  34.534  1.00  0.00     0.029 A 
ATOM     46  C   UNL A   1      38.785  33.247  34.627  1.00  0.00     0.049 A 
ATOM     47  H   UNL A   1      39.348  31.849  33.189  1.00  0.00     0.167 HD
ATOM     48  C   UNL A   1      40.310  28.857  30.134  1.00  0.00     0.037 A 
ATOM     49  C   UNL A   1      39.602  33.075  35.683  1.00  0.00     0.037 A 
ATOM     50  C   UNL A   1      41.285  28.660  31.174  1.00  0.00     0.049 A 
ATOM     51  C   UNL A   1      40.674  32.020  35.618  1.00  0.00     0.074 A 
ATOM     52  C   UNL A   1      42.341  27.766  31.211  1.00  0.00     0.029 A 
ATOM     53  N   UNL A   1      41.322  29.371  32.365  1.00  0.00    -0.354 N 
ATOM     54  N   UNL A   1      40.950  31.179  34.650  1.00  0.00    -0.248 NA
ATOM     55  C   UNL A   1      41.554  31.896  36.788  1.00  0.00     0.031 C 
ATOM     56  C   UNL A   1      42.992  27.909  32.441  1.00  0.00     0.029 A 
ATOM     57  C   UNL A   1      42.373  28.925  33.150  1.00  0.00     0.049 A 
ATOM     58  H   UNL A   1      40.694  30.088  32.614  1.00  0.00     0.167 HD
ATOM     59  C   UNL A   1      42.051  30.450  35.080  1.00  0.00     0.074 A 
ATOM     60  C   UNL A   1      42.402  30.958  36.390  1.00  0.00     0.031 C 
ATOM     61  C   UNL A   1      42.713  29.450  34.447  1.00  0.00     0.037 A 
BRANCH  48  62
ATOM     62  C   UNL A   1      40.366  27.967  28.927  1.00  0.00     0.064 A 
ATOM     63  C   UNL A   1      41.115  28.314  27.792  1.00  0.00     0.173 A 
ATOM     64  C   UNL A   1      39.686  26.739  28.912  1.00  0.00     0.173 A 
ATOM     65  F   UNL A   1      41.773  29.483  27.749  1.00  0.00    -0.203 F 
ATOM     66  C   UNL A   1      41.155  27.481  26.676  1.00  0.00     0.198 A 
ATOM     67  C   UNL A   1      39.755  25.894  27.808  1.00  0.00     0.198 A 
ATOM     68  F   UNL A   1      38.959  26.355  29.973  1.00  0.00    -0.203 F 
ATOM     69  F   UNL A   1      41.835  27.859  25.585  1.00  0.00    -0.200 F 
ATOM     70  C   UNL A   1      40.482  26.269  26.688  1.00  0.00     0.200 A 
ATOM     71  F   UNL A   1      39.114  24.717  27.826  1.00  0.00    -0.200 F 
ATOM     72  F   UNL A   1      40.527  25.466  25.617  1.00  0.00    -0.200 F 
ENDBRANCH  48  62
BRANCH  49  73
ATOM     73  C   UNL A   1      39.463  33.944  36.882  1.00  0.00     0.064 A 
ATOM     74  C   UNL A   1      40.089  35.197  36.937  1.00  0.00     0.173 A 
ATOM     75  C   UNL A   1      38.716  33.537  37.996  1.00  0.00     0.173 A 
ATOM     76  F   UNL A   1      40.831  35.621  35.903  1.00  0.00    -0.203 F 
ATOM     77  C   UNL A   1      39.990  36.002  38.070  1.00  0.00     0.198 A 
ATOM     78  C   UNL A   1      38.595  34.355  39.118  1.00  0.00     0.198 A 
ATOM     79  F   UNL A   1      38.094  32.349  37.992  1.00  0.00    -0.203 F 
ATOM     80  F   UNL A   1      40.638  37.174  38.115  1.00  0.00    -0.200 F 
ATOM     81  C   UNL A   1      39.239  35.583  39.158  1.00  0.00     0.200 A 
ATOM     82  F   UNL A   1      37.857  33.953  40.161  1.00  0.00    -0.200 F 
ATOM     83  F   UNL A   1      39.142  36.357  40.247  1.00  0.00    -0.200 F 
ENDBRANCH  49  73
BRANCH  61  84
ATOM     84  C   UNL A   1      43.908  28.868  35.145  1.00  0.00     0.064 A 
ATOM     85  C   UNL A   1      45.203  29.353  34.916  1.00  0.00     0.173 A 
ATOM     86  C   UNL A   1      43.747  27.835  36.082  1.00  0.00     0.173 A 
ATOM     87  F   UNL A   1      45.410  30.329  34.019  1.00  0.00    -0.203 F 
ATOM     88  C   UNL A   1      46.299  28.806  35.580  1.00  0.00     0.198 A 
ATOM     89  C   UNL A   1      44.842  27.313  36.766  1.00  0.00     0.198 A 
ATOM     90  F   UNL A   1      42.528  27.341  36.342  1.00  0.00    -0.203 F 
ATOM     91  F   UNL A   1      47.534  29.252  35.308  1.00  0.00    -0.200 F 
ATOM     92  C   UNL A   1      46.117  27.793  36.508  1.00  0.00     0.200 A 
ATOM     93  F   UNL A   1      44.661  26.342  37.673  1.00  0.00    -0.200 F 
ATOM     94  F   UNL A   1      47.171  27.273  37.151  1.00  0.00    -0.200 F 
ENDBRANCH  61  84
ENDBRANCH  35  36
ENDBRANCH  27  30
ENDBRANCH  25  26
ENDBRANCH  24  25
ENDBRANCH  23  24
ENDBRANCH   1  23
TORSDOF 16
ENDMDL
MODEL 2
REMARK VINA RESULT:     -11.4      0.957      7.294
REMARK SMILES CC[C@@](C)(NC(=O)c1ccncc1F)C(=O)NCCCCCCNC(=O)c1ccc(-c2c3nc(c(-c4c(F)c(F)c(F)c(F)c4F)c4ccc([nH]4)c(-c4c(F)c(F)c(F)c(F)c4F)c4nc(c(-c5c(F)c(F)c(F)c(F)c5F)c5ccc2[nH]5)C=C4)C=C3)cc1
REMARK SMILES IDX 20 1 19 2 18 3 17 4 15 5 16 6 3 8 4 9 2 10 1 11 5 12 6 13
REMARK SMILES IDX 7 15 8 16 9 17 13 18 10 19 12 20 14 21 11 22 21 23 22 24
REMARK SMILES IDX 23 25 24 26 25 27 26 29 27 30 28 31 89 32 29 33 88 34 30 35
REMARK SMILES IDX 31 36 32 37 82 38 33 39 87 40 81 41 83 42 34 43 86 44 80 45
REMARK SMILES IDX 79 46 35 48 67 49 47 50 66 51 48 52 51 53 65 54 84 55 49 56
REMARK SMILES IDX 50 57 64 59 85 60 52 61 36 62 37 63 45 64 38 65 39 66 43 67
REMARK SMILES IDX 46 68 40 69 41 70 44 71 42 72 68 73 69 74 77 75 70 76 71 77
REMARK SMILES IDX 75 78 78 79 72 80 73 81 76 82 74 83 53 84 54 85 62 86 55 87
REMARK SMILES IDX 56 88 60 89 63 90 57 91 58 92 61 93 59 94
REMARK H PARENT 17 7 5 14 24 28 83 47 51 58
REMARK Flexibility Score: inf
ROOT
ATOM      1  C   UNL A   1      32.421  30.005  27.268  1.00  0.00     0.002 C 
ENDROOT
BRANCH   1   2
ATOM      2  C   UNL A   1      32.214  28.493  27.381  1.00  0.00     0.021 C 
BRANCH   2   3
ATOM      3  C   UNL A   1      31.439  27.812  26.255  1.00  0.00     0.116 C 
BRANCH   3   4
ATOM      4  N   UNL A   1      31.146  26.407  26.449  1.00  0.00    -0.354 N 
ATOM      5  C   UNL A   1      30.796  25.396  25.599  1.00  0.00     0.245 C 
ATOM      6  O   UNL A   1      30.845  24.261  26.086  1.00  0.00    -0.272 OA
ATOM      7  H   UNL A   1      31.215  26.121  27.388  1.00  0.00     0.163 HD
BRANCH   5   8
ATOM      8  C   UNL A   1      30.524  25.618  24.081  1.00  0.00     0.116 C 
ATOM      9  C   UNL A   1      30.371  24.186  23.494  1.00  0.00     0.045 C 
BRANCH   8  10
ATOM     10  C   UNL A   1      29.212  26.397  23.778  1.00  0.00     0.035 C 
ATOM     11  C   UNL A   1      29.337  27.828  23.263  1.00  0.00     0.007 C 
ENDBRANCH   8  10
BRANCH   8  12
ATOM     12  N   UNL A   1      31.619  26.282  23.319  1.00  0.00    -0.338 N 
ATOM     13  C   UNL A   1      32.990  26.306  23.347  1.00  0.00     0.255 C 
ATOM     14  H   UNL A   1      31.263  26.858  22.603  1.00  0.00     0.164 HD
ATOM     15  O   UNL A   1      33.486  27.306  22.813  1.00  0.00    -0.269 OA
BRANCH  13  16
ATOM     16  C   UNL A   1      33.949  25.289  23.866  1.00  0.00     0.078 A 
ATOM     17  C   UNL A   1      34.153  24.160  23.047  1.00  0.00     0.037 A 
ATOM     18  C   UNL A   1      34.511  25.236  25.130  1.00  0.00     0.154 A 
ATOM     19  C   UNL A   1      34.860  23.068  23.531  1.00  0.00     0.112 A 
ATOM     20  C   UNL A   1      35.202  24.103  25.536  1.00  0.00     0.151 A 
ATOM     21  F   UNL A   1      34.365  26.196  26.033  1.00  0.00    -0.204 F 
ATOM     22  N   UNL A   1      35.389  23.012  24.767  1.00  0.00    -0.262 NA
ENDBRANCH  13  16
ENDBRANCH   8  12
ENDBRANCH   5   8
ENDBRANCH   3   4
ENDBRANCH   2   3
ENDBRANCH   1   2
BRANCH   1  23
ATOM     23  C   UNL A   1      31.459  30.753  26.347  1.00  0.00     0.002 C 
BRANCH  23  24
ATOM     24  C   UNL A   1      31.430  32.269  26.526  1.00  0.00     0.021 C 
BRANCH  24  25
ATOM     25  C   UNL A   1      32.632  32.852  27.259  1.00  0.00     0.116 C 
BRANCH  25  26
ATOM     26  N   UNL A   1      32.417  34.227  27.679  1.00  0.00    -0.352 N 
ATOM     27  C   UNL A   1      33.040  34.928  28.687  1.00  0.00     0.251 C 
ATOM     28  H   UNL A   1      31.731  34.723  27.177  1.00  0.00     0.163 HD
ATOM     29  O   UNL A   1      32.633  36.024  29.033  1.00  0.00    -0.269 OA
BRANCH  27  30
ATOM     30  C   UNL A   1      34.205  34.321  29.369  1.00  0.00     0.039 A 
ATOM     31  C   UNL A   1      33.992  33.537  30.504  1.00  0.00     0.014 A 
ATOM     32  C   UNL A   1      35.497  34.512  28.871  1.00  0.00     0.014 A 
ATOM     33  C   UNL A   1      35.074  32.890  31.106  1.00  0.00     0.010 A 
ATOM     34  C   UNL A   1      36.562  33.807  29.427  1.00  0.00     0.010 A 
ATOM     35  C   UNL A   1      36.361  32.995  30.554  1.00  0.00    -0.014 A 
BRANCH  35  36
ATOM     36  C   UNL A   1      37.514  32.276  31.152  1.00  0.00     0.031 A 
ATOM     37  C   UNL A   1      38.003  32.651  32.523  1.00  0.00     0.074 A 
ATOM     38  C   UNL A   1      38.157  31.330  30.440  1.00  0.00     0.049 A 
ATOM     39  N   UNL A   1      39.025  32.184  33.196  1.00  0.00    -0.248 NA
ATOM     40  C   UNL A   1      37.262  33.714  33.221  1.00  0.00     0.031 C 
ATOM     41  C   UNL A   1      37.812  30.913  29.080  1.00  0.00     0.029 A 
ATOM     42  N   UNL A   1      39.242  30.552  30.760  1.00  0.00    -0.354 N 
ATOM     43  C   UNL A   1      39.054  32.904  34.384  1.00  0.00     0.074 A 
ATOM     44  C   UNL A   1      37.987  33.878  34.316  1.00  0.00     0.031 C 
ATOM     45  C   UNL A   1      38.652  29.942  28.691  1.00  0.00     0.029 A 
ATOM     46  C   UNL A   1      39.615  29.689  29.758  1.00  0.00     0.049 A 
ATOM     47  H   UNL A   1      39.709  30.608  31.625  1.00  0.00     0.167 HD
ATOM     48  C   UNL A   1      39.879  32.748  35.447  1.00  0.00     0.037 A 
ATOM     49  C   UNL A   1      40.622  28.796  29.710  1.00  0.00     0.037 A 
ATOM     50  C   UNL A   1      40.923  31.759  35.522  1.00  0.00     0.049 A 
ATOM     51  C   UNL A   1      41.522  28.638  30.906  1.00  0.00     0.074 A 
ATOM     52  C   UNL A   1      41.777  31.483  36.575  1.00  0.00     0.029 A 
ATOM     53  N   UNL A   1      41.254  30.884  34.497  1.00  0.00    -0.354 N 
ATOM     54  N   UNL A   1      41.495  29.276  32.051  1.00  0.00    -0.248 NA
ATOM     55  C   UNL A   1      42.586  27.629  30.806  1.00  0.00     0.031 C 
ATOM     56  C   UNL A   1      42.652  30.468  36.173  1.00  0.00     0.029 A 
ATOM     57  C   UNL A   1      42.311  30.078  34.888  1.00  0.00     0.049 A 
ATOM     58  H   UNL A   1      40.804  30.842  33.623  1.00  0.00     0.167 HD
ATOM     59  C   UNL A   1      42.514  28.725  32.818  1.00  0.00     0.074 A 
ATOM     60  C   UNL A   1      43.130  27.692  32.012  1.00  0.00     0.031 C 
ATOM     61  C   UNL A   1      42.905  29.047  34.076  1.00  0.00     0.037 A 
BRANCH  48  62
ATOM     62  C   UNL A   1      39.679  33.664  36.619  1.00  0.00     0.064 A 
ATOM     63  C   UNL A   1      40.287  34.928  36.676  1.00  0.00     0.173 A 
ATOM     64  C   UNL A   1      38.848  33.288  37.685  1.00  0.00     0.173 A 
ATOM     65  F   UNL A   1      41.101  35.330  35.689  1.00  0.00    -0.203 F 
ATOM     66  C   UNL A   1      40.095  35.767  37.770  1.00  0.00     0.198 A 
ATOM     67  C   UNL A   1      38.633  34.144  38.763  1.00  0.00     0.198 A 
ATOM     68  F   UNL A   1      38.237  32.093  37.679  1.00  0.00    -0.203 F 
ATOM     69  F   UNL A   1      40.728  36.948  37.826  1.00  0.00    -0.200 F 
ATOM     70  C   UNL A   1      39.263  35.378  38.809  1.00  0.00     0.200 A 
ATOM     71  F   UNL A   1      37.818  33.771  39.759  1.00  0.00    -0.200 F 
ATOM     72  F   UNL A   1      39.074  36.190  39.858  1.00  0.00    -0.200 F 
ENDBRANCH  48  62
BRANCH  49  73
ATOM     73  C   UNL A   1      40.814  27.957  28.498  1.00  0.00     0.064 A 
ATOM     74  C   UNL A   1      41.593  28.412  27.424  1.00  0.00     0.173 A 
ATOM     75  C   UNL A   1      40.217  26.694  28.381  1.00  0.00     0.173 A 
ATOM     76  F   UNL A   1      42.168  29.623  27.480  1.00  0.00    -0.203 F 
ATOM     77  C   UNL A   1      41.749  27.645  26.272  1.00  0.00     0.198 A 
ATOM     78  C   UNL A   1      40.397  25.916  27.239  1.00  0.00     0.198 A 
ATOM     79  F   UNL A   1      39.466  26.210  29.381  1.00  0.00    -0.203 F 
ATOM     80  F   UNL A   1      42.459  28.125  25.241  1.00  0.00    -0.200 F 
ATOM     81  C   UNL A   1      41.156  26.395  26.181  1.00  0.00     0.200 A 
ATOM     82  F   UNL A   1      39.833  24.703  27.162  1.00  0.00    -0.200 F 
ATOM     83  F   UNL A   1      41.307  25.657  25.074  1.00  0.00    -0.200 F 
ENDBRANCH  49  73
BRANCH  61  84
ATOM     84  C   UNL A   1      44.024  28.246  34.674  1.00  0.00     0.064 A 
ATOM     85  C   UNL A   1      45.360  28.661  34.576  1.00  0.00     0.173 A 
ATOM     86  C   UNL A   1      43.751  27.067  35.385  1.00  0.00     0.173 A 
ATOM     87  F   UNL A   1      45.675  29.772  33.894  1.00  0.00    -0.203 F 
ATOM     88  C   UNL A   1      46.386  27.908  35.145  1.00  0.00     0.198 A 
ATOM     89  C   UNL A   1      44.776  26.335  35.979  1.00  0.00     0.198 A 
ATOM     90  F   UNL A   1      42.489  26.632  35.513  1.00  0.00    -0.203 F 
ATOM     91  F   UNL A   1      47.660  28.297  34.996  1.00  0.00    -0.200 F 
ATOM     92  C   UNL A   1      46.092  26.752  35.851  1.00  0.00     0.200 A 
ATOM     93  F   UNL A   1      44.488  25.225  36.672  1.00  0.00    -0.200 F 
ATOM     94  F   UNL A   1      47.079  26.034  36.404  1.00  0.00    -0.200 F 
ENDBRANCH  61  84
ENDBRANCH  35  36
ENDBRANCH  27  30
ENDBRANCH  25  26
ENDBRANCH  24  25
ENDBRANCH  23  24
ENDBRANCH   1  23
TORSDOF 16
ENDMDL
MODEL 3
REMARK VINA RESULT:     -11.4      5.473     11.003
REMARK SMILES CC[C@@](C)(NC(=O)c1ccncc1F)C(=O)NCCCCCCNC(=O)c1ccc(-c2c3nc(c(-c4c(F)c(F)c(F)c(F)c4F)c4ccc([nH]4)c(-c4c(F)c(F)c(F)c(F)c4F)c4nc(c(-c5c(F)c(F)c(F)c(F)c5F)c5ccc2[nH]5)C=C4)C=C3)cc1
REMARK SMILES IDX 20 1 19 2 18 3 17 4 15 5 16 6 3 8 4 9 2 10 1 11 5 12 6 13
REMARK SMILES IDX 7 15 8 16 9 17 13 18 10 19 12 20 14 21 11 22 21 23 22 24
REMARK SMILES IDX 23 25 24 26 25 27 26 29 27 30 28 31 89 32 29 33 88 34 30 35
REMARK SMILES IDX 31 36 32 37 82 38 33 39 87 40 81 41 83 42 34 43 86 44 80 45
REMARK SMILES IDX 79 46 35 48 67 49 47 50 66 51 48 52 51 53 65 54 84 55 49 56
REMARK SMILES IDX 50 57 64 59 85 60 52 61 36 62 37 63 45 64 38 65 39 66 43 67
REMARK SMILES IDX 46 68 40 69 41 70 44 71 42 72 68 73 69 74 77 75 70 76 71 77
REMARK SMILES IDX 75 78 78 79 72 80 73 81 76 82 74 83 53 84 54 85 62 86 55 87
REMARK SMILES IDX 56 88 60 89 63 90 57 91 58 92 61 93 59 94
REMARK H PARENT 17 7 5 14 24 28 83 47 51 58
REMARK Flexibility Score: inf
ROOT
ATOM      1  C   UNL A   1      37.444  22.284  24.908  1.00  0.00     0.002 C 
ENDROOT
BRANCH   1   2
ATOM      2  C   UNL A   1      36.899  23.129  26.062  1.00  0.00     0.021 C 
BRANCH   2   3
ATOM      3  C   UNL A   1      35.481  23.676  25.914  1.00  0.00     0.116 C 
BRANCH   3   4
ATOM      4  N   UNL A   1      35.122  24.148  24.593  1.00  0.00    -0.354 N 
ATOM      5  C   UNL A   1      34.045  23.930  23.780  1.00  0.00     0.245 C 
ATOM      6  O   UNL A   1      33.964  24.683  22.803  1.00  0.00    -0.272 OA
ATOM      7  H   UNL A   1      35.792  24.750  24.198  1.00  0.00     0.163 HD
BRANCH   5   8
ATOM      8  C   UNL A   1      32.900  22.935  24.136  1.00  0.00     0.116 C 
ATOM      9  C   UNL A   1      31.902  23.042  22.948  1.00  0.00     0.045 C 
BRANCH   8  10
ATOM     10  C   UNL A   1      33.356  21.452  24.240  1.00  0.00     0.035 C 
ATOM     11  C   UNL A   1      32.982  20.679  25.501  1.00  0.00     0.007 C 
ENDBRANCH   8  10
BRANCH   8  12
ATOM     12  N   UNL A   1      32.132  23.250  25.374  1.00  0.00    -0.338 N 
ATOM     13  C   UNL A   1      31.774  24.373  26.075  1.00  0.00     0.255 C 
ATOM     14  H   UNL A   1      31.788  22.432  25.803  1.00  0.00     0.164 HD
ATOM     15  O   UNL A   1      31.496  24.157  27.262  1.00  0.00    -0.269 OA
BRANCH  13  16
ATOM     16  C   UNL A   1      31.619  25.779  25.605  1.00  0.00     0.078 A 
ATOM     17  C   UNL A   1      30.476  26.045  24.825  1.00  0.00     0.037 A 
ATOM     18  C   UNL A   1      32.554  26.797  25.687  1.00  0.00     0.154 A 
ATOM     19  C   UNL A   1      30.349  27.263  24.171  1.00  0.00     0.112 A 
ATOM     20  C   UNL A   1      32.349  27.985  24.999  1.00  0.00     0.151 A 
ATOM     21  F   UNL A   1      33.702  26.682  26.340  1.00  0.00    -0.204 F 
ATOM     22  N   UNL A   1      31.267  28.244  24.237  1.00  0.00    -0.262 NA
ENDBRANCH  13  16
ENDBRANCH   8  12
ENDBRANCH   5   8
ENDBRANCH   3   4
ENDBRANCH   2   3
ENDBRANCH   1   2
BRANCH   1  23
ATOM     23  C   UNL A   1      36.916  20.855  24.806  1.00  0.00     0.002 C 
BRANCH  23  24
ATOM     24  C   UNL A   1      37.956  19.758  25.018  1.00  0.00     0.021 C 
BRANCH  24  25
ATOM     25  C   UNL A   1      39.210  20.198  25.764  1.00  0.00     0.116 C 
BRANCH  25  26
ATOM     26  N   UNL A   1      40.183  19.127  25.901  1.00  0.00    -0.352 N 
ATOM     27  C   UNL A   1      41.541  19.217  26.110  1.00  0.00     0.251 C 
ATOM     28  H   UNL A   1      39.823  18.213  25.834  1.00  0.00     0.163 HD
ATOM     29  O   UNL A   1      42.254  18.231  26.034  1.00  0.00    -0.269 OA
BRANCH  27  30
ATOM     30  C   UNL A   1      42.135  20.540  26.405  1.00  0.00     0.039 A 
ATOM     31  C   UNL A   1      42.565  21.341  25.345  1.00  0.00     0.014 A 
ATOM     32  C   UNL A   1      42.244  20.991  27.724  1.00  0.00     0.014 A 
ATOM     33  C   UNL A   1      43.049  22.625  25.605  1.00  0.00     0.010 A 
ATOM     34  C   UNL A   1      42.656  22.297  27.974  1.00  0.00     0.010 A 
ATOM     35  C   UNL A   1      43.069  23.124  26.918  1.00  0.00    -0.014 A 
BRANCH  35  36
ATOM     36  C   UNL A   1      43.534  24.503  27.208  1.00  0.00     0.031 A 
ATOM     37  C   UNL A   1      42.573  25.520  27.757  1.00  0.00     0.074 A 
ATOM     38  C   UNL A   1      44.802  24.857  26.922  1.00  0.00     0.049 A 
ATOM     39  N   UNL A   1      42.767  26.787  28.024  1.00  0.00    -0.248 NA
ATOM     40  C   UNL A   1      41.199  25.058  28.015  1.00  0.00     0.031 C 
ATOM     41  C   UNL A   1      45.816  23.977  26.338  1.00  0.00     0.029 A 
ATOM     42  N   UNL A   1      45.454  26.056  27.077  1.00  0.00    -0.354 N 
ATOM     43  C   UNL A   1      41.543  27.272  28.465  1.00  0.00     0.074 A 
ATOM     44  C   UNL A   1      40.597  26.181  28.375  1.00  0.00     0.031 C 
ATOM     45  C   UNL A   1      46.965  24.657  26.205  1.00  0.00     0.029 A 
ATOM     46  C   UNL A   1      46.763  26.028  26.662  1.00  0.00     0.049 A 
ATOM     47  H   UNL A   1      45.022  26.859  27.448  1.00  0.00     0.167 HD
ATOM     48  C   UNL A   1      41.241  28.508  28.930  1.00  0.00     0.037 A 
ATOM     49  C   UNL A   1      47.693  27.003  26.653  1.00  0.00     0.037 A 
ATOM     50  C   UNL A   1      42.191  29.583  29.043  1.00  0.00     0.049 A 
ATOM     51  C   UNL A   1      47.334  28.366  27.179  1.00  0.00     0.074 A 
ATOM     52  C   UNL A   1      41.998  30.855  29.552  1.00  0.00     0.029 A 
ATOM     53  N   UNL A   1      43.516  29.510  28.638  1.00  0.00    -0.354 N 
ATOM     54  N   UNL A   1      46.191  28.793  27.660  1.00  0.00    -0.248 NA
ATOM     55  C   UNL A   1      48.396  29.381  27.170  1.00  0.00     0.031 C 
ATOM     56  C   UNL A   1      43.196  31.565  29.418  1.00  0.00     0.029 A 
ATOM     57  C   UNL A   1      44.148  30.721  28.871  1.00  0.00     0.049 A 
ATOM     58  H   UNL A   1      43.943  28.716  28.244  1.00  0.00     0.167 HD
ATOM     59  C   UNL A   1      46.405  30.111  28.040  1.00  0.00     0.074 A 
ATOM     60  C   UNL A   1      47.791  30.410  27.746  1.00  0.00     0.031 C 
ATOM     61  C   UNL A   1      45.532  30.996  28.582  1.00  0.00     0.037 A 
BRANCH  48  62
ATOM     62  C   UNL A   1      39.824  28.759  29.359  1.00  0.00     0.064 A 
ATOM     63  C   UNL A   1      38.861  29.246  28.462  1.00  0.00     0.173 A 
ATOM     64  C   UNL A   1      39.416  28.483  30.672  1.00  0.00     0.173 A 
ATOM     65  F   UNL A   1      39.202  29.538  27.198  1.00  0.00    -0.203 F 
ATOM     66  C   UNL A   1      37.550  29.477  28.873  1.00  0.00     0.198 A 
ATOM     67  C   UNL A   1      38.097  28.686  31.071  1.00  0.00     0.198 A 
ATOM     68  F   UNL A   1      40.295  28.010  31.569  1.00  0.00    -0.203 F 
ATOM     69  F   UNL A   1      36.661  29.992  28.012  1.00  0.00    -0.200 F 
ATOM     70  C   UNL A   1      37.168  29.190  30.174  1.00  0.00     0.200 A 
ATOM     71  F   UNL A   1      37.727  28.395  32.326  1.00  0.00    -0.200 F 
ATOM     72  F   UNL A   1      35.906  29.407  30.566  1.00  0.00    -0.200 F 
ENDBRANCH  48  62
BRANCH  49  73
ATOM     73  C   UNL A   1      49.066  26.716  26.158  1.00  0.00     0.064 A 
ATOM     74  C   UNL A   1      49.437  27.033  24.843  1.00  0.00     0.173 A 
ATOM     75  C   UNL A   1      50.027  26.111  26.979  1.00  0.00     0.173 A 
ATOM     76  F   UNL A   1      48.545  27.595  24.013  1.00  0.00    -0.203 F 
ATOM     77  C   UNL A   1      50.710  26.737  24.363  1.00  0.00     0.198 A 
ATOM     78  C   UNL A   1      51.309  25.840  26.506  1.00  0.00     0.198 A 
ATOM     79  F   UNL A   1      49.724  25.791  28.246  1.00  0.00    -0.203 F 
ATOM     80  F   UNL A   1      51.023  27.007  23.089  1.00  0.00    -0.200 F 
ATOM     81  C   UNL A   1      51.648  26.145  25.196  1.00  0.00     0.200 A 
ATOM     82  F   UNL A   1      52.217  25.281  27.318  1.00  0.00    -0.200 F 
ATOM     83  F   UNL A   1      52.873  25.861  24.735  1.00  0.00    -0.200 F 
ENDBRANCH  49  73
BRANCH  61  84
ATOM     84  C   UNL A   1      46.061  32.357  28.931  1.00  0.00     0.064 A 
ATOM     85  C   UNL A   1      46.010  33.422  28.020  1.00  0.00     0.173 A 
ATOM     86  C   UNL A   1      46.591  32.606  30.206  1.00  0.00     0.173 A 
ATOM     87  F   UNL A   1      45.527  33.231  26.783  1.00  0.00    -0.203 F 
ATOM     88  C   UNL A   1      46.498  34.681  28.365  1.00  0.00     0.198 A 
ATOM     89  C   UNL A   1      47.048  33.873  30.557  1.00  0.00     0.198 A 
ATOM     90  F   UNL A   1      46.654  31.621  31.116  1.00  0.00    -0.203 F 
ATOM     91  F   UNL A   1      46.485  35.671  27.462  1.00  0.00    -0.200 F 
ATOM     92  C   UNL A   1      47.009  34.906  29.634  1.00  0.00     0.200 A 
ATOM     93  F   UNL A   1      47.529  34.092  31.789  1.00  0.00    -0.200 F 
ATOM     94  F   UNL A   1      47.471  36.120  29.966  1.00  0.00    -0.200 F 
ENDBRANCH  61  84
ENDBRANCH  35  36
ENDBRANCH  27  30
ENDBRANCH  25  26
ENDBRANCH  24  25
ENDBRANCH  23  24
ENDBRANCH   1  23
TORSDOF 16
ENDMDL
