MODEL 1
REMARK VINA RESULT:     -11.7      0.000      0.000
REMARK SMILES CC(C)CN(C)c1cc2c(cc1Cl)C=C(C(=O)NCCCCCCNC(=O)c1ccc(-c3c4nc(c(-c5c(F)c(F)c(F)c(F)c5F)c5ccc([nH]5)c(-c5c(F)c(F)c(F)c(F)c5F)c5nc(c(-c6c(F)c(F)c(F)c(F)c6F)c6ccc3[nH]6)C=C5)C=C4)cc1)[C@@H](C(F)(F)F)O2
REMARK SMILES IDX 21 1 20 2 19 3 18 4 16 5 17 6 15 8 7 9 8 10 12 11 9 12 11 13
REMARK SMILES IDX 13 14 10 15 96 16 14 17 91 18 5 19 6 20 4 21 2 22 1 23 3 24
REMARK SMILES IDX 92 25 93 26 94 27 95 28 22 29 23 30 24 31 25 32 26 33 27 35
REMARK SMILES IDX 28 36 29 37 90 38 30 39 89 40 31 41 32 42 33 43 83 44 34 45
REMARK SMILES IDX 88 46 82 47 84 48 35 49 87 50 81 51 80 52 36 54 68 55 48 56
REMARK SMILES IDX 67 57 49 58 52 59 66 60 85 61 50 62 51 63 65 65 86 66 53 67
REMARK SMILES IDX 37 68 38 69 46 70 39 71 40 72 44 73 47 74 41 75 42 76 45 77
REMARK SMILES IDX 43 78 69 79 70 80 78 81 71 82 72 83 76 84 79 85 73 86 74 87
REMARK SMILES IDX 77 88 75 89 54 90 55 91 63 92 56 93 57 94 61 95 64 96 58 97
REMARK SMILES IDX 59 98 62 99 60 100
REMARK H PARENT 18 7 25 34 84 53 52 64
REMARK Flexibility Score: inf
ROOT
ATOM      1  C   UNL A   1      37.300  22.858  25.276  1.00  0.00     0.002 C 
ENDROOT
BRANCH   1   2
ATOM      2  C   UNL A   1      36.492  21.761  24.577  1.00  0.00     0.021 C 
BRANCH   2   3
ATOM      3  C   UNL A   1      35.532  21.016  25.500  1.00  0.00     0.116 C 
BRANCH   3   4
ATOM      4  N   UNL A   1      34.394  20.496  24.766  1.00  0.00    -0.352 N 
ATOM      5  C   UNL A   1      33.249  20.986  24.239  1.00  0.00     0.251 C 
ATOM      6  O   UNL A   1      32.557  20.161  23.632  1.00  0.00    -0.270 OA
ATOM      7  H   UNL A   1      34.478  19.528  24.607  1.00  0.00     0.163 HD
BRANCH   5   8
ATOM      8  C   UNL A   1      32.784  22.396  24.351  1.00  0.00     0.067 C 
ATOM      9  C   UNL A   1      31.753  27.245  23.385  1.00  0.00     0.059 A 
ATOM     10  C   UNL A   1      31.093  26.214  24.070  1.00  0.00     0.074 A 
ATOM     11  C   UNL A   1      33.032  26.964  22.853  1.00  0.00     0.065 A 
ATOM     12  C   UNL A   1      31.659  24.945  24.158  1.00  0.00     0.130 A 
ATOM     13  C   UNL A   1      33.554  25.665  22.868  1.00  0.00     0.034 A 
ATOM     14  Cl  UNL A   1      34.025  28.199  22.155  1.00  0.00    -0.082 Cl
ATOM     15  C   UNL A   1      32.852  24.646  23.500  1.00  0.00     0.019 A 
ATOM     16  O   UNL A   1      30.978  24.006  24.883  1.00  0.00    -0.475 OA
ATOM     17  C   UNL A   1      33.302  23.260  23.458  1.00  0.00     0.025 C 
ATOM     18  C   UNL A   1      31.804  22.907  25.368  1.00  0.00     0.314 C 
BRANCH   9  19
ATOM     19  N   UNL A   1      31.119  28.483  23.196  1.00  0.00    -0.373 N 
ATOM     20  C   UNL A   1      31.072  29.346  24.375  1.00  0.00     0.143 C 
BRANCH  19  21
ATOM     21  C   UNL A   1      29.906  28.461  22.348  1.00  0.00     0.119 C 
BRANCH  21  22
ATOM     22  C   UNL A   1      28.888  29.556  22.735  1.00  0.00     0.002 C 
ATOM     23  C   UNL A   1      28.710  30.604  21.632  1.00  0.00     0.009 C 
ATOM     24  C   UNL A   1      27.520  28.944  23.050  1.00  0.00     0.009 C 
ENDBRANCH  21  22
ENDBRANCH  19  21
ENDBRANCH   9  19
BRANCH  18  25
ATOM     25  C   UNL A   1      32.501  23.286  26.693  1.00  0.00     0.429 C 
ATOM     26  F   UNL A   1      32.562  22.218  27.525  1.00  0.00    -0.167 F 
ATOM     27  F   UNL A   1      33.781  23.690  26.498  1.00  0.00    -0.167 F 
ATOM     28  F   UNL A   1      31.876  24.283  27.358  1.00  0.00    -0.167 F 
ENDBRANCH  18  25
ENDBRANCH   5   8
ENDBRANCH   3   4
ENDBRANCH   2   3
ENDBRANCH   1   2
BRANCH   1  29
ATOM     29  C   UNL A   1      38.525  22.373  26.062  1.00  0.00     0.002 C 
BRANCH  29  30
ATOM     30  C   UNL A   1      39.209  21.122  25.506  1.00  0.00     0.021 C 
BRANCH  30  31
ATOM     31  C   UNL A   1      39.708  20.146  26.563  1.00  0.00     0.116 C 
BRANCH  31  32
ATOM     32  N   UNL A   1      40.783  19.299  26.073  1.00  0.00    -0.352 N 
ATOM     33  C   UNL A   1      42.107  19.607  25.878  1.00  0.00     0.251 C 
ATOM     34  H   UNL A   1      40.527  18.375  25.851  1.00  0.00     0.163 HD
ATOM     35  O   UNL A   1      42.853  18.822  25.303  1.00  0.00    -0.269 OA
BRANCH  33  36
ATOM     36  C   UNL A   1      42.622  20.913  26.340  1.00  0.00     0.039 A 
ATOM     37  C   UNL A   1      42.643  21.224  27.702  1.00  0.00     0.014 A 
ATOM     38  C   UNL A   1      43.060  21.845  25.396  1.00  0.00     0.014 A 
ATOM     39  C   UNL A   1      42.952  22.517  28.106  1.00  0.00     0.010 A 
ATOM     40  C   UNL A   1      43.451  23.120  25.813  1.00  0.00     0.010 A 
ATOM     41  C   UNL A   1      43.359  23.480  27.167  1.00  0.00    -0.014 A 
BRANCH  41  42
ATOM     42  C   UNL A   1      43.685  24.855  27.624  1.00  0.00     0.031 A 
ATOM     43  C   UNL A   1      42.589  25.831  27.959  1.00  0.00     0.074 A 
ATOM     44  C   UNL A   1      44.974  25.201  27.796  1.00  0.00     0.049 A 
ATOM     45  N   UNL A   1      42.687  27.071  28.371  1.00  0.00    -0.248 NA
ATOM     46  C   UNL A   1      41.204  25.357  27.816  1.00  0.00     0.031 C 
ATOM     47  C   UNL A   1      46.120  24.328  27.534  1.00  0.00     0.029 A 
ATOM     48  N   UNL A   1      45.540  26.361  28.259  1.00  0.00    -0.354 N 
ATOM     49  C   UNL A   1      41.383  27.524  28.527  1.00  0.00     0.074 A 
ATOM     50  C   UNL A   1      40.509  26.440  28.135  1.00  0.00     0.031 C 
ATOM     51  C   UNL A   1      47.246  24.961  27.895  1.00  0.00     0.029 A 
ATOM     52  C   UNL A   1      46.909  26.307  28.348  1.00  0.00     0.049 A 
ATOM     53  H   UNL A   1      45.015  27.157  28.503  1.00  0.00     0.167 HD
ATOM     54  C   UNL A   1      40.957  28.730  28.973  1.00  0.00     0.037 A 
ATOM     55  C   UNL A   1      47.797  27.240  28.738  1.00  0.00     0.037 A 
ATOM     56  C   UNL A   1      41.831  29.803  29.373  1.00  0.00     0.049 A 
ATOM     57  C   UNL A   1      47.296  28.593  29.156  1.00  0.00     0.074 A 
ATOM     58  C   UNL A   1      41.494  31.068  29.822  1.00  0.00     0.029 A 
ATOM     59  N   UNL A   1      43.216  29.732  29.381  1.00  0.00    -0.354 N 
ATOM     60  N   UNL A   1      46.061  29.016  29.276  1.00  0.00    -0.248 NA
ATOM     61  C   UNL A   1      48.313  29.604  29.478  1.00  0.00     0.031 C 
ATOM     62  C   UNL A   1      42.676  31.774  30.069  1.00  0.00     0.029 A 
ATOM     63  C   UNL A   1      43.748  30.935  29.818  1.00  0.00     0.049 A 
ATOM     64  H   UNL A   1      43.744  28.944  29.116  1.00  0.00     0.167 HD
ATOM     65  C   UNL A   1      46.151  30.332  29.708  1.00  0.00     0.074 A 
ATOM     66  C   UNL A   1      47.562  30.633  29.844  1.00  0.00     0.031 C 
ATOM     67  C   UNL A   1      45.154  31.213  29.961  1.00  0.00     0.037 A 
BRANCH  54  68
ATOM     68  C   UNL A   1      39.478  28.967  29.058  1.00  0.00     0.064 A 
ATOM     69  C   UNL A   1      38.792  28.868  30.278  1.00  0.00     0.173 A 
ATOM     70  C   UNL A   1      38.752  29.378  27.929  1.00  0.00     0.173 A 
ATOM     71  F   UNL A   1      39.436  28.468  31.384  1.00  0.00    -0.203 F 
ATOM     72  C   UNL A   1      37.434  29.165  30.363  1.00  0.00     0.198 A 
ATOM     73  C   UNL A   1      37.400  29.698  28.022  1.00  0.00     0.198 A 
ATOM     74  F   UNL A   1      39.362  29.493  26.740  1.00  0.00    -0.203 F 
ATOM     75  F   UNL A   1      36.794  29.039  31.534  1.00  0.00    -0.200 F 
ATOM     76  C   UNL A   1      36.742  29.590  29.239  1.00  0.00     0.200 A 
ATOM     77  F   UNL A   1      36.736  30.121  26.938  1.00  0.00    -0.200 F 
ATOM     78  F   UNL A   1      35.440  29.894  29.325  1.00  0.00    -0.200 F 
ENDBRANCH  54  68
BRANCH  55  79
ATOM     79  C   UNL A   1      49.247  26.921  28.757  1.00  0.00     0.064 A 
ATOM     80  C   UNL A   1      50.042  27.133  27.621  1.00  0.00     0.173 A 
ATOM     81  C   UNL A   1      49.872  26.414  29.906  1.00  0.00     0.173 A 
ATOM     82  F   UNL A   1      49.486  27.596  26.493  1.00  0.00    -0.203 F 
ATOM     83  C   UNL A   1      51.404  26.842  27.634  1.00  0.00     0.198 A 
ATOM     84  C   UNL A   1      51.239  26.153  29.926  1.00  0.00     0.198 A 
ATOM     85  F   UNL A   1      49.155  26.196  31.018  1.00  0.00    -0.203 F 
ATOM     86  F   UNL A   1      52.134  27.021  26.524  1.00  0.00    -0.200 F 
ATOM     87  C   UNL A   1      52.003  26.361  28.788  1.00  0.00     0.200 A 
ATOM     88  F   UNL A   1      51.817  25.702  31.048  1.00  0.00    -0.200 F 
ATOM     89  F   UNL A   1      53.316  26.092  28.801  1.00  0.00    -0.200 F 
ENDBRANCH  55  79
BRANCH  67  90
ATOM     90  C   UNL A   1      45.546  32.578  30.443  1.00  0.00     0.064 A 
ATOM     91  C   UNL A   1      45.729  33.645  29.552  1.00  0.00     0.173 A 
ATOM     92  C   UNL A   1      45.681  32.834  31.816  1.00  0.00     0.173 A 
ATOM     93  F   UNL A   1      45.625  33.445  28.229  1.00  0.00    -0.203 F 
ATOM     94  C   UNL A   1      46.052  34.916  30.017  1.00  0.00     0.198 A 
ATOM     95  C   UNL A   1      45.976  34.112  32.279  1.00  0.00     0.198 A 
ATOM     96  F   UNL A   1      45.509  31.848  32.708  1.00  0.00    -0.203 F 
ATOM     97  F   UNL A   1      46.260  35.914  29.147  1.00  0.00    -0.200 F 
ATOM     98  C   UNL A   1      46.167  35.151  31.380  1.00  0.00     0.200 A 
ATOM     99  F   UNL A   1      46.074  34.340  33.596  1.00  0.00    -0.200 F 
ATOM    100  F   UNL A   1      46.465  36.379  31.826  1.00  0.00    -0.200 F 
ENDBRANCH  67  90
ENDBRANCH  41  42
ENDBRANCH  33  36
ENDBRANCH  31  32
ENDBRANCH  30  31
ENDBRANCH  29  30
ENDBRANCH   1  29
TORSDOF 17
ENDMDL
MODEL 2
REMARK VINA RESULT:     -11.7      5.758     10.848
REMARK SMILES CC(C)CN(C)c1cc2c(cc1Cl)C=C(C(=O)NCCCCCCNC(=O)c1ccc(-c3c4nc(c(-c5c(F)c(F)c(F)c(F)c5F)c5ccc([nH]5)c(-c5c(F)c(F)c(F)c(F)c5F)c5nc(c(-c6c(F)c(F)c(F)c(F)c6F)c6ccc3[nH]6)C=C5)C=C4)cc1)[C@@H](C(F)(F)F)O2
REMARK SMILES IDX 21 1 20 2 19 3 18 4 16 5 17 6 15 8 7 9 8 10 12 11 9 12 11 13
REMARK SMILES IDX 13 14 10 15 96 16 14 17 91 18 5 19 6 20 4 21 2 22 1 23 3 24
REMARK SMILES IDX 92 25 93 26 94 27 95 28 22 29 23 30 24 31 25 32 26 33 27 35
REMARK SMILES IDX 28 36 29 37 90 38 30 39 89 40 31 41 32 42 33 43 83 44 34 45
REMARK SMILES IDX 88 46 82 47 84 48 35 49 87 50 81 51 80 52 36 54 68 55 48 56
REMARK SMILES IDX 67 57 49 58 52 59 66 60 85 61 50 62 51 63 65 65 86 66 53 67
REMARK SMILES IDX 37 68 38 69 46 70 39 71 40 72 44 73 47 74 41 75 42 76 45 77
REMARK SMILES IDX 43 78 69 79 70 80 78 81 71 82 72 83 76 84 79 85 73 86 74 87
REMARK SMILES IDX 77 88 75 89 54 90 55 91 63 92 56 93 57 94 61 95 64 96 58 97
REMARK SMILES IDX 59 98 62 99 60 100
REMARK H PARENT 18 7 25 34 84 53 52 64
REMARK Flexibility Score: inf
ROOT
ATOM      1  C   UNL A   1      34.945  32.498  27.767  1.00  0.00     0.002 C 
ENDROOT
BRANCH   1   2
ATOM      2  C   UNL A   1      35.557  31.110  27.977  1.00  0.00     0.021 C 
BRANCH   2   3
ATOM      3  C   UNL A   1      34.574  29.962  27.765  1.00  0.00     0.116 C 
BRANCH   3   4
ATOM      4  N   UNL A   1      33.529  30.331  26.830  1.00  0.00    -0.352 N 
ATOM      5  C   UNL A   1      32.625  29.692  26.053  1.00  0.00     0.251 C 
ATOM      6  O   UNL A   1      31.864  30.431  25.419  1.00  0.00    -0.270 OA
ATOM      7  H   UNL A   1      33.456  31.309  26.737  1.00  0.00     0.163 HD
BRANCH   5   8
ATOM      8  C   UNL A   1      32.505  28.215  25.910  1.00  0.00     0.067 C 
ATOM      9  C   UNL A   1      33.482  23.260  25.856  1.00  0.00     0.059 A 
ATOM     10  C   UNL A   1      32.369  24.042  26.202  1.00  0.00     0.074 A 
ATOM     11  C   UNL A   1      34.619  23.927  25.347  1.00  0.00     0.065 A 
ATOM     12  C   UNL A   1      32.421  25.430  26.105  1.00  0.00     0.130 A 
ATOM     13  C   UNL A   1      34.695  25.325  25.336  1.00  0.00     0.034 A 
ATOM     14  Cl  UNL A   1      35.978  23.064  24.710  1.00  0.00    -0.082 Cl
ATOM     15  C   UNL A   1      33.601  26.080  25.742  1.00  0.00     0.019 A 
ATOM     16  O   UNL A   1      31.281  26.120  26.414  1.00  0.00    -0.475 OA
ATOM     17  C   UNL A   1      33.663  27.533  25.846  1.00  0.00     0.025 C 
ATOM     18  C   UNL A   1      31.211  27.455  25.832  1.00  0.00     0.314 C 
BRANCH   9  19
ATOM     19  N   UNL A   1      33.462  21.873  26.074  1.00  0.00    -0.373 N 
ATOM     20  C   UNL A   1      34.026  21.435  27.349  1.00  0.00     0.143 C 
BRANCH  19  21
ATOM     21  C   UNL A   1      33.770  21.033  24.895  1.00  0.00     0.119 C 
BRANCH  21  22
ATOM     22  C   UNL A   1      32.501  20.513  24.186  1.00  0.00     0.002 C 
ATOM     23  C   UNL A   1      32.154  21.326  22.936  1.00  0.00     0.009 C 
ATOM     24  C   UNL A   1      32.664  19.044  23.782  1.00  0.00     0.009 C 
ENDBRANCH  21  22
ENDBRANCH  19  21
ENDBRANCH   9  19
BRANCH  18  25
ATOM     25  C   UNL A   1      30.670  27.397  24.387  1.00  0.00     0.429 C 
ATOM     26  F   UNL A   1      29.904  28.483  24.118  1.00  0.00    -0.167 F 
ATOM     27  F   UNL A   1      31.667  27.396  23.468  1.00  0.00    -0.167 F 
ATOM     28  F   UNL A   1      29.918  26.301  24.144  1.00  0.00    -0.167 F 
ENDBRANCH  18  25
ENDBRANCH   5   8
ENDBRANCH   3   4
ENDBRANCH   2   3
ENDBRANCH   1   2
BRANCH   1  29
ATOM     29  C   UNL A   1      34.381  33.166  29.027  1.00  0.00     0.002 C 
BRANCH  29  30
ATOM     30  C   UNL A   1      33.283  34.205  28.785  1.00  0.00     0.021 C 
BRANCH  30  31
ATOM     31  C   UNL A   1      33.582  35.588  29.347  1.00  0.00     0.116 C 
BRANCH  31  32
ATOM     32  N   UNL A   1      32.629  35.989  30.369  1.00  0.00    -0.352 N 
ATOM     33  C   UNL A   1      32.632  35.705  31.713  1.00  0.00     0.251 C 
ATOM     34  H   UNL A   1      31.878  36.542  30.056  1.00  0.00     0.163 HD
ATOM     35  O   UNL A   1      31.664  35.984  32.412  1.00  0.00    -0.269 OA
BRANCH  33  36
ATOM     36  C   UNL A   1      33.802  35.026  32.307  1.00  0.00     0.039 A 
ATOM     37  C   UNL A   1      35.041  35.669  32.359  1.00  0.00     0.014 A 
ATOM     38  C   UNL A   1      33.661  33.723  32.790  1.00  0.00     0.014 A 
ATOM     39  C   UNL A   1      36.169  34.954  32.746  1.00  0.00     0.010 A 
ATOM     40  C   UNL A   1      34.784  33.034  33.258  1.00  0.00     0.010 A 
ATOM     41  C   UNL A   1      36.053  33.630  33.200  1.00  0.00    -0.014 A 
BRANCH  41  42
ATOM     42  C   UNL A   1      37.273  32.888  33.609  1.00  0.00     0.031 A 
ATOM     43  C   UNL A   1      37.897  31.872  32.690  1.00  0.00     0.074 A 
ATOM     44  C   UNL A   1      37.853  33.179  34.789  1.00  0.00     0.049 A 
ATOM     45  N   UNL A   1      38.960  31.131  32.881  1.00  0.00    -0.248 NA
ATOM     46  C   UNL A   1      37.249  31.662  31.387  1.00  0.00     0.031 C 
ATOM     47  C   UNL A   1      37.356  34.167  35.747  1.00  0.00     0.029 A 
ATOM     48  N   UNL A   1      38.998  32.699  35.370  1.00  0.00    -0.354 N 
ATOM     49  C   UNL A   1      39.101  30.363  31.732  1.00  0.00     0.074 A 
ATOM     50  C   UNL A   1      37.998  30.703  30.859  1.00  0.00     0.031 C 
ATOM     51  C   UNL A   1      38.221  34.263  36.768  1.00  0.00     0.029 A 
ATOM     52  C   UNL A   1      39.296  33.296  36.571  1.00  0.00     0.049 A 
ATOM     53  H   UNL A   1      39.554  31.994  34.967  1.00  0.00     0.167 HD
ATOM     54  C   UNL A   1      40.072  29.470  31.428  1.00  0.00     0.037 A 
ATOM     55  C   UNL A   1      40.312  33.080  37.425  1.00  0.00     0.037 A 
ATOM     56  C   UNL A   1      41.176  29.144  32.295  1.00  0.00     0.049 A 
ATOM     57  C   UNL A   1      41.333  32.028  37.093  1.00  0.00     0.074 A 
ATOM     58  C   UNL A   1      42.201  28.238  32.083  1.00  0.00     0.029 A 
ATOM     59  N   UNL A   1      41.402  29.720  33.536  1.00  0.00    -0.354 N 
ATOM     60  N   UNL A   1      41.441  31.293  36.014  1.00  0.00    -0.248 NA
ATOM     61  C   UNL A   1      42.365  31.766  38.106  1.00  0.00     0.031 C 
ATOM     62  C   UNL A   1      43.028  28.241  33.210  1.00  0.00     0.029 A 
ATOM     63  C   UNL A   1      42.545  29.181  34.105  1.00  0.00     0.049 A 
ATOM     64  H   UNL A   1      40.835  30.410  33.952  1.00  0.00     0.167 HD
ATOM     65  C   UNL A   1      42.561  30.498  36.207  1.00  0.00     0.074 A 
ATOM     66  C   UNL A   1      43.110  30.853  37.500  1.00  0.00     0.031 C 
ATOM     67  C   UNL A   1      43.084  29.555  35.387  1.00  0.00     0.037 A 
BRANCH  54  68
ATOM     68  C   UNL A   1      39.999  28.774  30.101  1.00  0.00     0.064 A 
ATOM     69  C   UNL A   1      40.589  29.325  28.954  1.00  0.00     0.173 A 
ATOM     70  C   UNL A   1      39.406  27.506  29.990  1.00  0.00     0.173 A 
ATOM     71  F   UNL A   1      41.158  30.538  29.004  1.00  0.00    -0.203 F 
ATOM     72  C   UNL A   1      40.584  28.636  27.743  1.00  0.00     0.198 A 
ATOM     73  C   UNL A   1      39.424  26.809  28.784  1.00  0.00     0.198 A 
ATOM     74  F   UNL A   1      38.833  26.933  31.058  1.00  0.00    -0.203 F 
ATOM     75  F   UNL A   1      41.131  29.192  26.654  1.00  0.00    -0.200 F 
ATOM     76  C   UNL A   1      40.011  27.375  27.661  1.00  0.00     0.200 A 
ATOM     77  F   UNL A   1      38.882  25.586  28.710  1.00  0.00    -0.200 F 
ATOM     78  F   UNL A   1      40.022  26.705  26.501  1.00  0.00    -0.200 F 
ENDBRANCH  54  68
BRANCH  55  79
ATOM     79  C   UNL A   1      40.416  33.881  38.672  1.00  0.00     0.064 A 
ATOM     80  C   UNL A   1      41.175  35.059  38.704  1.00  0.00     0.173 A 
ATOM     81  C   UNL A   1      39.751  33.500  39.846  1.00  0.00     0.173 A 
ATOM     82  F   UNL A   1      41.845  35.454  37.612  1.00  0.00    -0.203 F 
ATOM     83  C   UNL A   1      41.272  35.820  39.867  1.00  0.00     0.198 A 
ATOM     84  C   UNL A   1      39.825  34.277  40.999  1.00  0.00     0.198 A 
ATOM     85  F   UNL A   1      39.011  32.383  39.866  1.00  0.00    -0.203 F 
ATOM     86  F   UNL A   1      42.034  36.922  39.881  1.00  0.00    -0.200 F 
ATOM     87  C   UNL A   1      40.591  35.433  41.011  1.00  0.00     0.200 A 
ATOM     88  F   UNL A   1      39.152  33.908  42.097  1.00  0.00    -0.200 F 
ATOM     89  F   UNL A   1      40.676  36.171  42.126  1.00  0.00    -0.200 F 
ENDBRANCH  55  79
BRANCH  67  90
ATOM     90  C   UNL A   1      44.331  28.857  35.846  1.00  0.00     0.064 A 
ATOM     91  C   UNL A   1      45.603  29.395  35.604  1.00  0.00     0.173 A 
ATOM     92  C   UNL A   1      44.247  27.670  36.587  1.00  0.00     0.173 A 
ATOM     93  F   UNL A   1      45.733  30.522  34.887  1.00  0.00    -0.203 F 
ATOM     94  C   UNL A   1      46.748  28.759  36.072  1.00  0.00     0.198 A 
ATOM     95  C   UNL A   1      45.392  27.051  37.078  1.00  0.00     0.198 A 
ATOM     96  F   UNL A   1      43.053  27.119  36.851  1.00  0.00    -0.203 F 
ATOM     97  F   UNL A   1      47.956  29.269  35.797  1.00  0.00    -0.200 F 
ATOM     98  C   UNL A   1      46.642  27.592  36.816  1.00  0.00     0.200 A 
ATOM     99  F   UNL A   1      45.287  25.931  37.807  1.00  0.00    -0.200 F 
ATOM    100  F   UNL A   1      47.745  26.987  37.277  1.00  0.00    -0.200 F 
ENDBRANCH  67  90
ENDBRANCH  41  42
ENDBRANCH  33  36
ENDBRANCH  31  32
ENDBRANCH  30  31
ENDBRANCH  29  30
ENDBRANCH   1  29
TORSDOF 17
ENDMDL
MODEL 3
REMARK VINA RESULT:     -11.6      0.371      1.575
REMARK SMILES CC(C)CN(C)c1cc2c(cc1Cl)C=C(C(=O)NCCCCCCNC(=O)c1ccc(-c3c4nc(c(-c5c(F)c(F)c(F)c(F)c5F)c5ccc([nH]5)c(-c5c(F)c(F)c(F)c(F)c5F)c5nc(c(-c6c(F)c(F)c(F)c(F)c6F)c6ccc3[nH]6)C=C5)C=C4)cc1)[C@@H](C(F)(F)F)O2
REMARK SMILES IDX 21 1 20 2 19 3 18 4 16 5 17 6 15 8 7 9 8 10 12 11 9 12 11 13
REMARK SMILES IDX 13 14 10 15 96 16 14 17 91 18 5 19 6 20 4 21 2 22 1 23 3 24
REMARK SMILES IDX 92 25 93 26 94 27 95 28 22 29 23 30 24 31 25 32 26 33 27 35
REMARK SMILES IDX 28 36 29 37 90 38 30 39 89 40 31 41 32 42 33 43 83 44 34 45
REMARK SMILES IDX 88 46 82 47 84 48 35 49 87 50 81 51 80 52 36 54 68 55 48 56
REMARK SMILES IDX 67 57 49 58 52 59 66 60 85 61 50 62 51 63 65 65 86 66 53 67
REMARK SMILES IDX 37 68 38 69 46 70 39 71 40 72 44 73 47 74 41 75 42 76 45 77
REMARK SMILES IDX 43 78 69 79 70 80 78 81 71 82 72 83 76 84 79 85 73 86 74 87
REMARK SMILES IDX 77 88 75 89 54 90 55 91 63 92 56 93 57 94 61 95 64 96 58 97
REMARK SMILES IDX 59 98 62 99 60 100
REMARK H PARENT 18 7 25 34 84 53 52 64
REMARK Flexibility Score: inf
ROOT
ATOM      1  C   UNL A   1      37.333  22.813  24.988  1.00  0.00     0.002 C 
ENDROOT
BRANCH   1   2
ATOM      2  C   UNL A   1      36.482  21.700  24.370  1.00  0.00     0.021 C 
BRANCH   2   3
ATOM      3  C   UNL A   1      35.476  21.080  25.335  1.00  0.00     0.116 C 
BRANCH   3   4
ATOM      4  N   UNL A   1      34.312  20.578  24.631  1.00  0.00    -0.352 N 
ATOM      5  C   UNL A   1      33.156  21.082  24.145  1.00  0.00     0.251 C 
ATOM      6  O   UNL A   1      32.438  20.270  23.551  1.00  0.00    -0.270 OA
ATOM      7  H   UNL A   1      34.383  19.611  24.460  1.00  0.00     0.163 HD
BRANCH   5   8
ATOM      8  C   UNL A   1      32.706  22.495  24.286  1.00  0.00     0.067 C 
ATOM      9  C   UNL A   1      31.742  27.378  23.427  1.00  0.00     0.059 A 
ATOM     10  C   UNL A   1      31.063  26.338  24.081  1.00  0.00     0.074 A 
ATOM     11  C   UNL A   1      33.023  27.094  22.902  1.00  0.00     0.065 A 
ATOM     12  C   UNL A   1      31.613  25.061  24.144  1.00  0.00     0.130 A 
ATOM     13  C   UNL A   1      33.530  25.789  22.891  1.00  0.00     0.034 A 
ATOM     14  Cl  UNL A   1      34.037  28.334  22.243  1.00  0.00    -0.082 Cl
ATOM     15  C   UNL A   1      32.810  24.764  23.491  1.00  0.00     0.019 A 
ATOM     16  O   UNL A   1      30.914  24.114  24.839  1.00  0.00    -0.475 OA
ATOM     17  C   UNL A   1      33.244  23.374  23.419  1.00  0.00     0.025 C 
ATOM     18  C   UNL A   1      31.722  22.993  25.306  1.00  0.00     0.314 C 
BRANCH   9  19
ATOM     19  N   UNL A   1      31.125  28.627  23.262  1.00  0.00    -0.373 N 
ATOM     20  C   UNL A   1      31.072  29.461  24.461  1.00  0.00     0.143 C 
BRANCH  19  21
ATOM     21  C   UNL A   1      29.922  28.641  22.399  1.00  0.00     0.119 C 
BRANCH  21  22
ATOM     22  C   UNL A   1      28.860  29.656  22.872  1.00  0.00     0.002 C 
ATOM     23  C   UNL A   1      28.712  30.840  21.911  1.00  0.00     0.009 C 
ATOM     24  C   UNL A   1      27.492  28.984  23.029  1.00  0.00     0.009 C 
ENDBRANCH  21  22
ENDBRANCH  19  21
ENDBRANCH   9  19
BRANCH  18  25
ATOM     25  C   UNL A   1      32.410  23.332  26.646  1.00  0.00     0.429 C 
ATOM     26  F   UNL A   1      32.412  22.254  27.469  1.00  0.00    -0.167 F 
ATOM     27  F   UNL A   1      33.708  23.686  26.477  1.00  0.00    -0.167 F 
ATOM     28  F   UNL A   1      31.814  24.347  27.309  1.00  0.00    -0.167 F 
ENDBRANCH  18  25
ENDBRANCH   5   8
ENDBRANCH   3   4
ENDBRANCH   2   3
ENDBRANCH   1   2
BRANCH   1  29
ATOM     29  C   UNL A   1      38.476  22.340  25.895  1.00  0.00     0.002 C 
BRANCH  29  30
ATOM     30  C   UNL A   1      39.188  21.063  25.443  1.00  0.00     0.021 C 
BRANCH  30  31
ATOM     31  C   UNL A   1      39.754  20.216  26.575  1.00  0.00     0.116 C 
BRANCH  31  32
ATOM     32  N   UNL A   1      40.811  19.325  26.125  1.00  0.00    -0.352 N 
ATOM     33  C   UNL A   1      42.143  19.594  25.924  1.00  0.00     0.251 C 
ATOM     34  H   UNL A   1      40.535  18.399  25.939  1.00  0.00     0.163 HD
ATOM     35  O   UNL A   1      42.873  18.769  25.385  1.00  0.00    -0.269 OA
BRANCH  33  36
ATOM     36  C   UNL A   1      42.687  20.905  26.336  1.00  0.00     0.039 A 
ATOM     37  C   UNL A   1      42.735  21.258  27.686  1.00  0.00     0.014 A 
ATOM     38  C   UNL A   1      43.124  21.799  25.356  1.00  0.00     0.014 A 
ATOM     39  C   UNL A   1      43.072  22.559  28.044  1.00  0.00     0.010 A 
ATOM     40  C   UNL A   1      43.543  23.080  25.725  1.00  0.00     0.010 A 
ATOM     41  C   UNL A   1      43.479  23.484  27.068  1.00  0.00    -0.014 A 
BRANCH  41  42
ATOM     42  C   UNL A   1      43.834  24.867  27.476  1.00  0.00     0.031 A 
ATOM     43  C   UNL A   1      42.762  25.860  27.836  1.00  0.00     0.074 A 
ATOM     44  C   UNL A   1      45.132  25.207  27.579  1.00  0.00     0.049 A 
ATOM     45  N   UNL A   1      42.887  27.108  28.213  1.00  0.00    -0.248 NA
ATOM     46  C   UNL A   1      41.368  25.392  27.770  1.00  0.00     0.031 C 
ATOM     47  C   UNL A   1      46.259  24.320  27.286  1.00  0.00     0.029 A 
ATOM     48  N   UNL A   1      45.727  26.374  27.986  1.00  0.00    -0.354 N 
ATOM     49  C   UNL A   1      41.594  27.575  28.418  1.00  0.00     0.074 A 
ATOM     50  C   UNL A   1      40.696  26.488  28.094  1.00  0.00     0.031 C 
ATOM     51  C   UNL A   1      47.405  24.952  27.579  1.00  0.00     0.029 A 
ATOM     52  C   UNL A   1      47.098  26.311  28.013  1.00  0.00     0.049 A 
ATOM     53  H   UNL A   1      45.219  27.180  28.235  1.00  0.00     0.167 HD
ATOM     54  C   UNL A   1      41.198  28.795  28.853  1.00  0.00     0.037 A 
ATOM     55  C   UNL A   1      48.009  27.247  28.338  1.00  0.00     0.037 A 
ATOM     56  C   UNL A   1      42.097  29.870  29.186  1.00  0.00     0.049 A 
ATOM     57  C   UNL A   1      47.537  28.614  28.746  1.00  0.00     0.074 A 
ATOM     58  C   UNL A   1      41.789  31.148  29.619  1.00  0.00     0.029 A 
ATOM     59  N   UNL A   1      43.480  29.788  29.132  1.00  0.00    -0.354 N 
ATOM     60  N   UNL A   1      46.312  29.049  28.913  1.00  0.00    -0.248 NA
ATOM     61  C   UNL A   1      48.574  29.624  28.996  1.00  0.00     0.031 C 
ATOM     62  C   UNL A   1      42.985  31.852  29.793  1.00  0.00     0.029 A 
ATOM     63  C   UNL A   1      44.039  30.998  29.514  1.00  0.00     0.049 A 
ATOM     64  H   UNL A   1      43.990  28.990  28.862  1.00  0.00     0.167 HD
ATOM     65  C   UNL A   1      46.431  30.374  29.307  1.00  0.00     0.074 A 
ATOM     66  C   UNL A   1      47.848  30.667  29.371  1.00  0.00     0.031 C 
ATOM     67  C   UNL A   1      45.452  31.269  29.584  1.00  0.00     0.037 A 
BRANCH  54  68
ATOM     68  C   UNL A   1      39.726  29.045  29.001  1.00  0.00     0.064 A 
ATOM     69  C   UNL A   1      38.926  29.375  27.897  1.00  0.00     0.173 A 
ATOM     70  C   UNL A   1      39.092  28.872  30.242  1.00  0.00     0.173 A 
ATOM     71  F   UNL A   1      39.484  29.563  26.692  1.00  0.00    -0.203 F 
ATOM     72  C   UNL A   1      37.548  29.529  28.030  1.00  0.00     0.198 A 
ATOM     73  C   UNL A   1      37.711  29.002  30.367  1.00  0.00     0.198 A 
ATOM     74  F   UNL A   1      39.810  28.551  31.328  1.00  0.00    -0.203 F 
ATOM     75  F   UNL A   1      36.808  29.869  26.966  1.00  0.00    -0.200 F 
ATOM     76  C   UNL A   1      36.940  29.333  29.261  1.00  0.00     0.200 A 
ATOM     77  F   UNL A   1      37.124  28.799  31.554  1.00  0.00    -0.200 F 
ATOM     78  F   UNL A   1      35.613  29.462  29.384  1.00  0.00    -0.200 F 
ENDBRANCH  54  68
BRANCH  55  79
ATOM     79  C   UNL A   1      49.457  26.917  28.298  1.00  0.00     0.064 A 
ATOM     80  C   UNL A   1      50.126  26.492  29.454  1.00  0.00     0.173 A 
ATOM     81  C   UNL A   1      50.196  27.004  27.110  1.00  0.00     0.173 A 
ATOM     82  F   UNL A   1      49.467  26.412  30.618  1.00  0.00    -0.203 F 
ATOM     83  C   UNL A   1      51.483  26.175  29.423  1.00  0.00     0.198 A 
ATOM     84  C   UNL A   1      51.544  26.658  27.074  1.00  0.00     0.198 A 
ATOM     85  F   UNL A   1      49.601  27.404  25.977  1.00  0.00    -0.203 F 
ATOM     86  F   UNL A   1      52.107  25.805  30.550  1.00  0.00    -0.200 F 
ATOM     87  C   UNL A   1      52.188  26.250  28.232  1.00  0.00     0.200 A 
ATOM     88  F   UNL A   1      52.218  26.717  25.917  1.00  0.00    -0.200 F 
ATOM     89  F   UNL A   1      53.490  25.934  28.201  1.00  0.00    -0.200 F 
ENDBRANCH  55  79
BRANCH  67  90
ATOM     90  C   UNL A   1      45.875  32.642  30.014  1.00  0.00     0.064 A 
ATOM     91  C   UNL A   1      46.046  33.679  29.086  1.00  0.00     0.173 A 
ATOM     92  C   UNL A   1      46.052  32.937  31.374  1.00  0.00     0.173 A 
ATOM     93  F   UNL A   1      45.902  33.441  27.774  1.00  0.00    -0.203 F 
ATOM     94  C   UNL A   1      46.398  34.959  29.504  1.00  0.00     0.198 A 
ATOM     95  C   UNL A   1      46.377  34.224  31.790  1.00  0.00     0.198 A 
ATOM     96  F   UNL A   1      45.892  31.980  32.300  1.00  0.00    -0.203 F 
ATOM     97  F   UNL A   1      46.594  35.927  28.598  1.00  0.00    -0.200 F 
ATOM     98  C   UNL A   1      46.555  35.233  30.855  1.00  0.00     0.200 A 
ATOM     99  F   UNL A   1      46.514  34.490  33.096  1.00  0.00    -0.200 F 
ATOM    100  F   UNL A   1      46.881  36.469  31.256  1.00  0.00    -0.200 F 
ENDBRANCH  67  90
ENDBRANCH  41  42
ENDBRANCH  33  36
ENDBRANCH  31  32
ENDBRANCH  30  31
ENDBRANCH  29  30
ENDBRANCH   1  29
TORSDOF 17
ENDMDL
