MODEL 1
REMARK VINA RESULT:     -12.3      0.000      0.000
REMARK SMILES Cc1c(C[NH2+]C2CCCCC2)c(C(=O)NCCCCCCNC(=O)c2ccc(-c3c4nc(c(-c5c(F)c(F)c(F)c(F)c5F)c5ccc([nH]5)c(-c5c(F)c(F)c(F)c(F)c5F)c5nc(c(-c6c(F)c(F)c(F)c(F)c6F)c6ccc3[nH]6)C=C5)C=C4)cc2)c(C)n1Cc1ccccc1
REMARK SMILES IDX 18 1 17 2 16 3 15 4 13 5 14 6 12 8 1 9 2 10 3 11 90 12 88 13
REMARK SMILES IDX 89 14 4 15 5 16 6 19 7 20 11 21 8 22 10 23 9 24 91 25 92 26
REMARK SMILES IDX 93 27 97 28 94 29 96 30 95 31 19 32 20 33 21 34 22 35 23 36
REMARK SMILES IDX 24 38 25 39 26 40 87 41 27 42 86 43 28 44 29 45 30 46 80 47
REMARK SMILES IDX 31 48 85 49 79 50 81 51 32 52 84 53 78 54 77 55 33 57 65 58
REMARK SMILES IDX 45 59 64 60 46 61 49 62 63 63 82 64 47 65 48 66 62 68 83 69
REMARK SMILES IDX 50 70 34 71 35 72 43 73 36 74 37 75 41 76 44 77 38 78 39 79
REMARK SMILES IDX 42 80 40 81 66 82 67 83 75 84 68 85 69 86 73 87 76 88 70 89
REMARK SMILES IDX 71 90 74 91 72 92 51 93 52 94 60 95 53 96 54 97 58 98 61 99
REMARK SMILES IDX 55 100 56 101 59 102 57 103
REMARK H PARENT 15 7 5 17 5 18 22 37 81 56 49 67
REMARK Flexibility Score: inf
ROOT
ATOM      1  C   UNL A   1      31.436  27.264  27.084  1.00  0.00     0.002 C 
ENDROOT
BRANCH   1   2
ATOM      2  C   UNL A   1      30.689  26.565  25.951  1.00  0.00     0.021 C 
BRANCH   2   3
ATOM      3  C   UNL A   1      30.084  25.201  26.248  1.00  0.00     0.116 C 
BRANCH   3   4
ATOM      4  N   UNL A   1      30.924  24.290  26.991  1.00  0.00    -0.352 N 
ATOM      5  C   UNL A   1      32.068  23.638  26.600  1.00  0.00     0.253 C 
ATOM      6  O   UNL A   1      32.537  22.839  27.446  1.00  0.00    -0.269 OA
ATOM      7  H   UNL A   1      30.633  24.108  27.914  1.00  0.00     0.163 HD
BRANCH   5   8
ATOM      8  C   UNL A   1      32.635  23.767  25.246  1.00  0.00     0.069 A 
ATOM      9  C   UNL A   1      33.270  22.805  21.664  1.00  0.00     0.065 C 
ATOM     10  C   UNL A   1      33.063  23.368  23.030  1.00  0.00     0.025 A 
ATOM     11  C   UNL A   1      32.610  22.757  24.201  1.00  0.00     0.040 A 
ATOM     12  N   UNL A   1      33.324  24.694  23.338  1.00  0.00    -0.343 N 
ATOM     13  C   UNL A   1      33.458  24.772  24.716  1.00  0.00     0.028 A 
ATOM     14  C   UNL A   1      34.366  25.756  25.374  1.00  0.00     0.065 C 
BRANCH  11  15
ATOM     15  C   UNL A   1      32.153  21.319  24.351  1.00  0.00     0.300 C 
BRANCH  15  16
ATOM     16  N   UNL A   1      33.144  20.565  25.126  1.00  0.00    -0.340 N 
ATOM     17  H   UNL A   1      32.915  20.652  26.116  1.00  0.00     0.346 HD
ATOM     18  H   UNL A   1      34.059  20.956  24.907  1.00  0.00     0.346 HD
BRANCH  16  19
ATOM     19  C   UNL A   1      33.187  19.137  24.781  1.00  0.00     0.182 C 
ATOM     20  C   UNL A   1      32.457  18.848  23.457  1.00  0.00     0.065 C 
ATOM     21  C   UNL A   1      34.657  18.682  24.684  1.00  0.00     0.065 C 
ATOM     22  C   UNL A   1      32.589  17.385  23.033  1.00  0.00     0.006 C 
ATOM     23  C   UNL A   1      34.782  17.218  24.252  1.00  0.00     0.006 C 
ATOM     24  C   UNL A   1      34.048  16.953  22.942  1.00  0.00     0.000 C 
ENDBRANCH  16  19
ENDBRANCH  15  16
ENDBRANCH  11  15
BRANCH  12  25
ATOM     25  C   UNL A   1      33.654  25.759  22.376  1.00  0.00     0.157 C 
BRANCH  25  26
ATOM     26  C   UNL A   1      32.772  26.998  22.444  1.00  0.00    -0.028 A 
ATOM     27  C   UNL A   1      33.298  28.216  22.910  1.00  0.00     0.005 A 
ATOM     28  C   UNL A   1      31.392  26.953  22.185  1.00  0.00     0.005 A 
ATOM     29  C   UNL A   1      32.476  29.334  23.108  1.00  0.00     0.000 A 
ATOM     30  C   UNL A   1      30.570  28.068  22.378  1.00  0.00     0.000 A 
ATOM     31  C   UNL A   1      31.112  29.260  22.845  1.00  0.00     0.000 A 
ENDBRANCH  25  26
ENDBRANCH  12  25
ENDBRANCH   5   8
ENDBRANCH   3   4
ENDBRANCH   2   3
ENDBRANCH   1   2
BRANCH   1  32
ATOM     32  C   UNL A   1      32.195  28.562  26.765  1.00  0.00     0.002 C 
BRANCH  32  33
ATOM     33  C   UNL A   1      33.607  28.794  27.347  1.00  0.00     0.021 C 
BRANCH  33  34
ATOM     34  C   UNL A   1      34.369  30.101  27.032  1.00  0.00     0.116 C 
BRANCH  34  35
ATOM     35  N   UNL A   1      34.004  31.250  27.834  1.00  0.00    -0.352 N 
ATOM     36  C   UNL A   1      34.717  31.852  28.861  1.00  0.00     0.251 C 
ATOM     37  H   UNL A   1      33.133  31.658  27.623  1.00  0.00     0.163 HD
ATOM     38  O   UNL A   1      34.287  32.908  29.326  1.00  0.00    -0.269 OA
BRANCH  36  39
ATOM     39  C   UNL A   1      35.945  31.233  29.491  1.00  0.00     0.039 A 
ATOM     40  C   UNL A   1      37.168  31.404  28.855  1.00  0.00     0.014 A 
ATOM     41  C   UNL A   1      35.902  30.245  30.493  1.00  0.00     0.014 A 
ATOM     42  C   UNL A   1      38.316  30.646  29.247  1.00  0.00     0.010 A 
ATOM     43  C   UNL A   1      37.059  29.424  30.839  1.00  0.00     0.010 A 
ATOM     44  C   UNL A   1      38.316  29.580  30.215  1.00  0.00    -0.014 A 
BRANCH  44  45
ATOM     45  C   UNL A   1      39.411  28.425  29.983  1.00  0.00     0.031 A 
ATOM     46  C   UNL A   1      40.216  28.511  31.238  1.00  0.00     0.074 A 
ATOM     47  C   UNL A   1      39.889  27.500  29.052  1.00  0.00     0.049 A 
ATOM     48  N   UNL A   1      40.780  29.637  31.585  1.00  0.00    -0.248 NA
ATOM     49  C   UNL A   1      40.091  27.529  32.315  1.00  0.00     0.031 C 
ATOM     50  C   UNL A   1      39.441  27.292  27.665  1.00  0.00     0.029 A 
ATOM     51  N   UNL A   1      40.909  26.489  29.124  1.00  0.00    -0.354 N 
ATOM     52  C   UNL A   1      41.363  29.401  32.804  1.00  0.00     0.074 A 
ATOM     53  C   UNL A   1      40.690  28.209  33.300  1.00  0.00     0.031 C 
ATOM     54  C   UNL A   1      40.036  26.201  27.093  1.00  0.00     0.029 A 
ATOM     55  C   UNL A   1      41.003  25.583  28.001  1.00  0.00     0.049 A 
ATOM     56  H   UNL A   1      41.513  26.417  29.898  1.00  0.00     0.167 HD
ATOM     57  C   UNL A   1      42.691  29.703  32.877  1.00  0.00     0.037 A 
ATOM     58  C   UNL A   1      41.824  24.478  27.768  1.00  0.00     0.037 A 
ATOM     59  C   UNL A   1      43.521  28.534  32.776  1.00  0.00     0.049 A 
ATOM     60  C   UNL A   1      43.015  24.635  28.610  1.00  0.00     0.074 A 
ATOM     61  C   UNL A   1      43.439  27.264  33.312  1.00  0.00     0.029 A 
ATOM     62  N   UNL A   1      44.338  28.440  31.671  1.00  0.00    -0.354 N 
ATOM     63  N   UNL A   1      43.980  25.434  28.276  1.00  0.00    -0.248 NA
ATOM     64  C   UNL A   1      43.264  23.807  29.786  1.00  0.00     0.031 C 
ATOM     65  C   UNL A   1      43.726  26.408  32.228  1.00  0.00     0.029 A 
ATOM     66  C   UNL A   1      44.337  27.142  31.220  1.00  0.00     0.049 A 
ATOM     67  H   UNL A   1      44.843  29.184  31.270  1.00  0.00     0.167 HD
ATOM     68  C   UNL A   1      44.652  25.596  29.441  1.00  0.00     0.074 A 
ATOM     69  C   UNL A   1      44.384  24.397  30.210  1.00  0.00     0.031 C 
ATOM     70  C   UNL A   1      44.749  26.878  29.865  1.00  0.00     0.037 A 
BRANCH  57  71
ATOM     71  C   UNL A   1      43.058  31.031  32.280  1.00  0.00     0.064 A 
ATOM     72  C   UNL A   1      43.437  32.074  33.128  1.00  0.00     0.173 A 
ATOM     73  C   UNL A   1      42.963  31.317  30.901  1.00  0.00     0.173 A 
ATOM     74  F   UNL A   1      43.627  31.842  34.436  1.00  0.00    -0.203 F 
ATOM     75  C   UNL A   1      43.646  33.360  32.631  1.00  0.00     0.198 A 
ATOM     76  C   UNL A   1      43.101  32.612  30.419  1.00  0.00     0.198 A 
ATOM     77  F   UNL A   1      42.781  30.334  30.005  1.00  0.00    -0.203 F 
ATOM     78  F   UNL A   1      44.052  34.337  33.454  1.00  0.00    -0.200 F 
ATOM     79  C   UNL A   1      43.439  33.636  31.286  1.00  0.00     0.200 A 
ATOM     80  F   UNL A   1      42.926  32.860  29.113  1.00  0.00    -0.200 F 
ATOM     81  F   UNL A   1      43.602  34.881  30.817  1.00  0.00    -0.200 F 
ENDBRANCH  57  71
BRANCH  58  82
ATOM     82  C   UNL A   1      42.057  23.246  26.849  1.00  0.00     0.064 A 
ATOM     83  C   UNL A   1      43.022  23.289  25.780  1.00  0.00     0.173 A 
ATOM     84  C   UNL A   1      41.741  21.944  27.260  1.00  0.00     0.173 A 
ATOM     85  F   UNL A   1      43.406  24.450  25.234  1.00  0.00    -0.203 F 
ATOM     86  C   UNL A   1      43.694  22.160  25.280  1.00  0.00     0.198 A 
ATOM     87  C   UNL A   1      42.388  20.800  26.719  1.00  0.00     0.198 A 
ATOM     88  F   UNL A   1      40.876  21.753  28.263  1.00  0.00    -0.203 F 
ATOM     89  F   UNL A   1      44.688  22.304  24.387  1.00  0.00    -0.200 F 
ATOM     90  C   UNL A   1      43.388  20.912  25.764  1.00  0.00     0.200 A 
ATOM     91  F   UNL A   1      42.090  19.580  27.189  1.00  0.00    -0.200 F 
ATOM     92  F   UNL A   1      44.069  19.835  25.341  1.00  0.00    -0.200 F 
ENDBRANCH  58  82
BRANCH  70  93
ATOM     93  C   UNL A   1      45.086  27.924  28.815  1.00  0.00     0.064 A 
ATOM     94  C   UNL A   1      44.181  28.629  27.981  1.00  0.00     0.173 A 
ATOM     95  C   UNL A   1      46.446  28.172  28.585  1.00  0.00     0.173 A 
ATOM     96  F   UNL A   1      42.854  28.580  28.164  1.00  0.00    -0.203 F 
ATOM     97  C   UNL A   1      44.624  29.445  26.936  1.00  0.00     0.198 A 
ATOM     98  C   UNL A   1      46.884  29.033  27.579  1.00  0.00     0.198 A 
ATOM     99  F   UNL A   1      47.371  27.588  29.363  1.00  0.00    -0.203 F 
ATOM    100  F   UNL A   1      43.736  30.040  26.123  1.00  0.00    -0.200 F 
ATOM    101  C   UNL A   1      45.976  29.648  26.737  1.00  0.00     0.200 A 
ATOM    102  F   UNL A   1      48.196  29.265  27.434  1.00  0.00    -0.200 F 
ATOM    103  F   UNL A   1      46.403  30.449  25.752  1.00  0.00    -0.200 F 
ENDBRANCH  70  93
ENDBRANCH  44  45
ENDBRANCH  36  39
ENDBRANCH  34  35
ENDBRANCH  33  34
ENDBRANCH  32  33
ENDBRANCH   1  32
TORSDOF 18
ENDMDL
MODEL 2
REMARK VINA RESULT:     -12.2      1.508      3.671
REMARK SMILES Cc1c(C[NH2+]C2CCCCC2)c(C(=O)NCCCCCCNC(=O)c2ccc(-c3c4nc(c(-c5c(F)c(F)c(F)c(F)c5F)c5ccc([nH]5)c(-c5c(F)c(F)c(F)c(F)c5F)c5nc(c(-c6c(F)c(F)c(F)c(F)c6F)c6ccc3[nH]6)C=C5)C=C4)cc2)c(C)n1Cc1ccccc1
REMARK SMILES IDX 18 1 17 2 16 3 15 4 13 5 14 6 12 8 1 9 2 10 3 11 90 12 88 13
REMARK SMILES IDX 89 14 4 15 5 16 6 19 7 20 11 21 8 22 10 23 9 24 91 25 92 26
REMARK SMILES IDX 93 27 97 28 94 29 96 30 95 31 19 32 20 33 21 34 22 35 23 36
REMARK SMILES IDX 24 38 25 39 26 40 87 41 27 42 86 43 28 44 29 45 30 46 80 47
REMARK SMILES IDX 31 48 85 49 79 50 81 51 32 52 84 53 78 54 77 55 33 57 65 58
REMARK SMILES IDX 45 59 64 60 46 61 49 62 63 63 82 64 47 65 48 66 62 68 83 69
REMARK SMILES IDX 50 70 34 71 35 72 43 73 36 74 37 75 41 76 44 77 38 78 39 79
REMARK SMILES IDX 42 80 40 81 66 82 67 83 75 84 68 85 69 86 73 87 76 88 70 89
REMARK SMILES IDX 71 90 74 91 72 92 51 93 52 94 60 95 53 96 54 97 58 98 61 99
REMARK SMILES IDX 55 100 56 101 59 102 57 103
REMARK H PARENT 15 7 5 17 5 18 22 37 81 56 49 67
REMARK Flexibility Score: inf
ROOT
ATOM      1  C   UNL A   1      33.711  28.599  26.645  1.00  0.00     0.002 C 
ENDROOT
BRANCH   1   2
ATOM      2  C   UNL A   1      32.453  27.765  26.883  1.00  0.00     0.021 C 
BRANCH   2   3
ATOM      3  C   UNL A   1      32.406  26.377  26.261  1.00  0.00     0.116 C 
BRANCH   3   4
ATOM      4  N   UNL A   1      31.488  25.445  26.874  1.00  0.00    -0.352 N 
ATOM      5  C   UNL A   1      31.281  24.114  26.604  1.00  0.00     0.253 C 
ATOM      6  O   UNL A   1      30.348  23.581  27.252  1.00  0.00    -0.269 OA
ATOM      7  H   UNL A   1      30.926  25.818  27.592  1.00  0.00     0.163 HD
BRANCH   5   8
ATOM      8  C   UNL A   1      32.009  23.394  25.545  1.00  0.00     0.069 A 
ATOM      9  C   UNL A   1      33.186  22.671  22.044  1.00  0.00     0.065 C 
ATOM     10  C   UNL A   1      32.877  22.859  23.492  1.00  0.00     0.025 A 
ATOM     11  C   UNL A   1      31.856  23.583  24.111  1.00  0.00     0.040 A 
ATOM     12  N   UNL A   1      33.636  22.283  24.498  1.00  0.00    -0.343 N 
ATOM     13  C   UNL A   1      32.854  22.278  25.643  1.00  0.00     0.028 A 
ATOM     14  C   UNL A   1      32.966  21.212  26.681  1.00  0.00     0.065 C 
BRANCH  11  15
ATOM     15  C   UNL A   1      30.800  24.425  23.423  1.00  0.00     0.300 C 
BRANCH  15  16
ATOM     16  N   UNL A   1      31.406  25.167  22.312  1.00  0.00    -0.340 N 
ATOM     17  H   UNL A   1      31.036  24.797  21.436  1.00  0.00     0.346 HD
ATOM     18  H   UNL A   1      32.416  25.045  22.385  1.00  0.00     0.346 HD
BRANCH  16  19
ATOM     19  C   UNL A   1      31.137  26.610  22.360  1.00  0.00     0.182 C 
ATOM     20  C   UNL A   1      30.023  26.949  23.367  1.00  0.00     0.065 C 
ATOM     21  C   UNL A   1      32.433  27.358  22.734  1.00  0.00     0.065 C 
ATOM     22  C   UNL A   1      29.810  28.457  23.507  1.00  0.00     0.006 C 
ATOM     23  C   UNL A   1      32.210  28.866  22.877  1.00  0.00     0.006 C 
ATOM     24  C   UNL A   1      31.101  29.179  23.876  1.00  0.00     0.000 C 
ENDBRANCH  16  19
ENDBRANCH  15  16
ENDBRANCH  11  15
BRANCH  12  25
ATOM     25  C   UNL A   1      34.916  21.576  24.323  1.00  0.00     0.157 C 
BRANCH  25  26
ATOM     26  C   UNL A   1      36.102  22.179  25.064  1.00  0.00    -0.028 A 
ATOM     27  C   UNL A   1      36.080  23.531  25.451  1.00  0.00     0.005 A 
ATOM     28  C   UNL A   1      37.298  21.472  25.269  1.00  0.00     0.005 A 
ATOM     29  C   UNL A   1      37.209  24.143  26.013  1.00  0.00     0.000 A 
ATOM     30  C   UNL A   1      38.424  22.079  25.834  1.00  0.00     0.000 A 
ATOM     31  C   UNL A   1      38.382  23.419  26.203  1.00  0.00     0.000 A 
ENDBRANCH  25  26
ENDBRANCH  12  25
ENDBRANCH   5   8
ENDBRANCH   3   4
ENDBRANCH   2   3
ENDBRANCH   1   2
BRANCH   1  32
ATOM     32  C   UNL A   1      33.758  30.024  27.217  1.00  0.00     0.002 C 
BRANCH  32  33
ATOM     33  C   UNL A   1      35.112  30.648  27.625  1.00  0.00     0.021 C 
BRANCH  33  34
ATOM     34  C   UNL A   1      35.211  32.162  27.912  1.00  0.00     0.116 C 
BRANCH  34  35
ATOM     35  N   UNL A   1      34.482  32.631  29.072  1.00  0.00    -0.352 N 
ATOM     36  C   UNL A   1      34.870  32.614  30.404  1.00  0.00     0.251 C 
ATOM     37  H   UNL A   1      33.592  33.012  28.891  1.00  0.00     0.163 HD
ATOM     38  O   UNL A   1      34.153  33.189  31.225  1.00  0.00    -0.269 OA
BRANCH  36  39
ATOM     39  C   UNL A   1      36.078  31.856  30.906  1.00  0.00     0.039 A 
ATOM     40  C   UNL A   1      37.322  32.173  30.375  1.00  0.00     0.014 A 
ATOM     41  C   UNL A   1      36.005  30.653  31.634  1.00  0.00     0.014 A 
ATOM     42  C   UNL A   1      38.459  31.339  30.609  1.00  0.00     0.010 A 
ATOM     43  C   UNL A   1      37.153  29.768  31.809  1.00  0.00     0.010 A 
ATOM     44  C   UNL A   1      38.430  30.068  31.287  1.00  0.00    -0.014 A 
BRANCH  44  45
ATOM     45  C   UNL A   1      39.539  29.000  30.818  1.00  0.00     0.031 A 
ATOM     46  C   UNL A   1      40.510  29.050  31.951  1.00  0.00     0.074 A 
ATOM     47  C   UNL A   1      39.926  28.172  29.761  1.00  0.00     0.049 A 
ATOM     48  N   UNL A   1      41.058  30.182  32.302  1.00  0.00    -0.248 NA
ATOM     49  C   UNL A   1      40.590  27.991  32.958  1.00  0.00     0.031 C 
ATOM     50  C   UNL A   1      39.296  28.033  28.438  1.00  0.00     0.029 A 
ATOM     51  N   UNL A   1      40.996  27.224  29.614  1.00  0.00    -0.354 N 
ATOM     52  C   UNL A   1      41.821  29.900  33.407  1.00  0.00     0.074 A 
ATOM     53  C   UNL A   1      41.288  28.637  33.899  1.00  0.00     0.031 C 
ATOM     54  C   UNL A   1      39.859  27.022  27.708  1.00  0.00     0.029 A 
ATOM     55  C   UNL A   1      40.976  26.404  28.424  1.00  0.00     0.049 A 
ATOM     56  H   UNL A   1      41.707  27.136  30.289  1.00  0.00     0.167 HD
ATOM     57  C   UNL A   1      43.129  30.277  33.318  1.00  0.00     0.037 A 
ATOM     58  C   UNL A   1      41.810  25.370  27.995  1.00  0.00     0.037 A 
ATOM     59  C   UNL A   1      43.994  29.171  33.014  1.00  0.00     0.049 A 
ATOM     60  C   UNL A   1      43.099  25.542  28.674  1.00  0.00     0.074 A 
ATOM     61  C   UNL A   1      44.055  27.865  33.458  1.00  0.00     0.029 A 
ATOM     62  N   UNL A   1      44.649  29.203  31.803  1.00  0.00    -0.354 N 
ATOM     63  N   UNL A   1      43.965  26.419  28.270  1.00  0.00    -0.248 NA
ATOM     64  C   UNL A   1      43.556  24.652  29.737  1.00  0.00     0.031 C 
ATOM     65  C   UNL A   1      44.227  27.103  32.282  1.00  0.00     0.029 A 
ATOM     66  C   UNL A   1      44.650  27.941  31.258  1.00  0.00     0.049 A 
ATOM     67  H   UNL A   1      45.053  30.002  31.394  1.00  0.00     0.167 HD
ATOM     68  C   UNL A   1      44.787  26.543  29.340  1.00  0.00     0.074 A 
ATOM     69  C   UNL A   1      44.693  25.279  30.045  1.00  0.00     0.031 C 
ATOM     70  C   UNL A   1      44.878  27.796  29.843  1.00  0.00     0.037 A 
BRANCH  57  71
ATOM     71  C   UNL A   1      43.338  31.663  32.780  1.00  0.00     0.064 A 
ATOM     72  C   UNL A   1      43.667  32.692  33.664  1.00  0.00     0.173 A 
ATOM     73  C   UNL A   1      43.142  32.009  31.425  1.00  0.00     0.173 A 
ATOM     74  F   UNL A   1      43.949  32.412  34.946  1.00  0.00    -0.203 F 
ATOM     75  C   UNL A   1      43.728  34.016  33.230  1.00  0.00     0.198 A 
ATOM     76  C   UNL A   1      43.132  33.334  31.010  1.00  0.00     0.198 A 
ATOM     77  F   UNL A   1      43.001  31.060  30.485  1.00  0.00    -0.203 F 
ATOM     78  F   UNL A   1      44.088  34.983  34.086  1.00  0.00    -0.200 F 
ATOM     79  C   UNL A   1      43.422  34.340  31.915  1.00  0.00     0.200 A 
ATOM     80  F   UNL A   1      42.863  33.631  29.731  1.00  0.00    -0.200 F 
ATOM     81  F   UNL A   1      43.444  35.617  31.510  1.00  0.00    -0.200 F 
ENDBRANCH  57  71
BRANCH  58  82
ATOM     82  C   UNL A   1      41.972  24.220  26.961  1.00  0.00     0.064 A 
ATOM     83  C   UNL A   1      42.754  24.402  25.764  1.00  0.00     0.173 A 
ATOM     84  C   UNL A   1      41.806  22.875  27.316  1.00  0.00     0.173 A 
ATOM     85  F   UNL A   1      42.975  25.621  25.255  1.00  0.00    -0.203 F 
ATOM     86  C   UNL A   1      43.408  23.360  25.085  1.00  0.00     0.198 A 
ATOM     87  C   UNL A   1      42.430  21.818  26.599  1.00  0.00     0.198 A 
ATOM     88  F   UNL A   1      41.122  22.557  28.422  1.00  0.00    -0.203 F 
ATOM     89  F   UNL A   1      44.239  23.634  24.065  1.00  0.00    -0.200 F 
ATOM     90  C   UNL A   1      43.259  22.064  25.514  1.00  0.00     0.200 A 
ATOM     91  F   UNL A   1      42.285  20.552  27.016  1.00  0.00    -0.200 F 
ATOM     92  F   UNL A   1      43.931  21.069  24.913  1.00  0.00    -0.200 F 
ENDBRANCH  58  82
BRANCH  70  93
ATOM     93  C   UNL A   1      45.008  28.930  28.839  1.00  0.00     0.064 A 
ATOM     94  C   UNL A   1      43.972  29.525  28.075  1.00  0.00     0.173 A 
ATOM     95  C   UNL A   1      46.303  29.396  28.577  1.00  0.00     0.173 A 
ATOM     96  F   UNL A   1      42.677  29.263  28.299  1.00  0.00    -0.203 F 
ATOM     97  C   UNL A   1      44.241  30.448  27.060  1.00  0.00     0.198 A 
ATOM     98  C   UNL A   1      46.563  30.361  27.605  1.00  0.00     0.198 A 
ATOM     99  F   UNL A   1      47.337  28.926  29.293  1.00  0.00    -0.203 F 
ATOM    100  F   UNL A   1      43.241  30.936  26.310  1.00  0.00    -0.200 F 
ATOM    101  C   UNL A   1      45.537  30.867  26.827  1.00  0.00     0.200 A 
ATOM    102  F   UNL A   1      47.816  30.800  27.429  1.00  0.00    -0.200 F 
ATOM    103  F   UNL A   1      45.796  31.770  25.872  1.00  0.00    -0.200 F 
ENDBRANCH  70  93
ENDBRANCH  44  45
ENDBRANCH  36  39
ENDBRANCH  34  35
ENDBRANCH  33  34
ENDBRANCH  32  33
ENDBRANCH   1  32
TORSDOF 18
ENDMDL
MODEL 3
REMARK VINA RESULT:     -12.1      3.280      8.055
REMARK SMILES Cc1c(C[NH2+]C2CCCCC2)c(C(=O)NCCCCCCNC(=O)c2ccc(-c3c4nc(c(-c5c(F)c(F)c(F)c(F)c5F)c5ccc([nH]5)c(-c5c(F)c(F)c(F)c(F)c5F)c5nc(c(-c6c(F)c(F)c(F)c(F)c6F)c6ccc3[nH]6)C=C5)C=C4)cc2)c(C)n1Cc1ccccc1
REMARK SMILES IDX 18 1 17 2 16 3 15 4 13 5 14 6 12 8 1 9 2 10 3 11 90 12 88 13
REMARK SMILES IDX 89 14 4 15 5 16 6 19 7 20 11 21 8 22 10 23 9 24 91 25 92 26
REMARK SMILES IDX 93 27 97 28 94 29 96 30 95 31 19 32 20 33 21 34 22 35 23 36
REMARK SMILES IDX 24 38 25 39 26 40 87 41 27 42 86 43 28 44 29 45 30 46 80 47
REMARK SMILES IDX 31 48 85 49 79 50 81 51 32 52 84 53 78 54 77 55 33 57 65 58
REMARK SMILES IDX 45 59 64 60 46 61 49 62 63 63 82 64 47 65 48 66 62 68 83 69
REMARK SMILES IDX 50 70 34 71 35 72 43 73 36 74 37 75 41 76 44 77 38 78 39 79
REMARK SMILES IDX 42 80 40 81 66 82 67 83 75 84 68 85 69 86 73 87 76 88 70 89
REMARK SMILES IDX 71 90 74 91 72 92 51 93 52 94 60 95 53 96 54 97 58 98 61 99
REMARK SMILES IDX 55 100 56 101 59 102 57 103
REMARK H PARENT 15 7 5 17 5 18 22 37 81 56 49 67
REMARK Flexibility Score: inf
ROOT
ATOM      1  C   UNL A   1      36.807  22.458  24.776  1.00  0.00     0.002 C 
ENDROOT
BRANCH   1   2
ATOM      2  C   UNL A   1      36.390  23.879  25.150  1.00  0.00     0.021 C 
BRANCH   2   3
ATOM      3  C   UNL A   1      35.045  24.372  24.635  1.00  0.00     0.116 C 
BRANCH   3   4
ATOM      4  N   UNL A   1      34.693  23.954  23.298  1.00  0.00    -0.352 N 
ATOM      5  C   UNL A   1      33.651  24.361  22.500  1.00  0.00     0.253 C 
ATOM      6  O   UNL A   1      33.553  23.754  21.407  1.00  0.00    -0.269 OA
ATOM      7  H   UNL A   1      35.286  23.277  22.899  1.00  0.00     0.163 HD
BRANCH   5   8
ATOM      8  C   UNL A   1      32.648  25.347  22.941  1.00  0.00     0.069 A 
ATOM      9  C   UNL A   1      29.482  26.551  24.579  1.00  0.00     0.065 C 
ATOM     10  C   UNL A   1      30.804  26.255  23.956  1.00  0.00     0.025 A 
ATOM     11  C   UNL A   1      31.327  25.053  23.475  1.00  0.00     0.040 A 
ATOM     12  N   UNL A   1      31.770  27.229  23.755  1.00  0.00    -0.343 N 
ATOM     13  C   UNL A   1      32.642  26.742  22.794  1.00  0.00     0.028 A 
ATOM     14  C   UNL A   1      33.346  27.636  21.829  1.00  0.00     0.065 C 
BRANCH  11  15
ATOM     15  C   UNL A   1      30.659  23.693  23.520  1.00  0.00     0.300 C 
BRANCH  15  16
ATOM     16  N   UNL A   1      30.615  23.211  24.904  1.00  0.00    -0.340 N 
ATOM     17  H   UNL A   1      30.062  22.354  24.931  1.00  0.00     0.346 HD
ATOM     18  H   UNL A   1      30.202  23.952  25.469  1.00  0.00     0.346 HD
BRANCH  16  19
ATOM     19  C   UNL A   1      31.943  22.926  25.464  1.00  0.00     0.182 C 
ATOM     20  C   UNL A   1      31.990  23.182  26.981  1.00  0.00     0.065 C 
ATOM     21  C   UNL A   1      32.318  21.461  25.163  1.00  0.00     0.065 C 
ATOM     22  C   UNL A   1      33.334  22.785  27.592  1.00  0.00     0.006 C 
ATOM     23  C   UNL A   1      33.662  21.069  25.784  1.00  0.00     0.006 C 
ATOM     24  C   UNL A   1      33.688  21.335  27.285  1.00  0.00     0.000 C 
ENDBRANCH  16  19
ENDBRANCH  15  16
ENDBRANCH  11  15
BRANCH  12  25
ATOM     25  C   UNL A   1      31.727  28.609  24.263  1.00  0.00     0.157 C 
BRANCH  25  26
ATOM     26  C   UNL A   1      32.756  28.943  25.336  1.00  0.00    -0.028 A 
ATOM     27  C   UNL A   1      33.737  27.999  25.691  1.00  0.00     0.005 A 
ATOM     28  C   UNL A   1      32.693  30.121  26.098  1.00  0.00     0.005 A 
ATOM     29  C   UNL A   1      34.609  28.229  26.765  1.00  0.00     0.000 A 
ATOM     30  C   UNL A   1      33.565  30.354  27.166  1.00  0.00     0.000 A 
ATOM     31  C   UNL A   1      34.522  29.404  27.504  1.00  0.00     0.000 A 
ENDBRANCH  25  26
ENDBRANCH  12  25
ENDBRANCH   5   8
ENDBRANCH   3   4
ENDBRANCH   2   3
ENDBRANCH   1   2
BRANCH   1  32
ATOM     32  C   UNL A   1      38.068  21.874  25.430  1.00  0.00     0.002 C 
BRANCH  32  33
ATOM     33  C   UNL A   1      38.877  22.720  26.440  1.00  0.00     0.021 C 
BRANCH  33  34
ATOM     34  C   UNL A   1      40.174  22.155  27.059  1.00  0.00     0.116 C 
BRANCH  34  35
ATOM     35  N   UNL A   1      41.206  21.774  26.117  1.00  0.00    -0.352 N 
ATOM     36  C   UNL A   1      42.363  22.460  25.775  1.00  0.00     0.251 C 
ATOM     37  H   UNL A   1      41.068  20.914  25.658  1.00  0.00     0.163 HD
ATOM     38  O   UNL A   1      43.180  21.894  25.048  1.00  0.00    -0.269 OA
BRANCH  36  39
ATOM     39  C   UNL A   1      42.628  23.893  26.180  1.00  0.00     0.039 A 
ATOM     40  C   UNL A   1      42.672  24.196  27.535  1.00  0.00     0.014 A 
ATOM     41  C   UNL A   1      42.526  24.990  25.303  1.00  0.00     0.014 A 
ATOM     42  C   UNL A   1      42.663  25.553  27.988  1.00  0.00     0.010 A 
ATOM     43  C   UNL A   1      42.445  26.369  25.775  1.00  0.00     0.010 A 
ATOM     44  C   UNL A   1      42.494  26.708  27.145  1.00  0.00    -0.014 A 
BRANCH  44  45
ATOM     45  C   UNL A   1      41.788  27.979  27.834  1.00  0.00     0.031 A 
ATOM     46  C   UNL A   1      42.927  28.939  27.942  1.00  0.00     0.074 A 
ATOM     47  C   UNL A   1      40.595  28.431  28.404  1.00  0.00     0.049 A 
ATOM     48  N   UNL A   1      44.018  28.602  28.573  1.00  0.00    -0.248 NA
ATOM     49  C   UNL A   1      43.065  30.090  27.048  1.00  0.00     0.031 C 
ATOM     50  C   UNL A   1      39.350  27.677  28.622  1.00  0.00     0.029 A 
ATOM     51  N   UNL A   1      40.193  29.707  28.929  1.00  0.00    -0.354 N 
ATOM     52  C   UNL A   1      44.880  29.658  28.419  1.00  0.00     0.074 A 
ATOM     53  C   UNL A   1      44.347  30.393  27.281  1.00  0.00     0.031 C 
ATOM     54  C   UNL A   1      38.338  28.480  29.072  1.00  0.00     0.029 A 
ATOM     55  C   UNL A   1      38.797  29.855  29.274  1.00  0.00     0.049 A 
ATOM     56  H   UNL A   1      40.835  30.443  29.049  1.00  0.00     0.167 HD
ATOM     57  C   UNL A   1      45.385  30.166  29.581  1.00  0.00     0.037 A 
ATOM     58  C   UNL A   1      38.070  30.947  29.749  1.00  0.00     0.037 A 
ATOM     59  C   UNL A   1      44.716  31.372  29.983  1.00  0.00     0.049 A 
ATOM     60  C   UNL A   1      39.024  31.858  30.392  1.00  0.00     0.074 A 
ATOM     61  C   UNL A   1      44.278  32.487  29.296  1.00  0.00     0.029 A 
ATOM     62  N   UNL A   1      43.997  31.327  31.156  1.00  0.00    -0.354 N 
ATOM     63  N   UNL A   1      39.478  31.630  31.586  1.00  0.00    -0.248 NA
ATOM     64  C   UNL A   1      39.406  33.141  29.809  1.00  0.00     0.031 C 
ATOM     65  C   UNL A   1      42.979  32.717  29.798  1.00  0.00     0.029 A 
ATOM     66  C   UNL A   1      42.825  32.027  30.993  1.00  0.00     0.049 A 
ATOM     67  H   UNL A   1      44.278  30.868  31.981  1.00  0.00     0.167 HD
ATOM     68  C   UNL A   1      40.574  32.425  31.646  1.00  0.00     0.074 A 
ATOM     69  C   UNL A   1      40.316  33.506  30.715  1.00  0.00     0.031 C 
ATOM     70  C   UNL A   1      41.733  31.773  31.897  1.00  0.00     0.037 A 
BRANCH  57  71
ATOM     71  C   UNL A   1      45.872  29.127  30.550  1.00  0.00     0.064 A 
ATOM     72  C   UNL A   1      47.246  28.964  30.736  1.00  0.00     0.173 A 
ATOM     73  C   UNL A   1      45.014  28.239  31.233  1.00  0.00     0.173 A 
ATOM     74  F   UNL A   1      48.107  29.831  30.181  1.00  0.00    -0.203 F 
ATOM     75  C   UNL A   1      47.744  27.920  31.514  1.00  0.00     0.198 A 
ATOM     76  C   UNL A   1      45.513  27.157  31.949  1.00  0.00     0.198 A 
ATOM     77  F   UNL A   1      43.686  28.439  31.250  1.00  0.00    -0.203 F 
ATOM     78  F   UNL A   1      49.064  27.807  31.716  1.00  0.00    -0.200 F 
ATOM     79  C   UNL A   1      46.880  26.995  32.086  1.00  0.00     0.200 A 
ATOM     80  F   UNL A   1      44.667  26.288  32.519  1.00  0.00    -0.200 F 
ATOM     81  F   UNL A   1      47.362  25.970  32.801  1.00  0.00    -0.200 F 
ENDBRANCH  57  71
BRANCH  58  82
ATOM     82  C   UNL A   1      36.640  31.497  30.020  1.00  0.00     0.064 A 
ATOM     83  C   UNL A   1      36.094  31.521  31.353  1.00  0.00     0.173 A 
ATOM     84  C   UNL A   1      36.013  32.394  29.147  1.00  0.00     0.173 A 
ATOM     85  F   UNL A   1      36.546  30.696  32.307  1.00  0.00    -0.203 F 
ATOM     86  C   UNL A   1      35.127  32.442  31.791  1.00  0.00     0.198 A 
ATOM     87  C   UNL A   1      35.000  33.292  29.581  1.00  0.00     0.198 A 
ATOM     88  F   UNL A   1      36.434  32.497  27.880  1.00  0.00    -0.203 F 
ATOM     89  F   UNL A   1      34.781  32.495  33.088  1.00  0.00    -0.200 F 
ATOM     90  C   UNL A   1      34.590  33.343  30.905  1.00  0.00     0.200 A 
ATOM     91  F   UNL A   1      34.473  34.172  28.716  1.00  0.00    -0.200 F 
ATOM     92  F   UNL A   1      33.713  34.268  31.326  1.00  0.00    -0.200 F 
ENDBRANCH  58  82
BRANCH  70  93
ATOM     93  C   UNL A   1      41.697  30.700  32.974  1.00  0.00     0.064 A 
ATOM     94  C   UNL A   1      41.263  29.357  32.835  1.00  0.00     0.173 A 
ATOM     95  C   UNL A   1      42.060  31.093  34.269  1.00  0.00     0.173 A 
ATOM     96  F   UNL A   1      40.997  28.811  31.641  1.00  0.00    -0.203 F 
ATOM     97  C   UNL A   1      41.118  28.511  33.939  1.00  0.00     0.198 A 
ATOM     98  C   UNL A   1      41.970  30.228  35.359  1.00  0.00     0.198 A 
ATOM     99  F   UNL A   1      42.533  32.331  34.481  1.00  0.00    -0.203 F 
ATOM    100  F   UNL A   1      40.638  27.269  33.777  1.00  0.00    -0.200 F 
ATOM    101  C   UNL A   1      41.474  28.947  35.201  1.00  0.00     0.200 A 
ATOM    102  F   UNL A   1      42.373  30.646  36.567  1.00  0.00    -0.200 F 
ATOM    103  F   UNL A   1      41.361  28.131  36.257  1.00  0.00    -0.200 F 
ENDBRANCH  70  93
ENDBRANCH  44  45
ENDBRANCH  36  39
ENDBRANCH  34  35
ENDBRANCH  33  34
ENDBRANCH  32  33
ENDBRANCH   1  32
TORSDOF 18
ENDMDL
