MODEL 1
REMARK VINA RESULT:     -11.0      0.000      0.000
REMARK SMILES CCCC[C@H](C(=O)NCCCCCCNC(=O)c1ccc(-c2c3nc(c(-c4c(F)c(F)c(F)c(F)c4F)c4ccc([nH]4)c(-c4c(F)c(F)c(F)c(F)c4F)c4nc(c(-c5c(F)c(F)c(F)c(F)c5F)c5ccc2[nH]5)C=C4)C=C3)cc1)c1ccnn1C
REMARK SMILES IDX 11 1 10 2 9 3 8 4 6 5 7 6 5 8 4 9 3 10 2 11 1 12 81 13 82 14
REMARK SMILES IDX 85 15 83 16 84 17 86 18 12 19 13 20 14 21 15 22 16 23 17 25
REMARK SMILES IDX 18 26 19 27 80 28 20 29 79 30 21 31 22 32 23 33 73 34 24 35
REMARK SMILES IDX 78 36 72 37 74 38 25 39 77 40 71 41 70 42 26 44 58 45 38 46
REMARK SMILES IDX 57 47 39 48 42 49 56 50 75 51 40 52 41 53 55 55 76 56 43 57
REMARK SMILES IDX 27 58 28 59 36 60 29 61 30 62 34 63 37 64 31 65 32 66 35 67
REMARK SMILES IDX 33 68 59 69 60 70 68 71 61 72 62 73 66 74 69 75 63 76 64 77
REMARK SMILES IDX 67 78 65 79 44 80 45 81 53 82 46 83 47 84 51 85 54 86 48 87
REMARK SMILES IDX 49 88 52 89 50 90
REMARK H PARENT 8 7 15 24 74 43 42 54
REMARK Flexibility Score: inf
ROOT
ATOM      1  C   UNL A   1      32.342  29.802  27.249  1.00  0.00     0.002 C 
ENDROOT
BRANCH   1   2
ATOM      2  C   UNL A   1      32.610  28.356  26.810  1.00  0.00     0.021 C 
BRANCH   2   3
ATOM      3  C   UNL A   1      33.961  28.133  26.137  1.00  0.00     0.116 C 
BRANCH   3   4
ATOM      4  N   UNL A   1      34.032  28.755  24.830  1.00  0.00    -0.356 N 
ATOM      5  C   UNL A   1      33.302  28.512  23.702  1.00  0.00     0.229 C 
ATOM      6  O   UNL A   1      33.553  29.207  22.716  1.00  0.00    -0.274 OA
ATOM      7  H   UNL A   1      34.712  29.461  24.743  1.00  0.00     0.163 HD
BRANCH   5   8
ATOM      8  C   UNL A   1      32.237  27.405  23.704  1.00  0.00     0.127 C 
BRANCH   8   9
ATOM      9  C   UNL A   1      30.756  27.830  23.588  1.00  0.00     0.020 C 
BRANCH   9  10
ATOM     10  C   UNL A   1      30.322  29.311  23.509  1.00  0.00     0.001 C 
BRANCH  10  11
ATOM     11  C   UNL A   1      28.977  29.674  22.873  1.00  0.00    -0.003 C 
ATOM     12  C   UNL A   1      27.945  28.562  22.991  1.00  0.00     0.004 C 
ENDBRANCH  10  11
ENDBRANCH   9  10
ENDBRANCH   8   9
BRANCH   8  13
ATOM     13  C   UNL A   1      32.661  26.256  22.792  1.00  0.00     0.050 A 
ATOM     14  C   UNL A   1      32.231  26.026  21.492  1.00  0.00     0.046 A 
ATOM     15  N   UNL A   1      33.490  25.191  23.074  1.00  0.00    -0.272 N 
ATOM     16  C   UNL A   1      32.859  24.843  21.083  1.00  0.00     0.135 A 
ATOM     17  N   UNL A   1      33.653  24.351  22.029  1.00  0.00    -0.182 NA
ATOM     18  C   UNL A   1      34.223  24.849  24.265  1.00  0.00     0.174 C 
ENDBRANCH   8  13
ENDBRANCH   5   8
ENDBRANCH   3   4
ENDBRANCH   2   3
ENDBRANCH   1   2
BRANCH   1  19
ATOM     19  C   UNL A   1      31.624  30.688  26.227  1.00  0.00     0.002 C 
BRANCH  19  20
ATOM     20  C   UNL A   1      31.394  32.138  26.658  1.00  0.00     0.021 C 
BRANCH  20  21
ATOM     21  C   UNL A   1      32.595  32.821  27.302  1.00  0.00     0.116 C 
BRANCH  21  22
ATOM     22  N   UNL A   1      32.347  34.216  27.627  1.00  0.00    -0.352 N 
ATOM     23  C   UNL A   1      32.956  35.009  28.567  1.00  0.00     0.251 C 
ATOM     24  H   UNL A   1      31.642  34.654  27.097  1.00  0.00     0.163 HD
ATOM     25  O   UNL A   1      32.524  36.135  28.800  1.00  0.00    -0.269 OA
BRANCH  23  26
ATOM     26  C   UNL A   1      34.115  34.495  29.325  1.00  0.00     0.039 A 
ATOM     27  C   UNL A   1      33.896  33.919  30.579  1.00  0.00     0.014 A 
ATOM     28  C   UNL A   1      35.410  34.570  28.803  1.00  0.00     0.014 A 
ATOM     29  C   UNL A   1      34.965  33.359  31.280  1.00  0.00     0.010 A 
ATOM     30  C   UNL A   1      36.462  33.941  29.467  1.00  0.00     0.010 A 
ATOM     31  C   UNL A   1      36.250  33.330  30.712  1.00  0.00    -0.014 A 
BRANCH  31  32
ATOM     32  C   UNL A   1      37.378  32.654  31.405  1.00  0.00     0.031 A 
ATOM     33  C   UNL A   1      38.079  31.493  30.758  1.00  0.00     0.074 A 
ATOM     34  C   UNL A   1      37.731  33.054  32.642  1.00  0.00     0.049 A 
ATOM     35  N   UNL A   1      39.050  30.747  31.226  1.00  0.00    -0.248 NA
ATOM     36  C   UNL A   1      37.615  31.101  29.419  1.00  0.00     0.031 C 
ATOM     37  C   UNL A   1      37.097  34.137  33.394  1.00  0.00     0.029 A 
ATOM     38  N   UNL A   1      38.708  32.591  33.489  1.00  0.00    -0.354 N 
ATOM     39  C   UNL A   1      39.302  29.797  30.245  1.00  0.00     0.074 A 
ATOM     40  C   UNL A   1      38.346  30.022  29.183  1.00  0.00     0.031 C 
ATOM     41  C   UNL A   1      37.715  34.274  34.577  1.00  0.00     0.029 A 
ATOM     42  C   UNL A   1      38.761  33.261  34.687  1.00  0.00     0.049 A 
ATOM     43  H   UNL A   1      39.312  31.848  33.260  1.00  0.00     0.167 HD
ATOM     44  C   UNL A   1      40.262  28.841  30.222  1.00  0.00     0.037 A 
ATOM     45  C   UNL A   1      39.558  33.074  35.757  1.00  0.00     0.037 A 
ATOM     46  C   UNL A   1      41.221  28.632  31.275  1.00  0.00     0.049 A 
ATOM     47  C   UNL A   1      40.599  31.989  35.714  1.00  0.00     0.074 A 
ATOM     48  C   UNL A   1      42.266  27.726  31.323  1.00  0.00     0.029 A 
ATOM     49  N   UNL A   1      41.247  29.333  32.473  1.00  0.00    -0.354 N 
ATOM     50  N   UNL A   1      40.878  31.145  34.751  1.00  0.00    -0.248 NA
ATOM     51  C   UNL A   1      41.445  31.836  36.907  1.00  0.00     0.031 C 
ATOM     52  C   UNL A   1      42.887  27.838  32.571  1.00  0.00     0.029 A 
ATOM     53  C   UNL A   1      42.271  28.859  33.277  1.00  0.00     0.049 A 
ATOM     54  H   UNL A   1      40.628  30.060  32.714  1.00  0.00     0.167 HD
ATOM     55  C   UNL A   1      41.946  30.383  35.207  1.00  0.00     0.074 A 
ATOM     56  C   UNL A   1      42.277  30.878  36.527  1.00  0.00     0.031 C 
ATOM     57  C   UNL A   1      42.593  29.365  34.588  1.00  0.00     0.037 A 
BRANCH  44  58
ATOM     58  C   UNL A   1      40.323  27.945  29.017  1.00  0.00     0.064 A 
ATOM     59  C   UNL A   1      39.619  26.732  28.962  1.00  0.00     0.173 A 
ATOM     60  C   UNL A   1      41.065  28.321  27.886  1.00  0.00     0.173 A 
ATOM     61  F   UNL A   1      38.903  26.319  30.019  1.00  0.00    -0.203 F 
ATOM     62  C   UNL A   1      39.680  25.916  27.835  1.00  0.00     0.198 A 
ATOM     63  C   UNL A   1      41.095  27.520  26.748  1.00  0.00     0.198 A 
ATOM     64  F   UNL A   1      41.752  29.474  27.880  1.00  0.00    -0.203 F 
ATOM     65  F   UNL A   1      39.042  24.738  27.828  1.00  0.00    -0.200 F 
ATOM     66  C   UNL A   1      40.411  26.314  26.727  1.00  0.00     0.200 A 
ATOM     67  F   UNL A   1      41.789  27.914  25.672  1.00  0.00    -0.200 F 
ATOM     68  F   UNL A   1      40.461  25.533  25.639  1.00  0.00    -0.200 F 
ENDBRANCH  44  58
BRANCH  45  69
ATOM     69  C   UNL A   1      39.414  33.945  36.953  1.00  0.00     0.064 A 
ATOM     70  C   UNL A   1      40.038  35.199  37.012  1.00  0.00     0.173 A 
ATOM     71  C   UNL A   1      38.659  33.542  38.065  1.00  0.00     0.173 A 
ATOM     72  F   UNL A   1      40.786  35.624  35.983  1.00  0.00    -0.203 F 
ATOM     73  C   UNL A   1      39.937  36.003  38.147  1.00  0.00     0.198 A 
ATOM     74  C   UNL A   1      38.531  34.360  39.185  1.00  0.00     0.198 A 
ATOM     75  F   UNL A   1      38.036  32.354  38.059  1.00  0.00    -0.203 F 
ATOM     76  F   UNL A   1      40.589  37.173  38.196  1.00  0.00    -0.200 F 
ATOM     77  C   UNL A   1      39.178  35.586  39.230  1.00  0.00     0.200 A 
ATOM     78  F   UNL A   1      37.784  33.961  40.223  1.00  0.00    -0.200 F 
ATOM     79  F   UNL A   1      39.079  36.360  40.318  1.00  0.00    -0.200 F 
ENDBRANCH  45  69
BRANCH  57  80
ATOM     80  C   UNL A   1      43.752  28.741  35.314  1.00  0.00     0.064 A 
ATOM     81  C   UNL A   1      45.067  29.197  35.138  1.00  0.00     0.173 A 
ATOM     82  C   UNL A   1      43.537  27.695  36.226  1.00  0.00     0.173 A 
ATOM     83  F   UNL A   1      45.330  30.183  34.267  1.00  0.00    -0.203 F 
ATOM     84  C   UNL A   1      46.126  28.608  35.824  1.00  0.00     0.198 A 
ATOM     85  C   UNL A   1      44.594  27.135  36.936  1.00  0.00     0.198 A 
ATOM     86  F   UNL A   1      42.298  27.227  36.438  1.00  0.00    -0.203 F 
ATOM     87  F   UNL A   1      47.381  29.023  35.597  1.00  0.00    -0.200 F 
ATOM     88  C   UNL A   1      45.889  27.584  36.727  1.00  0.00     0.200 A 
ATOM     89  F   UNL A   1      44.359  26.156  37.822  1.00  0.00    -0.200 F 
ATOM     90  F   UNL A   1      46.909  27.024  37.393  1.00  0.00    -0.200 F 
ENDBRANCH  57  80
ENDBRANCH  31  32
ENDBRANCH  23  26
ENDBRANCH  21  22
ENDBRANCH  20  21
ENDBRANCH  19  20
ENDBRANCH   1  19
TORSDOF 17
ENDMDL
MODEL 2
REMARK VINA RESULT:     -10.9      1.350      2.461
REMARK SMILES CCCC[C@H](C(=O)NCCCCCCNC(=O)c1ccc(-c2c3nc(c(-c4c(F)c(F)c(F)c(F)c4F)c4ccc([nH]4)c(-c4c(F)c(F)c(F)c(F)c4F)c4nc(c(-c5c(F)c(F)c(F)c(F)c5F)c5ccc2[nH]5)C=C4)C=C3)cc1)c1ccnn1C
REMARK SMILES IDX 11 1 10 2 9 3 8 4 6 5 7 6 5 8 4 9 3 10 2 11 1 12 81 13 82 14
REMARK SMILES IDX 85 15 83 16 84 17 86 18 12 19 13 20 14 21 15 22 16 23 17 25
REMARK SMILES IDX 18 26 19 27 80 28 20 29 79 30 21 31 22 32 23 33 73 34 24 35
REMARK SMILES IDX 78 36 72 37 74 38 25 39 77 40 71 41 70 42 26 44 58 45 38 46
REMARK SMILES IDX 57 47 39 48 42 49 56 50 75 51 40 52 41 53 55 55 76 56 43 57
REMARK SMILES IDX 27 58 28 59 36 60 29 61 30 62 34 63 37 64 31 65 32 66 35 67
REMARK SMILES IDX 33 68 59 69 60 70 68 71 61 72 62 73 66 74 69 75 63 76 64 77
REMARK SMILES IDX 67 78 65 79 44 80 45 81 53 82 46 83 47 84 51 85 54 86 48 87
REMARK SMILES IDX 49 88 52 89 50 90
REMARK H PARENT 8 7 15 24 74 43 42 54
REMARK Flexibility Score: inf
ROOT
ATOM      1  C   UNL A   1      32.655  29.935  27.209  1.00  0.00     0.002 C 
ENDROOT
BRANCH   1   2
ATOM      2  C   UNL A   1      32.548  28.406  27.284  1.00  0.00     0.021 C 
BRANCH   2   3
ATOM      3  C   UNL A   1      31.591  27.781  26.273  1.00  0.00     0.116 C 
BRANCH   3   4
ATOM      4  N   UNL A   1      31.114  26.482  26.700  1.00  0.00    -0.356 N 
ATOM      5  C   UNL A   1      31.647  25.242  26.498  1.00  0.00     0.229 C 
ATOM      6  O   UNL A   1      31.044  24.288  26.993  1.00  0.00    -0.274 OA
ATOM      7  H   UNL A   1      30.274  26.496  27.215  1.00  0.00     0.163 HD
BRANCH   5   8
ATOM      8  C   UNL A   1      32.936  25.088  25.675  1.00  0.00     0.127 C 
BRANCH   8   9
ATOM      9  C   UNL A   1      33.786  23.818  25.898  1.00  0.00     0.020 C 
BRANCH   9  10
ATOM     10  C   UNL A   1      35.317  23.869  26.101  1.00  0.00     0.001 C 
BRANCH  10  11
ATOM     11  C   UNL A   1      36.248  23.676  24.900  1.00  0.00    -0.003 C 
ATOM     12  C   UNL A   1      35.512  23.239  23.643  1.00  0.00     0.004 C 
ENDBRANCH  10  11
ENDBRANCH   9  10
ENDBRANCH   8   9
BRANCH   8  13
ATOM     13  C   UNL A   1      32.683  25.459  24.216  1.00  0.00     0.050 A 
ATOM     14  C   UNL A   1      33.322  26.455  23.490  1.00  0.00     0.046 A 
ATOM     15  N   UNL A   1      31.748  24.944  23.343  1.00  0.00    -0.272 N 
ATOM     16  C   UNL A   1      32.732  26.444  22.220  1.00  0.00     0.135 A 
ATOM     17  N   UNL A   1      31.798  25.504  22.115  1.00  0.00    -0.182 NA
ATOM     18  C   UNL A   1      30.765  23.905  23.511  1.00  0.00     0.174 C 
ENDBRANCH   8  13
ENDBRANCH   5   8
ENDBRANCH   3   4
ENDBRANCH   2   3
ENDBRANCH   1   2
BRANCH   1  19
ATOM     19  C   UNL A   1      31.593  30.638  26.359  1.00  0.00     0.002 C 
BRANCH  19  20
ATOM     20  C   UNL A   1      31.428  32.138  26.616  1.00  0.00     0.021 C 
BRANCH  20  21
ATOM     21  C   UNL A   1      32.622  32.816  27.278  1.00  0.00     0.116 C 
BRANCH  21  22
ATOM     22  N   UNL A   1      32.365  34.203  27.626  1.00  0.00    -0.352 N 
ATOM     23  C   UNL A   1      32.969  34.986  28.578  1.00  0.00     0.251 C 
ATOM     24  H   UNL A   1      31.656  34.645  27.104  1.00  0.00     0.163 HD
ATOM     25  O   UNL A   1      32.528  36.104  28.830  1.00  0.00    -0.269 OA
BRANCH  23  26
ATOM     26  C   UNL A   1      34.132  34.468  29.327  1.00  0.00     0.039 A 
ATOM     27  C   UNL A   1      33.916  33.858  30.566  1.00  0.00     0.014 A 
ATOM     28  C   UNL A   1      35.427  34.571  28.812  1.00  0.00     0.014 A 
ATOM     29  C   UNL A   1      34.990  33.294  31.256  1.00  0.00     0.010 A 
ATOM     30  C   UNL A   1      36.485  33.940  29.464  1.00  0.00     0.010 A 
ATOM     31  C   UNL A   1      36.277  33.295  30.693  1.00  0.00    -0.014 A 
BRANCH  31  32
ATOM     32  C   UNL A   1      37.411  32.617  31.372  1.00  0.00     0.031 A 
ATOM     33  C   UNL A   1      38.115  31.467  30.709  1.00  0.00     0.074 A 
ATOM     34  C   UNL A   1      37.769  33.004  32.611  1.00  0.00     0.049 A 
ATOM     35  N   UNL A   1      39.091  30.720  31.164  1.00  0.00    -0.248 NA
ATOM     36  C   UNL A   1      37.646  31.088  29.368  1.00  0.00     0.031 C 
ATOM     37  C   UNL A   1      37.133  34.076  33.379  1.00  0.00     0.029 A 
ATOM     38  N   UNL A   1      38.752  32.536  33.448  1.00  0.00    -0.354 N 
ATOM     39  C   UNL A   1      39.343  29.782  30.171  1.00  0.00     0.074 A 
ATOM     40  C   UNL A   1      38.381  30.014  29.115  1.00  0.00     0.031 C 
ATOM     41  C   UNL A   1      37.757  34.202  34.560  1.00  0.00     0.029 A 
ATOM     42  C   UNL A   1      38.808  33.193  34.654  1.00  0.00     0.049 A 
ATOM     43  H   UNL A   1      39.358  31.798  33.208  1.00  0.00     0.167 HD
ATOM     44  C   UNL A   1      40.307  28.831  30.132  1.00  0.00     0.037 A 
ATOM     45  C   UNL A   1      39.610  32.998  35.718  1.00  0.00     0.037 A 
ATOM     46  C   UNL A   1      41.272  28.614  31.178  1.00  0.00     0.049 A 
ATOM     47  C   UNL A   1      40.657  31.918  35.658  1.00  0.00     0.074 A 
ATOM     48  C   UNL A   1      42.322  27.713  31.211  1.00  0.00     0.029 A 
ATOM     49  N   UNL A   1      41.300  29.302  32.383  1.00  0.00    -0.354 N 
ATOM     50  N   UNL A   1      40.934  31.086  34.684  1.00  0.00    -0.248 NA
ATOM     51  C   UNL A   1      41.509  31.755  36.844  1.00  0.00     0.031 C 
ATOM     52  C   UNL A   1      42.947  27.813  32.457  1.00  0.00     0.029 A 
ATOM     53  C   UNL A   1      42.331  28.824  33.178  1.00  0.00     0.049 A 
ATOM     54  H   UNL A   1      40.680  30.024  32.636  1.00  0.00     0.167 HD
ATOM     55  C   UNL A   1      42.008  30.324  35.126  1.00  0.00     0.074 A 
ATOM     56  C   UNL A   1      42.343  30.806  36.449  1.00  0.00     0.031 C 
ATOM     57  C   UNL A   1      42.657  29.316  34.492  1.00  0.00     0.037 A 
BRANCH  44  58
ATOM     58  C   UNL A   1      40.366  27.949  28.916  1.00  0.00     0.064 A 
ATOM     59  C   UNL A   1      39.639  26.751  28.837  1.00  0.00     0.173 A 
ATOM     60  C   UNL A   1      41.129  28.325  27.800  1.00  0.00     0.173 A 
ATOM     61  F   UNL A   1      38.902  26.338  29.880  1.00  0.00    -0.203 F 
ATOM     62  C   UNL A   1      39.699  25.948  27.701  1.00  0.00     0.198 A 
ATOM     63  C   UNL A   1      41.159  27.537  26.652  1.00  0.00     0.198 A 
ATOM     64  F   UNL A   1      41.838  29.463  27.817  1.00  0.00    -0.203 F 
ATOM     65  F   UNL A   1      39.039  24.782  27.672  1.00  0.00    -0.200 F 
ATOM     66  C   UNL A   1      40.451  26.345  26.607  1.00  0.00     0.200 A 
ATOM     67  F   UNL A   1      41.874  27.931  25.590  1.00  0.00    -0.200 F 
ATOM     68  F   UNL A   1      40.501  25.576  25.510  1.00  0.00    -0.200 F 
ENDBRANCH  44  58
BRANCH  45  69
ATOM     69  C   UNL A   1      39.468  33.855  36.925  1.00  0.00     0.064 A 
ATOM     70  C   UNL A   1      38.716  33.428  38.028  1.00  0.00     0.173 A 
ATOM     71  C   UNL A   1      40.071  35.119  36.999  1.00  0.00     0.173 A 
ATOM     72  F   UNL A   1      38.103  32.235  38.000  1.00  0.00    -0.203 F 
ATOM     73  C   UNL A   1      38.549  34.244  39.146  1.00  0.00     0.198 A 
ATOM     74  C   UNL A   1      39.931  35.920  38.130  1.00  0.00     0.198 A 
ATOM     75  F   UNL A   1      40.807  35.573  35.973  1.00  0.00    -0.203 F 
ATOM     76  F   UNL A   1      37.779  33.832  40.163  1.00  0.00    -0.200 F 
ATOM     77  C   UNL A   1      39.162  35.486  39.199  1.00  0.00     0.200 A 
ATOM     78  F   UNL A   1      40.539  37.112  38.184  1.00  0.00    -0.200 F 
ATOM     79  F   UNL A   1      39.003  36.268  40.275  1.00  0.00    -0.200 F 
ENDBRANCH  45  69
BRANCH  57  80
ATOM     80  C   UNL A   1      43.822  28.690  35.206  1.00  0.00     0.064 A 
ATOM     81  C   UNL A   1      45.131  29.172  35.051  1.00  0.00     0.173 A 
ATOM     82  C   UNL A   1      43.620  27.613  36.083  1.00  0.00     0.173 A 
ATOM     83  F   UNL A   1      45.381  30.189  34.213  1.00  0.00    -0.203 F 
ATOM     84  C   UNL A   1      46.196  28.580  35.725  1.00  0.00     0.198 A 
ATOM     85  C   UNL A   1      44.682  27.048  36.782  1.00  0.00     0.198 A 
ATOM     86  F   UNL A   1      42.388  27.117  36.274  1.00  0.00    -0.203 F 
ATOM     87  F   UNL A   1      47.444  29.022  35.518  1.00  0.00    -0.200 F 
ATOM     88  C   UNL A   1      45.970  27.524  36.595  1.00  0.00     0.200 A 
ATOM     89  F   UNL A   1      44.459  26.038  37.636  1.00  0.00    -0.200 F 
ATOM     90  F   UNL A   1      46.996  26.961  37.249  1.00  0.00    -0.200 F 
ENDBRANCH  57  80
ENDBRANCH  31  32
ENDBRANCH  23  26
ENDBRANCH  21  22
ENDBRANCH  20  21
ENDBRANCH  19  20
ENDBRANCH   1  19
TORSDOF 17
ENDMDL
MODEL 3
REMARK VINA RESULT:     -10.9      1.379      2.661
REMARK SMILES CCCC[C@H](C(=O)NCCCCCCNC(=O)c1ccc(-c2c3nc(c(-c4c(F)c(F)c(F)c(F)c4F)c4ccc([nH]4)c(-c4c(F)c(F)c(F)c(F)c4F)c4nc(c(-c5c(F)c(F)c(F)c(F)c5F)c5ccc2[nH]5)C=C4)C=C3)cc1)c1ccnn1C
REMARK SMILES IDX 11 1 10 2 9 3 8 4 6 5 7 6 5 8 4 9 3 10 2 11 1 12 81 13 82 14
REMARK SMILES IDX 85 15 83 16 84 17 86 18 12 19 13 20 14 21 15 22 16 23 17 25
REMARK SMILES IDX 18 26 19 27 80 28 20 29 79 30 21 31 22 32 23 33 73 34 24 35
REMARK SMILES IDX 78 36 72 37 74 38 25 39 77 40 71 41 70 42 26 44 58 45 38 46
REMARK SMILES IDX 57 47 39 48 42 49 56 50 75 51 40 52 41 53 55 55 76 56 43 57
REMARK SMILES IDX 27 58 28 59 36 60 29 61 30 62 34 63 37 64 31 65 32 66 35 67
REMARK SMILES IDX 33 68 59 69 60 70 68 71 61 72 62 73 66 74 69 75 63 76 64 77
REMARK SMILES IDX 67 78 65 79 44 80 45 81 53 82 46 83 47 84 51 85 54 86 48 87
REMARK SMILES IDX 49 88 52 89 50 90
REMARK H PARENT 8 7 15 24 74 43 42 54
REMARK Flexibility Score: inf
ROOT
ATOM      1  C   UNL A   1      31.823  29.200  26.901  1.00  0.00     0.002 C 
ENDROOT
BRANCH   1   2
ATOM      2  C   UNL A   1      33.092  28.338  26.843  1.00  0.00     0.021 C 
BRANCH   2   3
ATOM      3  C   UNL A   1      32.870  26.903  26.377  1.00  0.00     0.116 C 
BRANCH   3   4
ATOM      4  N   UNL A   1      31.525  26.439  26.653  1.00  0.00    -0.356 N 
ATOM      5  C   UNL A   1      30.565  25.976  25.800  1.00  0.00     0.229 C 
ATOM      6  O   UNL A   1      29.498  25.620  26.303  1.00  0.00    -0.274 OA
ATOM      7  H   UNL A   1      31.264  26.462  27.602  1.00  0.00     0.163 HD
BRANCH   5   8
ATOM      8  C   UNL A   1      30.841  25.930  24.289  1.00  0.00     0.127 C 
BRANCH   8   9
ATOM      9  C   UNL A   1      30.431  24.655  23.520  1.00  0.00     0.020 C 
BRANCH   9  10
ATOM     10  C   UNL A   1      31.291  23.371  23.525  1.00  0.00     0.001 C 
BRANCH  10  11
ATOM     11  C   UNL A   1      32.265  23.116  24.680  1.00  0.00    -0.003 C 
ATOM     12  C   UNL A   1      31.636  22.343  25.828  1.00  0.00     0.004 C 
ENDBRANCH  10  11
ENDBRANCH   9  10
ENDBRANCH   8   9
BRANCH   8  13
ATOM     13  C   UNL A   1      30.436  27.248  23.633  1.00  0.00     0.050 A 
ATOM     14  C   UNL A   1      29.144  27.699  23.405  1.00  0.00     0.046 A 
ATOM     15  N   UNL A   1      31.242  28.222  23.082  1.00  0.00    -0.272 N 
ATOM     16  C   UNL A   1      29.276  28.930  22.749  1.00  0.00     0.135 A 
ATOM     17  N   UNL A   1      30.550  29.269  22.583  1.00  0.00    -0.182 NA
ATOM     18  C   UNL A   1      32.676  28.322  22.982  1.00  0.00     0.174 C 
ENDBRANCH   8  13
ENDBRANCH   5   8
ENDBRANCH   3   4
ENDBRANCH   2   3
ENDBRANCH   1   2
BRANCH   1  19
ATOM     19  C   UNL A   1      31.796  30.411  25.965  1.00  0.00     0.002 C 
BRANCH  19  20
ATOM     20  C   UNL A   1      31.489  31.754  26.632  1.00  0.00     0.021 C 
BRANCH  20  21
ATOM     21  C   UNL A   1      32.711  32.552  27.074  1.00  0.00     0.116 C 
BRANCH  21  22
ATOM     22  N   UNL A   1      32.389  33.918  27.450  1.00  0.00    -0.352 N 
ATOM     23  C   UNL A   1      32.953  34.706  28.422  1.00  0.00     0.251 C 
ATOM     24  H   UNL A   1      31.663  34.339  26.934  1.00  0.00     0.163 HD
ATOM     25  O   UNL A   1      32.462  35.798  28.695  1.00  0.00    -0.269 OA
BRANCH  23  26
ATOM     26  C   UNL A   1      34.136  34.225  29.166  1.00  0.00     0.039 A 
ATOM     27  C   UNL A   1      33.939  33.450  30.312  1.00  0.00     0.014 A 
ATOM     28  C   UNL A   1      35.431  34.525  28.734  1.00  0.00     0.014 A 
ATOM     29  C   UNL A   1      35.040  32.922  30.987  1.00  0.00     0.010 A 
ATOM     30  C   UNL A   1      36.525  33.932  29.363  1.00  0.00     0.010 A 
ATOM     31  C   UNL A   1      36.341  33.125  30.496  1.00  0.00    -0.014 A 
BRANCH  31  32
ATOM     32  C   UNL A   1      37.514  32.491  31.150  1.00  0.00     0.031 A 
ATOM     33  C   UNL A   1      38.253  31.375  30.467  1.00  0.00     0.074 A 
ATOM     34  C   UNL A   1      37.879  32.887  32.385  1.00  0.00     0.049 A 
ATOM     35  N   UNL A   1      39.268  30.667  30.899  1.00  0.00    -0.248 NA
ATOM     36  C   UNL A   1      37.776  30.984  29.132  1.00  0.00     0.031 C 
ATOM     37  C   UNL A   1      37.213  33.927  33.170  1.00  0.00     0.029 A 
ATOM     38  N   UNL A   1      38.895  32.455  33.201  1.00  0.00    -0.354 N 
ATOM     39  C   UNL A   1      39.540  29.747  29.896  1.00  0.00     0.074 A 
ATOM     40  C   UNL A   1      38.550  29.944  28.860  1.00  0.00     0.031 C 
ATOM     41  C   UNL A   1      37.853  34.072  34.341  1.00  0.00     0.029 A 
ATOM     42  C   UNL A   1      38.946  33.108  34.410  1.00  0.00     0.049 A 
ATOM     43  H   UNL A   1      39.527  31.745  32.945  1.00  0.00     0.167 HD
ATOM     44  C   UNL A   1      40.542  28.837  29.834  1.00  0.00     0.037 A 
ATOM     45  C   UNL A   1      39.776  32.940  35.458  1.00  0.00     0.037 A 
ATOM     46  C   UNL A   1      41.535  28.655  30.861  1.00  0.00     0.049 A 
ATOM     47  C   UNL A   1      40.865  31.905  35.372  1.00  0.00     0.074 A 
ATOM     48  C   UNL A   1      42.621  27.798  30.869  1.00  0.00     0.029 A 
ATOM     49  N   UNL A   1      41.557  29.336  32.070  1.00  0.00    -0.354 N 
ATOM     50  N   UNL A   1      41.159  31.092  34.387  1.00  0.00    -0.248 NA
ATOM     51  C   UNL A   1      41.745  31.772  36.542  1.00  0.00     0.031 C 
ATOM     52  C   UNL A   1      43.265  27.918  32.104  1.00  0.00     0.029 A 
ATOM     53  C   UNL A   1      42.620  28.897  32.842  1.00  0.00     0.049 A 
ATOM     54  H   UNL A   1      40.911  30.030  32.338  1.00  0.00     0.167 HD
ATOM     55  C   UNL A   1      42.271  30.372  34.805  1.00  0.00     0.074 A 
ATOM     56  C   UNL A   1      42.611  30.860  36.125  1.00  0.00     0.031 C 
ATOM     57  C   UNL A   1      42.950  29.396  34.153  1.00  0.00     0.037 A 
BRANCH  44  58
ATOM     58  C   UNL A   1      40.616  27.964  28.612  1.00  0.00     0.064 A 
ATOM     59  C   UNL A   1      41.350  28.343  27.477  1.00  0.00     0.173 A 
ATOM     60  C   UNL A   1      39.975  26.716  28.589  1.00  0.00     0.173 A 
ATOM     61  F   UNL A   1      41.973  29.531  27.441  1.00  0.00    -0.203 F 
ATOM     62  C   UNL A   1      41.414  27.520  26.355  1.00  0.00     0.198 A 
ATOM     63  C   UNL A   1      40.071  25.880  27.479  1.00  0.00     0.198 A 
ATOM     64  F   UNL A   1      39.265  26.300  29.649  1.00  0.00    -0.203 F 
ATOM     65  F   UNL A   1      42.077  27.928  25.265  1.00  0.00    -0.200 F 
ATOM     66  C   UNL A   1      40.782  26.286  26.361  1.00  0.00     0.200 A 
ATOM     67  F   UNL A   1      39.472  24.682  27.492  1.00  0.00    -0.200 F 
ATOM     68  F   UNL A   1      40.852  25.491  25.284  1.00  0.00    -0.200 F 
ENDBRANCH  44  58
BRANCH  45  69
ATOM     69  C   UNL A   1      39.620  33.784  36.672  1.00  0.00     0.064 A 
ATOM     70  C   UNL A   1      38.851  33.347  37.760  1.00  0.00     0.173 A 
ATOM     71  C   UNL A   1      40.227  35.045  36.769  1.00  0.00     0.173 A 
ATOM     72  F   UNL A   1      38.234  32.157  37.710  1.00  0.00    -0.203 F 
ATOM     73  C   UNL A   1      38.672  34.151  38.885  1.00  0.00     0.198 A 
ATOM     74  C   UNL A   1      40.074  35.833  37.908  1.00  0.00     0.198 A 
ATOM     75  F   UNL A   1      40.978  35.508  35.759  1.00  0.00    -0.203 F 
ATOM     76  F   UNL A   1      37.887  33.731  39.887  1.00  0.00    -0.200 F 
ATOM     77  C   UNL A   1      39.288  35.390  38.960  1.00  0.00     0.200 A 
ATOM     78  F   UNL A   1      40.686  37.023  37.983  1.00  0.00    -0.200 F 
ATOM     79  F   UNL A   1      39.118  36.160  40.043  1.00  0.00    -0.200 F 
ENDBRANCH  45  69
BRANCH  57  80
ATOM     80  C   UNL A   1      44.154  28.815  34.842  1.00  0.00     0.064 A 
ATOM     81  C   UNL A   1      45.430  29.382  34.705  1.00  0.00     0.173 A 
ATOM     82  C   UNL A   1      44.019  27.695  35.678  1.00  0.00     0.173 A 
ATOM     83  F   UNL A   1      45.615  30.443  33.905  1.00  0.00    -0.203 F 
ATOM     84  C   UNL A   1      46.531  28.830  35.354  1.00  0.00     0.198 A 
ATOM     85  C   UNL A   1      45.116  27.170  36.354  1.00  0.00     0.198 A 
ATOM     86  F   UNL A   1      42.821  27.119  35.851  1.00  0.00    -0.203 F 
ATOM     87  F   UNL A   1      47.750  29.355  35.164  1.00  0.00    -0.200 F 
ATOM     88  C   UNL A   1      46.373  27.730  36.184  1.00  0.00     0.200 A 
ATOM     89  F   UNL A   1      44.958  26.117  37.169  1.00  0.00    -0.200 F 
ATOM     90  F   UNL A   1      47.433  27.207  36.815  1.00  0.00    -0.200 F 
ENDBRANCH  57  80
ENDBRANCH  31  32
ENDBRANCH  23  26
ENDBRANCH  21  22
ENDBRANCH  20  21
ENDBRANCH  19  20
ENDBRANCH   1  19
TORSDOF 17
ENDMDL
