MODEL 1
REMARK VINA RESULT:     -10.8      0.000      0.000
REMARK SMILES C[C@H]([NH2+]CCc1nccn1C)[C@@H](C)C(=O)NCCCCCCNC(=O)c1ccc(-c2c3nc(c(-c4c(F)c(F)c(F)c(F)c4F)c4ccc([nH]4)c(-c4c(F)c(F)c(F)c(F)c4F)c4nc(c(-c5c(F)c(F)c(F)c(F)c5F)c5ccc2[nH]5)C=C4)C=C3)cc1
REMARK SMILES IDX 18 1 17 2 16 3 14 4 15 5 12 7 13 8 2 9 1 10 3 11 4 14 5 15
REMARK SMILES IDX 6 16 7 17 10 18 8 19 9 20 11 21 19 22 20 23 21 24 22 25
REMARK SMILES IDX 23 26 24 27 25 29 26 30 27 31 88 32 28 33 87 34 29 35 30 36
REMARK SMILES IDX 31 37 81 38 32 39 86 40 80 41 82 42 33 43 85 44 79 45 78 46
REMARK SMILES IDX 34 48 66 49 46 50 65 51 47 52 50 53 64 54 83 55 48 56 49 57
REMARK SMILES IDX 63 59 84 60 51 61 35 62 36 63 44 64 37 65 38 66 42 67 45 68
REMARK SMILES IDX 39 69 40 70 43 71 41 72 67 73 68 74 76 75 69 76 70 77 74 78
REMARK SMILES IDX 77 79 71 80 72 81 75 82 73 83 52 84 53 85 61 86 54 87 55 88
REMARK SMILES IDX 59 89 62 90 56 91 57 92 60 93 58 94
REMARK H PARENT 16 6 3 12 3 13 23 28 82 47 50 58
REMARK Flexibility Score: inf
ROOT
ATOM      1  C   UNL A   1      32.321  28.672  27.547  1.00  0.00     0.021 C 
ENDROOT
BRANCH   1   2
ATOM      2  C   UNL A   1      32.715  27.425  26.755  1.00  0.00     0.116 C 
BRANCH   2   3
ATOM      3  N   UNL A   1      31.672  26.420  26.806  1.00  0.00    -0.356 N 
ATOM      4  C   UNL A   1      30.857  25.926  25.838  1.00  0.00     0.228 C 
ATOM      5  O   UNL A   1      29.993  25.117  26.186  1.00  0.00    -0.275 OA
ATOM      6  H   UNL A   1      31.530  26.027  27.697  1.00  0.00     0.163 HD
BRANCH   4   7
ATOM      7  C   UNL A   1      30.990  26.327  24.370  1.00  0.00     0.133 C 
ATOM      8  C   UNL A   1      29.656  26.878  23.856  1.00  0.00     0.024 C 
BRANCH   7   9
ATOM      9  C   UNL A   1      31.648  25.226  23.498  1.00  0.00     0.191 C 
ATOM     10  C   UNL A   1      31.654  25.659  22.023  1.00  0.00     0.076 C 
BRANCH   9  11
ATOM     11  N   UNL A   1      30.941  23.954  23.699  1.00  0.00    -0.343 N 
ATOM     12  H   UNL A   1      30.230  23.872  22.972  1.00  0.00     0.346 HD
ATOM     13  H   UNL A   1      30.560  23.991  24.644  1.00  0.00     0.346 HD
BRANCH  11  14
ATOM     14  C   UNL A   1      31.776  22.755  23.649  1.00  0.00     0.268 C 
BRANCH  14  15
ATOM     15  C   UNL A   1      33.206  22.976  24.172  1.00  0.00     0.136 C 
BRANCH  15  16
ATOM     16  C   UNL A   1      33.406  22.660  25.625  1.00  0.00     0.114 A 
ATOM     17  N   UNL A   1      32.547  22.985  26.574  1.00  0.00    -0.242 NA
ATOM     18  N   UNL A   1      34.475  21.983  26.167  1.00  0.00    -0.338 N 
ATOM     19  C   UNL A   1      33.051  22.478  27.739  1.00  0.00     0.131 A 
ATOM     20  C   UNL A   1      34.242  21.836  27.509  1.00  0.00     0.107 A 
ATOM     21  C   UNL A   1      35.642  21.469  25.495  1.00  0.00     0.151 C 
ENDBRANCH  15  16
ENDBRANCH  14  15
ENDBRANCH  11  14
ENDBRANCH   9  11
ENDBRANCH   7   9
ENDBRANCH   4   7
ENDBRANCH   2   3
ENDBRANCH   1   2
BRANCH   1  22
ATOM     22  C   UNL A   1      32.699  29.994  26.869  1.00  0.00     0.002 C 
BRANCH  22  23
ATOM     23  C   UNL A   1      31.545  30.720  26.170  1.00  0.00     0.002 C 
BRANCH  23  24
ATOM     24  C   UNL A   1      31.435  32.216  26.476  1.00  0.00     0.021 C 
BRANCH  24  25
ATOM     25  C   UNL A   1      32.566  32.777  27.332  1.00  0.00     0.116 C 
BRANCH  25  26
ATOM     26  N   UNL A   1      32.371  34.184  27.643  1.00  0.00    -0.352 N 
ATOM     27  C   UNL A   1      32.990  34.960  28.586  1.00  0.00     0.251 C 
ATOM     28  H   UNL A   1      31.696  34.646  27.096  1.00  0.00     0.163 HD
ATOM     29  O   UNL A   1      32.561  36.088  28.839  1.00  0.00    -0.269 OA
BRANCH  27  30
ATOM     30  C   UNL A   1      34.163  34.445  29.321  1.00  0.00     0.039 A 
ATOM     31  C   UNL A   1      33.970  33.852  30.571  1.00  0.00     0.014 A 
ATOM     32  C   UNL A   1      35.451  34.553  28.785  1.00  0.00     0.014 A 
ATOM     33  C   UNL A   1      35.058  33.310  31.256  1.00  0.00     0.010 A 
ATOM     34  C   UNL A   1      36.524  33.955  29.440  1.00  0.00     0.010 A 
ATOM     35  C   UNL A   1      36.338  33.324  30.679  1.00  0.00    -0.014 A 
BRANCH  35  36
ATOM     36  C   UNL A   1      37.486  32.661  31.346  1.00  0.00     0.031 A 
ATOM     37  C   UNL A   1      38.182  31.501  30.692  1.00  0.00     0.074 A 
ATOM     38  C   UNL A   1      37.855  33.062  32.578  1.00  0.00     0.049 A 
ATOM     39  N   UNL A   1      39.157  30.757  31.149  1.00  0.00    -0.248 NA
ATOM     40  C   UNL A   1      37.701  31.110  29.358  1.00  0.00     0.031 C 
ATOM     41  C   UNL A   1      37.223  34.141  33.338  1.00  0.00     0.029 A 
ATOM     42  N   UNL A   1      38.840  32.601  33.413  1.00  0.00    -0.354 N 
ATOM     43  C   UNL A   1      39.397  29.805  30.168  1.00  0.00     0.074 A 
ATOM     44  C   UNL A   1      38.436  30.034  29.111  1.00  0.00     0.031 C 
ATOM     45  C   UNL A   1      37.846  34.271  34.519  1.00  0.00     0.029 A 
ATOM     46  C   UNL A   1      38.895  33.261  34.616  1.00  0.00     0.049 A 
ATOM     47  H   UNL A   1      39.450  31.865  33.173  1.00  0.00     0.167 HD
ATOM     48  C   UNL A   1      40.348  28.840  30.143  1.00  0.00     0.037 A 
ATOM     49  C   UNL A   1      39.696  33.068  35.682  1.00  0.00     0.037 A 
ATOM     50  C   UNL A   1      41.319  28.631  31.186  1.00  0.00     0.049 A 
ATOM     51  C   UNL A   1      40.740  31.986  35.630  1.00  0.00     0.074 A 
ATOM     52  C   UNL A   1      42.371  27.732  31.218  1.00  0.00     0.029 A 
ATOM     53  N   UNL A   1      41.352  29.327  32.385  1.00  0.00    -0.354 N 
ATOM     54  N   UNL A   1      41.010  31.144  34.664  1.00  0.00    -0.248 NA
ATOM     55  C   UNL A   1      41.592  31.832  36.817  1.00  0.00     0.031 C 
ATOM     56  C   UNL A   1      43.010  27.850  32.458  1.00  0.00     0.029 A 
ATOM     57  C   UNL A   1      42.386  28.856  33.178  1.00  0.00     0.049 A 
ATOM     58  H   UNL A   1      40.731  30.048  32.637  1.00  0.00     0.167 HD
ATOM     59  C   UNL A   1      42.071  30.372  35.116  1.00  0.00     0.074 A 
ATOM     60  C   UNL A   1      42.409  30.861  36.436  1.00  0.00     0.031 C 
ATOM     61  C   UNL A   1      42.707  29.349  34.494  1.00  0.00     0.037 A 
BRANCH  48  62
ATOM     62  C   UNL A   1      40.389  27.934  28.946  1.00  0.00     0.064 A 
ATOM     63  C   UNL A   1      39.666  26.732  28.908  1.00  0.00     0.173 A 
ATOM     64  C   UNL A   1      41.127  28.292  27.808  1.00  0.00     0.173 A 
ATOM     65  F   UNL A   1      38.953  26.340  29.975  1.00  0.00    -0.203 F 
ATOM     66  C   UNL A   1      39.704  25.908  27.787  1.00  0.00     0.198 A 
ATOM     67  C   UNL A   1      41.139  27.479  26.677  1.00  0.00     0.198 A 
ATOM     68  F   UNL A   1      41.831  29.434  27.788  1.00  0.00    -0.203 F 
ATOM     69  F   UNL A   1      39.044  24.741  27.791  1.00  0.00    -0.200 F 
ATOM     70  C   UNL A   1      40.434  26.285  26.670  1.00  0.00     0.200 A 
ATOM     71  F   UNL A   1      41.835  27.851  25.593  1.00  0.00    -0.200 F 
ATOM     72  F   UNL A   1      40.464  25.495  25.588  1.00  0.00    -0.200 F 
ENDBRANCH  48  62
BRANCH  49  73
ATOM     73  C   UNL A   1      39.550  33.931  36.882  1.00  0.00     0.064 A 
ATOM     74  C   UNL A   1      38.781  33.516  37.977  1.00  0.00     0.173 A 
ATOM     75  C   UNL A   1      40.178  35.183  36.961  1.00  0.00     0.173 A 
ATOM     76  F   UNL A   1      38.145  32.336  37.940  1.00  0.00    -0.203 F 
ATOM     77  C   UNL A   1      38.632  34.328  39.100  1.00  0.00     0.198 A 
ATOM     78  C   UNL A   1      40.050  35.982  38.095  1.00  0.00     0.198 A 
ATOM     79  F   UNL A   1      40.928  35.623  35.940  1.00  0.00    -0.203 F 
ATOM     80  F   UNL A   1      37.858  33.923  40.117  1.00  0.00    -0.200 F 
ATOM     81  C   UNL A   1      39.272  35.556  39.161  1.00  0.00     0.200 A 
ATOM     82  F   UNL A   1      40.681  37.161  38.156  1.00  0.00    -0.200 F 
ATOM     83  F   UNL A   1      39.133  36.333  40.244  1.00  0.00    -0.200 F 
ENDBRANCH  49  73
BRANCH  61  84
ATOM     84  C   UNL A   1      43.841  28.698  35.230  1.00  0.00     0.064 A 
ATOM     85  C   UNL A   1      43.631  27.599  36.075  1.00  0.00     0.173 A 
ATOM     86  C   UNL A   1      45.156  29.156  35.061  1.00  0.00     0.173 A 
ATOM     87  F   UNL A   1      42.389  27.134  36.282  1.00  0.00    -0.203 F 
ATOM     88  C   UNL A   1      44.693  26.996  36.743  1.00  0.00     0.198 A 
ATOM     89  C   UNL A   1      46.220  28.533  35.707  1.00  0.00     0.198 A 
ATOM     90  F   UNL A   1      45.411  30.201  34.260  1.00  0.00    -0.203 F 
ATOM     91  F   UNL A   1      44.464  25.976  37.581  1.00  0.00    -0.200 F 
ATOM     92  C   UNL A   1      45.987  27.458  36.553  1.00  0.00     0.200 A 
ATOM     93  F   UNL A   1      47.471  28.973  35.514  1.00  0.00    -0.200 F 
ATOM     94  F   UNL A   1      47.009  26.873  37.191  1.00  0.00    -0.200 F 
ENDBRANCH  61  84
ENDBRANCH  35  36
ENDBRANCH  27  30
ENDBRANCH  25  26
ENDBRANCH  24  25
ENDBRANCH  23  24
ENDBRANCH  22  23
ENDBRANCH   1  22
TORSDOF 18
ENDMDL
MODEL 2
REMARK VINA RESULT:     -10.7      0.845      1.986
REMARK SMILES C[C@H]([NH2+]CCc1nccn1C)[C@@H](C)C(=O)NCCCCCCNC(=O)c1ccc(-c2c3nc(c(-c4c(F)c(F)c(F)c(F)c4F)c4ccc([nH]4)c(-c4c(F)c(F)c(F)c(F)c4F)c4nc(c(-c5c(F)c(F)c(F)c(F)c5F)c5ccc2[nH]5)C=C4)C=C3)cc1
REMARK SMILES IDX 18 1 17 2 16 3 14 4 15 5 12 7 13 8 2 9 1 10 3 11 4 14 5 15
REMARK SMILES IDX 6 16 7 17 10 18 8 19 9 20 11 21 19 22 20 23 21 24 22 25
REMARK SMILES IDX 23 26 24 27 25 29 26 30 27 31 88 32 28 33 87 34 29 35 30 36
REMARK SMILES IDX 31 37 81 38 32 39 86 40 80 41 82 42 33 43 85 44 79 45 78 46
REMARK SMILES IDX 34 48 66 49 46 50 65 51 47 52 50 53 64 54 83 55 48 56 49 57
REMARK SMILES IDX 63 59 84 60 51 61 35 62 36 63 44 64 37 65 38 66 42 67 45 68
REMARK SMILES IDX 39 69 40 70 43 71 41 72 67 73 68 74 76 75 69 76 70 77 74 78
REMARK SMILES IDX 77 79 71 80 72 81 75 82 73 83 52 84 53 85 61 86 54 87 55 88
REMARK SMILES IDX 59 89 62 90 56 91 57 92 60 93 58 94
REMARK H PARENT 16 6 3 12 3 13 23 28 82 47 50 58
REMARK Flexibility Score: inf
ROOT
ATOM      1  C   UNL A   1      31.914  28.298  26.963  1.00  0.00     0.021 C 
ENDROOT
BRANCH   1   2
ATOM      2  C   UNL A   1      32.537  27.833  25.647  1.00  0.00     0.116 C 
BRANCH   2   3
ATOM      3  N   UNL A   1      31.544  27.229  24.781  1.00  0.00    -0.356 N 
ATOM      4  C   UNL A   1      31.675  26.426  23.693  1.00  0.00     0.228 C 
ATOM      5  O   UNL A   1      30.642  26.117  23.092  1.00  0.00    -0.275 OA
ATOM      6  H   UNL A   1      30.613  27.436  25.023  1.00  0.00     0.163 HD
BRANCH   4   7
ATOM      7  C   UNL A   1      33.029  25.903  23.217  1.00  0.00     0.133 C 
ATOM      8  C   UNL A   1      33.065  25.862  21.686  1.00  0.00     0.024 C 
BRANCH   7   9
ATOM      9  C   UNL A   1      33.462  24.599  23.939  1.00  0.00     0.191 C 
ATOM     10  C   UNL A   1      33.900  23.549  22.905  1.00  0.00     0.076 C 
BRANCH   9  11
ATOM     11  N   UNL A   1      32.361  24.117  24.784  1.00  0.00    -0.343 N 
ATOM     12  H   UNL A   1      32.091  23.192  24.452  1.00  0.00     0.346 HD
ATOM     13  H   UNL A   1      31.620  24.815  24.704  1.00  0.00     0.346 HD
BRANCH  11  14
ATOM     14  C   UNL A   1      32.663  24.014  26.210  1.00  0.00     0.268 C 
BRANCH  14  15
ATOM     15  C   UNL A   1      32.445  22.606  26.789  1.00  0.00     0.136 C 
BRANCH  15  16
ATOM     16  C   UNL A   1      32.809  21.478  25.868  1.00  0.00     0.114 A 
ATOM     17  N   UNL A   1      31.927  20.768  25.187  1.00  0.00    -0.242 NA
ATOM     18  N   UNL A   1      34.084  21.043  25.585  1.00  0.00    -0.338 N 
ATOM     19  C   UNL A   1      32.645  19.889  24.427  1.00  0.00     0.131 A 
ATOM     20  C   UNL A   1      33.990  20.051  24.645  1.00  0.00     0.107 A 
ATOM     21  C   UNL A   1      35.333  21.524  26.122  1.00  0.00     0.151 C 
ENDBRANCH  15  16
ENDBRANCH  14  15
ENDBRANCH  11  14
ENDBRANCH   9  11
ENDBRANCH   7   9
ENDBRANCH   4   7
ENDBRANCH   2   3
ENDBRANCH   1   2
BRANCH   1  22
ATOM     22  C   UNL A   1      32.118  29.786  27.265  1.00  0.00     0.002 C 
BRANCH  22  23
ATOM     23  C   UNL A   1      31.602  30.745  26.187  1.00  0.00     0.002 C 
BRANCH  23  24
ATOM     24  C   UNL A   1      31.410  32.195  26.642  1.00  0.00     0.021 C 
BRANCH  24  25
ATOM     25  C   UNL A   1      32.638  32.829  27.288  1.00  0.00     0.116 C 
BRANCH  25  26
ATOM     26  N   UNL A   1      32.416  34.224  27.633  1.00  0.00    -0.352 N 
ATOM     27  C   UNL A   1      33.010  34.985  28.605  1.00  0.00     0.251 C 
ATOM     28  H   UNL A   1      31.741  34.689  27.089  1.00  0.00     0.163 HD
ATOM     29  O   UNL A   1      32.559  36.098  28.882  1.00  0.00    -0.269 OA
BRANCH  27  30
ATOM     30  C   UNL A   1      34.182  34.469  29.341  1.00  0.00     0.039 A 
ATOM     31  C   UNL A   1      33.988  33.889  30.598  1.00  0.00     0.014 A 
ATOM     32  C   UNL A   1      35.469  34.564  28.801  1.00  0.00     0.014 A 
ATOM     33  C   UNL A   1      35.075  33.346  31.284  1.00  0.00     0.010 A 
ATOM     34  C   UNL A   1      36.540  33.965  29.458  1.00  0.00     0.010 A 
ATOM     35  C   UNL A   1      36.353  33.347  30.703  1.00  0.00    -0.014 A 
BRANCH  35  36
ATOM     36  C   UNL A   1      37.499  32.683  31.374  1.00  0.00     0.031 A 
ATOM     37  C   UNL A   1      38.187  31.515  30.728  1.00  0.00     0.074 A 
ATOM     38  C   UNL A   1      37.872  33.091  32.602  1.00  0.00     0.049 A 
ATOM     39  N   UNL A   1      39.160  30.769  31.189  1.00  0.00    -0.248 NA
ATOM     40  C   UNL A   1      37.703  31.116  29.397  1.00  0.00     0.031 C 
ATOM     41  C   UNL A   1      37.247  34.179  33.355  1.00  0.00     0.029 A 
ATOM     42  N   UNL A   1      38.856  32.631  33.439  1.00  0.00    -0.354 N 
ATOM     43  C   UNL A   1      39.394  29.808  30.214  1.00  0.00     0.074 A 
ATOM     44  C   UNL A   1      38.432  30.035  29.157  1.00  0.00     0.031 C 
ATOM     45  C   UNL A   1      37.872  34.314  34.535  1.00  0.00     0.029 A 
ATOM     46  C   UNL A   1      38.916  33.300  34.637  1.00  0.00     0.049 A 
ATOM     47  H   UNL A   1      39.462  31.890  33.204  1.00  0.00     0.167 HD
ATOM     48  C   UNL A   1      40.339  28.839  30.195  1.00  0.00     0.037 A 
ATOM     49  C   UNL A   1      39.718  33.110  35.703  1.00  0.00     0.037 A 
ATOM     50  C   UNL A   1      41.310  28.631  31.238  1.00  0.00     0.049 A 
ATOM     51  C   UNL A   1      40.756  32.023  35.658  1.00  0.00     0.074 A 
ATOM     52  C   UNL A   1      42.358  27.727  31.275  1.00  0.00     0.029 A 
ATOM     53  N   UNL A   1      41.349  29.336  32.432  1.00  0.00    -0.354 N 
ATOM     54  N   UNL A   1      41.020  31.172  34.697  1.00  0.00    -0.248 NA
ATOM     55  C   UNL A   1      41.609  31.873  36.844  1.00  0.00     0.031 C 
ATOM     56  C   UNL A   1      43.000  27.851  32.513  1.00  0.00     0.029 A 
ATOM     57  C   UNL A   1      42.382  28.866  33.227  1.00  0.00     0.049 A 
ATOM     58  H   UNL A   1      40.732  30.063  32.680  1.00  0.00     0.167 HD
ATOM     59  C   UNL A   1      42.078  30.398  35.153  1.00  0.00     0.074 A 
ATOM     60  C   UNL A   1      42.421  30.895  36.470  1.00  0.00     0.031 C 
ATOM     61  C   UNL A   1      42.707  29.367  34.538  1.00  0.00     0.037 A 
BRANCH  48  62
ATOM     62  C   UNL A   1      40.373  27.923  29.005  1.00  0.00     0.064 A 
ATOM     63  C   UNL A   1      39.625  26.737  28.966  1.00  0.00     0.173 A 
ATOM     64  C   UNL A   1      41.131  28.257  27.872  1.00  0.00     0.173 A 
ATOM     65  F   UNL A   1      38.892  26.368  30.028  1.00  0.00    -0.203 F 
ATOM     66  C   UNL A   1      39.658  25.905  27.851  1.00  0.00     0.198 A 
ATOM     67  C   UNL A   1      41.138  27.436  26.747  1.00  0.00     0.198 A 
ATOM     68  F   UNL A   1      41.860  29.383  27.853  1.00  0.00    -0.203 F 
ATOM     69  F   UNL A   1      38.972  24.753  27.856  1.00  0.00    -0.200 F 
ATOM     70  C   UNL A   1      40.408  26.258  26.740  1.00  0.00     0.200 A 
ATOM     71  F   UNL A   1      41.854  27.786  25.669  1.00  0.00    -0.200 F 
ATOM     72  F   UNL A   1      40.432  25.459  25.664  1.00  0.00    -0.200 F 
ENDBRANCH  48  62
BRANCH  49  73
ATOM     73  C   UNL A   1      39.578  33.983  36.897  1.00  0.00     0.064 A 
ATOM     74  C   UNL A   1      40.220  35.227  36.957  1.00  0.00     0.173 A 
ATOM     75  C   UNL A   1      38.798  33.596  37.997  1.00  0.00     0.173 A 
ATOM     76  F   UNL A   1      40.992  35.632  35.938  1.00  0.00    -0.203 F 
ATOM     77  C   UNL A   1      40.100  36.045  38.080  1.00  0.00     0.198 A 
ATOM     78  C   UNL A   1      38.657  34.426  39.107  1.00  0.00     0.198 A 
ATOM     79  F   UNL A   1      38.160  32.417  37.985  1.00  0.00    -0.203 F 
ATOM     80  F   UNL A   1      40.757  37.212  38.127  1.00  0.00    -0.200 F 
ATOM     81  C   UNL A   1      39.314  35.646  39.150  1.00  0.00     0.200 A 
ATOM     82  F   UNL A   1      37.886  34.044  40.133  1.00  0.00    -0.200 F 
ATOM     83  F   UNL A   1      39.195  36.436  40.226  1.00  0.00    -0.200 F 
ENDBRANCH  49  73
BRANCH  61  84
ATOM     84  C   UNL A   1      43.839  28.716  35.277  1.00  0.00     0.064 A 
ATOM     85  C   UNL A   1      45.166  29.131  35.098  1.00  0.00     0.173 A 
ATOM     86  C   UNL A   1      43.590  27.689  36.201  1.00  0.00     0.173 A 
ATOM     87  F   UNL A   1      45.458  30.098  34.214  1.00  0.00    -0.203 F 
ATOM     88  C   UNL A   1      46.206  28.527  35.799  1.00  0.00     0.198 A 
ATOM     89  C   UNL A   1      44.628  27.107  36.922  1.00  0.00     0.198 A 
ATOM     90  F   UNL A   1      42.337  27.259  36.412  1.00  0.00    -0.203 F 
ATOM     91  F   UNL A   1      47.472  28.908  35.579  1.00  0.00    -0.200 F 
ATOM     92  C   UNL A   1      45.937  27.521  36.716  1.00  0.00     0.200 A 
ATOM     93  F   UNL A   1      44.365  26.144  37.816  1.00  0.00    -0.200 F 
ATOM     94  F   UNL A   1      46.937  26.945  37.394  1.00  0.00    -0.200 F 
ENDBRANCH  61  84
ENDBRANCH  35  36
ENDBRANCH  27  30
ENDBRANCH  25  26
ENDBRANCH  24  25
ENDBRANCH  23  24
ENDBRANCH  22  23
ENDBRANCH   1  22
TORSDOF 18
ENDMDL
MODEL 3
REMARK VINA RESULT:     -10.6      2.120      8.020
REMARK SMILES C[C@H]([NH2+]CCc1nccn1C)[C@@H](C)C(=O)NCCCCCCNC(=O)c1ccc(-c2c3nc(c(-c4c(F)c(F)c(F)c(F)c4F)c4ccc([nH]4)c(-c4c(F)c(F)c(F)c(F)c4F)c4nc(c(-c5c(F)c(F)c(F)c(F)c5F)c5ccc2[nH]5)C=C4)C=C3)cc1
REMARK SMILES IDX 18 1 17 2 16 3 14 4 15 5 12 7 13 8 2 9 1 10 3 11 4 14 5 15
REMARK SMILES IDX 6 16 7 17 10 18 8 19 9 20 11 21 19 22 20 23 21 24 22 25
REMARK SMILES IDX 23 26 24 27 25 29 26 30 27 31 88 32 28 33 87 34 29 35 30 36
REMARK SMILES IDX 31 37 81 38 32 39 86 40 80 41 82 42 33 43 85 44 79 45 78 46
REMARK SMILES IDX 34 48 66 49 46 50 65 51 47 52 50 53 64 54 83 55 48 56 49 57
REMARK SMILES IDX 63 59 84 60 51 61 35 62 36 63 44 64 37 65 38 66 42 67 45 68
REMARK SMILES IDX 39 69 40 70 43 71 41 72 67 73 68 74 76 75 69 76 70 77 74 78
REMARK SMILES IDX 77 79 71 80 72 81 75 82 73 83 52 84 53 85 61 86 54 87 55 88
REMARK SMILES IDX 59 89 62 90 56 91 57 92 60 93 58 94
REMARK H PARENT 16 6 3 12 3 13 23 28 82 47 50 58
REMARK Flexibility Score: inf
ROOT
ATOM      1  C   UNL A   1      35.486  31.366  28.018  1.00  0.00     0.021 C 
ENDROOT
BRANCH   1   2
ATOM      2  C   UNL A   1      34.815  30.057  27.600  1.00  0.00     0.116 C 
BRANCH   2   3
ATOM      3  N   UNL A   1      33.588  30.307  26.870  1.00  0.00    -0.356 N 
ATOM      4  C   UNL A   1      33.040  29.677  25.798  1.00  0.00     0.228 C 
ATOM      5  O   UNL A   1      32.006  30.160  25.327  1.00  0.00    -0.275 OA
ATOM      6  H   UNL A   1      33.060  31.064  27.210  1.00  0.00     0.163 HD
BRANCH   4   7
ATOM      7  C   UNL A   1      33.648  28.416  25.189  1.00  0.00     0.133 C 
ATOM      8  C   UNL A   1      33.954  28.647  23.705  1.00  0.00     0.024 C 
BRANCH   7   9
ATOM      9  C   UNL A   1      32.842  27.133  25.521  1.00  0.00     0.191 C 
ATOM     10  C   UNL A   1      33.801  25.946  25.713  1.00  0.00     0.076 C 
BRANCH   9  11
ATOM     11  N   UNL A   1      31.859  26.882  24.458  1.00  0.00    -0.343 N 
ATOM     12  H   UNL A   1      32.161  26.058  23.938  1.00  0.00     0.346 HD
ATOM     13  H   UNL A   1      31.829  27.734  23.897  1.00  0.00     0.346 HD
BRANCH  11  14
ATOM     14  C   UNL A   1      30.489  26.652  24.911  1.00  0.00     0.268 C 
BRANCH  14  15
ATOM     15  C   UNL A   1      29.438  26.776  23.794  1.00  0.00     0.136 C 
BRANCH  15  16
ATOM     16  C   UNL A   1      29.439  28.088  23.066  1.00  0.00     0.114 A 
ATOM     17  N   UNL A   1      30.516  28.632  22.529  1.00  0.00    -0.242 NA
ATOM     18  N   UNL A   1      28.342  28.888  22.836  1.00  0.00    -0.338 N 
ATOM     19  C   UNL A   1      30.102  29.779  21.912  1.00  0.00     0.131 A 
ATOM     20  C   UNL A   1      28.750  29.951  22.075  1.00  0.00     0.107 A 
ATOM     21  C   UNL A   1      26.981  28.682  23.263  1.00  0.00     0.151 C 
ENDBRANCH  15  16
ENDBRANCH  14  15
ENDBRANCH  11  14
ENDBRANCH   9  11
ENDBRANCH   7   9
ENDBRANCH   4   7
ENDBRANCH   2   3
ENDBRANCH   1   2
BRANCH   1  22
ATOM     22  C   UNL A   1      34.578  32.312  28.811  1.00  0.00     0.002 C 
BRANCH  22  23
ATOM     23  C   UNL A   1      34.468  33.733  28.247  1.00  0.00     0.002 C 
BRANCH  23  24
ATOM     24  C   UNL A   1      33.225  34.513  28.682  1.00  0.00     0.021 C 
BRANCH  24  25
ATOM     25  C   UNL A   1      33.514  35.783  29.477  1.00  0.00     0.116 C 
BRANCH  25  26
ATOM     26  N   UNL A   1      32.578  35.967  30.574  1.00  0.00    -0.352 N 
ATOM     27  C   UNL A   1      32.634  35.487  31.856  1.00  0.00     0.251 C 
ATOM     28  H   UNL A   1      31.789  36.518  30.366  1.00  0.00     0.163 HD
ATOM     29  O   UNL A   1      31.653  35.584  32.597  1.00  0.00    -0.269 OA
BRANCH  27  30
ATOM     30  C   UNL A   1      33.861  34.831  32.351  1.00  0.00     0.039 A 
ATOM     31  C   UNL A   1      33.774  33.532  32.858  1.00  0.00     0.014 A 
ATOM     32  C   UNL A   1      35.091  35.496  32.326  1.00  0.00     0.014 A 
ATOM     33  C   UNL A   1      34.931  32.875  33.280  1.00  0.00     0.010 A 
ATOM     34  C   UNL A   1      36.251  34.816  32.687  1.00  0.00     0.010 A 
ATOM     35  C   UNL A   1      36.183  33.499  33.163  1.00  0.00    -0.014 A 
BRANCH  35  36
ATOM     36  C   UNL A   1      37.433  32.777  33.510  1.00  0.00     0.031 A 
ATOM     37  C   UNL A   1      38.159  33.082  34.789  1.00  0.00     0.074 A 
ATOM     38  C   UNL A   1      37.951  31.895  32.634  1.00  0.00     0.049 A 
ATOM     39  N   UNL A   1      39.296  32.603  35.230  1.00  0.00    -0.248 NA
ATOM     40  C   UNL A   1      37.541  34.077  35.679  1.00  0.00     0.031 C 
ATOM     41  C   UNL A   1      37.366  31.552  31.337  1.00  0.00     0.029 A 
ATOM     42  N   UNL A   1      39.091  31.135  32.694  1.00  0.00    -0.354 N 
ATOM     43  C   UNL A   1      39.533  33.245  36.438  1.00  0.00     0.074 A 
ATOM     44  C   UNL A   1      38.448  34.181  36.640  1.00  0.00     0.031 C 
ATOM     45  C   UNL A   1      38.141  30.640  30.731  1.00  0.00     0.029 A 
ATOM     46  C   UNL A   1      39.296  30.360  31.579  1.00  0.00     0.049 A 
ATOM     47  H   UNL A   1      39.706  31.146  33.464  1.00  0.00     0.167 HD
ATOM     48  C   UNL A   1      40.552  33.053  37.309  1.00  0.00     0.037 A 
ATOM     49  C   UNL A   1      40.307  29.525  31.270  1.00  0.00     0.037 A 
ATOM     50  C   UNL A   1      41.616  32.102  37.116  1.00  0.00     0.049 A 
ATOM     51  C   UNL A   1      41.429  29.335  32.253  1.00  0.00     0.074 A 
ATOM     52  C   UNL A   1      42.651  31.779  37.976  1.00  0.00     0.029 A 
ATOM     53  N   UNL A   1      41.785  31.325  35.979  1.00  0.00    -0.354 N 
ATOM     54  N   UNL A   1      41.601  29.887  33.429  1.00  0.00    -0.248 NA
ATOM     55  C   UNL A   1      42.496  28.402  31.867  1.00  0.00     0.031 C 
ATOM     56  C   UNL A   1      43.474  30.842  37.340  1.00  0.00     0.029 A 
ATOM     57  C   UNL A   1      42.924  30.547  36.103  1.00  0.00     0.049 A 
ATOM     58  H   UNL A   1      41.184  31.328  35.199  1.00  0.00     0.167 HD
ATOM     59  C   UNL A   1      42.782  29.359  33.930  1.00  0.00     0.074 A 
ATOM     60  C   UNL A   1      43.274  28.424  32.939  1.00  0.00     0.031 C 
ATOM     61  C   UNL A   1      43.405  29.625  35.104  1.00  0.00     0.037 A 
BRANCH  48  62
ATOM     62  C   UNL A   1      40.567  33.889  38.556  1.00  0.00     0.064 A 
ATOM     63  C   UNL A   1      39.874  33.499  39.713  1.00  0.00     0.173 A 
ATOM     64  C   UNL A   1      41.317  35.074  38.609  1.00  0.00     0.173 A 
ATOM     65  F   UNL A   1      39.135  32.380  39.710  1.00  0.00    -0.203 F 
ATOM     66  C   UNL A   1      39.908  34.279  40.865  1.00  0.00     0.198 A 
ATOM     67  C   UNL A   1      41.371  35.836  39.773  1.00  0.00     0.198 A 
ATOM     68  F   UNL A   1      42.003  35.490  37.534  1.00  0.00    -0.203 F 
ATOM     69  F   UNL A   1      39.200  33.911  41.943  1.00  0.00    -0.200 F 
ATOM     70  C   UNL A   1      40.662  35.443  40.898  1.00  0.00     0.200 A 
ATOM     71  F   UNL A   1      42.111  36.954  39.807  1.00  0.00    -0.200 F 
ATOM     72  F   UNL A   1      40.699  36.188  42.010  1.00  0.00    -0.200 F 
ENDBRANCH  48  62
BRANCH  49  73
ATOM     73  C   UNL A   1      40.291  28.793  29.977  1.00  0.00     0.064 A 
ATOM     74  C   UNL A   1      39.608  27.577  29.847  1.00  0.00     0.173 A 
ATOM     75  C   UNL A   1      40.953  29.296  28.847  1.00  0.00     0.173 A 
ATOM     76  F   UNL A   1      38.978  27.047  30.906  1.00  0.00    -0.203 F 
ATOM     77  C   UNL A   1      39.601  26.882  28.639  1.00  0.00     0.198 A 
ATOM     78  C   UNL A   1      40.922  28.614  27.633  1.00  0.00     0.198 A 
ATOM     79  F   UNL A   1      41.617  30.459  28.919  1.00  0.00    -0.203 F 
ATOM     80  F   UNL A   1      38.973  25.701  28.553  1.00  0.00    -0.200 F 
ATOM     81  C   UNL A   1      40.252  27.404  27.532  1.00  0.00     0.200 A 
ATOM     82  F   UNL A   1      41.540  29.128  26.562  1.00  0.00    -0.200 F 
ATOM     83  F   UNL A   1      40.238  26.738  26.370  1.00  0.00    -0.200 F 
ENDBRANCH  49  73
BRANCH  61  84
ATOM     84  C   UNL A   1      44.680  28.886  35.387  1.00  0.00     0.064 A 
ATOM     85  C   UNL A   1      44.677  27.635  36.020  1.00  0.00     0.173 A 
ATOM     86  C   UNL A   1      45.915  29.419  34.988  1.00  0.00     0.173 A 
ATOM     87  F   UNL A   1      43.522  27.092  36.436  1.00  0.00    -0.203 F 
ATOM     88  C   UNL A   1      45.866  26.955  36.266  1.00  0.00     0.198 A 
ATOM     89  C   UNL A   1      47.100  28.722  35.209  1.00  0.00     0.198 A 
ATOM     90  F   UNL A   1      45.971  30.609  34.374  1.00  0.00    -0.203 F 
ATOM     91  F   UNL A   1      45.843  25.782  36.914  1.00  0.00    -0.200 F 
ATOM     92  C   UNL A   1      47.075  27.494  35.854  1.00  0.00     0.200 A 
ATOM     93  F   UNL A   1      48.266  29.239  34.799  1.00  0.00    -0.200 F 
ATOM     94  F   UNL A   1      48.218  26.835  36.085  1.00  0.00    -0.200 F 
ENDBRANCH  61  84
ENDBRANCH  35  36
ENDBRANCH  27  30
ENDBRANCH  25  26
ENDBRANCH  24  25
ENDBRANCH  23  24
ENDBRANCH  22  23
ENDBRANCH   1  22
TORSDOF 18
ENDMDL
