MODEL 1
REMARK VINA RESULT:     -11.7      0.000      0.000
REMARK SMILES C[NH2+][C@@]1(C(=O)NCCCCCCNC(=O)c2ccc(-c3c4nc(c(-c5c(F)c(F)c(F)c(F)c5F)c5ccc([nH]5)c(-c5c(F)c(F)c(F)c(F)c5F)c5nc(c(-c6c(F)c(F)c(F)c(F)c6F)c6ccc3[nH]6)C=C5)C=C4)cc2)CC[C@H](SC2CCOCC2)C1
REMARK SMILES IDX 9 1 8 2 7 3 6 4 4 5 5 6 3 8 79 9 89 10 80 11 81 12 2 13 1 14
REMARK SMILES IDX 82 17 83 18 84 19 88 20 85 21 87 22 86 23 10 24 11 25 12 26
REMARK SMILES IDX 13 27 14 28 15 30 16 31 17 32 78 33 18 34 77 35 19 36 20 37
REMARK SMILES IDX 21 38 71 39 22 40 76 41 70 42 72 43 23 44 75 45 69 46 68 47
REMARK SMILES IDX 24 49 56 50 36 51 55 52 37 53 40 54 54 55 73 56 38 57 39 58
REMARK SMILES IDX 53 60 74 61 41 62 25 63 26 64 34 65 27 66 28 67 32 68 35 69
REMARK SMILES IDX 29 70 30 71 33 72 31 73 57 74 58 75 66 76 59 77 60 78 64 79
REMARK SMILES IDX 67 80 61 81 62 82 65 83 63 84 42 85 43 86 51 87 44 88 45 89
REMARK SMILES IDX 49 90 52 91 46 92 47 93 50 94 48 95
REMARK H PARENT 6 7 2 15 2 16 13 29 72 48 40 59
REMARK Flexibility Score: inf
ROOT
ATOM      1  C   UNL A   1      32.144  29.923  27.126  1.00  0.00     0.002 C 
ENDROOT
BRANCH   1   2
ATOM      2  C   UNL A   1      33.496  29.380  26.661  1.00  0.00     0.021 C 
BRANCH   2   3
ATOM      3  C   UNL A   1      33.564  27.869  26.467  1.00  0.00     0.116 C 
BRANCH   3   4
ATOM      4  N   UNL A   1      32.325  27.173  26.710  1.00  0.00    -0.351 N 
ATOM      5  C   UNL A   1      31.511  26.453  25.892  1.00  0.00     0.281 C 
ATOM      6  O   UNL A   1      30.676  25.754  26.491  1.00  0.00    -0.268 OA
ATOM      7  H   UNL A   1      32.010  27.229  27.640  1.00  0.00     0.163 HD
BRANCH   5   8
ATOM      8  C   UNL A   1      31.573  26.402  24.299  1.00  0.00     0.176 C 
ATOM      9  C   UNL A   1      32.539  27.461  23.741  1.00  0.00     0.080 C 
ATOM     10  C   UNL A   1      30.260  26.650  23.535  1.00  0.00     0.093 C 
ATOM     11  C   UNL A   1      31.672  28.635  23.304  1.00  0.00     0.022 C 
ATOM     12  C   UNL A   1      30.373  28.014  22.798  1.00  0.00     0.054 C 
BRANCH   8  13
ATOM     13  N   UNL A   1      32.181  25.077  23.941  1.00  0.00    -0.336 N 
ATOM     14  C   UNL A   1      31.630  24.466  22.732  1.00  0.00     0.331 C 
ATOM     15  H   UNL A   1      33.182  25.213  23.802  1.00  0.00     0.346 HD
ATOM     16  H   UNL A   1      31.969  24.443  24.711  1.00  0.00     0.346 HD
ENDBRANCH   8  13
BRANCH  12  17
ATOM     17  S   UNL A   1      28.709  28.803  22.935  1.00  0.00    -0.155 SA
BRANCH  17  18
ATOM     18  C   UNL A   1      28.740  30.520  22.288  1.00  0.00     0.051 C 
ATOM     19  C   UNL A   1      28.520  31.509  23.435  1.00  0.00     0.043 C 
ATOM     20  C   UNL A   1      27.920  30.926  21.072  1.00  0.00     0.043 C 
ATOM     21  C   UNL A   1      28.776  32.930  22.942  1.00  0.00     0.161 C 
ATOM     22  C   UNL A   1      28.216  32.377  20.707  1.00  0.00     0.161 C 
ATOM     23  O   UNL A   1      27.957  33.232  21.815  1.00  0.00    -0.381 OA
ENDBRANCH  17  18
ENDBRANCH  12  17
ENDBRANCH   5   8
ENDBRANCH   3   4
ENDBRANCH   2   3
ENDBRANCH   1   2
BRANCH   1  24
ATOM     24  C   UNL A   1      31.418  30.875  26.164  1.00  0.00     0.002 C 
BRANCH  24  25
ATOM     25  C   UNL A   1      31.351  32.351  26.566  1.00  0.00     0.021 C 
BRANCH  25  26
ATOM     26  C   UNL A   1      32.653  32.979  27.061  1.00  0.00     0.116 C 
BRANCH  26  27
ATOM     27  N   UNL A   1      32.449  34.289  27.653  1.00  0.00    -0.352 N 
ATOM     28  C   UNL A   1      33.055  34.897  28.723  1.00  0.00     0.251 C 
ATOM     29  H   UNL A   1      31.760  34.834  27.211  1.00  0.00     0.163 HD
ATOM     30  O   UNL A   1      32.602  35.958  29.144  1.00  0.00    -0.269 OA
BRANCH  28  31
ATOM     31  C   UNL A   1      34.235  34.299  29.395  1.00  0.00     0.039 A 
ATOM     32  C   UNL A   1      34.016  33.480  30.509  1.00  0.00     0.014 A 
ATOM     33  C   UNL A   1      35.543  34.592  29.003  1.00  0.00     0.014 A 
ATOM     34  C   UNL A   1      35.097  32.919  31.196  1.00  0.00     0.010 A 
ATOM     35  C   UNL A   1      36.622  33.984  29.652  1.00  0.00     0.010 A 
ATOM     36  C   UNL A   1      36.411  33.147  30.758  1.00  0.00    -0.014 A 
BRANCH  36  37
ATOM     37  C   UNL A   1      37.567  32.523  31.457  1.00  0.00     0.031 A 
ATOM     38  C   UNL A   1      38.322  31.389  30.820  1.00  0.00     0.074 A 
ATOM     39  C   UNL A   1      37.913  32.948  32.687  1.00  0.00     0.049 A 
ATOM     40  N   UNL A   1      39.315  30.682  31.299  1.00  0.00    -0.248 NA
ATOM     41  C   UNL A   1      37.891  30.983  29.473  1.00  0.00     0.031 C 
ATOM     42  C   UNL A   1      37.245  34.017  33.429  1.00  0.00     0.029 A 
ATOM     43  N   UNL A   1      38.908  32.527  33.534  1.00  0.00    -0.354 N 
ATOM     44  C   UNL A   1      39.616  29.740  30.323  1.00  0.00     0.074 A 
ATOM     45  C   UNL A   1      38.674  29.938  29.241  1.00  0.00     0.031 C 
ATOM     46  C   UNL A   1      37.858  34.179  34.613  1.00  0.00     0.029 A 
ATOM     47  C   UNL A   1      38.939  33.205  34.728  1.00  0.00     0.049 A 
ATOM     48  H   UNL A   1      39.539  31.806  33.307  1.00  0.00     0.167 HD
ATOM     49  C   UNL A   1      40.599  28.807  30.321  1.00  0.00     0.037 A 
ATOM     50  C   UNL A   1      39.743  33.054  35.798  1.00  0.00     0.037 A 
ATOM     51  C   UNL A   1      41.555  28.626  31.383  1.00  0.00     0.049 A 
ATOM     52  C   UNL A   1      40.823  32.007  35.771  1.00  0.00     0.074 A 
ATOM     53  C   UNL A   1      42.621  27.745  31.444  1.00  0.00     0.029 A 
ATOM     54  N   UNL A   1      41.561  29.342  32.570  1.00  0.00    -0.354 N 
ATOM     55  N   UNL A   1      41.131  31.161  34.820  1.00  0.00    -0.248 NA
ATOM     56  C   UNL A   1      41.671  31.900  36.967  1.00  0.00     0.031 C 
ATOM     57  C   UNL A   1      43.249  27.900  32.685  1.00  0.00     0.029 A 
ATOM     58  C   UNL A   1      42.601  28.909  33.379  1.00  0.00     0.049 A 
ATOM     59  H   UNL A   1      40.922  30.053  32.805  1.00  0.00     0.167 HD
ATOM     60  C   UNL A   1      42.221  30.439  35.289  1.00  0.00     0.074 A 
ATOM     61  C   UNL A   1      42.529  30.957  36.606  1.00  0.00     0.031 C 
ATOM     62  C   UNL A   1      42.903  29.438  34.683  1.00  0.00     0.037 A 
BRANCH  49  63
ATOM     63  C   UNL A   1      40.695  27.903  29.127  1.00  0.00     0.064 A 
ATOM     64  C   UNL A   1      39.873  26.774  28.992  1.00  0.00     0.173 A 
ATOM     65  C   UNL A   1      41.588  28.194  28.084  1.00  0.00     0.173 A 
ATOM     66  F   UNL A   1      39.010  26.447  29.965  1.00  0.00    -0.203 F 
ATOM     67  C   UNL A   1      39.961  25.955  27.869  1.00  0.00     0.198 A 
ATOM     68  C   UNL A   1      41.653  27.386  26.950  1.00  0.00     0.198 A 
ATOM     69  F   UNL A   1      42.392  29.264  28.159  1.00  0.00    -0.203 F 
ATOM     70  F   UNL A   1      39.196  24.857  27.782  1.00  0.00    -0.200 F 
ATOM     71  C   UNL A   1      40.844  26.265  26.846  1.00  0.00     0.200 A 
ATOM     72  F   UNL A   1      42.499  27.695  25.958  1.00  0.00    -0.200 F 
ATOM     73  F   UNL A   1      40.922  25.479  25.765  1.00  0.00    -0.200 F 
ENDBRANCH  49  63
BRANCH  50  74
ATOM     74  C   UNL A   1      39.572  33.936  36.981  1.00  0.00     0.064 A 
ATOM     75  C   UNL A   1      40.179  35.198  37.029  1.00  0.00     0.173 A 
ATOM     76  C   UNL A   1      38.806  33.536  38.085  1.00  0.00     0.173 A 
ATOM     77  F   UNL A   1      40.940  35.613  36.006  1.00  0.00    -0.203 F 
ATOM     78  C   UNL A   1      40.039  36.021  38.143  1.00  0.00     0.198 A 
ATOM     79  C   UNL A   1      38.645  34.370  39.189  1.00  0.00     0.198 A 
ATOM     80  F   UNL A   1      38.206  32.337  38.087  1.00  0.00    -0.203 F 
ATOM     81  F   UNL A   1      40.663  37.206  38.182  1.00  0.00    -0.200 F 
ATOM     82  C   UNL A   1      39.268  35.609  39.220  1.00  0.00     0.200 A 
ATOM     83  F   UNL A   1      37.891  33.974  40.222  1.00  0.00    -0.200 F 
ATOM     84  F   UNL A   1      39.130  36.403  40.291  1.00  0.00    -0.200 F 
ENDBRANCH  50  74
BRANCH  62  85
ATOM     85  C   UNL A   1      44.073  28.857  35.422  1.00  0.00     0.064 A 
ATOM     86  C   UNL A   1      45.371  29.357  35.252  1.00  0.00     0.173 A 
ATOM     87  C   UNL A   1      43.885  27.811  36.339  1.00  0.00     0.173 A 
ATOM     88  F   UNL A   1      45.604  30.346  34.374  1.00  0.00    -0.203 F 
ATOM     89  C   UNL A   1      46.444  28.818  35.957  1.00  0.00     0.198 A 
ATOM     90  C   UNL A   1      44.956  27.292  37.061  1.00  0.00     0.198 A 
ATOM     91  F   UNL A   1      42.661  27.300  36.541  1.00  0.00    -0.203 F 
ATOM     92  F   UNL A   1      47.683  29.283  35.747  1.00  0.00    -0.200 F 
ATOM     93  C   UNL A   1      46.234  27.791  36.866  1.00  0.00     0.200 A 
ATOM     94  F   UNL A   1      44.750  26.307  37.946  1.00  0.00    -0.200 F 
ATOM     95  F   UNL A   1      47.267  27.276  37.547  1.00  0.00    -0.200 F 
ENDBRANCH  62  85
ENDBRANCH  36  37
ENDBRANCH  28  31
ENDBRANCH  26  27
ENDBRANCH  25  26
ENDBRANCH  24  25
ENDBRANCH   1  24
TORSDOF 16
ENDMDL
MODEL 2
REMARK VINA RESULT:     -11.5      1.595      7.663
REMARK SMILES C[NH2+][C@@]1(C(=O)NCCCCCCNC(=O)c2ccc(-c3c4nc(c(-c5c(F)c(F)c(F)c(F)c5F)c5ccc([nH]5)c(-c5c(F)c(F)c(F)c(F)c5F)c5nc(c(-c6c(F)c(F)c(F)c(F)c6F)c6ccc3[nH]6)C=C5)C=C4)cc2)CC[C@H](SC2CCOCC2)C1
REMARK SMILES IDX 9 1 8 2 7 3 6 4 4 5 5 6 3 8 79 9 89 10 80 11 81 12 2 13 1 14
REMARK SMILES IDX 82 17 83 18 84 19 88 20 85 21 87 22 86 23 10 24 11 25 12 26
REMARK SMILES IDX 13 27 14 28 15 30 16 31 17 32 78 33 18 34 77 35 19 36 20 37
REMARK SMILES IDX 21 38 71 39 22 40 76 41 70 42 72 43 23 44 75 45 69 46 68 47
REMARK SMILES IDX 24 49 56 50 36 51 55 52 37 53 40 54 54 55 73 56 38 57 39 58
REMARK SMILES IDX 53 60 74 61 41 62 25 63 26 64 34 65 27 66 28 67 32 68 35 69
REMARK SMILES IDX 29 70 30 71 33 72 31 73 57 74 58 75 66 76 59 77 60 78 64 79
REMARK SMILES IDX 67 80 61 81 62 82 65 83 63 84 42 85 43 86 51 87 44 88 45 89
REMARK SMILES IDX 49 90 52 91 46 92 47 93 50 94 48 95
REMARK H PARENT 6 7 2 15 2 16 13 29 72 48 40 59
REMARK Flexibility Score: inf
ROOT
ATOM      1  C   UNL A   1      35.357  33.135  28.546  1.00  0.00     0.002 C 
ENDROOT
BRANCH   1   2
ATOM      2  C   UNL A   1      34.480  31.931  28.891  1.00  0.00     0.021 C 
BRANCH   2   3
ATOM      3  C   UNL A   1      34.109  31.032  27.717  1.00  0.00     0.116 C 
BRANCH   3   4
ATOM      4  N   UNL A   1      32.922  31.430  27.002  1.00  0.00    -0.351 N 
ATOM      5  C   UNL A   1      32.044  30.730  26.235  1.00  0.00     0.281 C 
ATOM      6  O   UNL A   1      30.979  31.328  26.006  1.00  0.00    -0.268 OA
ATOM      7  H   UNL A   1      32.708  32.387  27.085  1.00  0.00     0.163 HD
BRANCH   5   8
ATOM      8  C   UNL A   1      32.247  29.252  25.671  1.00  0.00     0.176 C 
ATOM      9  C   UNL A   1      33.159  29.244  24.433  1.00  0.00     0.080 C 
ATOM     10  C   UNL A   1      30.988  28.493  25.217  1.00  0.00     0.093 C 
ATOM     11  C   UNL A   1      32.232  29.183  23.226  1.00  0.00     0.022 C 
ATOM     12  C   UNL A   1      31.042  28.338  23.671  1.00  0.00     0.054 C 
BRANCH   8  13
ATOM     13  N   UNL A   1      32.999  28.496  26.727  1.00  0.00    -0.336 N 
ATOM     14  C   UNL A   1      33.893  27.461  26.210  1.00  0.00     0.331 C 
ATOM     15  H   UNL A   1      33.558  29.162  27.261  1.00  0.00     0.346 HD
ATOM     16  H   UNL A   1      32.300  28.019  27.297  1.00  0.00     0.346 HD
ENDBRANCH   8  13
BRANCH  12  17
ATOM     17  S   UNL A   1      29.308  28.570  23.078  1.00  0.00    -0.155 SA
BRANCH  17  18
ATOM     18  C   UNL A   1      29.067  30.255  22.393  1.00  0.00     0.051 C 
ATOM     19  C   UNL A   1      28.798  31.242  23.531  1.00  0.00     0.043 C 
ATOM     20  C   UNL A   1      28.120  30.512  21.231  1.00  0.00     0.043 C 
ATOM     21  C   UNL A   1      28.829  32.668  22.990  1.00  0.00     0.161 C 
ATOM     22  C   UNL A   1      28.195  31.977  20.814  1.00  0.00     0.161 C 
ATOM     23  O   UNL A   1      27.901  32.825  21.919  1.00  0.00    -0.381 OA
ENDBRANCH  17  18
ENDBRANCH  12  17
ENDBRANCH   5   8
ENDBRANCH   3   4
ENDBRANCH   2   3
ENDBRANCH   1   2
BRANCH   1  24
ATOM     24  C   UNL A   1      34.629  34.402  28.074  1.00  0.00     0.002 C 
BRANCH  24  25
ATOM     25  C   UNL A   1      33.336  34.773  28.806  1.00  0.00     0.021 C 
BRANCH  25  26
ATOM     26  C   UNL A   1      33.270  36.181  29.395  1.00  0.00     0.116 C 
BRANCH  26  27
ATOM     27  N   UNL A   1      32.456  36.245  30.595  1.00  0.00    -0.352 N 
ATOM     28  C   UNL A   1      32.626  35.670  31.830  1.00  0.00     0.251 C 
ATOM     29  H   UNL A   1      31.644  36.794  30.509  1.00  0.00     0.163 HD
ATOM     30  O   UNL A   1      31.714  35.735  32.650  1.00  0.00    -0.269 OA
BRANCH  28  31
ATOM     31  C   UNL A   1      33.876  34.961  32.194  1.00  0.00     0.039 A 
ATOM     32  C   UNL A   1      33.784  33.619  32.585  1.00  0.00     0.014 A 
ATOM     33  C   UNL A   1      35.114  35.606  32.236  1.00  0.00     0.014 A 
ATOM     34  C   UNL A   1      34.930  32.916  32.969  1.00  0.00     0.010 A 
ATOM     35  C   UNL A   1      36.269  34.887  32.563  1.00  0.00     0.010 A 
ATOM     36  C   UNL A   1      36.188  33.538  32.938  1.00  0.00    -0.014 A 
BRANCH  36  37
ATOM     37  C   UNL A   1      37.419  32.788  33.306  1.00  0.00     0.031 A 
ATOM     38  C   UNL A   1      38.131  33.078  34.599  1.00  0.00     0.074 A 
ATOM     39  C   UNL A   1      37.924  31.874  32.456  1.00  0.00     0.049 A 
ATOM     40  N   UNL A   1      39.247  32.571  35.062  1.00  0.00    -0.248 NA
ATOM     41  C   UNL A   1      37.519  34.084  35.480  1.00  0.00     0.031 C 
ATOM     42  C   UNL A   1      37.348  31.520  31.159  1.00  0.00     0.029 A 
ATOM     43  N   UNL A   1      39.040  31.080  32.552  1.00  0.00    -0.354 N 
ATOM     44  C   UNL A   1      39.478  33.206  36.276  1.00  0.00     0.074 A 
ATOM     45  C   UNL A   1      38.409  34.165  36.459  1.00  0.00     0.031 C 
ATOM     46  C   UNL A   1      38.106  30.570  30.587  1.00  0.00     0.029 A 
ATOM     47  C   UNL A   1      39.236  30.270  31.460  1.00  0.00     0.049 A 
ATOM     48  H   UNL A   1      39.643  31.090  33.331  1.00  0.00     0.167 HD
ATOM     49  C   UNL A   1      40.480  32.997  37.165  1.00  0.00     0.037 A 
ATOM     50  C   UNL A   1      40.220  29.392  31.189  1.00  0.00     0.037 A 
ATOM     51  C   UNL A   1      41.528  32.024  36.998  1.00  0.00     0.049 A 
ATOM     52  C   UNL A   1      41.323  29.182  32.191  1.00  0.00     0.074 A 
ATOM     53  C   UNL A   1      42.553  31.701  37.871  1.00  0.00     0.029 A 
ATOM     54  N   UNL A   1      41.684  31.214  35.884  1.00  0.00    -0.354 N 
ATOM     55  N   UNL A   1      41.499  29.750  33.358  1.00  0.00    -0.248 NA
ATOM     56  C   UNL A   1      42.361  28.204  31.837  1.00  0.00     0.031 C 
ATOM     57  C   UNL A   1      43.353  30.724  37.269  1.00  0.00     0.029 A 
ATOM     58  C   UNL A   1      42.801  30.406  36.038  1.00  0.00     0.049 A 
ATOM     59  H   UNL A   1      41.091  31.213  35.098  1.00  0.00     0.167 HD
ATOM     60  C   UNL A   1      42.649  29.182  33.890  1.00  0.00     0.074 A 
ATOM     61  C   UNL A   1      43.122  28.214  32.923  1.00  0.00     0.031 C 
ATOM     62  C   UNL A   1      43.257  29.441  35.073  1.00  0.00     0.037 A 
BRANCH  49  63
ATOM     63  C   UNL A   1      40.491  33.838  38.407  1.00  0.00     0.064 A 
ATOM     64  C   UNL A   1      41.243  35.021  38.487  1.00  0.00     0.173 A 
ATOM     65  C   UNL A   1      39.708  33.482  39.516  1.00  0.00     0.173 A 
ATOM     66  F   UNL A   1      42.016  35.399  37.458  1.00  0.00    -0.203 F 
ATOM     67  C   UNL A   1      41.230  35.801  39.640  1.00  0.00     0.198 A 
ATOM     68  C   UNL A   1      39.677  34.281  40.657  1.00  0.00     0.198 A 
ATOM     69  F   UNL A   1      38.966  32.366  39.490  1.00  0.00    -0.203 F 
ATOM     70  F   UNL A   1      41.989  36.904  39.709  1.00  0.00    -0.200 F 
ATOM     71  C   UNL A   1      40.442  35.435  40.721  1.00  0.00     0.200 A 
ATOM     72  F   UNL A   1      38.906  33.932  41.695  1.00  0.00    -0.200 F 
ATOM     73  F   UNL A   1      40.426  36.191  41.827  1.00  0.00    -0.200 F 
ENDBRANCH  49  63
BRANCH  50  74
ATOM     74  C   UNL A   1      40.195  28.623  29.918  1.00  0.00     0.064 A 
ATOM     75  C   UNL A   1      39.561  27.376  29.847  1.00  0.00     0.173 A 
ATOM     76  C   UNL A   1      40.807  29.113  28.756  1.00  0.00     0.173 A 
ATOM     77  F   UNL A   1      38.982  26.856  30.939  1.00  0.00    -0.203 F 
ATOM     78  C   UNL A   1      39.551  26.641  28.664  1.00  0.00     0.198 A 
ATOM     79  C   UNL A   1      40.775  28.390  27.566  1.00  0.00     0.198 A 
ATOM     80  F   UNL A   1      41.428  30.302  28.775  1.00  0.00    -0.203 F 
ATOM     81  F   UNL A   1      38.972  25.432  28.632  1.00  0.00    -0.200 F 
ATOM     82  C   UNL A   1      40.153  27.151  27.523  1.00  0.00     0.200 A 
ATOM     83  F   UNL A   1      41.348  28.889  26.464  1.00  0.00    -0.200 F 
ATOM     84  F   UNL A   1      40.140  26.445  26.384  1.00  0.00    -0.200 F 
ENDBRANCH  50  74
BRANCH  62  85
ATOM     85  C   UNL A   1      44.484  28.643  35.405  1.00  0.00     0.064 A 
ATOM     86  C   UNL A   1      45.767  29.094  35.068  1.00  0.00     0.173 A 
ATOM     87  C   UNL A   1      44.374  27.430  36.103  1.00  0.00     0.173 A 
ATOM     88  F   UNL A   1      45.922  30.240  34.386  1.00  0.00    -0.203 F 
ATOM     89  C   UNL A   1      46.896  28.349  35.398  1.00  0.00     0.198 A 
ATOM     90  C   UNL A   1      45.507  26.702  36.454  1.00  0.00     0.198 A 
ATOM     91  F   UNL A   1      43.168  26.958  36.453  1.00  0.00    -0.203 F 
ATOM     92  F   UNL A   1      48.112  28.778  35.028  1.00  0.00    -0.200 F 
ATOM     93  C   UNL A   1      46.766  27.158  36.096  1.00  0.00     0.200 A 
ATOM     94  F   UNL A   1      45.379  25.556  37.138  1.00  0.00    -0.200 F 
ATOM     95  F   UNL A   1      47.855  26.445  36.417  1.00  0.00    -0.200 F 
ENDBRANCH  62  85
ENDBRANCH  36  37
ENDBRANCH  28  31
ENDBRANCH  26  27
ENDBRANCH  25  26
ENDBRANCH  24  25
ENDBRANCH   1  24
TORSDOF 16
ENDMDL
MODEL 3
REMARK VINA RESULT:     -11.5      6.802     11.609
REMARK SMILES C[NH2+][C@@]1(C(=O)NCCCCCCNC(=O)c2ccc(-c3c4nc(c(-c5c(F)c(F)c(F)c(F)c5F)c5ccc([nH]5)c(-c5c(F)c(F)c(F)c(F)c5F)c5nc(c(-c6c(F)c(F)c(F)c(F)c6F)c6ccc3[nH]6)C=C5)C=C4)cc2)CC[C@H](SC2CCOCC2)C1
REMARK SMILES IDX 9 1 8 2 7 3 6 4 4 5 5 6 3 8 79 9 89 10 80 11 81 12 2 13 1 14
REMARK SMILES IDX 82 17 83 18 84 19 88 20 85 21 87 22 86 23 10 24 11 25 12 26
REMARK SMILES IDX 13 27 14 28 15 30 16 31 17 32 78 33 18 34 77 35 19 36 20 37
REMARK SMILES IDX 21 38 71 39 22 40 76 41 70 42 72 43 23 44 75 45 69 46 68 47
REMARK SMILES IDX 24 49 56 50 36 51 55 52 37 53 40 54 54 55 73 56 38 57 39 58
REMARK SMILES IDX 53 60 74 61 41 62 25 63 26 64 34 65 27 66 28 67 32 68 35 69
REMARK SMILES IDX 29 70 30 71 33 72 31 73 57 74 58 75 66 76 59 77 60 78 64 79
REMARK SMILES IDX 67 80 61 81 62 82 65 83 63 84 42 85 43 86 51 87 44 88 45 89
REMARK SMILES IDX 49 90 52 91 46 92 47 93 50 94 48 95
REMARK H PARENT 6 7 2 15 2 16 13 29 72 48 40 59
REMARK Flexibility Score: inf
ROOT
ATOM      1  C   UNL A   1      40.506  22.172  26.643  1.00  0.00     0.002 C 
ENDROOT
BRANCH   1   2
ATOM      2  C   UNL A   1      39.163  21.677  26.103  1.00  0.00     0.021 C 
BRANCH   2   3
ATOM      3  C   UNL A   1      38.149  22.765  25.768  1.00  0.00     0.116 C 
BRANCH   3   4
ATOM      4  N   UNL A   1      37.587  22.679  24.445  1.00  0.00    -0.351 N 
ATOM      5  C   UNL A   1      36.344  22.951  23.965  1.00  0.00     0.281 C 
ATOM      6  O   UNL A   1      36.284  23.040  22.727  1.00  0.00    -0.268 OA
ATOM      7  H   UNL A   1      38.220  22.365  23.760  1.00  0.00     0.163 HD
BRANCH   5   8
ATOM      8  C   UNL A   1      35.028  23.201  24.831  1.00  0.00     0.176 C 
ATOM      9  C   UNL A   1      35.139  22.552  26.220  1.00  0.00     0.080 C 
ATOM     10  C   UNL A   1      33.701  22.660  24.267  1.00  0.00     0.093 C 
ATOM     11  C   UNL A   1      34.387  21.230  26.131  1.00  0.00     0.022 C 
ATOM     12  C   UNL A   1      33.229  21.487  25.171  1.00  0.00     0.054 C 
BRANCH   8  13
ATOM     13  N   UNL A   1      34.961  24.679  25.084  1.00  0.00    -0.336 N 
ATOM     14  C   UNL A   1      33.750  25.121  25.775  1.00  0.00     0.331 C 
ATOM     15  H   UNL A   1      35.766  24.942  25.651  1.00  0.00     0.346 HD
ATOM     16  H   UNL A   1      34.955  25.130  24.169  1.00  0.00     0.346 HD
ENDBRANCH   8  13
BRANCH  12  17
ATOM     17  S   UNL A   1      32.512  20.225  24.029  1.00  0.00    -0.155 SA
BRANCH  17  18
ATOM     18  C   UNL A   1      33.176  18.554  24.394  1.00  0.00     0.051 C 
ATOM     19  C   UNL A   1      33.281  17.744  23.100  1.00  0.00     0.043 C 
ATOM     20  C   UNL A   1      32.599  17.697  25.512  1.00  0.00     0.043 C 
ATOM     21  C   UNL A   1      34.044  16.450  23.366  1.00  0.00     0.161 C 
ATOM     22  C   UNL A   1      33.405  16.409  25.648  1.00  0.00     0.161 C 
ATOM     23  O   UNL A   1      33.427  15.703  24.412  1.00  0.00    -0.381 OA
ENDBRANCH  17  18
ENDBRANCH  12  17
ENDBRANCH   5   8
ENDBRANCH   3   4
ENDBRANCH   2   3
ENDBRANCH   1   2
BRANCH   1  24
ATOM     24  C   UNL A   1      41.534  21.095  27.020  1.00  0.00     0.002 C 
BRANCH  24  25
ATOM     25  C   UNL A   1      41.660  19.895  26.077  1.00  0.00     0.021 C 
BRANCH  25  26
ATOM     26  C   UNL A   1      42.779  18.902  26.389  1.00  0.00     0.116 C 
BRANCH  26  27
ATOM     27  N   UNL A   1      43.656  18.678  25.255  1.00  0.00    -0.352 N 
ATOM     28  C   UNL A   1      44.413  19.553  24.515  1.00  0.00     0.251 C 
ATOM     29  H   UNL A   1      43.721  17.740  24.967  1.00  0.00     0.163 HD
ATOM     30  O   UNL A   1      44.957  19.153  23.489  1.00  0.00    -0.269 OA
BRANCH  28  31
ATOM     31  C   UNL A   1      44.578  20.972  24.914  1.00  0.00     0.039 A 
ATOM     32  C   UNL A   1      45.260  21.247  26.105  1.00  0.00     0.014 A 
ATOM     33  C   UNL A   1      44.010  22.021  24.188  1.00  0.00     0.014 A 
ATOM     34  C   UNL A   1      45.414  22.566  26.541  1.00  0.00     0.010 A 
ATOM     35  C   UNL A   1      44.214  23.344  24.592  1.00  0.00     0.010 A 
ATOM     36  C   UNL A   1      44.912  23.630  25.775  1.00  0.00    -0.014 A 
BRANCH  36  37
ATOM     37  C   UNL A   1      45.105  25.040  26.208  1.00  0.00     0.031 A 
ATOM     38  C   UNL A   1      46.459  25.688  26.117  1.00  0.00     0.074 A 
ATOM     39  C   UNL A   1      44.069  25.727  26.727  1.00  0.00     0.049 A 
ATOM     40  N   UNL A   1      46.833  26.884  26.500  1.00  0.00    -0.248 NA
ATOM     41  C   UNL A   1      47.541  24.879  25.536  1.00  0.00     0.031 C 
ATOM     42  C   UNL A   1      42.713  25.207  26.899  1.00  0.00     0.029 A 
ATOM     43  N   UNL A   1      43.997  27.010  27.211  1.00  0.00    -0.354 N 
ATOM     44  C   UNL A   1      48.192  26.964  26.222  1.00  0.00     0.074 A 
ATOM     45  C   UNL A   1      48.586  25.683  25.676  1.00  0.00     0.031 C 
ATOM     46  C   UNL A   1      41.940  26.165  27.435  1.00  0.00     0.029 A 
ATOM     47  C   UNL A   1      42.751  27.355  27.675  1.00  0.00     0.049 A 
ATOM     48  H   UNL A   1      44.766  27.625  27.225  1.00  0.00     0.167 HD
ATOM     49  C   UNL A   1      49.031  28.015  26.390  1.00  0.00     0.037 A 
ATOM     50  C   UNL A   1      42.313  28.497  28.237  1.00  0.00     0.037 A 
ATOM     51  C   UNL A   1      48.635  29.300  26.907  1.00  0.00     0.049 A 
ATOM     52  C   UNL A   1      43.266  29.648  28.417  1.00  0.00     0.074 A 
ATOM     53  C   UNL A   1      49.402  30.443  27.060  1.00  0.00     0.029 A 
ATOM     54  N   UNL A   1      47.360  29.614  27.353  1.00  0.00    -0.354 N 
ATOM     55  N   UNL A   1      44.534  29.728  28.099  1.00  0.00    -0.248 NA
ATOM     56  C   UNL A   1      42.722  30.868  29.028  1.00  0.00     0.031 C 
ATOM     57  C   UNL A   1      48.602  31.436  27.635  1.00  0.00     0.029 A 
ATOM     58  C   UNL A   1      47.324  30.926  27.800  1.00  0.00     0.049 A 
ATOM     59  H   UNL A   1      46.593  28.996  27.353  1.00  0.00     0.167 HD
ATOM     60  C   UNL A   1      44.935  31.011  28.447  1.00  0.00     0.074 A 
ATOM     61  C   UNL A   1      43.770  31.680  28.988  1.00  0.00     0.031 C 
ATOM     62  C   UNL A   1      46.157  31.582  28.328  1.00  0.00     0.037 A 
BRANCH  49  63
ATOM     63  C   UNL A   1      50.469  27.823  26.009  1.00  0.00     0.064 A 
ATOM     64  C   UNL A   1      51.451  27.529  26.967  1.00  0.00     0.173 A 
ATOM     65  C   UNL A   1      50.864  27.890  24.664  1.00  0.00     0.173 A 
ATOM     66  F   UNL A   1      51.126  27.464  28.267  1.00  0.00    -0.203 F 
ATOM     67  C   UNL A   1      52.779  27.335  26.596  1.00  0.00     0.198 A 
ATOM     68  C   UNL A   1      52.189  27.669  24.294  1.00  0.00     0.198 A 
ATOM     69  F   UNL A   1      49.965  28.162  23.707  1.00  0.00    -0.203 F 
ATOM     70  F   UNL A   1      53.707  27.098  27.534  1.00  0.00    -0.200 F 
ATOM     71  C   UNL A   1      53.146  27.398  25.260  1.00  0.00     0.200 A 
ATOM     72  F   UNL A   1      52.539  27.717  23.002  1.00  0.00    -0.200 F 
ATOM     73  F   UNL A   1      54.423  27.204  24.905  1.00  0.00    -0.200 F 
ENDBRANCH  49  63
BRANCH  50  74
ATOM     74  C   UNL A   1      40.892  28.620  28.651  1.00  0.00     0.064 A 
ATOM     75  C   UNL A   1      40.493  28.291  29.954  1.00  0.00     0.173 A 
ATOM     76  C   UNL A   1      39.906  29.061  27.757  1.00  0.00     0.173 A 
ATOM     77  F   UNL A   1      41.398  27.843  30.837  1.00  0.00    -0.203 F 
ATOM     78  C   UNL A   1      39.159  28.385  30.343  1.00  0.00     0.198 A 
ATOM     79  C   UNL A   1      38.576  29.180  28.155  1.00  0.00     0.198 A 
ATOM     80  F   UNL A   1      40.238  29.387  26.500  1.00  0.00    -0.203 F 
ATOM     81  F   UNL A   1      38.798  28.026  31.582  1.00  0.00    -0.200 F 
ATOM     82  C   UNL A   1      38.203  28.834  29.445  1.00  0.00     0.200 A 
ATOM     83  F   UNL A   1      37.656  29.624  27.289  1.00  0.00    -0.200 F 
ATOM     84  F   UNL A   1      36.920  28.929  29.822  1.00  0.00    -0.200 F 
ENDBRANCH  50  74
BRANCH  62  85
ATOM     85  C   UNL A   1      46.293  33.013  28.761  1.00  0.00     0.064 A 
ATOM     86  C   UNL A   1      46.055  34.074  27.876  1.00  0.00     0.173 A 
ATOM     87  C   UNL A   1      46.629  33.324  30.088  1.00  0.00     0.173 A 
ATOM     88  F   UNL A   1      45.747  33.826  26.593  1.00  0.00    -0.203 F 
ATOM     89  C   UNL A   1      46.170  35.396  28.298  1.00  0.00     0.198 A 
ATOM     90  C   UNL A   1      46.717  34.647  30.512  1.00  0.00     0.198 A 
ATOM     91  F   UNL A   1      46.862  32.346  30.974  1.00  0.00    -0.203 F 
ATOM     92  F   UNL A   1      45.980  36.395  27.424  1.00  0.00    -0.200 F 
ATOM     93  C   UNL A   1      46.493  35.682  29.616  1.00  0.00     0.200 A 
ATOM     94  F   UNL A   1      47.019  34.922  31.788  1.00  0.00    -0.200 F 
ATOM     95  F   UNL A   1      46.598  36.955  30.021  1.00  0.00    -0.200 F 
ENDBRANCH  62  85
ENDBRANCH  36  37
ENDBRANCH  28  31
ENDBRANCH  26  27
ENDBRANCH  25  26
ENDBRANCH  24  25
ENDBRANCH   1  24
TORSDOF 16
ENDMDL
