MODEL 1
REMARK VINA RESULT:      -9.9      0.000      0.000
REMARK SMILES O=C(CSc1nc(O)cc(=O)[nH]1)Nc1cccc(C(=O)NCCCCCCNC(=O)c2ccc(-c3c4nc(c(-c5c(F)c(F)c(F)c(F)c5F)c5ccc([nH]5)c(-c5c(F)c(F)c(F)c(F)c5F)c5nc(c(-c6c(F)c(F)c(F)c(F)c6F)c6ccc3[nH]6)C=C5)C=C4)cc2)c1
REMARK SMILES IDX 23 1 22 2 21 3 19 4 20 5 18 7 14 8 15 9 94 10 16 11 17 12
REMARK SMILES IDX 13 13 1 14 2 15 3 17 4 18 5 19 6 20 12 21 7 22 10 23 9 25
REMARK SMILES IDX 11 26 8 27 24 29 25 30 26 31 27 32 28 33 29 34 30 36 31 37
REMARK SMILES IDX 32 38 93 39 33 40 92 41 34 42 35 43 36 44 86 45 37 46 91 47
REMARK SMILES IDX 85 48 87 49 38 50 90 51 84 52 83 53 39 55 71 56 51 57 70 58
REMARK SMILES IDX 52 59 55 60 69 61 88 62 53 63 54 64 68 66 89 67 56 68 40 69
REMARK SMILES IDX 41 70 49 71 42 72 43 73 47 74 50 75 44 76 45 77 48 78 46 79
REMARK SMILES IDX 72 80 73 81 81 82 74 83 75 84 79 85 82 86 76 87 77 88 80 89
REMARK SMILES IDX 78 90 57 91 58 92 66 93 59 94 60 95 64 96 67 97 61 98 62 99
REMARK SMILES IDX 65 100 63 101
REMARK H PARENT 21 6 13 16 12 24 8 28 28 35 87 54 55 65
REMARK Flexibility Score: inf
ROOT
ATOM      1  C   UNL A   1      38.589  34.406  29.494  1.00  0.00     0.021 C 
ENDROOT
BRANCH   1   2
ATOM      2  C   UNL A   1      39.019  34.529  30.950  1.00  0.00     0.116 C 
BRANCH   2   3
ATOM      3  N   UNL A   1      38.000  35.079  31.833  1.00  0.00    -0.352 N 
ATOM      4  C   UNL A   1      37.242  34.469  32.813  1.00  0.00     0.251 C 
ATOM      5  O   UNL A   1      36.400  35.130  33.418  1.00  0.00    -0.269 OA
ATOM      6  H   UNL A   1      37.824  36.039  31.713  1.00  0.00     0.163 HD
BRANCH   4   7
ATOM      7  C   UNL A   1      37.373  33.016  33.102  1.00  0.00     0.041 A 
ATOM      8  C   UNL A   1      38.721  31.161  33.880  1.00  0.00     0.041 A 
ATOM      9  C   UNL A   1      37.811  30.270  33.303  1.00  0.00     0.026 A 
ATOM     10  C   UNL A   1      38.418  32.519  33.879  1.00  0.00     0.040 A 
ATOM     11  C   UNL A   1      36.661  30.748  32.666  1.00  0.00     0.003 A 
ATOM     12  C   UNL A   1      36.458  32.123  32.535  1.00  0.00     0.014 A 
BRANCH   8  13
ATOM     13  N   UNL A   1      39.953  30.657  34.345  1.00  0.00    -0.325 N 
ATOM     14  O   UNL A   1      40.217  28.755  33.022  1.00  0.00    -0.274 OA
ATOM     15  C   UNL A   1      40.594  29.498  33.929  1.00  0.00     0.234 C 
ATOM     16  H   UNL A   1      40.408  31.184  35.041  1.00  0.00     0.169 HD
BRANCH  15  17
ATOM     17  C   UNL A   1      41.780  29.072  34.782  1.00  0.00     0.178 C 
BRANCH  17  18
ATOM     18  S   UNL A   1      42.969  27.980  33.962  1.00  0.00    -0.078 SA
BRANCH  18  19
ATOM     19  C   UNL A   1      42.538  26.451  34.662  1.00  0.00     0.172 A 
ATOM     20  N   UNL A   1      41.491  26.294  35.395  1.00  0.00    -0.189 NA
ATOM     21  N   UNL A   1      43.392  25.459  34.314  1.00  0.00    -0.301 N 
ATOM     22  C   UNL A   1      41.237  25.025  35.819  1.00  0.00     0.218 A 
ATOM     23  C   UNL A   1      43.187  24.173  34.713  1.00  0.00     0.255 A 
ATOM     24  H   UNL A   1      44.179  25.673  33.761  1.00  0.00     0.172 HD
ATOM     25  C   UNL A   1      41.989  23.960  35.535  1.00  0.00     0.139 A 
ATOM     26  O   UNL A   1      43.933  23.256  34.404  1.00  0.00    -0.269 OA
BRANCH  22  27
ATOM     27  O   UNL A   1      40.102  24.874  36.571  1.00  0.00    -0.493 OA
ATOM     28  H   UNL A   1      39.429  25.526  36.538  1.00  0.00     0.295 HD
ENDBRANCH  22  27
ENDBRANCH  18  19
ENDBRANCH  17  18
ENDBRANCH  15  17
ENDBRANCH   8  13
ENDBRANCH   4   7
ENDBRANCH   2   3
ENDBRANCH   1   2
BRANCH   1  29
ATOM     29  C   UNL A   1      37.607  33.281  29.172  1.00  0.00     0.002 C 
BRANCH  29  30
ATOM     30  C   UNL A   1      36.470  33.632  28.208  1.00  0.00     0.002 C 
BRANCH  30  31
ATOM     31  C   UNL A   1      35.059  33.657  28.801  1.00  0.00     0.021 C 
BRANCH  31  32
ATOM     32  C   UNL A   1      34.611  32.378  29.502  1.00  0.00     0.116 C 
BRANCH  32  33
ATOM     33  N   UNL A   1      34.026  31.411  28.589  1.00  0.00    -0.352 N 
ATOM     34  C   UNL A   1      34.600  30.347  27.941  1.00  0.00     0.251 C 
ATOM     35  H   UNL A   1      33.066  31.540  28.407  1.00  0.00     0.163 HD
ATOM     36  O   UNL A   1      33.967  29.741  27.081  1.00  0.00    -0.269 OA
BRANCH  34  37
ATOM     37  C   UNL A   1      35.987  29.932  28.252  1.00  0.00     0.039 A 
ATOM     38  C   UNL A   1      36.974  30.127  27.281  1.00  0.00     0.014 A 
ATOM     39  C   UNL A   1      36.316  29.321  29.465  1.00  0.00     0.014 A 
ATOM     40  C   UNL A   1      38.295  29.759  27.547  1.00  0.00     0.010 A 
ATOM     41  C   UNL A   1      37.646  29.024  29.759  1.00  0.00     0.010 A 
ATOM     42  C   UNL A   1      38.649  29.233  28.801  1.00  0.00    -0.014 A 
BRANCH  42  43
ATOM     43  C   UNL A   1      40.064  28.904  29.114  1.00  0.00     0.031 A 
ATOM     44  C   UNL A   1      40.915  29.859  29.906  1.00  0.00     0.074 A 
ATOM     45  C   UNL A   1      40.596  27.756  28.650  1.00  0.00     0.049 A 
ATOM     46  N   UNL A   1      42.171  29.750  30.261  1.00  0.00    -0.248 NA
ATOM     47  C   UNL A   1      40.278  31.112  30.336  1.00  0.00     0.031 C 
ATOM     48  C   UNL A   1      39.890  26.770  27.830  1.00  0.00     0.029 A 
ATOM     49  N   UNL A   1      41.852  27.223  28.800  1.00  0.00    -0.354 N 
ATOM     50  C   UNL A   1      42.473  30.919  30.949  1.00  0.00     0.074 A 
ATOM     51  C   UNL A   1      41.290  31.750  30.908  1.00  0.00     0.031 C 
ATOM     52  C   UNL A   1      40.711  25.740  27.577  1.00  0.00     0.029 A 
ATOM     53  C   UNL A   1      42.012  26.008  28.181  1.00  0.00     0.049 A 
ATOM     54  H   UNL A   1      42.571  27.670  29.304  1.00  0.00     0.167 HD
ATOM     55  C   UNL A   1      43.625  31.257  31.577  1.00  0.00     0.037 A 
ATOM     56  C   UNL A   1      43.087  25.201  28.106  1.00  0.00     0.037 A 
ATOM     57  C   UNL A   1      44.797  30.421  31.628  1.00  0.00     0.049 A 
ATOM     58  C   UNL A   1      44.359  25.607  28.803  1.00  0.00     0.074 A 
ATOM     59  C   UNL A   1      45.995  30.651  32.283  1.00  0.00     0.029 A 
ATOM     60  N   UNL A   1      44.920  29.194  30.991  1.00  0.00    -0.354 N 
ATOM     61  N   UNL A   1      44.609  26.682  29.510  1.00  0.00    -0.248 NA
ATOM     62  C   UNL A   1      45.494  24.681  28.698  1.00  0.00     0.031 C 
ATOM     63  C   UNL A   1      46.862  29.591  31.996  1.00  0.00     0.029 A 
ATOM     64  C   UNL A   1      46.184  28.669  31.215  1.00  0.00     0.049 A 
ATOM     65  H   UNL A   1      44.214  28.761  30.459  1.00  0.00     0.167 HD
ATOM     66  C   UNL A   1      45.916  26.548  29.959  1.00  0.00     0.074 A 
ATOM     67  C   UNL A   1      46.398  25.277  29.460  1.00  0.00     0.031 C 
ATOM     68  C   UNL A   1      46.652  27.401  30.714  1.00  0.00     0.037 A 
BRANCH  55  69
ATOM     69  C   UNL A   1      43.676  32.593  32.266  1.00  0.00     0.064 A 
ATOM     70  C   UNL A   1      43.462  32.719  33.648  1.00  0.00     0.173 A 
ATOM     71  C   UNL A   1      43.978  33.757  31.543  1.00  0.00     0.173 A 
ATOM     72  F   UNL A   1      43.160  31.641  34.386  1.00  0.00    -0.203 F 
ATOM     73  C   UNL A   1      43.518  33.963  34.273  1.00  0.00     0.198 A 
ATOM     74  C   UNL A   1      44.068  34.994  32.177  1.00  0.00     0.198 A 
ATOM     75  F   UNL A   1      44.198  33.695  30.221  1.00  0.00    -0.203 F 
ATOM     76  F   UNL A   1      43.257  34.065  35.584  1.00  0.00    -0.200 F 
ATOM     77  C   UNL A   1      43.828  35.097  33.539  1.00  0.00     0.200 A 
ATOM     78  F   UNL A   1      44.382  36.088  31.469  1.00  0.00    -0.200 F 
ATOM     79  F   UNL A   1      43.890  36.292  34.142  1.00  0.00    -0.200 F 
ENDBRANCH  55  69
BRANCH  56  80
ATOM     80  C   UNL A   1      43.003  23.914  27.364  1.00  0.00     0.064 A 
ATOM     81  C   UNL A   1      42.559  22.744  27.996  1.00  0.00     0.173 A 
ATOM     82  C   UNL A   1      43.375  23.825  26.015  1.00  0.00     0.173 A 
ATOM     83  F   UNL A   1      42.212  22.774  29.291  1.00  0.00    -0.203 F 
ATOM     84  C   UNL A   1      42.514  21.531  27.313  1.00  0.00     0.198 A 
ATOM     85  C   UNL A   1      43.298  22.617  25.324  1.00  0.00     0.198 A 
ATOM     86  F   UNL A   1      43.803  24.915  25.362  1.00  0.00    -0.203 F 
ATOM     87  F   UNL A   1      42.136  20.417  27.957  1.00  0.00    -0.200 F 
ATOM     88  C   UNL A   1      42.877  21.469  25.978  1.00  0.00     0.200 A 
ATOM     89  F   UNL A   1      43.636  22.567  24.029  1.00  0.00    -0.200 F 
ATOM     90  F   UNL A   1      42.831  20.302  25.321  1.00  0.00    -0.200 F 
ENDBRANCH  56  80
BRANCH  68  91
ATOM     91  C   UNL A   1      48.044  26.969  31.079  1.00  0.00     0.064 A 
ATOM     92  C   UNL A   1      49.157  27.332  30.307  1.00  0.00     0.173 A 
ATOM     93  C   UNL A   1      48.270  26.199  32.230  1.00  0.00     0.173 A 
ATOM     94  F   UNL A   1      48.996  28.057  29.189  1.00  0.00    -0.203 F 
ATOM     95  C   UNL A   1      50.438  26.908  30.652  1.00  0.00     0.198 A 
ATOM     96  C   UNL A   1      49.555  25.807  32.593  1.00  0.00     0.198 A 
ATOM     97  F   UNL A   1      47.242  25.831  33.011  1.00  0.00    -0.203 F 
ATOM     98  F   UNL A   1      51.479  27.216  29.864  1.00  0.00    -0.200 F 
ATOM     99  C   UNL A   1      50.637  26.153  31.798  1.00  0.00     0.200 A 
ATOM    100  F   UNL A   1      49.747  25.092  33.710  1.00  0.00    -0.200 F 
ATOM    101  F   UNL A   1      51.871  25.750  32.130  1.00  0.00    -0.200 F 
ENDBRANCH  68  91
ENDBRANCH  42  43
ENDBRANCH  34  37
ENDBRANCH  32  33
ENDBRANCH  31  32
ENDBRANCH  30  31
ENDBRANCH  29  30
ENDBRANCH   1  29
TORSDOF 18
ENDMDL
MODEL 2
REMARK VINA RESULT:      -9.8      5.210      8.247
REMARK SMILES O=C(CSc1nc(O)cc(=O)[nH]1)Nc1cccc(C(=O)NCCCCCCNC(=O)c2ccc(-c3c4nc(c(-c5c(F)c(F)c(F)c(F)c5F)c5ccc([nH]5)c(-c5c(F)c(F)c(F)c(F)c5F)c5nc(c(-c6c(F)c(F)c(F)c(F)c6F)c6ccc3[nH]6)C=C5)C=C4)cc2)c1
REMARK SMILES IDX 23 1 22 2 21 3 19 4 20 5 18 7 14 8 15 9 94 10 16 11 17 12
REMARK SMILES IDX 13 13 1 14 2 15 3 17 4 18 5 19 6 20 12 21 7 22 10 23 9 25
REMARK SMILES IDX 11 26 8 27 24 29 25 30 26 31 27 32 28 33 29 34 30 36 31 37
REMARK SMILES IDX 32 38 93 39 33 40 92 41 34 42 35 43 36 44 86 45 37 46 91 47
REMARK SMILES IDX 85 48 87 49 38 50 90 51 84 52 83 53 39 55 71 56 51 57 70 58
REMARK SMILES IDX 52 59 55 60 69 61 88 62 53 63 54 64 68 66 89 67 56 68 40 69
REMARK SMILES IDX 41 70 49 71 42 72 43 73 47 74 50 75 44 76 45 77 48 78 46 79
REMARK SMILES IDX 72 80 73 81 81 82 74 83 75 84 79 85 82 86 76 87 77 88 80 89
REMARK SMILES IDX 78 90 57 91 58 92 66 93 59 94 60 95 64 96 67 97 61 98 62 99
REMARK SMILES IDX 65 100 63 101
REMARK H PARENT 21 6 13 16 12 24 8 28 28 35 87 54 55 65
REMARK Flexibility Score: inf
ROOT
ATOM      1  C   UNL A   1      34.981  30.585  27.671  1.00  0.00     0.021 C 
ENDROOT
BRANCH   1   2
ATOM      2  C   UNL A   1      33.942  29.653  27.062  1.00  0.00     0.116 C 
BRANCH   2   3
ATOM      3  N   UNL A   1      34.175  29.325  25.662  1.00  0.00    -0.352 N 
ATOM      4  C   UNL A   1      33.702  28.277  24.897  1.00  0.00     0.251 C 
ATOM      5  O   UNL A   1      34.066  28.176  23.728  1.00  0.00    -0.269 OA
ATOM      6  H   UNL A   1      34.765  29.951  25.184  1.00  0.00     0.163 HD
BRANCH   4   7
ATOM      7  C   UNL A   1      32.817  27.232  25.478  1.00  0.00     0.041 A 
ATOM      8  C   UNL A   1      32.487  24.938  26.178  1.00  0.00     0.041 A 
ATOM      9  C   UNL A   1      31.105  25.151  26.195  1.00  0.00     0.026 A 
ATOM     10  C   UNL A   1      33.327  26.021  25.942  1.00  0.00     0.040 A 
ATOM     11  C   UNL A   1      30.583  26.415  25.899  1.00  0.00     0.003 A 
ATOM     12  C   UNL A   1      31.435  27.448  25.506  1.00  0.00     0.014 A 
BRANCH   8  13
ATOM     13  N   UNL A   1      32.965  23.616  26.298  1.00  0.00    -0.325 N 
ATOM     14  O   UNL A   1      32.668  22.807  24.131  1.00  0.00    -0.274 OA
ATOM     15  C   UNL A   1      32.993  22.644  25.308  1.00  0.00     0.234 C 
ATOM     16  H   UNL A   1      33.316  23.355  27.180  1.00  0.00     0.169 HD
BRANCH  15  17
ATOM     17  C   UNL A   1      33.327  21.239  25.789  1.00  0.00     0.178 C 
BRANCH  17  18
ATOM     18  S   UNL A   1      34.822  20.511  25.071  1.00  0.00    -0.078 SA
BRANCH  18  19
ATOM     19  C   UNL A   1      34.193  19.005  24.480  1.00  0.00     0.172 A 
ATOM     20  N   UNL A   1      33.232  18.942  23.626  1.00  0.00    -0.189 NA
ATOM     21  N   UNL A   1      34.852  17.933  24.981  1.00  0.00    -0.301 N 
ATOM     22  C   UNL A   1      32.890  17.696  23.196  1.00  0.00     0.218 A 
ATOM     23  C   UNL A   1      34.548  16.665  24.588  1.00  0.00     0.255 A 
ATOM     24  H   UNL A   1      35.567  18.074  25.644  1.00  0.00     0.172 HD
ATOM     25  C   UNL A   1      33.468  16.562  23.598  1.00  0.00     0.139 A 
ATOM     26  O   UNL A   1      35.134  15.681  25.013  1.00  0.00    -0.269 OA
BRANCH  22  27
ATOM     27  O   UNL A   1      31.887  17.652  22.264  1.00  0.00    -0.493 OA
ATOM     28  H   UNL A   1      32.060  17.903  21.378  1.00  0.00     0.295 HD
ENDBRANCH  22  27
ENDBRANCH  18  19
ENDBRANCH  17  18
ENDBRANCH  15  17
ENDBRANCH   8  13
ENDBRANCH   4   7
ENDBRANCH   2   3
ENDBRANCH   1   2
BRANCH   1  29
ATOM     29  C   UNL A   1      34.448  31.692  28.577  1.00  0.00     0.002 C 
BRANCH  29  30
ATOM     30  C   UNL A   1      34.588  33.123  28.049  1.00  0.00     0.002 C 
BRANCH  30  31
ATOM     31  C   UNL A   1      33.325  33.988  28.087  1.00  0.00     0.021 C 
BRANCH  31  32
ATOM     32  C   UNL A   1      33.521  35.430  28.545  1.00  0.00     0.116 C 
BRANCH  32  33
ATOM     33  N   UNL A   1      32.801  35.734  29.770  1.00  0.00    -0.352 N 
ATOM     34  C   UNL A   1      33.009  35.288  31.050  1.00  0.00     0.251 C 
ATOM     35  H   UNL A   1      32.047  36.359  29.665  1.00  0.00     0.163 HD
ATOM     36  O   UNL A   1      32.187  35.541  31.926  1.00  0.00    -0.269 OA
BRANCH  34  37
ATOM     37  C   UNL A   1      34.206  34.483  31.386  1.00  0.00     0.039 A 
ATOM     38  C   UNL A   1      35.464  34.984  31.038  1.00  0.00     0.014 A 
ATOM     39  C   UNL A   1      34.100  33.232  32.000  1.00  0.00     0.014 A 
ATOM     40  C   UNL A   1      36.614  34.257  31.353  1.00  0.00     0.010 A 
ATOM     41  C   UNL A   1      35.250  32.543  32.382  1.00  0.00     0.010 A 
ATOM     42  C   UNL A   1      36.520  33.044  32.056  1.00  0.00    -0.014 A 
BRANCH  42  43
ATOM     43  C   UNL A   1      37.743  32.299  32.454  1.00  0.00     0.031 A 
ATOM     44  C   UNL A   1      38.439  32.609  33.751  1.00  0.00     0.074 A 
ATOM     45  C   UNL A   1      38.250  31.366  31.625  1.00  0.00     0.049 A 
ATOM     46  N   UNL A   1      39.524  32.077  34.256  1.00  0.00    -0.248 NA
ATOM     47  C   UNL A   1      37.853  33.673  34.579  1.00  0.00     0.031 C 
ATOM     48  C   UNL A   1      37.696  31.008  30.318  1.00  0.00     0.029 A 
ATOM     49  N   UNL A   1      39.345  30.548  31.756  1.00  0.00    -0.354 N 
ATOM     50  C   UNL A   1      39.752  32.743  35.454  1.00  0.00     0.074 A 
ATOM     51  C   UNL A   1      38.729  33.760  35.570  1.00  0.00     0.031 C 
ATOM     52  C   UNL A   1      38.433  30.023  29.783  1.00  0.00     0.029 A 
ATOM     53  C   UNL A   1      39.534  29.706  30.688  1.00  0.00     0.049 A 
ATOM     54  H   UNL A   1      39.939  30.564  32.541  1.00  0.00     0.167 HD
ATOM     55  C   UNL A   1      40.711  32.513  36.382  1.00  0.00     0.037 A 
ATOM     56  C   UNL A   1      40.488  28.784  30.460  1.00  0.00     0.037 A 
ATOM     57  C   UNL A   1      41.719  31.490  36.269  1.00  0.00     0.049 A 
ATOM     58  C   UNL A   1      41.550  28.556  31.503  1.00  0.00     0.074 A 
ATOM     59  C   UNL A   1      42.703  31.142  37.179  1.00  0.00     0.029 A 
ATOM     60  N   UNL A   1      41.876  30.653  35.173  1.00  0.00    -0.354 N 
ATOM     61  N   UNL A   1      41.712  29.144  32.663  1.00  0.00    -0.248 NA
ATOM     62  C   UNL A   1      42.556  27.528  31.207  1.00  0.00     0.031 C 
ATOM     63  C   UNL A   1      43.490  30.134  36.610  1.00  0.00     0.029 A 
ATOM     64  C   UNL A   1      42.959  29.809  35.373  1.00  0.00     0.049 A 
ATOM     65  H   UNL A   1      41.304  30.658  34.372  1.00  0.00     0.167 HD
ATOM     66  C   UNL A   1      42.816  28.538  33.248  1.00  0.00     0.074 A 
ATOM     67  C   UNL A   1      43.272  27.523  32.321  1.00  0.00     0.031 C 
ATOM     68  C   UNL A   1      43.402  28.801  34.443  1.00  0.00     0.037 A 
BRANCH  55  69
ATOM     69  C   UNL A   1      40.717  33.383  37.608  1.00  0.00     0.064 A 
ATOM     70  C   UNL A   1      39.866  33.131  38.696  1.00  0.00     0.173 A 
ATOM     71  C   UNL A   1      41.610  34.460  37.713  1.00  0.00     0.173 A 
ATOM     72  F   UNL A   1      38.986  32.119  38.646  1.00  0.00    -0.203 F 
ATOM     73  C   UNL A   1      39.888  33.943  39.828  1.00  0.00     0.198 A 
ATOM     74  C   UNL A   1      41.653  35.249  38.861  1.00  0.00     0.198 A 
ATOM     75  F   UNL A   1      42.451  34.744  36.707  1.00  0.00    -0.203 F 
ATOM     76  F   UNL A   1      39.028  33.714  40.831  1.00  0.00    -0.200 F 
ATOM     77  C   UNL A   1      40.785  34.995  39.913  1.00  0.00     0.200 A 
ATOM     78  F   UNL A   1      42.532  36.257  38.948  1.00  0.00    -0.200 F 
ATOM     79  F   UNL A   1      40.811  35.771  41.005  1.00  0.00    -0.200 F 
ENDBRANCH  55  69
BRANCH  56  80
ATOM     80  C   UNL A   1      40.471  27.987  29.205  1.00  0.00     0.064 A 
ATOM     81  C   UNL A   1      41.222  28.380  28.089  1.00  0.00     0.173 A 
ATOM     82  C   UNL A   1      39.696  26.823  29.090  1.00  0.00     0.173 A 
ATOM     83  F   UNL A   1      41.963  29.497  28.142  1.00  0.00    -0.203 F 
ATOM     84  C   UNL A   1      41.179  27.656  26.900  1.00  0.00     0.198 A 
ATOM     85  C   UNL A   1      39.680  26.080  27.911  1.00  0.00     0.198 A 
ATOM     86  F   UNL A   1      38.962  26.399  30.130  1.00  0.00    -0.203 F 
ATOM     87  F   UNL A   1      41.865  28.086  25.831  1.00  0.00    -0.200 F 
ATOM     88  C   UNL A   1      40.413  26.504  26.814  1.00  0.00     0.200 A 
ATOM     89  F   UNL A   1      38.949  24.959  27.839  1.00  0.00    -0.200 F 
ATOM     90  F   UNL A   1      40.374  25.806  25.670  1.00  0.00    -0.200 F 
ENDBRANCH  56  80
BRANCH  68  91
ATOM     91  C   UNL A   1      44.577  27.950  34.833  1.00  0.00     0.064 A 
ATOM     92  C   UNL A   1      45.896  28.332  34.545  1.00  0.00     0.173 A 
ATOM     93  C   UNL A   1      44.383  26.744  35.524  1.00  0.00     0.173 A 
ATOM     94  F   UNL A   1      46.137  29.470  33.874  1.00  0.00    -0.203 F 
ATOM     95  C   UNL A   1      46.971  27.523  34.900  1.00  0.00     0.198 A 
ATOM     96  C   UNL A   1      45.461  25.954  35.910  1.00  0.00     0.198 A 
ATOM     97  F   UNL A   1      43.143  26.334  35.833  1.00  0.00    -0.203 F 
ATOM     98  F   UNL A   1      48.218  27.880  34.559  1.00  0.00    -0.200 F 
ATOM     99  C   UNL A   1      46.754  26.339  35.588  1.00  0.00     0.200 A 
ATOM    100  F   UNL A   1      45.251  24.819  36.590  1.00  0.00    -0.200 F 
ATOM    101  F   UNL A   1      47.791  25.563  35.932  1.00  0.00    -0.200 F 
ENDBRANCH  68  91
ENDBRANCH  42  43
ENDBRANCH  34  37
ENDBRANCH  32  33
ENDBRANCH  31  32
ENDBRANCH  30  31
ENDBRANCH  29  30
ENDBRANCH   1  29
TORSDOF 18
ENDMDL
MODEL 3
REMARK VINA RESULT:      -9.7      5.276      8.535
REMARK SMILES O=C(CSc1nc(O)cc(=O)[nH]1)Nc1cccc(C(=O)NCCCCCCNC(=O)c2ccc(-c3c4nc(c(-c5c(F)c(F)c(F)c(F)c5F)c5ccc([nH]5)c(-c5c(F)c(F)c(F)c(F)c5F)c5nc(c(-c6c(F)c(F)c(F)c(F)c6F)c6ccc3[nH]6)C=C5)C=C4)cc2)c1
REMARK SMILES IDX 23 1 22 2 21 3 19 4 20 5 18 7 14 8 15 9 94 10 16 11 17 12
REMARK SMILES IDX 13 13 1 14 2 15 3 17 4 18 5 19 6 20 12 21 7 22 10 23 9 25
REMARK SMILES IDX 11 26 8 27 24 29 25 30 26 31 27 32 28 33 29 34 30 36 31 37
REMARK SMILES IDX 32 38 93 39 33 40 92 41 34 42 35 43 36 44 86 45 37 46 91 47
REMARK SMILES IDX 85 48 87 49 38 50 90 51 84 52 83 53 39 55 71 56 51 57 70 58
REMARK SMILES IDX 52 59 55 60 69 61 88 62 53 63 54 64 68 66 89 67 56 68 40 69
REMARK SMILES IDX 41 70 49 71 42 72 43 73 47 74 50 75 44 76 45 77 48 78 46 79
REMARK SMILES IDX 72 80 73 81 81 82 74 83 75 84 79 85 82 86 76 87 77 88 80 89
REMARK SMILES IDX 78 90 57 91 58 92 66 93 59 94 60 95 64 96 67 97 61 98 62 99
REMARK SMILES IDX 65 100 63 101
REMARK H PARENT 21 6 13 16 12 24 8 28 28 35 87 54 55 65
REMARK Flexibility Score: inf
ROOT
ATOM      1  C   UNL A   1      35.121  30.895  27.628  1.00  0.00     0.021 C 
ENDROOT
BRANCH   1   2
ATOM      2  C   UNL A   1      34.686  29.468  27.320  1.00  0.00     0.116 C 
BRANCH   2   3
ATOM      3  N   UNL A   1      33.367  29.118  27.829  1.00  0.00    -0.352 N 
ATOM      4  C   UNL A   1      32.450  28.191  27.375  1.00  0.00     0.251 C 
ATOM      5  O   UNL A   1      31.366  28.091  27.947  1.00  0.00    -0.269 OA
ATOM      6  H   UNL A   1      33.084  29.623  28.624  1.00  0.00     0.163 HD
BRANCH   4   7
ATOM      7  C   UNL A   1      32.717  27.363  26.169  1.00  0.00     0.041 A 
ATOM      8  C   UNL A   1      33.021  25.178  25.171  1.00  0.00     0.041 A 
ATOM      9  C   UNL A   1      33.586  25.782  24.043  1.00  0.00     0.026 A 
ATOM     10  C   UNL A   1      32.479  25.989  26.162  1.00  0.00     0.040 A 
ATOM     11  C   UNL A   1      33.675  27.175  23.960  1.00  0.00     0.003 A 
ATOM     12  C   UNL A   1      33.272  27.966  25.037  1.00  0.00     0.014 A 
BRANCH   8  13
ATOM     13  N   UNL A   1      33.117  23.777  25.302  1.00  0.00    -0.325 N 
ATOM     14  O   UNL A   1      31.007  23.088  24.586  1.00  0.00    -0.274 OA
ATOM     15  C   UNL A   1      32.123  22.843  25.045  1.00  0.00     0.234 C 
ATOM     16  H   UNL A   1      33.983  23.423  25.609  1.00  0.00     0.169 HD
BRANCH  15  17
ATOM     17  C   UNL A   1      32.427  21.427  25.516  1.00  0.00     0.178 C 
BRANCH  17  18
ATOM     18  S   UNL A   1      34.101  20.838  25.157  1.00  0.00    -0.078 SA
BRANCH  18  19
ATOM     19  C   UNL A   1      33.754  19.280  24.475  1.00  0.00     0.172 A 
ATOM     20  N   UNL A   1      32.876  19.108  23.549  1.00  0.00    -0.189 NA
ATOM     21  N   UNL A   1      34.533  18.300  24.992  1.00  0.00    -0.301 N 
ATOM     22  C   UNL A   1      32.760  17.843  23.057  1.00  0.00     0.218 A 
ATOM     23  C   UNL A   1      34.455  17.018  24.539  1.00  0.00     0.255 A 
ATOM     24  H   UNL A   1      35.170  18.519  25.711  1.00  0.00     0.172 HD
ATOM     25  C   UNL A   1      33.475  16.794  23.469  1.00  0.00     0.139 A 
ATOM     26  O   UNL A   1      35.154  16.116  24.977  1.00  0.00    -0.269 OA
BRANCH  22  27
ATOM     27  O   UNL A   1      31.843  17.687  22.052  1.00  0.00    -0.493 OA
ATOM     28  H   UNL A   1      31.412  18.437  21.692  1.00  0.00     0.295 HD
ENDBRANCH  22  27
ENDBRANCH  18  19
ENDBRANCH  17  18
ENDBRANCH  15  17
ENDBRANCH   8  13
ENDBRANCH   4   7
ENDBRANCH   2   3
ENDBRANCH   1   2
BRANCH   1  29
ATOM     29  C   UNL A   1      34.095  31.776  28.338  1.00  0.00     0.002 C 
BRANCH  29  30
ATOM     30  C   UNL A   1      34.374  33.282  28.325  1.00  0.00     0.002 C 
BRANCH  30  31
ATOM     31  C   UNL A   1      33.148  34.199  28.289  1.00  0.00     0.021 C 
BRANCH  31  32
ATOM     32  C   UNL A   1      33.369  35.623  28.792  1.00  0.00     0.116 C 
BRANCH  32  33
ATOM     33  N   UNL A   1      32.639  35.907  30.015  1.00  0.00    -0.352 N 
ATOM     34  C   UNL A   1      32.848  35.457  31.294  1.00  0.00     0.251 C 
ATOM     35  H   UNL A   1      31.875  36.519  29.910  1.00  0.00     0.163 HD
ATOM     36  O   UNL A   1      32.018  35.690  32.167  1.00  0.00    -0.269 OA
BRANCH  34  37
ATOM     37  C   UNL A   1      34.058  34.671  31.631  1.00  0.00     0.039 A 
ATOM     38  C   UNL A   1      35.307  35.289  31.515  1.00  0.00     0.014 A 
ATOM     39  C   UNL A   1      33.978  33.331  32.018  1.00  0.00     0.014 A 
ATOM     40  C   UNL A   1      36.466  34.580  31.839  1.00  0.00     0.010 A 
ATOM     41  C   UNL A   1      35.128  32.648  32.413  1.00  0.00     0.010 A 
ATOM     42  C   UNL A   1      36.385  33.263  32.320  1.00  0.00    -0.014 A 
BRANCH  42  43
ATOM     43  C   UNL A   1      37.610  32.528  32.730  1.00  0.00     0.031 A 
ATOM     44  C   UNL A   1      38.286  32.837  34.038  1.00  0.00     0.074 A 
ATOM     45  C   UNL A   1      38.137  31.604  31.903  1.00  0.00     0.049 A 
ATOM     46  N   UNL A   1      39.369  32.312  34.555  1.00  0.00    -0.248 NA
ATOM     47  C   UNL A   1      37.679  33.891  34.865  1.00  0.00     0.031 C 
ATOM     48  C   UNL A   1      37.604  31.248  30.588  1.00  0.00     0.029 A 
ATOM     49  N   UNL A   1      39.237  30.796  32.044  1.00  0.00    -0.354 N 
ATOM     50  C   UNL A   1      39.574  32.973  35.760  1.00  0.00     0.074 A 
ATOM     51  C   UNL A   1      38.541  33.980  35.868  1.00  0.00     0.031 C 
ATOM     52  C   UNL A   1      38.357  30.273  30.057  1.00  0.00     0.029 A 
ATOM     53  C   UNL A   1      39.448  29.961  30.974  1.00  0.00     0.049 A 
ATOM     54  H   UNL A   1      39.821  30.812  32.838  1.00  0.00     0.167 HD
ATOM     55  C   UNL A   1      40.522  32.746  36.700  1.00  0.00     0.037 A 
ATOM     56  C   UNL A   1      40.414  29.049  30.755  1.00  0.00     0.037 A 
ATOM     57  C   UNL A   1      41.542  31.733  36.594  1.00  0.00     0.049 A 
ATOM     58  C   UNL A   1      41.464  28.825  31.811  1.00  0.00     0.074 A 
ATOM     59  C   UNL A   1      42.517  31.389  37.516  1.00  0.00     0.029 A 
ATOM     60  N   UNL A   1      41.722  30.905  35.496  1.00  0.00    -0.354 N 
ATOM     61  N   UNL A   1      41.605  29.408  32.976  1.00  0.00    -0.248 NA
ATOM     62  C   UNL A   1      42.484  27.808  31.522  1.00  0.00     0.031 C 
ATOM     63  C   UNL A   1      43.320  30.392  36.952  1.00  0.00     0.029 A 
ATOM     64  C   UNL A   1      42.809  30.069  35.706  1.00  0.00     0.049 A 
ATOM     65  H   UNL A   1      41.160  30.908  34.688  1.00  0.00     0.167 HD
ATOM     66  C   UNL A   1      42.707  28.809  33.572  1.00  0.00     0.074 A 
ATOM     67  C   UNL A   1      43.184  27.804  32.646  1.00  0.00     0.031 C 
ATOM     68  C   UNL A   1      43.274  29.070  34.776  1.00  0.00     0.037 A 
BRANCH  55  69
ATOM     69  C   UNL A   1      40.505  33.609  37.931  1.00  0.00     0.064 A 
ATOM     70  C   UNL A   1      41.319  34.748  38.044  1.00  0.00     0.173 A 
ATOM     71  C   UNL A   1      39.638  33.317  38.995  1.00  0.00     0.173 A 
ATOM     72  F   UNL A   1      42.173  35.069  37.061  1.00  0.00    -0.203 F 
ATOM     73  C   UNL A   1      41.287  35.541  39.189  1.00  0.00     0.198 A 
ATOM     74  C   UNL A   1      39.584  34.132  40.123  1.00  0.00     0.198 A 
ATOM     75  F   UNL A   1      38.834  32.245  38.937  1.00  0.00    -0.203 F 
ATOM     76  F   UNL A   1      42.112  36.592  39.297  1.00  0.00    -0.200 F 
ATOM     77  C   UNL A   1      40.416  35.238  40.223  1.00  0.00     0.200 A 
ATOM     78  F   UNL A   1      38.730  33.846  41.116  1.00  0.00    -0.200 F 
ATOM     79  F   UNL A   1      40.380  36.007  41.320  1.00  0.00    -0.200 F 
ENDBRANCH  55  69
BRANCH  56  80
ATOM     80  C   UNL A   1      40.421  28.259  29.495  1.00  0.00     0.064 A 
ATOM     81  C   UNL A   1      41.181  28.668  28.390  1.00  0.00     0.173 A 
ATOM     82  C   UNL A   1      39.661  27.087  29.365  1.00  0.00     0.173 A 
ATOM     83  F   UNL A   1      41.908  29.792  28.458  1.00  0.00    -0.203 F 
ATOM     84  C   UNL A   1      41.161  27.949  27.197  1.00  0.00     0.198 A 
ATOM     85  C   UNL A   1      39.668  26.351  28.181  1.00  0.00     0.198 A 
ATOM     86  F   UNL A   1      38.919  26.649  30.393  1.00  0.00    -0.203 F 
ATOM     87  F   UNL A   1      41.855  28.393  26.139  1.00  0.00    -0.200 F 
ATOM     88  C   UNL A   1      40.409  26.790  27.095  1.00  0.00     0.200 A 
ATOM     89  F   UNL A   1      38.951  25.222  28.094  1.00  0.00    -0.200 F 
ATOM     90  F   UNL A   1      40.392  26.098  25.948  1.00  0.00    -0.200 F 
ENDBRANCH  56  80
BRANCH  68  91
ATOM     91  C   UNL A   1      44.452  28.228  35.178  1.00  0.00     0.064 A 
ATOM     92  C   UNL A   1      44.294  27.022  35.878  1.00  0.00     0.173 A 
ATOM     93  C   UNL A   1      45.755  28.622  34.839  1.00  0.00     0.173 A 
ATOM     94  F   UNL A   1      43.070  26.605  36.238  1.00  0.00    -0.203 F 
ATOM     95  C   UNL A   1      45.399  26.263  36.255  1.00  0.00     0.198 A 
ATOM     96  C   UNL A   1      46.855  27.843  35.186  1.00  0.00     0.198 A 
ATOM     97  F   UNL A   1      45.963  29.762  34.163  1.00  0.00    -0.203 F 
ATOM     98  F   UNL A   1      45.227  25.146  36.977  1.00  0.00    -0.200 F 
ATOM     99  C   UNL A   1      46.677  26.670  35.903  1.00  0.00     0.200 A 
ATOM    100  F   UNL A   1      48.087  28.229  34.830  1.00  0.00    -0.200 F 
ATOM    101  F   UNL A   1      47.738  25.936  36.265  1.00  0.00    -0.200 F 
ENDBRANCH  68  91
ENDBRANCH  42  43
ENDBRANCH  34  37
ENDBRANCH  32  33
ENDBRANCH  31  32
ENDBRANCH  30  31
ENDBRANCH  29  30
ENDBRANCH   1  29
TORSDOF 18
ENDMDL
