MODEL 1
REMARK VINA RESULT:     -12.4      0.000      0.000
REMARK SMILES CCCC(=O)N(c1cc2sc(=O)oc2c2ccccc12)S(=O)(=O)c1ccc(C(=O)NCCCCCCNC(=O)c2ccc(-c3c4nc(c(-c5c(F)c(F)c(F)c(F)c5F)c5ccc([nH]5)c(-c5c(F)c(F)c(F)c(F)c5F)c5nc(c(-c6c(F)c(F)c(F)c(F)c6F)c6ccc3[nH]6)C=C5)C=C4)cc2)cc1
REMARK SMILES IDX 32 1 31 2 30 3 28 4 29 5 27 7 24 8 25 9 104 10 26 11 103 12
REMARK SMILES IDX 21 13 22 14 23 15 6 16 4 17 5 18 3 19 2 20 1 21 7 22 8 23
REMARK SMILES IDX 20 24 9 25 15 26 19 27 10 28 14 29 16 30 18 31 11 32 13 33
REMARK SMILES IDX 17 34 12 35 33 36 34 37 35 38 36 39 37 40 38 41 39 43 40 44
REMARK SMILES IDX 41 45 102 46 42 47 101 48 43 49 44 50 45 51 95 52 46 53
REMARK SMILES IDX 100 54 94 55 96 56 47 57 99 58 93 59 92 60 48 62 80 63 60 64
REMARK SMILES IDX 79 65 61 66 64 67 78 68 97 69 62 70 63 71 77 73 98 74 65 75
REMARK SMILES IDX 49 76 50 77 58 78 51 79 52 80 56 81 59 82 53 83 54 84 57 85
REMARK SMILES IDX 55 86 81 87 82 88 90 89 83 90 84 91 88 92 91 93 85 94 86 95
REMARK SMILES IDX 89 96 87 97 66 98 67 99 75 100 68 101 69 102 73 103 76 104
REMARK SMILES IDX 70 105 71 106 74 107 72 108
REMARK H PARENT 30 6 37 42 96 61 64 72
REMARK Flexibility Score: inf
ROOT
ATOM      1  C   UNL A   1      32.797  29.688  25.040  1.00  0.00     0.021 C 
ENDROOT
BRANCH   1   2
ATOM      2  C   UNL A   1      31.279  29.721  24.974  1.00  0.00     0.116 C 
BRANCH   2   3
ATOM      3  N   UNL A   1      30.701  29.728  23.637  1.00  0.00    -0.352 N 
ATOM      4  C   UNL A   1      30.552  28.726  22.692  1.00  0.00     0.251 C 
ATOM      5  O   UNL A   1      29.998  28.997  21.627  1.00  0.00    -0.269 OA
ATOM      6  H   UNL A   1      30.354  30.604  23.354  1.00  0.00     0.163 HD
BRANCH   4   7
ATOM      7  C   UNL A   1      31.097  27.350  22.891  1.00  0.00     0.039 A 
ATOM      8  C   UNL A   1      32.053  24.693  22.850  1.00  0.00     0.088 A 
ATOM      9  C   UNL A   1      30.747  24.965  23.283  1.00  0.00     0.023 A 
ATOM     10  C   UNL A   1      32.839  25.758  22.454  1.00  0.00     0.023 A 
ATOM     11  C   UNL A   1      30.254  26.286  23.245  1.00  0.00     0.015 A 
ATOM     12  C   UNL A   1      32.431  27.065  22.666  1.00  0.00     0.015 A 
BRANCH   8  13
ATOM     13  S   UNL A   1      32.642  22.996  22.831  1.00  0.00     0.270 S 
ATOM     14  O   UNL A   1      33.910  23.063  22.153  1.00  0.00    -0.201 OA
ATOM     15  O   UNL A   1      31.520  22.241  22.281  1.00  0.00    -0.201 OA
BRANCH  13  16
ATOM     16  N   UNL A   1      32.888  22.356  24.398  1.00  0.00    -0.202 N 
BRANCH  16  17
ATOM     17  C   UNL A   1      32.041  22.790  25.469  1.00  0.00     0.241 C 
ATOM     18  O   UNL A   1      30.854  22.485  25.519  1.00  0.00    -0.273 OA
BRANCH  17  19
ATOM     19  C   UNL A   1      32.623  23.695  26.553  1.00  0.00     0.101 C 
BRANCH  19  20
ATOM     20  C   UNL A   1      32.644  25.179  26.186  1.00  0.00     0.006 C 
ATOM     21  C   UNL A   1      34.027  25.653  25.751  1.00  0.00     0.004 C 
ENDBRANCH  19  20
ENDBRANCH  17  19
ENDBRANCH  16  17
BRANCH  16  22
ATOM     22  C   UNL A   1      33.939  21.436  24.702  1.00  0.00     0.070 A 
ATOM     23  C   UNL A   1      35.140  21.950  25.212  1.00  0.00     0.051 A 
ATOM     24  C   UNL A   1      33.786  20.035  24.400  1.00  0.00     0.010 A 
ATOM     25  C   UNL A   1      36.221  21.095  25.310  1.00  0.00     0.080 A 
ATOM     26  C   UNL A   1      34.884  19.164  24.626  1.00  0.00     0.028 A 
ATOM     27  C   UNL A   1      32.615  19.467  23.841  1.00  0.00     0.011 A 
ATOM     28  S   UNL A   1      37.893  21.536  25.591  1.00  0.00    -0.052 S 
ATOM     29  C   UNL A   1      36.102  19.739  25.015  1.00  0.00     0.157 A 
ATOM     30  C   UNL A   1      34.738  17.777  24.420  1.00  0.00     0.013 A 
ATOM     31  C   UNL A   1      32.482  18.089  23.652  1.00  0.00     0.001 A 
ATOM     32  C   UNL A   1      38.351  19.890  25.143  1.00  0.00     0.396 A 
ATOM     33  O   UNL A   1      37.290  18.997  24.990  1.00  0.00    -0.413 OA
ATOM     34  C   UNL A   1      33.534  17.241  23.967  1.00  0.00     0.001 A 
ATOM     35  O   UNL A   1      39.513  19.578  24.939  1.00  0.00    -0.233 OA
ENDBRANCH  16  22
ENDBRANCH  13  16
ENDBRANCH   8  13
ENDBRANCH   4   7
ENDBRANCH   2   3
ENDBRANCH   1   2
BRANCH   1  36
ATOM     36  C   UNL A   1      33.417  29.174  26.332  1.00  0.00     0.002 C 
BRANCH  36  37
ATOM     37  C   UNL A   1      34.141  30.204  27.210  1.00  0.00     0.002 C 
BRANCH  37  38
ATOM     38  C   UNL A   1      35.536  29.819  27.713  1.00  0.00     0.021 C 
BRANCH  38  39
ATOM     39  C   UNL A   1      36.108  30.732  28.795  1.00  0.00     0.116 C 
BRANCH  39  40
ATOM     40  N   UNL A   1      36.217  30.106  30.104  1.00  0.00    -0.352 N 
ATOM     41  C   UNL A   1      37.234  29.335  30.618  1.00  0.00     0.251 C 
ATOM     42  H   UNL A   1      35.455  30.256  30.708  1.00  0.00     0.163 HD
ATOM     43  O   UNL A   1      37.154  28.842  31.737  1.00  0.00    -0.269 OA
BRANCH  41  44
ATOM     44  C   UNL A   1      38.402  29.054  29.768  1.00  0.00     0.039 A 
ATOM     45  C   UNL A   1      38.347  28.033  28.817  1.00  0.00     0.014 A 
ATOM     46  C   UNL A   1      39.587  29.753  30.010  1.00  0.00     0.014 A 
ATOM     47  C   UNL A   1      39.526  27.577  28.248  1.00  0.00     0.010 A 
ATOM     48  C   UNL A   1      40.759  29.334  29.392  1.00  0.00     0.010 A 
ATOM     49  C   UNL A   1      40.735  28.204  28.563  1.00  0.00    -0.014 A 
BRANCH  49  50
ATOM     50  C   UNL A   1      41.944  27.634  27.959  1.00  0.00     0.031 A 
ATOM     51  C   UNL A   1      42.988  28.651  27.647  1.00  0.00     0.074 A 
ATOM     52  C   UNL A   1      42.334  26.375  28.247  1.00  0.00     0.049 A 
ATOM     53  N   UNL A   1      43.843  29.073  28.530  1.00  0.00    -0.248 NA
ATOM     54  C   UNL A   1      42.941  29.459  26.429  1.00  0.00     0.031 C 
ATOM     55  C   UNL A   1      42.148  25.733  29.554  1.00  0.00     0.029 A 
ATOM     56  N   UNL A   1      43.157  25.515  27.555  1.00  0.00    -0.354 N 
ATOM     57  C   UNL A   1      44.385  30.246  28.037  1.00  0.00     0.074 A 
ATOM     58  C   UNL A   1      43.821  30.429  26.718  1.00  0.00     0.031 C 
ATOM     59  C   UNL A   1      42.982  24.678  29.637  1.00  0.00     0.029 A 
ATOM     60  C   UNL A   1      43.640  24.479  28.350  1.00  0.00     0.049 A 
ATOM     61  H   UNL A   1      43.378  25.620  26.601  1.00  0.00     0.167 HD
ATOM     62  C   UNL A   1      45.234  31.021  28.760  1.00  0.00     0.037 A 
ATOM     63  C   UNL A   1      44.850  23.880  28.186  1.00  0.00     0.037 A 
ATOM     64  C   UNL A   1      45.533  30.551  30.077  1.00  0.00     0.049 A 
ATOM     65  C   UNL A   1      45.766  24.951  28.721  1.00  0.00     0.074 A 
ATOM     66  C   UNL A   1      45.069  30.791  31.351  1.00  0.00     0.029 A 
ATOM     67  N   UNL A   1      46.455  29.541  30.212  1.00  0.00    -0.354 N 
ATOM     68  N   UNL A   1      45.987  25.197  29.987  1.00  0.00    -0.248 NA
ATOM     69  C   UNL A   1      46.166  26.031  27.816  1.00  0.00     0.031 C 
ATOM     70  C   UNL A   1      45.409  29.626  32.106  1.00  0.00     0.029 A 
ATOM     71  C   UNL A   1      46.016  28.730  31.227  1.00  0.00     0.049 A 
ATOM     72  H   UNL A   1      47.275  29.421  29.679  1.00  0.00     0.167 HD
ATOM     73  C   UNL A   1      46.270  26.563  30.051  1.00  0.00     0.074 A 
ATOM     74  C   UNL A   1      46.425  27.003  28.682  1.00  0.00     0.031 C 
ATOM     75  C   UNL A   1      46.149  27.293  31.196  1.00  0.00     0.037 A 
BRANCH  62  76
ATOM     76  C   UNL A   1      45.921  32.222  28.259  1.00  0.00     0.064 A 
ATOM     77  C   UNL A   1      45.234  33.442  28.321  1.00  0.00     0.173 A 
ATOM     78  C   UNL A   1      47.110  32.162  27.528  1.00  0.00     0.173 A 
ATOM     79  F   UNL A   1      44.083  33.526  29.007  1.00  0.00    -0.203 F 
ATOM     80  C   UNL A   1      45.695  34.558  27.636  1.00  0.00     0.198 A 
ATOM     81  C   UNL A   1      47.574  33.287  26.846  1.00  0.00     0.198 A 
ATOM     82  F   UNL A   1      47.791  31.011  27.432  1.00  0.00    -0.203 F 
ATOM     83  F   UNL A   1      44.992  35.698  27.673  1.00  0.00    -0.200 F 
ATOM     84  C   UNL A   1      46.859  34.478  26.889  1.00  0.00     0.200 A 
ATOM     85  F   UNL A   1      48.698  33.212  26.119  1.00  0.00    -0.200 F 
ATOM     86  F   UNL A   1      47.284  35.543  26.197  1.00  0.00    -0.200 F 
ENDBRANCH  62  76
BRANCH  63  87
ATOM     87  C   UNL A   1      45.019  23.165  26.884  1.00  0.00     0.064 A 
ATOM     88  C   UNL A   1      44.045  22.200  26.541  1.00  0.00     0.173 A 
ATOM     89  C   UNL A   1      46.037  23.357  25.947  1.00  0.00     0.173 A 
ATOM     90  F   UNL A   1      43.111  21.845  27.432  1.00  0.00    -0.203 F 
ATOM     91  C   UNL A   1      44.002  21.588  25.290  1.00  0.00     0.198 A 
ATOM     92  C   UNL A   1      45.993  22.754  24.684  1.00  0.00     0.198 A 
ATOM     93  F   UNL A   1      47.090  24.138  26.218  1.00  0.00    -0.203 F 
ATOM     94  F   UNL A   1      43.015  20.729  25.000  1.00  0.00    -0.200 F 
ATOM     95  C   UNL A   1      44.964  21.892  24.347  1.00  0.00     0.200 A 
ATOM     96  F   UNL A   1      46.943  23.038  23.782  1.00  0.00    -0.200 F 
ATOM     97  F   UNL A   1      44.901  21.352  23.123  1.00  0.00    -0.200 F 
ENDBRANCH  63  87
BRANCH  75  98
ATOM     98  C   UNL A   1      45.858  26.505  32.424  1.00  0.00     0.064 A 
ATOM     99  C   UNL A   1      46.902  25.943  33.166  1.00  0.00     0.173 A 
ATOM    100  C   UNL A   1      44.544  26.329  32.886  1.00  0.00     0.173 A 
ATOM    101  F   UNL A   1      48.174  26.091  32.765  1.00  0.00    -0.203 F 
ATOM    102  C   UNL A   1      46.642  25.249  34.344  1.00  0.00     0.198 A 
ATOM    103  C   UNL A   1      44.291  25.656  34.075  1.00  0.00     0.198 A 
ATOM    104  F   UNL A   1      43.502  26.831  32.202  1.00  0.00    -0.203 F 
ATOM    105  F   UNL A   1      47.655  24.725  35.048  1.00  0.00    -0.200 F 
ATOM    106  C   UNL A   1      45.340  25.117  34.804  1.00  0.00     0.200 A 
ATOM    107  F   UNL A   1      43.033  25.547  34.528  1.00  0.00    -0.200 F 
ATOM    108  F   UNL A   1      45.097  24.482  35.959  1.00  0.00    -0.200 F 
ENDBRANCH  75  98
ENDBRANCH  49  50
ENDBRANCH  41  44
ENDBRANCH  39  40
ENDBRANCH  38  39
ENDBRANCH  37  38
ENDBRANCH  36  37
ENDBRANCH   1  36
TORSDOF 19
ENDMDL
MODEL 2
REMARK VINA RESULT:     -11.8      4.118      6.152
REMARK SMILES CCCC(=O)N(c1cc2sc(=O)oc2c2ccccc12)S(=O)(=O)c1ccc(C(=O)NCCCCCCNC(=O)c2ccc(-c3c4nc(c(-c5c(F)c(F)c(F)c(F)c5F)c5ccc([nH]5)c(-c5c(F)c(F)c(F)c(F)c5F)c5nc(c(-c6c(F)c(F)c(F)c(F)c6F)c6ccc3[nH]6)C=C5)C=C4)cc2)cc1
REMARK SMILES IDX 32 1 31 2 30 3 28 4 29 5 27 7 24 8 25 9 104 10 26 11 103 12
REMARK SMILES IDX 21 13 22 14 23 15 6 16 4 17 5 18 3 19 2 20 1 21 7 22 8 23
REMARK SMILES IDX 20 24 9 25 15 26 19 27 10 28 14 29 16 30 18 31 11 32 13 33
REMARK SMILES IDX 17 34 12 35 33 36 34 37 35 38 36 39 37 40 38 41 39 43 40 44
REMARK SMILES IDX 41 45 102 46 42 47 101 48 43 49 44 50 45 51 95 52 46 53
REMARK SMILES IDX 100 54 94 55 96 56 47 57 99 58 93 59 92 60 48 62 80 63 60 64
REMARK SMILES IDX 79 65 61 66 64 67 78 68 97 69 62 70 63 71 77 73 98 74 65 75
REMARK SMILES IDX 49 76 50 77 58 78 51 79 52 80 56 81 59 82 53 83 54 84 57 85
REMARK SMILES IDX 55 86 81 87 82 88 90 89 83 90 84 91 88 92 91 93 85 94 86 95
REMARK SMILES IDX 89 96 87 97 66 98 67 99 75 100 68 101 69 102 73 103 76 104
REMARK SMILES IDX 70 105 71 106 74 107 72 108
REMARK H PARENT 30 6 37 42 96 61 64 72
REMARK Flexibility Score: inf
ROOT
ATOM      1  C   UNL A   1      32.639  29.435  24.285  1.00  0.00     0.021 C 
ENDROOT
BRANCH   1   2
ATOM      2  C   UNL A   1      32.081  28.957  22.955  1.00  0.00     0.116 C 
BRANCH   2   3
ATOM      3  N   UNL A   1      30.635  28.808  22.889  1.00  0.00    -0.352 N 
ATOM      4  C   UNL A   1      29.782  27.847  23.408  1.00  0.00     0.251 C 
ATOM      5  O   UNL A   1      28.572  27.969  23.221  1.00  0.00    -0.269 OA
ATOM      6  H   UNL A   1      30.179  29.519  22.384  1.00  0.00     0.163 HD
BRANCH   4   7
ATOM      7  C   UNL A   1      30.282  26.636  24.125  1.00  0.00     0.039 A 
ATOM      8  C   UNL A   1      30.816  24.234  25.510  1.00  0.00     0.088 A 
ATOM      9  C   UNL A   1      30.770  25.452  26.204  1.00  0.00     0.023 A 
ATOM     10  C   UNL A   1      30.595  24.257  24.147  1.00  0.00     0.023 A 
ATOM     11  C   UNL A   1      30.444  26.641  25.519  1.00  0.00     0.015 A 
ATOM     12  C   UNL A   1      30.532  25.454  23.453  1.00  0.00     0.015 A 
BRANCH   8  13
ATOM     13  S   UNL A   1      31.156  22.717  26.411  1.00  0.00     0.270 S 
ATOM     14  O   UNL A   1      30.016  21.879  26.147  1.00  0.00    -0.201 OA
ATOM     15  O   UNL A   1      31.475  23.172  27.760  1.00  0.00    -0.201 OA
BRANCH  13  16
ATOM     16  N   UNL A   1      32.565  21.917  25.863  1.00  0.00    -0.202 N 
BRANCH  16  17
ATOM     17  C   UNL A   1      33.839  22.552  26.034  1.00  0.00     0.241 C 
ATOM     18  O   UNL A   1      34.556  22.311  27.000  1.00  0.00    -0.273 OA
BRANCH  17  19
ATOM     19  C   UNL A   1      34.293  23.590  25.010  1.00  0.00     0.101 C 
BRANCH  19  20
ATOM     20  C   UNL A   1      34.336  25.021  25.545  1.00  0.00     0.006 C 
ATOM     21  C   UNL A   1      34.038  26.057  24.465  1.00  0.00     0.004 C 
ENDBRANCH  19  20
ENDBRANCH  17  19
ENDBRANCH  16  17
BRANCH  16  22
ATOM     22  C   UNL A   1      32.528  20.655  25.193  1.00  0.00     0.070 A 
ATOM     23  C   UNL A   1      32.766  19.498  25.948  1.00  0.00     0.051 A 
ATOM     24  C   UNL A   1      32.344  20.598  23.764  1.00  0.00     0.010 A 
ATOM     25  C   UNL A   1      32.936  18.305  25.272  1.00  0.00     0.080 A 
ATOM     26  C   UNL A   1      32.407  19.336  23.117  1.00  0.00     0.028 A 
ATOM     27  C   UNL A   1      32.147  21.735  22.943  1.00  0.00     0.011 A 
ATOM     28  S   UNL A   1      33.559  16.803  25.923  1.00  0.00    -0.052 S 
ATOM     29  C   UNL A   1      32.772  18.225  23.891  1.00  0.00     0.157 A 
ATOM     30  C   UNL A   1      32.148  19.238  21.735  1.00  0.00     0.013 A 
ATOM     31  C   UNL A   1      31.882  21.621  21.577  1.00  0.00     0.001 A 
ATOM     32  C   UNL A   1      33.706  16.205  24.267  1.00  0.00     0.396 A 
ATOM     33  O   UNL A   1      33.125  17.011  23.288  1.00  0.00    -0.413 OA
ATOM     34  C   UNL A   1      31.854  20.370  20.977  1.00  0.00     0.001 A 
ATOM     35  O   UNL A   1      34.315  15.180  24.005  1.00  0.00    -0.233 OA
ENDBRANCH  16  22
ENDBRANCH  13  16
ENDBRANCH   8  13
ENDBRANCH   4   7
ENDBRANCH   2   3
ENDBRANCH   1   2
BRANCH   1  36
ATOM     36  C   UNL A   1      31.638  29.996  25.287  1.00  0.00     0.002 C 
BRANCH  36  37
ATOM     37  C   UNL A   1      31.908  29.711  26.770  1.00  0.00     0.002 C 
BRANCH  37  38
ATOM     38  C   UNL A   1      33.240  29.032  27.108  1.00  0.00     0.021 C 
BRANCH  38  39
ATOM     39  C   UNL A   1      34.436  29.975  27.220  1.00  0.00     0.116 C 
BRANCH  39  40
ATOM     40  N   UNL A   1      34.187  31.156  28.032  1.00  0.00    -0.352 N 
ATOM     41  C   UNL A   1      35.001  31.761  28.962  1.00  0.00     0.251 C 
ATOM     42  H   UNL A   1      33.311  31.583  27.897  1.00  0.00     0.163 HD
ATOM     43  O   UNL A   1      34.623  32.738  29.598  1.00  0.00    -0.269 OA
BRANCH  41  44
ATOM     44  C   UNL A   1      36.322  31.169  29.230  1.00  0.00     0.039 A 
ATOM     45  C   UNL A   1      36.422  29.844  29.657  1.00  0.00     0.014 A 
ATOM     46  C   UNL A   1      37.448  31.992  29.155  1.00  0.00     0.014 A 
ATOM     47  C   UNL A   1      37.618  29.397  30.196  1.00  0.00     0.010 A 
ATOM     48  C   UNL A   1      38.663  31.522  29.641  1.00  0.00     0.010 A 
ATOM     49  C   UNL A   1      38.728  30.248  30.220  1.00  0.00    -0.014 A 
BRANCH  49  50
ATOM     50  C   UNL A   1      39.943  29.720  30.849  1.00  0.00     0.031 A 
ATOM     51  C   UNL A   1      41.200  30.267  30.265  1.00  0.00     0.074 A 
ATOM     52  C   UNL A   1      39.943  29.343  32.145  1.00  0.00     0.049 A 
ATOM     53  N   UNL A   1      41.713  31.401  30.638  1.00  0.00    -0.248 NA
ATOM     54  C   UNL A   1      41.780  29.726  29.037  1.00  0.00     0.031 C 
ATOM     55  C   UNL A   1      39.149  29.995  33.194  1.00  0.00     0.029 A 
ATOM     56  N   UNL A   1      40.787  28.497  32.829  1.00  0.00    -0.354 N 
ATOM     57  C   UNL A   1      42.616  31.776  29.662  1.00  0.00     0.074 A 
ATOM     58  C   UNL A   1      42.650  30.692  28.704  1.00  0.00     0.031 C 
ATOM     59  C   UNL A   1      39.668  29.666  34.392  1.00  0.00     0.029 A 
ATOM     60  C   UNL A   1      40.720  28.672  34.209  1.00  0.00     0.049 A 
ATOM     61  H   UNL A   1      41.374  27.840  32.390  1.00  0.00     0.167 HD
ATOM     62  C   UNL A   1      43.253  32.974  29.673  1.00  0.00     0.037 A 
ATOM     63  C   UNL A   1      41.760  28.482  35.063  1.00  0.00     0.037 A 
ATOM     64  C   UNL A   1      42.925  33.839  30.764  1.00  0.00     0.049 A 
ATOM     65  C   UNL A   1      42.586  29.709  34.774  1.00  0.00     0.074 A 
ATOM     66  C   UNL A   1      42.062  34.890  30.981  1.00  0.00     0.029 A 
ATOM     67  N   UNL A   1      43.513  33.596  31.983  1.00  0.00    -0.354 N 
ATOM     68  N   UNL A   1      42.346  30.910  35.232  1.00  0.00    -0.248 NA
ATOM     69  C   UNL A   1      43.502  29.669  33.632  1.00  0.00     0.031 C 
ATOM     70  C   UNL A   1      41.856  34.928  32.394  1.00  0.00     0.029 A 
ATOM     71  C   UNL A   1      42.571  33.864  32.943  1.00  0.00     0.049 A 
ATOM     72  H   UNL A   1      44.436  33.288  32.137  1.00  0.00     0.167 HD
ATOM     73  C   UNL A   1      42.838  31.780  34.257  1.00  0.00     0.074 A 
ATOM     74  C   UNL A   1      43.589  30.960  33.333  1.00  0.00     0.031 C 
ATOM     75  C   UNL A   1      42.428  33.075  34.142  1.00  0.00     0.037 A 
BRANCH  62  76
ATOM     76  C   UNL A   1      44.295  33.391  28.722  1.00  0.00     0.064 A 
ATOM     77  C   UNL A   1      43.898  34.123  27.595  1.00  0.00     0.173 A 
ATOM     78  C   UNL A   1      45.603  32.902  28.773  1.00  0.00     0.173 A 
ATOM     79  F   UNL A   1      42.644  34.597  27.514  1.00  0.00    -0.203 F 
ATOM     80  C   UNL A   1      44.765  34.321  26.528  1.00  0.00     0.198 A 
ATOM     81  C   UNL A   1      46.474  33.107  27.703  1.00  0.00     0.198 A 
ATOM     82  F   UNL A   1      46.019  32.186  29.827  1.00  0.00    -0.203 F 
ATOM     83  F   UNL A   1      44.342  34.981  25.442  1.00  0.00    -0.200 F 
ATOM     84  C   UNL A   1      46.049  33.802  26.577  1.00  0.00     0.200 A 
ATOM     85  F   UNL A   1      47.716  32.604  27.745  1.00  0.00    -0.200 F 
ATOM     86  F   UNL A   1      46.873  33.960  25.532  1.00  0.00    -0.200 F 
ENDBRANCH  62  76
BRANCH  63  87
ATOM     87  C   UNL A   1      42.277  27.080  35.112  1.00  0.00     0.064 A 
ATOM     88  C   UNL A   1      41.753  26.227  36.110  1.00  0.00     0.173 A 
ATOM     89  C   UNL A   1      43.221  26.503  34.257  1.00  0.00     0.173 A 
ATOM     90  F   UNL A   1      40.951  26.723  37.060  1.00  0.00    -0.203 F 
ATOM     91  C   UNL A   1      42.032  24.863  36.155  1.00  0.00     0.198 A 
ATOM     92  C   UNL A   1      43.495  25.130  34.290  1.00  0.00     0.198 A 
ATOM     93  F   UNL A   1      43.889  27.242  33.364  1.00  0.00    -0.203 F 
ATOM     94  F   UNL A   1      41.454  24.094  37.088  1.00  0.00    -0.200 F 
ATOM     95  C   UNL A   1      42.883  24.308  35.220  1.00  0.00     0.200 A 
ATOM     96  F   UNL A   1      44.340  24.603  33.392  1.00  0.00    -0.200 F 
ATOM     97  F   UNL A   1      43.115  22.989  35.220  1.00  0.00    -0.200 F 
ENDBRANCH  63  87
BRANCH  75  98
ATOM     98  C   UNL A   1      41.541  33.559  35.235  1.00  0.00     0.064 A 
ATOM     99  C   UNL A   1      42.090  34.085  36.409  1.00  0.00     0.173 A 
ATOM    100  C   UNL A   1      40.143  33.531  35.109  1.00  0.00     0.173 A 
ATOM    101  F   UNL A   1      43.422  34.137  36.569  1.00  0.00    -0.203 F 
ATOM    102  C   UNL A   1      41.270  34.589  37.414  1.00  0.00     0.198 A 
ATOM    103  C   UNL A   1      39.327  34.056  36.105  1.00  0.00     0.198 A 
ATOM    104  F   UNL A   1      39.562  33.020  34.012  1.00  0.00    -0.203 F 
ATOM    105  F   UNL A   1      41.813  35.098  38.528  1.00  0.00    -0.200 F 
ATOM    106  C   UNL A   1      39.891  34.586  37.255  1.00  0.00     0.200 A 
ATOM    107  F   UNL A   1      37.997  34.071  35.941  1.00  0.00    -0.200 F 
ATOM    108  F   UNL A   1      39.105  35.107  38.208  1.00  0.00    -0.200 F 
ENDBRANCH  75  98
ENDBRANCH  49  50
ENDBRANCH  41  44
ENDBRANCH  39  40
ENDBRANCH  38  39
ENDBRANCH  37  38
ENDBRANCH  36  37
ENDBRANCH   1  36
TORSDOF 19
ENDMDL
MODEL 3
REMARK VINA RESULT:     -11.7      3.953      8.990
REMARK SMILES CCCC(=O)N(c1cc2sc(=O)oc2c2ccccc12)S(=O)(=O)c1ccc(C(=O)NCCCCCCNC(=O)c2ccc(-c3c4nc(c(-c5c(F)c(F)c(F)c(F)c5F)c5ccc([nH]5)c(-c5c(F)c(F)c(F)c(F)c5F)c5nc(c(-c6c(F)c(F)c(F)c(F)c6F)c6ccc3[nH]6)C=C5)C=C4)cc2)cc1
REMARK SMILES IDX 32 1 31 2 30 3 28 4 29 5 27 7 24 8 25 9 104 10 26 11 103 12
REMARK SMILES IDX 21 13 22 14 23 15 6 16 4 17 5 18 3 19 2 20 1 21 7 22 8 23
REMARK SMILES IDX 20 24 9 25 15 26 19 27 10 28 14 29 16 30 18 31 11 32 13 33
REMARK SMILES IDX 17 34 12 35 33 36 34 37 35 38 36 39 37 40 38 41 39 43 40 44
REMARK SMILES IDX 41 45 102 46 42 47 101 48 43 49 44 50 45 51 95 52 46 53
REMARK SMILES IDX 100 54 94 55 96 56 47 57 99 58 93 59 92 60 48 62 80 63 60 64
REMARK SMILES IDX 79 65 61 66 64 67 78 68 97 69 62 70 63 71 77 73 98 74 65 75
REMARK SMILES IDX 49 76 50 77 58 78 51 79 52 80 56 81 59 82 53 83 54 84 57 85
REMARK SMILES IDX 55 86 81 87 82 88 90 89 83 90 84 91 88 92 91 93 85 94 86 95
REMARK SMILES IDX 89 96 87 97 66 98 67 99 75 100 68 101 69 102 73 103 76 104
REMARK SMILES IDX 70 105 71 106 74 107 72 108
REMARK H PARENT 30 6 37 42 96 61 64 72
REMARK Flexibility Score: inf
ROOT
ATOM      1  C   UNL A   1      40.706  24.224  26.910  1.00  0.00     0.021 C 
ENDROOT
BRANCH   1   2
ATOM      2  C   UNL A   1      39.236  23.911  26.694  1.00  0.00     0.116 C 
BRANCH   2   3
ATOM      3  N   UNL A   1      38.919  22.520  26.402  1.00  0.00    -0.352 N 
ATOM      4  C   UNL A   1      37.959  21.944  25.585  1.00  0.00     0.251 C 
ATOM      5  O   UNL A   1      37.917  20.718  25.497  1.00  0.00    -0.269 OA
ATOM      6  H   UNL A   1      39.490  21.870  26.871  1.00  0.00     0.163 HD
BRANCH   4   7
ATOM      7  C   UNL A   1      36.936  22.754  24.860  1.00  0.00     0.039 A 
ATOM      8  C   UNL A   1      34.731  23.965  23.577  1.00  0.00     0.088 A 
ATOM      9  C   UNL A   1      35.686  23.265  22.825  1.00  0.00     0.023 A 
ATOM     10  C   UNL A   1      34.910  24.038  24.945  1.00  0.00     0.023 A 
ATOM     11  C   UNL A   1      36.753  22.612  23.476  1.00  0.00     0.015 A 
ATOM     12  C   UNL A   1      36.090  23.615  25.535  1.00  0.00     0.015 A 
BRANCH   8  13
ATOM     13  S   UNL A   1      33.334  24.728  22.742  1.00  0.00     0.270 S 
ATOM     14  O   UNL A   1      32.673  23.636  22.076  1.00  0.00    -0.201 OA
ATOM     15  O   UNL A   1      33.930  25.831  21.995  1.00  0.00    -0.201 OA
BRANCH  13  16
ATOM     16  N   UNL A   1      32.230  25.462  23.823  1.00  0.00    -0.202 N 
BRANCH  16  17
ATOM     17  C   UNL A   1      31.119  24.700  24.310  1.00  0.00     0.241 C 
ATOM     18  O   UNL A   1      30.234  24.297  23.562  1.00  0.00    -0.273 OA
BRANCH  17  19
ATOM     19  C   UNL A   1      31.012  24.421  25.808  1.00  0.00     0.101 C 
BRANCH  19  20
ATOM     20  C   UNL A   1      30.730  22.959  26.154  1.00  0.00     0.006 C 
ATOM     21  C   UNL A   1      31.944  22.062  25.935  1.00  0.00     0.004 C 
ENDBRANCH  19  20
ENDBRANCH  17  19
ENDBRANCH  16  17
BRANCH  16  22
ATOM     22  C   UNL A   1      32.337  26.828  24.228  1.00  0.00     0.070 A 
ATOM     23  C   UNL A   1      33.435  27.199  25.018  1.00  0.00     0.051 A 
ATOM     24  C   UNL A   1      31.289  27.765  23.906  1.00  0.00     0.010 A 
ATOM     25  C   UNL A   1      33.432  28.462  25.581  1.00  0.00     0.080 A 
ATOM     26  C   UNL A   1      31.381  29.090  24.406  1.00  0.00     0.028 A 
ATOM     27  C   UNL A   1      30.135  27.436  23.154  1.00  0.00     0.011 A 
ATOM     28  S   UNL A   1      34.487  29.054  26.848  1.00  0.00    -0.052 S 
ATOM     29  C   UNL A   1      32.426  29.382  25.293  1.00  0.00     0.157 A 
ATOM     30  C   UNL A   1      30.415  30.051  24.038  1.00  0.00     0.013 A 
ATOM     31  C   UNL A   1      29.193  28.401  22.790  1.00  0.00     0.001 A 
ATOM     32  C   UNL A   1      33.414  30.447  27.020  1.00  0.00     0.396 A 
ATOM     33  O   UNL A   1      32.430  30.567  26.039  1.00  0.00    -0.413 OA
ATOM     34  C   UNL A   1      29.347  29.715  23.209  1.00  0.00     0.001 A 
ATOM     35  O   UNL A   1      33.508  31.219  27.961  1.00  0.00    -0.233 OA
ENDBRANCH  16  22
ENDBRANCH  13  16
ENDBRANCH   8  13
ENDBRANCH   4   7
ENDBRANCH   2   3
ENDBRANCH   1   2
BRANCH   1  36
ATOM     36  C   UNL A   1      41.044  25.186  28.042  1.00  0.00     0.002 C 
BRANCH  36  37
ATOM     37  C   UNL A   1      42.467  25.113  28.611  1.00  0.00     0.002 C 
BRANCH  37  38
ATOM     38  C   UNL A   1      43.600  24.894  27.603  1.00  0.00     0.021 C 
BRANCH  38  39
ATOM     39  C   UNL A   1      44.217  26.171  27.036  1.00  0.00     0.116 C 
BRANCH  39  40
ATOM     40  N   UNL A   1      43.571  26.656  25.826  1.00  0.00    -0.352 N 
ATOM     41  C   UNL A   1      42.989  27.878  25.580  1.00  0.00     0.251 C 
ATOM     42  H   UNL A   1      43.547  26.019  25.076  1.00  0.00     0.163 HD
ATOM     43  O   UNL A   1      42.445  28.119  24.509  1.00  0.00    -0.269 OA
BRANCH  41  44
ATOM     44  C   UNL A   1      42.973  28.879  26.659  1.00  0.00     0.039 A 
ATOM     45  C   UNL A   1      44.042  29.764  26.811  1.00  0.00     0.014 A 
ATOM     46  C   UNL A   1      41.925  28.846  27.583  1.00  0.00     0.014 A 
ATOM     47  C   UNL A   1      44.164  30.480  27.991  1.00  0.00     0.010 A 
ATOM     48  C   UNL A   1      42.019  29.611  28.740  1.00  0.00     0.010 A 
ATOM     49  C   UNL A   1      43.170  30.376  28.970  1.00  0.00    -0.014 A 
BRANCH  49  50
ATOM     50  C   UNL A   1      43.393  31.127  30.210  1.00  0.00     0.031 A 
ATOM     51  C   UNL A   1      42.145  31.693  30.793  1.00  0.00     0.074 A 
ATOM     52  C   UNL A   1      44.407  30.805  31.040  1.00  0.00     0.049 A 
ATOM     53  N   UNL A   1      41.353  31.006  31.561  1.00  0.00    -0.248 NA
ATOM     54  C   UNL A   1      41.568  32.948  30.314  1.00  0.00     0.031 C 
ATOM     55  C   UNL A   1      44.892  29.436  31.258  1.00  0.00     0.029 A 
ATOM     56  N   UNL A   1      45.039  31.552  32.009  1.00  0.00    -0.354 N 
ATOM     57  C   UNL A   1      40.146  31.679  31.601  1.00  0.00     0.074 A 
ATOM     58  C   UNL A   1      40.335  32.894  30.840  1.00  0.00     0.031 C 
ATOM     59  C   UNL A   1      45.598  29.408  32.404  1.00  0.00     0.029 A 
ATOM     60  C   UNL A   1      45.744  30.766  32.917  1.00  0.00     0.049 A 
ATOM     61  H   UNL A   1      44.998  32.534  32.054  1.00  0.00     0.167 HD
ATOM     62  C   UNL A   1      39.048  31.177  32.221  1.00  0.00     0.037 A 
ATOM     63  C   UNL A   1      45.935  31.082  34.225  1.00  0.00     0.037 A 
ATOM     64  C   UNL A   1      39.213  29.895  32.832  1.00  0.00     0.049 A 
ATOM     65  C   UNL A   1      44.563  30.800  34.783  1.00  0.00     0.074 A 
ATOM     66  C   UNL A   1      38.967  28.585  32.486  1.00  0.00     0.029 A 
ATOM     67  N   UNL A   1      39.842  29.835  34.053  1.00  0.00    -0.354 N 
ATOM     68  N   UNL A   1      44.091  29.616  35.071  1.00  0.00    -0.248 NA
ATOM     69  C   UNL A   1      43.545  31.847  34.667  1.00  0.00     0.031 C 
ATOM     70  C   UNL A   1      39.845  27.805  33.299  1.00  0.00     0.029 A 
ATOM     71  C   UNL A   1      40.606  28.696  34.055  1.00  0.00     0.049 A 
ATOM     72  H   UNL A   1      39.759  30.486  34.788  1.00  0.00     0.167 HD
ATOM     73  C   UNL A   1      42.711  29.714  34.877  1.00  0.00     0.074 A 
ATOM     74  C   UNL A   1      42.434  31.121  34.691  1.00  0.00     0.031 C 
ATOM     75  C   UNL A   1      41.912  28.630  34.665  1.00  0.00     0.037 A 
BRANCH  62  76
ATOM     76  C   UNL A   1      37.768  31.885  32.385  1.00  0.00     0.064 A 
ATOM     77  C   UNL A   1      37.520  32.513  33.612  1.00  0.00     0.173 A 
ATOM     78  C   UNL A   1      36.717  31.763  31.472  1.00  0.00     0.173 A 
ATOM     79  F   UNL A   1      38.509  32.635  34.513  1.00  0.00    -0.203 F 
ATOM     80  C   UNL A   1      36.249  32.966  33.940  1.00  0.00     0.198 A 
ATOM     81  C   UNL A   1      35.442  32.224  31.802  1.00  0.00     0.198 A 
ATOM     82  F   UNL A   1      36.909  31.157  30.292  1.00  0.00    -0.203 F 
ATOM     83  F   UNL A   1      36.029  33.518  35.141  1.00  0.00    -0.200 F 
ATOM     84  C   UNL A   1      35.207  32.810  33.040  1.00  0.00     0.200 A 
ATOM     85  F   UNL A   1      34.431  32.073  30.935  1.00  0.00    -0.200 F 
ATOM     86  F   UNL A   1      33.972  33.212  33.371  1.00  0.00    -0.200 F 
ENDBRANCH  62  76
BRANCH  63  87
ATOM     87  C   UNL A   1      46.726  32.330  34.456  1.00  0.00     0.064 A 
ATOM     88  C   UNL A   1      47.823  32.573  33.598  1.00  0.00     0.173 A 
ATOM     89  C   UNL A   1      46.490  33.306  35.428  1.00  0.00     0.173 A 
ATOM     90  F   UNL A   1      48.213  31.633  32.728  1.00  0.00    -0.203 F 
ATOM     91  C   UNL A   1      48.532  33.772  33.607  1.00  0.00     0.198 A 
ATOM     92  C   UNL A   1      47.192  34.517  35.434  1.00  0.00     0.198 A 
ATOM     93  F   UNL A   1      45.572  33.122  36.385  1.00  0.00    -0.203 F 
ATOM     94  F   UNL A   1      49.521  33.969  32.724  1.00  0.00    -0.200 F 
ATOM     95  C   UNL A   1      48.193  34.760  34.509  1.00  0.00     0.200 A 
ATOM     96  F   UNL A   1      46.871  35.463  36.328  1.00  0.00    -0.200 F 
ATOM     97  F   UNL A   1      48.831  35.938  34.490  1.00  0.00    -0.200 F 
ENDBRANCH  63  87
BRANCH  75  98
ATOM     98  C   UNL A   1      42.579  27.309  34.824  1.00  0.00     0.064 A 
ATOM     99  C   UNL A   1      43.190  26.691  33.728  1.00  0.00     0.173 A 
ATOM    100  C   UNL A   1      42.641  26.666  36.070  1.00  0.00     0.173 A 
ATOM    101  F   UNL A   1      43.161  27.273  32.519  1.00  0.00    -0.203 F 
ATOM    102  C   UNL A   1      43.862  25.482  33.878  1.00  0.00     0.198 A 
ATOM    103  C   UNL A   1      43.333  25.469  36.221  1.00  0.00     0.198 A 
ATOM    104  F   UNL A   1      42.055  27.205  37.151  1.00  0.00    -0.203 F 
ATOM    105  F   UNL A   1      44.450  24.908  32.819  1.00  0.00    -0.200 F 
ATOM    106  C   UNL A   1      43.944  24.879  35.125  1.00  0.00     0.200 A 
ATOM    107  F   UNL A   1      43.428  24.900  37.430  1.00  0.00    -0.200 F 
ATOM    108  F   UNL A   1      44.625  23.735  35.274  1.00  0.00    -0.200 F 
ENDBRANCH  75  98
ENDBRANCH  49  50
ENDBRANCH  41  44
ENDBRANCH  39  40
ENDBRANCH  38  39
ENDBRANCH  37  38
ENDBRANCH  36  37
ENDBRANCH   1  36
TORSDOF 19
ENDMDL
