MODEL 1
REMARK VINA RESULT:     -11.7      0.000      0.000
REMARK SMILES CC[C@@H](Nc1ccc([N+](=O)[O-])c(N)n1)C(=O)NCCCCCCNC(=O)c1ccc(-c2c3nc(c(-c4c(F)c(F)c(F)c(F)c4F)c4ccc([nH]4)c(-c4c(F)c(F)c(F)c(F)c4F)c4nc(c(-c5c(F)c(F)c(F)c(F)c5F)c5ccc2[nH]5)C=C4)C=C3)cc1
REMARK SMILES IDX 20 1 19 2 18 3 17 4 15 5 16 6 3 8 2 9 1 10 4 11 5 13 6 14
REMARK SMILES IDX 14 15 7 16 12 17 8 18 13 19 9 22 10 23 11 24 21 25 22 26
REMARK SMILES IDX 23 27 24 28 25 29 26 31 27 32 28 33 89 34 29 35 88 36 30 37
REMARK SMILES IDX 31 38 32 39 82 40 33 41 87 42 81 43 83 44 34 45 86 46 80 47
REMARK SMILES IDX 79 48 35 50 67 51 47 52 66 53 48 54 51 55 65 56 84 57 49 58
REMARK SMILES IDX 50 59 64 61 85 62 52 63 36 64 37 65 45 66 38 67 39 68 43 69
REMARK SMILES IDX 46 70 40 71 41 72 44 73 42 74 68 75 69 76 77 77 70 78 71 79
REMARK SMILES IDX 75 80 78 81 72 82 73 83 76 84 74 85 53 86 54 87 62 88 55 89
REMARK SMILES IDX 56 90 60 91 63 92 57 93 58 94 61 95 59 96
REMARK H PARENT 17 7 4 12 13 20 13 21 24 30 83 49 51 60
REMARK Flexibility Score: inf
ROOT
ATOM      1  C   UNL A   1      32.407  29.959  26.696  1.00  0.00     0.002 C 
ENDROOT
BRANCH   1   2
ATOM      2  C   UNL A   1      31.832  28.714  27.379  1.00  0.00     0.021 C 
BRANCH   2   3
ATOM      3  C   UNL A   1      32.165  27.395  26.678  1.00  0.00     0.116 C 
BRANCH   3   4
ATOM      4  N   UNL A   1      31.115  26.412  26.875  1.00  0.00    -0.354 N 
ATOM      5  C   UNL A   1      30.245  25.835  25.990  1.00  0.00     0.242 C 
ATOM      6  O   UNL A   1      29.365  25.104  26.456  1.00  0.00    -0.273 OA
ATOM      7  H   UNL A   1      31.010  26.108  27.805  1.00  0.00     0.163 HD
BRANCH   5   8
ATOM      8  C   UNL A   1      30.358  26.072  24.462  1.00  0.00     0.169 C 
BRANCH   8   9
ATOM      9  C   UNL A   1      30.938  24.828  23.767  1.00  0.00     0.031 C 
ATOM     10  C   UNL A   1      32.256  24.311  24.320  1.00  0.00     0.006 C 
ENDBRANCH   8   9
BRANCH   8  11
ATOM     11  N   UNL A   1      29.057  26.487  23.947  1.00  0.00    -0.358 N 
ATOM     12  H   UNL A   1      28.339  25.817  24.010  1.00  0.00     0.162 HD
BRANCH  11  13
ATOM     13  C   UNL A   1      28.707  27.680  23.389  1.00  0.00     0.129 A 
ATOM     14  C   UNL A   1      27.452  28.258  23.500  1.00  0.00     0.054 A 
ATOM     15  N   UNL A   1      29.710  28.301  22.731  1.00  0.00    -0.208 NA
ATOM     16  C   UNL A   1      27.234  29.528  22.976  1.00  0.00     0.093 A 
ATOM     17  C   UNL A   1      29.510  29.529  22.198  1.00  0.00     0.204 A 
ATOM     18  C   UNL A   1      28.287  30.175  22.329  1.00  0.00     0.311 A 
BRANCH  17  19
ATOM     19  N   UNL A   1      30.636  30.085  21.627  1.00  0.00    -0.378 N 
ATOM     20  H   UNL A   1      31.085  29.629  20.878  1.00  0.00     0.158 HD
ATOM     21  H   UNL A   1      30.991  30.937  21.967  1.00  0.00     0.158 HD
ENDBRANCH  17  19
BRANCH  18  22
ATOM     22  N   UNL A   1      28.076  31.513  21.807  1.00  0.00     0.066 N 
ATOM     23  O   UNL A   1      28.203  31.695  20.586  1.00  0.00    -0.258 OA
ATOM     24  O   UNL A   1      27.744  32.394  22.616  1.00  0.00    -0.258 OA
ENDBRANCH  18  22
ENDBRANCH  11  13
ENDBRANCH   8  11
ENDBRANCH   5   8
ENDBRANCH   3   4
ENDBRANCH   2   3
ENDBRANCH   1   2
BRANCH   1  25
ATOM     25  C   UNL A   1      31.380  30.862  26.005  1.00  0.00     0.002 C 
BRANCH  25  26
ATOM     26  C   UNL A   1      31.357  32.315  26.486  1.00  0.00     0.021 C 
BRANCH  26  27
ATOM     27  C   UNL A   1      32.655  32.801  27.125  1.00  0.00     0.116 C 
BRANCH  27  28
ATOM     28  N   UNL A   1      32.534  34.143  27.665  1.00  0.00    -0.352 N 
ATOM     29  C   UNL A   1      33.195  34.722  28.717  1.00  0.00     0.251 C 
ATOM     30  H   UNL A   1      31.882  34.723  27.209  1.00  0.00     0.163 HD
ATOM     31  O   UNL A   1      32.834  35.820  29.138  1.00  0.00    -0.269 OA
BRANCH  29  32
ATOM     32  C   UNL A   1      34.334  34.031  29.361  1.00  0.00     0.039 A 
ATOM     33  C   UNL A   1      35.632  34.456  29.060  1.00  0.00     0.014 A 
ATOM     34  C   UNL A   1      34.137  32.941  30.213  1.00  0.00     0.014 A 
ATOM     35  C   UNL A   1      36.727  33.806  29.632  1.00  0.00     0.010 A 
ATOM     36  C   UNL A   1      35.226  32.337  30.836  1.00  0.00     0.010 A 
ATOM     37  C   UNL A   1      36.533  32.748  30.533  1.00  0.00    -0.014 A 
BRANCH  37  38
ATOM     38  C   UNL A   1      37.689  32.027  31.123  1.00  0.00     0.031 A 
ATOM     39  C   UNL A   1      38.132  32.339  32.526  1.00  0.00     0.074 A 
ATOM     40  C   UNL A   1      38.363  31.122  30.387  1.00  0.00     0.049 A 
ATOM     41  N   UNL A   1      39.134  31.845  33.209  1.00  0.00    -0.248 NA
ATOM     42  C   UNL A   1      37.363  33.365  33.248  1.00  0.00     0.031 C 
ATOM     43  C   UNL A   1      38.060  30.764  29.001  1.00  0.00     0.029 A 
ATOM     44  N   UNL A   1      39.446  30.341  30.703  1.00  0.00    -0.354 N 
ATOM     45  C   UNL A   1      39.127  32.514  34.427  1.00  0.00     0.074 A 
ATOM     46  C   UNL A   1      38.055  33.483  34.371  1.00  0.00     0.031 C 
ATOM     47  C   UNL A   1      38.919  29.815  28.596  1.00  0.00     0.029 A 
ATOM     48  C   UNL A   1      39.848  29.517  29.682  1.00  0.00     0.049 A 
ATOM     49  H   UNL A   1      39.893  30.369  31.581  1.00  0.00     0.167 HD
ATOM     50  C   UNL A   1      39.928  32.322  35.503  1.00  0.00     0.037 A 
ATOM     51  C   UNL A   1      40.848  28.618  29.633  1.00  0.00     0.037 A 
ATOM     52  C   UNL A   1      40.965  31.327  35.571  1.00  0.00     0.049 A 
ATOM     53  C   UNL A   1      41.705  28.403  30.852  1.00  0.00     0.074 A 
ATOM     54  C   UNL A   1      41.786  31.006  36.638  1.00  0.00     0.029 A 
ATOM     55  N   UNL A   1      41.321  30.488  34.526  1.00  0.00    -0.354 N 
ATOM     56  N   UNL A   1      41.644  28.991  32.021  1.00  0.00    -0.248 NA
ATOM     57  C   UNL A   1      42.762  27.388  30.747  1.00  0.00     0.031 C 
ATOM     58  C   UNL A   1      42.664  29.998  36.227  1.00  0.00     0.029 A 
ATOM     59  C   UNL A   1      42.359  29.659  34.918  1.00  0.00     0.049 A 
ATOM     60  H   UNL A   1      40.898  30.482  33.636  1.00  0.00     0.167 HD
ATOM     61  C   UNL A   1      42.625  28.393  32.801  1.00  0.00     0.074 A 
ATOM     62  C   UNL A   1      43.262  27.391  31.974  1.00  0.00     0.031 C 
ATOM     63  C   UNL A   1      42.966  28.651  34.087  1.00  0.00     0.037 A 
BRANCH  50  64
ATOM     64  C   UNL A   1      39.708  33.206  36.697  1.00  0.00     0.064 A 
ATOM     65  C   UNL A   1      38.750  32.900  37.675  1.00  0.00     0.173 A 
ATOM     66  C   UNL A   1      40.484  34.361  36.877  1.00  0.00     0.173 A 
ATOM     67  F   UNL A   1      37.973  31.814  37.542  1.00  0.00    -0.203 F 
ATOM     68  C   UNL A   1      38.555  33.734  38.773  1.00  0.00     0.198 A 
ATOM     69  C   UNL A   1      40.306  35.177  37.992  1.00  0.00     0.198 A 
ATOM     70  F   UNL A   1      41.418  34.698  35.975  1.00  0.00    -0.203 F 
ATOM     71  F   UNL A   1      37.597  33.450  39.665  1.00  0.00    -0.200 F 
ATOM     72  C   UNL A   1      39.337  34.868  38.934  1.00  0.00     0.200 A 
ATOM     73  F   UNL A   1      41.072  36.266  38.152  1.00  0.00    -0.200 F 
ATOM     74  F   UNL A   1      39.150  35.668  39.993  1.00  0.00    -0.200 F 
ENDBRANCH  50  64
BRANCH  51  75
ATOM     75  C   UNL A   1      41.065  27.815  28.403  1.00  0.00     0.064 A 
ATOM     76  C   UNL A   1      40.407  26.589  28.222  1.00  0.00     0.173 A 
ATOM     77  C   UNL A   1      41.932  28.246  27.389  1.00  0.00     0.173 A 
ATOM     78  F   UNL A   1      39.584  26.126  29.174  1.00  0.00    -0.203 F 
ATOM     79  C   UNL A   1      40.625  25.816  27.085  1.00  0.00     0.198 A 
ATOM     80  C   UNL A   1      42.129  27.482  26.240  1.00  0.00     0.198 A 
ATOM     81  F   UNL A   1      42.581  29.413  27.511  1.00  0.00    -0.203 F 
ATOM     82  F   UNL A   1      40.018  24.628  26.960  1.00  0.00    -0.200 F 
ATOM     83  C   UNL A   1      41.482  26.264  26.093  1.00  0.00     0.200 A 
ATOM     84  F   UNL A   1      42.949  27.926  25.276  1.00  0.00    -0.200 F 
ATOM     85  F   UNL A   1      41.691  25.521  24.997  1.00  0.00    -0.200 F 
ENDBRANCH  51  75
BRANCH  63  86
ATOM     86  C   UNL A   1      44.043  27.801  34.696  1.00  0.00     0.064 A 
ATOM     87  C   UNL A   1      45.389  28.192  34.685  1.00  0.00     0.173 A 
ATOM     88  C   UNL A   1      43.714  26.591  35.326  1.00  0.00     0.173 A 
ATOM     89  F   UNL A   1      45.755  29.333  34.082  1.00  0.00    -0.203 F 
ATOM     90  C   UNL A   1      46.371  27.390  35.259  1.00  0.00     0.198 A 
ATOM     91  C   UNL A   1      44.695  25.805  35.925  1.00  0.00     0.198 A 
ATOM     92  F   UNL A   1      42.439  26.174  35.370  1.00  0.00    -0.203 F 
ATOM     93  F   UNL A   1      47.657  27.760  35.194  1.00  0.00    -0.200 F 
ATOM     94  C   UNL A   1      46.022  26.201  35.884  1.00  0.00     0.200 A 
ATOM     95  F   UNL A   1      44.355  24.663  36.538  1.00  0.00    -0.200 F 
ATOM     96  F   UNL A   1      46.969  25.432  36.439  1.00  0.00    -0.200 F 
ENDBRANCH  63  86
ENDBRANCH  37  38
ENDBRANCH  29  32
ENDBRANCH  27  28
ENDBRANCH  26  27
ENDBRANCH  25  26
ENDBRANCH   1  25
TORSDOF 18
ENDMDL
MODEL 2
REMARK VINA RESULT:     -11.6      0.843      7.357
REMARK SMILES CC[C@@H](Nc1ccc([N+](=O)[O-])c(N)n1)C(=O)NCCCCCCNC(=O)c1ccc(-c2c3nc(c(-c4c(F)c(F)c(F)c(F)c4F)c4ccc([nH]4)c(-c4c(F)c(F)c(F)c(F)c4F)c4nc(c(-c5c(F)c(F)c(F)c(F)c5F)c5ccc2[nH]5)C=C4)C=C3)cc1
REMARK SMILES IDX 20 1 19 2 18 3 17 4 15 5 16 6 3 8 2 9 1 10 4 11 5 13 6 14
REMARK SMILES IDX 14 15 7 16 12 17 8 18 13 19 9 22 10 23 11 24 21 25 22 26
REMARK SMILES IDX 23 27 24 28 25 29 26 31 27 32 28 33 89 34 29 35 88 36 30 37
REMARK SMILES IDX 31 38 32 39 82 40 33 41 87 42 81 43 83 44 34 45 86 46 80 47
REMARK SMILES IDX 79 48 35 50 67 51 47 52 66 53 48 54 51 55 65 56 84 57 49 58
REMARK SMILES IDX 50 59 64 61 85 62 52 63 36 64 37 65 45 66 38 67 39 68 43 69
REMARK SMILES IDX 46 70 40 71 41 72 44 73 42 74 68 75 69 76 77 77 70 78 71 79
REMARK SMILES IDX 75 80 78 81 72 82 73 83 76 84 74 85 53 86 54 87 62 88 55 89
REMARK SMILES IDX 56 90 60 91 63 92 57 93 58 94 61 95 59 96
REMARK H PARENT 17 7 4 12 13 20 13 21 24 30 83 49 51 60
REMARK Flexibility Score: inf
ROOT
ATOM      1  C   UNL A   1      32.557  30.157  26.259  1.00  0.00     0.002 C 
ENDROOT
BRANCH   1   2
ATOM      2  C   UNL A   1      32.284  29.027  27.258  1.00  0.00     0.021 C 
BRANCH   2   3
ATOM      3  C   UNL A   1      32.478  27.619  26.691  1.00  0.00     0.116 C 
BRANCH   3   4
ATOM      4  N   UNL A   1      31.297  26.800  26.896  1.00  0.00    -0.354 N 
ATOM      5  C   UNL A   1      30.541  26.075  26.016  1.00  0.00     0.242 C 
ATOM      6  O   UNL A   1      29.508  25.556  26.450  1.00  0.00    -0.273 OA
ATOM      7  H   UNL A   1      30.986  26.759  27.829  1.00  0.00     0.163 HD
BRANCH   5   8
ATOM      8  C   UNL A   1      30.962  25.895  24.534  1.00  0.00     0.169 C 
BRANCH   8   9
ATOM      9  C   UNL A   1      31.646  24.531  24.332  1.00  0.00     0.031 C 
ATOM     10  C   UNL A   1      32.969  24.337  25.056  1.00  0.00     0.006 C 
ENDBRANCH   8   9
BRANCH   8  11
ATOM     11  N   UNL A   1      29.799  26.107  23.679  1.00  0.00    -0.358 N 
ATOM     12  H   UNL A   1      29.349  25.292  23.360  1.00  0.00     0.162 HD
BRANCH  11  13
ATOM     13  C   UNL A   1      29.255  27.285  23.262  1.00  0.00     0.129 A 
ATOM     14  C   UNL A   1      27.947  27.674  23.507  1.00  0.00     0.054 A 
ATOM     15  N   UNL A   1      30.117  28.093  22.607  1.00  0.00    -0.208 NA
ATOM     16  C   UNL A   1      27.527  28.943  23.123  1.00  0.00     0.093 A 
ATOM     17  C   UNL A   1      29.719  29.324  22.210  1.00  0.00     0.204 A 
ATOM     18  C   UNL A   1      28.435  29.782  22.479  1.00  0.00     0.311 A 
BRANCH  17  19
ATOM     19  N   UNL A   1      30.718  30.077  21.627  1.00  0.00    -0.378 N 
ATOM     20  H   UNL A   1      30.844  31.017  21.892  1.00  0.00     0.158 HD
ATOM     21  H   UNL A   1      31.304  29.675  20.946  1.00  0.00     0.158 HD
ENDBRANCH  17  19
BRANCH  18  22
ATOM     22  N   UNL A   1      28.013  31.120  22.103  1.00  0.00     0.066 N 
ATOM     23  O   UNL A   1      27.657  31.899  23.001  1.00  0.00    -0.258 OA
ATOM     24  O   UNL A   1      28.068  31.417  20.899  1.00  0.00    -0.258 OA
ENDBRANCH  18  22
ENDBRANCH  11  13
ENDBRANCH   8  11
ENDBRANCH   5   8
ENDBRANCH   3   4
ENDBRANCH   2   3
ENDBRANCH   1   2
BRANCH   1  25
ATOM     25  C   UNL A   1      31.323  30.941  25.802  1.00  0.00     0.002 C 
BRANCH  25  26
ATOM     26  C   UNL A   1      31.154  32.324  26.437  1.00  0.00     0.021 C 
BRANCH  26  27
ATOM     27  C   UNL A   1      32.349  32.806  27.254  1.00  0.00     0.116 C 
BRANCH  27  28
ATOM     28  N   UNL A   1      32.242  34.210  27.611  1.00  0.00    -0.352 N 
ATOM     29  C   UNL A   1      32.904  34.914  28.582  1.00  0.00     0.251 C 
ATOM     30  H   UNL A   1      31.601  34.732  27.077  1.00  0.00     0.163 HD
ATOM     31  O   UNL A   1      32.555  36.063  28.851  1.00  0.00    -0.269 OA
BRANCH  29  32
ATOM     32  C   UNL A   1      34.030  34.301  29.321  1.00  0.00     0.039 A 
ATOM     33  C   UNL A   1      35.329  34.492  28.840  1.00  0.00     0.014 A 
ATOM     34  C   UNL A   1      33.813  33.502  30.447  1.00  0.00     0.014 A 
ATOM     35  C   UNL A   1      36.409  33.903  29.501  1.00  0.00     0.010 A 
ATOM     36  C   UNL A   1      34.895  32.972  31.145  1.00  0.00     0.010 A 
ATOM     37  C   UNL A   1      36.202  33.147  30.665  1.00  0.00    -0.014 A 
BRANCH  37  38
ATOM     38  C   UNL A   1      37.337  32.489  31.359  1.00  0.00     0.031 A 
ATOM     39  C   UNL A   1      38.079  31.367  30.686  1.00  0.00     0.074 A 
ATOM     40  C   UNL A   1      37.676  32.871  32.605  1.00  0.00     0.049 A 
ATOM     41  N   UNL A   1      39.075  30.644  31.134  1.00  0.00    -0.248 NA
ATOM     42  C   UNL A   1      37.623  30.987  29.340  1.00  0.00     0.031 C 
ATOM     43  C   UNL A   1      37.006  33.915  33.381  1.00  0.00     0.029 A 
ATOM     44  N   UNL A   1      38.669  32.422  33.439  1.00  0.00    -0.354 N 
ATOM     45  C   UNL A   1      39.346  29.715  30.138  1.00  0.00     0.074 A 
ATOM     46  C   UNL A   1      38.380  29.931  29.083  1.00  0.00     0.031 C 
ATOM     47  C   UNL A   1      37.623  34.045  34.566  1.00  0.00     0.029 A 
ATOM     48  C   UNL A   1      38.714  33.077  34.644  1.00  0.00     0.049 A 
ATOM     49  H   UNL A   1      39.291  31.698  33.195  1.00  0.00     0.167 HD
ATOM     50  C   UNL A   1      40.326  28.780  30.096  1.00  0.00     0.037 A 
ATOM     51  C   UNL A   1      39.547  32.918  35.689  1.00  0.00     0.037 A 
ATOM     52  C   UNL A   1      41.312  28.596  31.126  1.00  0.00     0.049 A 
ATOM     53  C   UNL A   1      40.646  31.893  35.605  1.00  0.00     0.074 A 
ATOM     54  C   UNL A   1      42.387  27.725  31.149  1.00  0.00     0.029 A 
ATOM     55  N   UNL A   1      41.345  29.302  32.319  1.00  0.00    -0.354 N 
ATOM     56  N   UNL A   1      40.937  31.069  34.628  1.00  0.00    -0.248 NA
ATOM     57  C   UNL A   1      41.541  31.787  36.765  1.00  0.00     0.031 C 
ATOM     58  C   UNL A   1      43.049  27.877  32.372  1.00  0.00     0.029 A 
ATOM     59  C   UNL A   1      42.414  28.877  33.091  1.00  0.00     0.049 A 
ATOM     60  H   UNL A   1      40.703  30.003  32.579  1.00  0.00     0.167 HD
ATOM     61  C   UNL A   1      42.067  30.375  35.039  1.00  0.00     0.074 A 
ATOM     62  C   UNL A   1      42.414  30.880  36.350  1.00  0.00     0.031 C 
ATOM     63  C   UNL A   1      42.756  29.406  34.387  1.00  0.00     0.037 A 
BRANCH  50  64
ATOM     64  C   UNL A   1      40.381  27.887  28.889  1.00  0.00     0.064 A 
ATOM     65  C   UNL A   1      41.159  28.210  27.767  1.00  0.00     0.173 A 
ATOM     66  C   UNL A   1      39.665  26.681  28.866  1.00  0.00     0.173 A 
ATOM     67  F   UNL A   1      41.851  29.359  27.734  1.00  0.00    -0.203 F 
ATOM     68  C   UNL A   1      41.193  27.374  26.654  1.00  0.00     0.198 A 
ATOM     69  C   UNL A   1      39.726  25.833  27.763  1.00  0.00     0.198 A 
ATOM     70  F   UNL A   1      38.910  26.321  29.915  1.00  0.00    -0.203 F 
ATOM     71  F   UNL A   1      41.900  27.730  25.573  1.00  0.00    -0.200 F 
ATOM     72  C   UNL A   1      40.482  26.183  26.656  1.00  0.00     0.200 A 
ATOM     73  F   UNL A   1      39.047  24.676  27.771  1.00  0.00    -0.200 F 
ATOM     74  F   UNL A   1      40.518  25.378  25.585  1.00  0.00    -0.200 F 
ENDBRANCH  50  64
BRANCH  51  75
ATOM     75  C   UNL A   1      39.409  33.784  36.888  1.00  0.00     0.064 A 
ATOM     76  C   UNL A   1      38.683  33.348  38.007  1.00  0.00     0.173 A 
ATOM     77  C   UNL A   1      39.987  35.059  36.942  1.00  0.00     0.173 A 
ATOM     78  F   UNL A   1      38.095  32.143  37.993  1.00  0.00    -0.203 F 
ATOM     79  C   UNL A   1      38.524  34.163  39.124  1.00  0.00     0.198 A 
ATOM     80  C   UNL A   1      39.848  35.864  38.072  1.00  0.00     0.198 A 
ATOM     81  F   UNL A   1      40.695  35.521  35.901  1.00  0.00    -0.203 F 
ATOM     82  F   UNL A   1      37.788  33.739  40.160  1.00  0.00    -0.200 F 
ATOM     83  C   UNL A   1      39.110  35.419  39.158  1.00  0.00     0.200 A 
ATOM     84  F   UNL A   1      40.428  37.073  38.106  1.00  0.00    -0.200 F 
ATOM     85  F   UNL A   1      38.958  36.203  40.234  1.00  0.00    -0.200 F 
ENDBRANCH  51  75
BRANCH  63  86
ATOM     86  C   UNL A   1      43.985  28.868  35.058  1.00  0.00     0.064 A 
ATOM     87  C   UNL A   1      45.245  29.457  34.879  1.00  0.00     0.173 A 
ATOM     88  C   UNL A   1      43.892  27.764  35.920  1.00  0.00     0.173 A 
ATOM     89  F   UNL A   1      45.387  30.505  34.053  1.00  0.00    -0.203 F 
ATOM     90  C   UNL A   1      46.372  28.944  35.515  1.00  0.00     0.198 A 
ATOM     91  C   UNL A   1      45.016  27.271  36.577  1.00  0.00     0.198 A 
ATOM     92  F   UNL A   1      42.709  27.168  36.132  1.00  0.00    -0.203 F 
ATOM     93  F   UNL A   1      47.573  29.492  35.290  1.00  0.00    -0.200 F 
ATOM     94  C   UNL A   1      46.255  27.856  36.368  1.00  0.00     0.200 A 
ATOM     95  F   UNL A   1      44.899  26.228  37.410  1.00  0.00    -0.200 F 
ATOM     96  F   UNL A   1      47.340  27.366  36.982  1.00  0.00    -0.200 F 
ENDBRANCH  63  86
ENDBRANCH  37  38
ENDBRANCH  29  32
ENDBRANCH  27  28
ENDBRANCH  26  27
ENDBRANCH  25  26
ENDBRANCH   1  25
TORSDOF 18
ENDMDL
MODEL 3
REMARK VINA RESULT:     -11.6      6.112     11.567
REMARK SMILES CC[C@@H](Nc1ccc([N+](=O)[O-])c(N)n1)C(=O)NCCCCCCNC(=O)c1ccc(-c2c3nc(c(-c4c(F)c(F)c(F)c(F)c4F)c4ccc([nH]4)c(-c4c(F)c(F)c(F)c(F)c4F)c4nc(c(-c5c(F)c(F)c(F)c(F)c5F)c5ccc2[nH]5)C=C4)C=C3)cc1
REMARK SMILES IDX 20 1 19 2 18 3 17 4 15 5 16 6 3 8 2 9 1 10 4 11 5 13 6 14
REMARK SMILES IDX 14 15 7 16 12 17 8 18 13 19 9 22 10 23 11 24 21 25 22 26
REMARK SMILES IDX 23 27 24 28 25 29 26 31 27 32 28 33 89 34 29 35 88 36 30 37
REMARK SMILES IDX 31 38 32 39 82 40 33 41 87 42 81 43 83 44 34 45 86 46 80 47
REMARK SMILES IDX 79 48 35 50 67 51 47 52 66 53 48 54 51 55 65 56 84 57 49 58
REMARK SMILES IDX 50 59 64 61 85 62 52 63 36 64 37 65 45 66 38 67 39 68 43 69
REMARK SMILES IDX 46 70 40 71 41 72 44 73 42 74 68 75 69 76 77 77 70 78 71 79
REMARK SMILES IDX 75 80 78 81 72 82 73 83 76 84 74 85 53 86 54 87 62 88 55 89
REMARK SMILES IDX 56 90 60 91 63 92 57 93 58 94 61 95 59 96
REMARK H PARENT 17 7 4 12 13 20 13 21 24 30 83 49 51 60
REMARK Flexibility Score: inf
ROOT
ATOM      1  C   UNL A   1      37.706  22.214  25.334  1.00  0.00     0.002 C 
ENDROOT
BRANCH   1   2
ATOM      2  C   UNL A   1      36.949  23.452  24.841  1.00  0.00     0.021 C 
BRANCH   2   3
ATOM      3  C   UNL A   1      35.426  23.302  24.831  1.00  0.00     0.116 C 
BRANCH   3   4
ATOM      4  N   UNL A   1      34.885  23.494  23.497  1.00  0.00    -0.354 N 
ATOM      5  C   UNL A   1      33.703  23.090  22.940  1.00  0.00     0.242 C 
ATOM      6  O   UNL A   1      33.547  23.295  21.732  1.00  0.00    -0.273 OA
ATOM      7  H   UNL A   1      35.469  24.002  22.890  1.00  0.00     0.163 HD
BRANCH   5   8
ATOM      8  C   UNL A   1      32.592  22.412  23.783  1.00  0.00     0.169 C 
BRANCH   8   9
ATOM      9  C   UNL A   1      31.478  23.421  24.113  1.00  0.00     0.031 C 
ATOM     10  C   UNL A   1      30.821  23.264  25.475  1.00  0.00     0.006 C 
ENDBRANCH   8   9
BRANCH   8  11
ATOM     11  N   UNL A   1      32.124  21.219  23.085  1.00  0.00    -0.358 N 
ATOM     12  H   UNL A   1      31.596  21.381  22.270  1.00  0.00     0.162 HD
BRANCH  11  13
ATOM     13  C   UNL A   1      32.320  19.912  23.414  1.00  0.00     0.129 A 
ATOM     14  C   UNL A   1      32.480  18.888  22.493  1.00  0.00     0.054 A 
ATOM     15  N   UNL A   1      32.391  19.678  24.742  1.00  0.00    -0.208 NA
ATOM     16  C   UNL A   1      32.777  17.605  22.940  1.00  0.00     0.093 A 
ATOM     17  C   UNL A   1      32.660  18.431  25.196  1.00  0.00     0.204 A 
ATOM     18  C   UNL A   1      32.882  17.382  24.313  1.00  0.00     0.311 A 
BRANCH  17  19
ATOM     19  N   UNL A   1      32.785  18.346  26.567  1.00  0.00    -0.378 N 
ATOM     20  H   UNL A   1      32.229  18.914  27.149  1.00  0.00     0.158 HD
ATOM     21  H   UNL A   1      33.431  17.718  26.965  1.00  0.00     0.158 HD
ENDBRANCH  17  19
BRANCH  18  22
ATOM     22  N   UNL A   1      33.222  16.052  24.786  1.00  0.00     0.066 N 
ATOM     23  O   UNL A   1      34.355  15.611  24.537  1.00  0.00    -0.258 OA
ATOM     24  O   UNL A   1      32.363  15.446  25.446  1.00  0.00    -0.258 OA
ENDBRANCH  18  22
ENDBRANCH  11  13
ENDBRANCH   8  11
ENDBRANCH   5   8
ENDBRANCH   3   4
ENDBRANCH   2   3
ENDBRANCH   1   2
BRANCH   1  25
ATOM     25  C   UNL A   1      37.377  20.909  24.602  1.00  0.00     0.002 C 
BRANCH  25  26
ATOM     26  C   UNL A   1      38.279  19.721  24.947  1.00  0.00     0.021 C 
BRANCH  26  27
ATOM     27  C   UNL A   1      39.261  19.968  26.087  1.00  0.00     0.116 C 
BRANCH  27  28
ATOM     28  N   UNL A   1      40.431  19.112  26.003  1.00  0.00    -0.352 N 
ATOM     29  C   UNL A   1      41.759  19.446  26.023  1.00  0.00     0.251 C 
ATOM     30  H   UNL A   1      40.241  18.149  25.920  1.00  0.00     0.163 HD
ATOM     31  O   UNL A   1      42.610  18.596  25.767  1.00  0.00    -0.269 OA
BRANCH  29  32
ATOM     32  C   UNL A   1      42.182  20.828  26.340  1.00  0.00     0.039 A 
ATOM     33  C   UNL A   1      42.422  21.166  27.676  1.00  0.00     0.014 A 
ATOM     34  C   UNL A   1      42.292  21.803  25.344  1.00  0.00     0.014 A 
ATOM     35  C   UNL A   1      42.796  22.470  28.008  1.00  0.00     0.010 A 
ATOM     36  C   UNL A   1      42.731  23.084  25.667  1.00  0.00     0.010 A 
ATOM     37  C   UNL A   1      42.964  23.437  27.005  1.00  0.00    -0.014 A 
BRANCH  37  38
ATOM     38  C   UNL A   1      43.329  24.834  27.347  1.00  0.00     0.031 A 
ATOM     39  C   UNL A   1      44.734  25.321  27.117  1.00  0.00     0.074 A 
ATOM     40  C   UNL A   1      42.413  25.653  27.899  1.00  0.00     0.049 A 
ATOM     41  N   UNL A   1      45.260  26.491  27.377  1.00  0.00    -0.248 NA
ATOM     42  C   UNL A   1      45.683  24.353  26.544  1.00  0.00     0.031 C 
ATOM     43  C   UNL A   1      41.032  25.287  28.213  1.00  0.00     0.029 A 
ATOM     44  N   UNL A   1      42.508  26.962  28.296  1.00  0.00    -0.354 N 
ATOM     45  C   UNL A   1      46.599  26.391  27.021  1.00  0.00     0.074 A 
ATOM     46  C   UNL A   1      46.818  25.034  26.574  1.00  0.00     0.031 C 
ATOM     47  C   UNL A   1      40.402  26.354  28.729  1.00  0.00     0.029 A 
ATOM     48  C   UNL A   1      41.340  27.470  28.806  1.00  0.00     0.049 A 
ATOM     49  H   UNL A   1      43.338  27.489  28.222  1.00  0.00     0.167 HD
ATOM     50  C   UNL A   1      47.555  27.351  27.044  1.00  0.00     0.037 A 
ATOM     51  C   UNL A   1      41.057  28.700  29.276  1.00  0.00     0.037 A 
ATOM     52  C   UNL A   1      47.324  28.712  27.448  1.00  0.00     0.049 A 
ATOM     53  C   UNL A   1      42.129  29.756  29.263  1.00  0.00     0.074 A 
ATOM     54  C   UNL A   1      48.208  29.778  27.442  1.00  0.00     0.029 A 
ATOM     55  N   UNL A   1      46.117  29.197  27.928  1.00  0.00    -0.354 N 
ATOM     56  N   UNL A   1      43.372  29.670  28.857  1.00  0.00    -0.248 NA
ATOM     57  C   UNL A   1      41.753  31.086  29.760  1.00  0.00     0.031 C 
ATOM     58  C   UNL A   1      47.546  30.898  27.953  1.00  0.00     0.029 A 
ATOM     59  C   UNL A   1      46.236  30.543  28.234  1.00  0.00     0.049 A 
ATOM     60  H   UNL A   1      45.296  28.663  28.035  1.00  0.00     0.167 HD
ATOM     61  C   UNL A   1      43.914  30.939  29.015  1.00  0.00     0.074 A 
ATOM     62  C   UNL A   1      42.862  31.779  29.545  1.00  0.00     0.031 C 
ATOM     63  C   UNL A   1      45.171  31.368  28.743  1.00  0.00     0.037 A 
BRANCH  50  64
ATOM     64  C   UNL A   1      48.940  26.961  26.613  1.00  0.00     0.064 A 
ATOM     65  C   UNL A   1      49.349  27.049  25.274  1.00  0.00     0.173 A 
ATOM     66  C   UNL A   1      49.878  26.516  27.557  1.00  0.00     0.173 A 
ATOM     67  F   UNL A   1      48.486  27.455  24.331  1.00  0.00    -0.203 F 
ATOM     68  C   UNL A   1      50.635  26.676  24.891  1.00  0.00     0.198 A 
ATOM     69  C   UNL A   1      51.172  26.173  27.175  1.00  0.00     0.198 A 
ATOM     70  F   UNL A   1      49.541  26.418  28.852  1.00  0.00    -0.203 F 
ATOM     71  F   UNL A   1      50.985  26.718  23.598  1.00  0.00    -0.200 F 
ATOM     72  C   UNL A   1      51.547  26.245  25.842  1.00  0.00     0.200 A 
ATOM     73  F   UNL A   1      52.057  25.767  28.098  1.00  0.00    -0.200 F 
ATOM     74  F   UNL A   1      52.785  25.889  25.472  1.00  0.00    -0.200 F 
ENDBRANCH  50  64
BRANCH  51  75
ATOM     75  C   UNL A   1      39.687  29.016  29.752  1.00  0.00     0.064 A 
ATOM     76  C   UNL A   1      39.332  28.818  31.095  1.00  0.00     0.173 A 
ATOM     77  C   UNL A   1      38.706  29.514  28.884  1.00  0.00     0.173 A 
ATOM     78  F   UNL A   1      40.232  28.324  31.958  1.00  0.00    -0.203 F 
ATOM     79  C   UNL A   1      38.042  29.085  31.545  1.00  0.00     0.198 A 
ATOM     80  C   UNL A   1      37.422  29.805  29.342  1.00  0.00     0.198 A 
ATOM     81  F   UNL A   1      38.996  29.726  27.592  1.00  0.00    -0.203 F 
ATOM     82  F   UNL A   1      37.717  28.844  32.823  1.00  0.00    -0.200 F 
ATOM     83  C   UNL A   1      37.089  29.582  30.670  1.00  0.00     0.200 A 
ATOM     84  F   UNL A   1      36.506  30.298  28.496  1.00  0.00    -0.200 F 
ATOM     85  F   UNL A   1      35.848  29.841  31.104  1.00  0.00    -0.200 F 
ENDBRANCH  51  75
BRANCH  63  86
ATOM     86  C   UNL A   1      45.461  32.824  28.964  1.00  0.00     0.064 A 
ATOM     87  C   UNL A   1      45.990  33.297  30.174  1.00  0.00     0.173 A 
ATOM     88  C   UNL A   1      45.236  33.753  27.936  1.00  0.00     0.173 A 
ATOM     89  F   UNL A   1      46.208  32.450  31.190  1.00  0.00    -0.203 F 
ATOM     90  C   UNL A   1      46.256  34.651  30.357  1.00  0.00     0.198 A 
ATOM     91  C   UNL A   1      45.530  35.102  28.113  1.00  0.00     0.198 A 
ATOM     92  F   UNL A   1      44.738  33.351  26.757  1.00  0.00    -0.203 F 
ATOM     93  F   UNL A   1      46.714  35.087  31.538  1.00  0.00    -0.200 F 
ATOM     94  C   UNL A   1      46.032  35.551  29.324  1.00  0.00     0.200 A 
ATOM     95  F   UNL A   1      45.325  35.968  27.111  1.00  0.00    -0.200 F 
ATOM     96  F   UNL A   1      46.293  36.853  29.502  1.00  0.00    -0.200 F 
ENDBRANCH  63  86
ENDBRANCH  37  38
ENDBRANCH  29  32
ENDBRANCH  27  28
ENDBRANCH  26  27
ENDBRANCH  25  26
ENDBRANCH   1  25
TORSDOF 18
ENDMDL
