MODEL 1
REMARK VINA RESULT:     -13.4      0.000      0.000
REMARK SMILES Cc1ccc(S(=O)(=O)n2cc(C(=O)C(=O)NCC(=O)NCCCCCCNC(=O)c3ccc(-c4c5nc(c(-c6c(F)c(F)c(F)c(F)c6F)c6ccc([nH]6)c(-c6c(F)c(F)c(F)c(F)c6F)c6nc(c(-c7c(F)c(F)c(F)c(F)c7F)c7ccc4[nH]7)C=C6)C=C5)cc3)c3ccccc32)cc1
REMARK SMILES IDX 22 1 21 2 20 3 18 4 19 5 17 7 16 8 14 9 15 10 12 12 13 13
REMARK SMILES IDX 11 14 9 15 10 16 98 17 93 18 97 19 94 20 96 21 95 22 6 23
REMARK SMILES IDX 7 24 8 25 5 26 1 27 2 28 3 29 100 30 4 31 99 32 23 33 24 34
REMARK SMILES IDX 25 35 26 36 27 37 28 38 29 40 30 41 31 42 92 43 32 44 91 45
REMARK SMILES IDX 33 46 34 47 35 48 85 49 36 50 90 51 84 52 86 53 37 54 89 55
REMARK SMILES IDX 83 56 82 57 38 59 70 60 50 61 69 62 51 63 54 64 68 65 87 66
REMARK SMILES IDX 52 67 53 68 67 70 88 71 55 72 39 73 40 74 48 75 41 76 42 77
REMARK SMILES IDX 46 78 49 79 43 80 44 81 47 82 45 83 71 84 72 85 80 86 73 87
REMARK SMILES IDX 74 88 78 89 81 90 75 91 76 92 79 93 77 94 56 95 57 96 65 97
REMARK SMILES IDX 58 98 59 99 63 100 66 101 60 102 61 103 64 104 62 105
REMARK H PARENT 20 6 16 11 27 39 86 58 54 69
REMARK Flexibility Score: inf
ROOT
ATOM      1  C   UNL A   1      34.606  33.953  28.045  1.00  0.00     0.021 C 
ENDROOT
BRANCH   1   2
ATOM      2  C   UNL A   1      34.358  32.702  28.888  1.00  0.00     0.116 C 
BRANCH   2   3
ATOM      3  N   UNL A   1      35.264  31.639  28.521  1.00  0.00    -0.355 N 
ATOM      4  C   UNL A   1      35.061  30.565  27.705  1.00  0.00     0.239 C 
ATOM      5  O   UNL A   1      36.014  29.816  27.490  1.00  0.00    -0.273 OA
ATOM      6  H   UNL A   1      36.162  31.697  28.919  1.00  0.00     0.163 HD
BRANCH   4   7
ATOM      7  C   UNL A   1      33.730  30.389  26.964  1.00  0.00     0.216 C 
BRANCH   7   8
ATOM      8  N   UNL A   1      32.727  29.620  27.696  1.00  0.00    -0.340 N 
ATOM      9  C   UNL A   1      31.895  28.594  27.299  1.00  0.00     0.292 C 
ATOM     10  O   UNL A   1      31.149  28.094  28.135  1.00  0.00    -0.265 OA
ATOM     11  H   UNL A   1      32.626  29.881  28.641  1.00  0.00     0.164 HD
BRANCH   9  12
ATOM     12  C   UNL A   1      31.860  28.104  25.825  1.00  0.00     0.252 C 
ATOM     13  O   UNL A   1      31.707  28.938  24.937  1.00  0.00    -0.283 OA
BRANCH  12  14
ATOM     14  C   UNL A   1      31.981  26.678  25.472  1.00  0.00     0.054 A 
ATOM     15  N   UNL A   1      32.097  24.447  25.588  1.00  0.00    -0.240 N 
ATOM     16  C   UNL A   1      31.845  25.585  26.312  1.00  0.00     0.117 A 
ATOM     17  C   UNL A   1      32.372  24.743  24.271  1.00  0.00     0.065 A 
ATOM     18  C   UNL A   1      32.309  26.140  24.171  1.00  0.00     0.012 A 
ATOM     19  C   UNL A   1      32.707  23.932  23.170  1.00  0.00     0.028 A 
ATOM     20  C   UNL A   1      32.574  26.730  22.914  1.00  0.00     0.011 A 
ATOM     21  C   UNL A   1      32.989  24.550  21.951  1.00  0.00     0.002 A 
ATOM     22  C   UNL A   1      32.917  25.930  21.820  1.00  0.00     0.001 A 
BRANCH  15  23
ATOM     23  S   UNL A   1      32.170  22.889  26.274  1.00  0.00     0.268 S 
ATOM     24  O   UNL A   1      31.096  22.149  25.646  1.00  0.00    -0.201 OA
ATOM     25  O   UNL A   1      32.219  23.096  27.713  1.00  0.00    -0.201 OA
BRANCH  23  26
ATOM     26  C   UNL A   1      33.707  22.146  25.792  1.00  0.00     0.088 A 
ATOM     27  C   UNL A   1      37.559  20.414  24.964  1.00  0.00     0.044 C 
ATOM     28  C   UNL A   1      36.214  21.023  25.233  1.00  0.00    -0.051 A 
ATOM     29  C   UNL A   1      36.123  22.251  25.898  1.00  0.00     0.005 A 
ATOM     30  C   UNL A   1      35.039  20.379  24.825  1.00  0.00     0.005 A 
ATOM     31  C   UNL A   1      34.876  22.810  26.182  1.00  0.00     0.022 A 
ATOM     32  C   UNL A   1      33.787  20.941  25.091  1.00  0.00     0.022 A 
ENDBRANCH  23  26
ENDBRANCH  15  23
ENDBRANCH  12  14
ENDBRANCH   9  12
ENDBRANCH   7   8
ENDBRANCH   4   7
ENDBRANCH   2   3
ENDBRANCH   1   2
BRANCH   1  33
ATOM     33  C   UNL A   1      34.277  35.266  28.770  1.00  0.00     0.002 C 
BRANCH  33  34
ATOM     34  C   UNL A   1      33.100  35.202  29.755  1.00  0.00     0.002 C 
BRANCH  34  35
ATOM     35  C   UNL A   1      32.916  36.444  30.623  1.00  0.00     0.021 C 
BRANCH  35  36
ATOM     36  C   UNL A   1      33.289  36.230  32.080  1.00  0.00     0.116 C 
BRANCH  36  37
ATOM     37  N   UNL A   1      33.066  34.850  32.498  1.00  0.00    -0.352 N 
ATOM     38  C   UNL A   1      33.958  33.827  32.758  1.00  0.00     0.251 C 
ATOM     39  H   UNL A   1      32.120  34.606  32.616  1.00  0.00     0.163 HD
ATOM     40  O   UNL A   1      33.548  32.686  32.942  1.00  0.00    -0.269 OA
BRANCH  38  41
ATOM     41  C   UNL A   1      35.372  34.154  33.046  1.00  0.00     0.039 A 
ATOM     42  C   UNL A   1      36.121  34.558  31.929  1.00  0.00     0.014 A 
ATOM     43  C   UNL A   1      35.994  33.624  34.166  1.00  0.00     0.014 A 
ATOM     44  C   UNL A   1      37.415  34.091  31.793  1.00  0.00     0.010 A 
ATOM     45  C   UNL A   1      37.213  33.030  33.974  1.00  0.00     0.010 A 
ATOM     46  C   UNL A   1      37.872  33.200  32.751  1.00  0.00    -0.014 A 
BRANCH  46  47
ATOM     47  C   UNL A   1      39.064  32.399  32.608  1.00  0.00     0.031 A 
ATOM     48  C   UNL A   1      38.925  31.143  31.865  1.00  0.00     0.074 A 
ATOM     49  C   UNL A   1      40.243  32.950  32.969  1.00  0.00     0.049 A 
ATOM     50  N   UNL A   1      39.813  30.221  31.818  1.00  0.00    -0.248 NA
ATOM     51  C   UNL A   1      37.708  30.806  31.131  1.00  0.00     0.031 C 
ATOM     52  C   UNL A   1      41.592  32.531  32.606  1.00  0.00     0.029 A 
ATOM     53  N   UNL A   1      40.444  33.947  33.940  1.00  0.00    -0.354 N 
ATOM     54  C   UNL A   1      39.438  29.335  30.832  1.00  0.00     0.074 A 
ATOM     55  C   UNL A   1      38.080  29.684  30.512  1.00  0.00     0.031 C 
ATOM     56  C   UNL A   1      42.454  33.001  33.525  1.00  0.00     0.029 A 
ATOM     57  C   UNL A   1      41.653  33.590  34.586  1.00  0.00     0.049 A 
ATOM     58  H   UNL A   1      39.870  34.723  34.130  1.00  0.00     0.167 HD
ATOM     59  C   UNL A   1      40.406  28.522  30.322  1.00  0.00     0.037 A 
ATOM     60  C   UNL A   1      41.631  33.142  35.877  1.00  0.00     0.037 A 
ATOM     61  C   UNL A   1      41.615  28.640  31.144  1.00  0.00     0.049 A 
ATOM     62  C   UNL A   1      42.111  31.713  35.997  1.00  0.00     0.074 A 
ATOM     63  C   UNL A   1      42.771  29.393  31.010  1.00  0.00     0.029 A 
ATOM     64  N   UNL A   1      41.550  28.252  32.479  1.00  0.00    -0.354 N 
ATOM     65  N   UNL A   1      42.024  30.825  35.041  1.00  0.00    -0.248 NA
ATOM     66  C   UNL A   1      42.779  31.195  37.185  1.00  0.00     0.031 C 
ATOM     67  C   UNL A   1      43.357  29.521  32.299  1.00  0.00     0.029 A 
ATOM     68  C   UNL A   1      42.578  28.822  33.206  1.00  0.00     0.049 A 
ATOM     69  H   UNL A   1      40.866  27.653  32.855  1.00  0.00     0.167 HD
ATOM     70  C   UNL A   1      42.628  29.660  35.443  1.00  0.00     0.074 A 
ATOM     71  C   UNL A   1      43.089  29.948  36.790  1.00  0.00     0.031 C 
ATOM     72  C   UNL A   1      42.717  28.558  34.634  1.00  0.00     0.037 A 
BRANCH  59  73
ATOM     73  C   UNL A   1      40.374  27.847  28.964  1.00  0.00     0.064 A 
ATOM     74  C   UNL A   1      39.697  26.615  28.808  1.00  0.00     0.173 A 
ATOM     75  C   UNL A   1      41.038  28.291  27.802  1.00  0.00     0.173 A 
ATOM     76  F   UNL A   1      38.967  26.088  29.800  1.00  0.00    -0.203 F 
ATOM     77  C   UNL A   1      39.744  25.869  27.625  1.00  0.00     0.198 A 
ATOM     78  C   UNL A   1      41.106  27.532  26.627  1.00  0.00     0.198 A 
ATOM     79  F   UNL A   1      41.612  29.491  27.723  1.00  0.00    -0.203 F 
ATOM     80  F   UNL A   1      39.091  24.701  27.552  1.00  0.00    -0.200 F 
ATOM     81  C   UNL A   1      40.466  26.317  26.541  1.00  0.00     0.200 A 
ATOM     82  F   UNL A   1      41.798  27.999  25.578  1.00  0.00    -0.200 F 
ATOM     83  F   UNL A   1      40.526  25.597  25.413  1.00  0.00    -0.200 F 
ENDBRANCH  59  73
BRANCH  60  84
ATOM     84  C   UNL A   1      40.536  33.779  36.672  1.00  0.00     0.064 A 
ATOM     85  C   UNL A   1      39.428  32.973  37.012  1.00  0.00     0.173 A 
ATOM     86  C   UNL A   1      40.756  34.925  37.446  1.00  0.00     0.173 A 
ATOM     87  F   UNL A   1      39.155  31.873  36.289  1.00  0.00    -0.203 F 
ATOM     88  C   UNL A   1      38.697  33.194  38.178  1.00  0.00     0.198 A 
ATOM     89  C   UNL A   1      39.990  35.166  38.593  1.00  0.00     0.198 A 
ATOM     90  F   UNL A   1      41.783  35.742  37.177  1.00  0.00    -0.203 F 
ATOM     91  F   UNL A   1      37.764  32.308  38.560  1.00  0.00    -0.200 F 
ATOM     92  C   UNL A   1      39.001  34.273  38.985  1.00  0.00     0.200 A 
ATOM     93  F   UNL A   1      40.287  36.208  39.384  1.00  0.00    -0.200 F 
ATOM     94  F   UNL A   1      38.377  34.430  40.161  1.00  0.00    -0.200 F 
ENDBRANCH  60  84
BRANCH  72  95
ATOM     95  C   UNL A   1      43.038  27.140  35.076  1.00  0.00     0.064 A 
ATOM     96  C   UNL A   1      42.096  26.102  35.159  1.00  0.00     0.173 A 
ATOM     97  C   UNL A   1      44.384  26.736  35.292  1.00  0.00     0.173 A 
ATOM     98  F   UNL A   1      40.811  26.287  34.834  1.00  0.00    -0.203 F 
ATOM     99  C   UNL A   1      42.451  24.797  35.516  1.00  0.00     0.198 A 
ATOM    100  C   UNL A   1      44.744  25.417  35.562  1.00  0.00     0.198 A 
ATOM    101  F   UNL A   1      45.407  27.599  35.215  1.00  0.00    -0.203 F 
ATOM    102  F   UNL A   1      41.497  23.865  35.646  1.00  0.00    -0.200 F 
ATOM    103  C   UNL A   1      43.775  24.451  35.702  1.00  0.00     0.200 A 
ATOM    104  F   UNL A   1      46.041  25.090  35.663  1.00  0.00    -0.200 F 
ATOM    105  F   UNL A   1      44.115  23.189  35.990  1.00  0.00    -0.200 F 
ENDBRANCH  72  95
ENDBRANCH  46  47
ENDBRANCH  38  41
ENDBRANCH  36  37
ENDBRANCH  35  36
ENDBRANCH  34  35
ENDBRANCH  33  34
ENDBRANCH   1  33
TORSDOF 18
ENDMDL
MODEL 2
REMARK VINA RESULT:     -13.2      1.585      2.448
REMARK SMILES Cc1ccc(S(=O)(=O)n2cc(C(=O)C(=O)NCC(=O)NCCCCCCNC(=O)c3ccc(-c4c5nc(c(-c6c(F)c(F)c(F)c(F)c6F)c6ccc([nH]6)c(-c6c(F)c(F)c(F)c(F)c6F)c6nc(c(-c7c(F)c(F)c(F)c(F)c7F)c7ccc4[nH]7)C=C6)C=C5)cc3)c3ccccc32)cc1
REMARK SMILES IDX 22 1 21 2 20 3 18 4 19 5 17 7 16 8 14 9 15 10 12 12 13 13
REMARK SMILES IDX 11 14 9 15 10 16 98 17 93 18 97 19 94 20 96 21 95 22 6 23
REMARK SMILES IDX 7 24 8 25 5 26 1 27 2 28 3 29 100 30 4 31 99 32 23 33 24 34
REMARK SMILES IDX 25 35 26 36 27 37 28 38 29 40 30 41 31 42 92 43 32 44 91 45
REMARK SMILES IDX 33 46 34 47 35 48 85 49 36 50 90 51 84 52 86 53 37 54 89 55
REMARK SMILES IDX 83 56 82 57 38 59 70 60 50 61 69 62 51 63 54 64 68 65 87 66
REMARK SMILES IDX 52 67 53 68 67 70 88 71 55 72 39 73 40 74 48 75 41 76 42 77
REMARK SMILES IDX 46 78 49 79 43 80 44 81 47 82 45 83 71 84 72 85 80 86 73 87
REMARK SMILES IDX 74 88 78 89 81 90 75 91 76 92 79 93 77 94 56 95 57 96 65 97
REMARK SMILES IDX 58 98 59 99 63 100 66 101 60 102 61 103 64 104 62 105
REMARK H PARENT 20 6 16 11 27 39 86 58 54 69
REMARK Flexibility Score: inf
ROOT
ATOM      1  C   UNL A   1      34.103  32.272  28.598  1.00  0.00     0.021 C 
ENDROOT
BRANCH   1   2
ATOM      2  C   UNL A   1      34.096  31.188  27.521  1.00  0.00     0.116 C 
BRANCH   2   3
ATOM      3  N   UNL A   1      32.926  30.348  27.634  1.00  0.00    -0.355 N 
ATOM      4  C   UNL A   1      32.643  29.165  27.018  1.00  0.00     0.239 C 
ATOM      5  O   UNL A   1      31.596  28.592  27.323  1.00  0.00    -0.273 OA
ATOM      6  H   UNL A   1      32.230  30.678  28.245  1.00  0.00     0.163 HD
BRANCH   4   7
ATOM      7  C   UNL A   1      33.670  28.500  26.093  1.00  0.00     0.216 C 
BRANCH   7   8
ATOM      8  N   UNL A   1      33.640  28.980  24.714  1.00  0.00    -0.340 N 
ATOM      9  C   UNL A   1      32.767  28.723  23.676  1.00  0.00     0.292 C 
ATOM     10  O   UNL A   1      32.959  29.287  22.603  1.00  0.00    -0.265 OA
ATOM     11  H   UNL A   1      34.374  29.596  24.483  1.00  0.00     0.164 HD
BRANCH   9  12
ATOM     12  C   UNL A   1      31.596  27.715  23.835  1.00  0.00     0.252 C 
ATOM     13  O   UNL A   1      30.452  28.157  23.897  1.00  0.00    -0.283 OA
BRANCH  12  14
ATOM     14  C   UNL A   1      31.823  26.262  23.934  1.00  0.00     0.054 A 
ATOM     15  N   UNL A   1      32.487  24.167  23.519  1.00  0.00    -0.240 N 
ATOM     16  C   UNL A   1      32.603  25.471  23.108  1.00  0.00     0.117 A 
ATOM     17  C   UNL A   1      31.670  24.062  24.623  1.00  0.00     0.065 A 
ATOM     18  C   UNL A   1      31.236  25.365  24.903  1.00  0.00     0.012 A 
ATOM     19  C   UNL A   1      31.238  22.955  25.378  1.00  0.00     0.028 A 
ATOM     20  C   UNL A   1      30.354  25.555  25.992  1.00  0.00     0.011 A 
ATOM     21  C   UNL A   1      30.345  23.174  26.429  1.00  0.00     0.002 A 
ATOM     22  C   UNL A   1      29.913  24.457  26.739  1.00  0.00     0.001 A 
BRANCH  15  23
ATOM     23  S   UNL A   1      33.179  22.850  22.689  1.00  0.00     0.268 S 
ATOM     24  O   UNL A   1      33.569  23.377  21.399  1.00  0.00    -0.201 OA
ATOM     25  O   UNL A   1      32.223  21.761  22.815  1.00  0.00    -0.201 OA
BRANCH  23  26
ATOM     26  C   UNL A   1      34.650  22.365  23.554  1.00  0.00     0.088 A 
ATOM     27  C   UNL A   1      38.306  21.547  25.674  1.00  0.00     0.044 C 
ATOM     28  C   UNL A   1      37.032  21.814  24.926  1.00  0.00    -0.051 A 
ATOM     29  C   UNL A   1      37.025  22.719  23.858  1.00  0.00     0.005 A 
ATOM     30  C   UNL A   1      35.841  21.166  25.279  1.00  0.00     0.005 A 
ATOM     31  C   UNL A   1      35.839  22.999  23.177  1.00  0.00     0.022 A 
ATOM     32  C   UNL A   1      34.654  21.429  24.590  1.00  0.00     0.022 A 
ENDBRANCH  23  26
ENDBRANCH  15  23
ENDBRANCH  12  14
ENDBRANCH   9  12
ENDBRANCH   7   8
ENDBRANCH   4   7
ENDBRANCH   2   3
ENDBRANCH   1   2
BRANCH   1  33
ATOM     33  C   UNL A   1      34.329  33.689  28.052  1.00  0.00     0.002 C 
BRANCH  33  34
ATOM     34  C   UNL A   1      33.224  34.707  28.372  1.00  0.00     0.002 C 
BRANCH  34  35
ATOM     35  C   UNL A   1      33.578  35.727  29.451  1.00  0.00     0.021 C 
BRANCH  35  36
ATOM     36  C   UNL A   1      33.194  35.289  30.853  1.00  0.00     0.116 C 
BRANCH  36  37
ATOM     37  N   UNL A   1      34.204  35.672  31.835  1.00  0.00    -0.352 N 
ATOM     38  C   UNL A   1      35.245  34.954  32.391  1.00  0.00     0.251 C 
ATOM     39  H   UNL A   1      34.131  36.600  32.156  1.00  0.00     0.163 HD
ATOM     40  O   UNL A   1      35.883  35.422  33.328  1.00  0.00    -0.269 OA
BRANCH  38  41
ATOM     41  C   UNL A   1      35.734  33.738  31.704  1.00  0.00     0.039 A 
ATOM     42  C   UNL A   1      35.728  32.576  32.492  1.00  0.00     0.014 A 
ATOM     43  C   UNL A   1      36.574  33.849  30.607  1.00  0.00     0.014 A 
ATOM     44  C   UNL A   1      36.802  31.709  32.406  1.00  0.00     0.010 A 
ATOM     45  C   UNL A   1      37.713  33.088  30.619  1.00  0.00     0.010 A 
ATOM     46  C   UNL A   1      37.851  32.079  31.579  1.00  0.00    -0.014 A 
BRANCH  46  47
ATOM     47  C   UNL A   1      39.153  31.456  31.596  1.00  0.00     0.031 A 
ATOM     48  C   UNL A   1      39.292  30.207  30.843  1.00  0.00     0.074 A 
ATOM     49  C   UNL A   1      40.184  32.161  32.108  1.00  0.00     0.049 A 
ATOM     50  N   UNL A   1      40.300  29.420  30.915  1.00  0.00    -0.248 NA
ATOM     51  C   UNL A   1      38.242  29.714  29.955  1.00  0.00     0.031 C 
ATOM     52  C   UNL A   1      41.615  31.944  31.928  1.00  0.00     0.029 A 
ATOM     53  N   UNL A   1      40.113  33.159  33.097  1.00  0.00    -0.354 N 
ATOM     54  C   UNL A   1      40.188  28.508  29.888  1.00  0.00     0.074 A 
ATOM     55  C   UNL A   1      38.847  28.667  29.392  1.00  0.00     0.031 C 
ATOM     56  C   UNL A   1      42.273  32.514  32.952  1.00  0.00     0.029 A 
ATOM     57  C   UNL A   1      41.265  32.966  33.896  1.00  0.00     0.049 A 
ATOM     58  H   UNL A   1      39.414  33.844  33.208  1.00  0.00     0.167 HD
ATOM     59  C   UNL A   1      41.320  27.848  29.512  1.00  0.00     0.037 A 
ATOM     60  C   UNL A   1      41.138  32.496  35.174  1.00  0.00     0.037 A 
ATOM     61  C   UNL A   1      42.381  28.121  30.486  1.00  0.00     0.049 A 
ATOM     62  C   UNL A   1      41.797  31.147  35.359  1.00  0.00     0.074 A 
ATOM     63  C   UNL A   1      43.426  29.031  30.504  1.00  0.00     0.029 A 
ATOM     64  N   UNL A   1      42.198  27.704  31.801  1.00  0.00    -0.354 N 
ATOM     65  N   UNL A   1      41.962  30.273  34.400  1.00  0.00    -0.248 NA
ATOM     66  C   UNL A   1      42.369  30.708  36.625  1.00  0.00     0.031 C 
ATOM     67  C   UNL A   1      43.814  29.218  31.860  1.00  0.00     0.029 A 
ATOM     68  C   UNL A   1      43.031  28.400  32.657  1.00  0.00     0.049 A 
ATOM     69  H   UNL A   1      41.563  27.008  32.084  1.00  0.00     0.167 HD
ATOM     70  C   UNL A   1      42.668  29.197  34.880  1.00  0.00     0.074 A 
ATOM     71  C   UNL A   1      42.902  29.524  36.275  1.00  0.00     0.031 C 
ATOM     72  C   UNL A   1      43.017  28.134  34.091  1.00  0.00     0.037 A 
BRANCH  59  73
ATOM     73  C   UNL A   1      41.562  27.199  28.162  1.00  0.00     0.064 A 
ATOM     74  C   UNL A   1      41.047  25.908  27.901  1.00  0.00     0.173 A 
ATOM     75  C   UNL A   1      42.343  27.730  27.116  1.00  0.00     0.173 A 
ATOM     76  F   UNL A   1      40.235  25.291  28.770  1.00  0.00    -0.203 F 
ATOM     77  C   UNL A   1      41.349  25.193  26.737  1.00  0.00     0.198 A 
ATOM     78  C   UNL A   1      42.664  27.005  25.962  1.00  0.00     0.198 A 
ATOM     79  F   UNL A   1      42.795  28.984  27.129  1.00  0.00    -0.203 F 
ATOM     80  F   UNL A   1      40.838  23.966  26.561  1.00  0.00    -0.200 F 
ATOM     81  C   UNL A   1      42.174  25.733  25.776  1.00  0.00     0.200 A 
ATOM     82  F   UNL A   1      43.454  27.560  25.031  1.00  0.00    -0.200 F 
ATOM     83  F   UNL A   1      42.477  25.044  24.668  1.00  0.00    -0.200 F 
ENDBRANCH  59  73
BRANCH  60  84
ATOM     84  C   UNL A   1      39.869  32.959  35.817  1.00  0.00     0.064 A 
ATOM     85  C   UNL A   1      38.895  31.979  36.107  1.00  0.00     0.173 A 
ATOM     86  C   UNL A   1      39.797  34.163  36.526  1.00  0.00     0.173 A 
ATOM     87  F   UNL A   1      38.901  30.812  35.441  1.00  0.00    -0.203 F 
ATOM     88  C   UNL A   1      38.018  32.120  37.181  1.00  0.00     0.198 A 
ATOM     89  C   UNL A   1      38.885  34.316  37.577  1.00  0.00     0.198 A 
ATOM     90  F   UNL A   1      40.682  35.143  36.298  1.00  0.00    -0.203 F 
ATOM     91  F   UNL A   1      37.225  31.097  37.535  1.00  0.00    -0.200 F 
ATOM     92  C   UNL A   1      38.037  33.276  37.936  1.00  0.00     0.200 A 
ATOM     93  F   UNL A   1      38.904  35.435  38.317  1.00  0.00    -0.200 F 
ATOM     94  F   UNL A   1      37.275  33.375  39.034  1.00  0.00    -0.200 F 
ENDBRANCH  60  84
BRANCH  72  95
ATOM     95  C   UNL A   1      43.476  26.767  34.573  1.00  0.00     0.064 A 
ATOM     96  C   UNL A   1      44.815  26.423  34.823  1.00  0.00     0.173 A 
ATOM     97  C   UNL A   1      42.530  25.778  34.953  1.00  0.00     0.173 A 
ATOM     98  F   UNL A   1      45.811  27.301  34.662  1.00  0.00    -0.203 F 
ATOM     99  C   UNL A   1      45.183  25.169  35.321  1.00  0.00     0.198 A 
ATOM    100  C   UNL A   1      42.896  24.563  35.531  1.00  0.00     0.198 A 
ATOM    101  F   UNL A   1      41.210  25.964  34.812  1.00  0.00    -0.203 F 
ATOM    102  F   UNL A   1      46.482  24.874  35.474  1.00  0.00    -0.200 F 
ATOM    103  C   UNL A   1      44.224  24.246  35.690  1.00  0.00     0.200 A 
ATOM    104  F   UNL A   1      41.946  23.715  35.951  1.00  0.00    -0.200 F 
ATOM    105  F   UNL A   1      44.580  23.068  36.218  1.00  0.00    -0.200 F 
ENDBRANCH  72  95
ENDBRANCH  46  47
ENDBRANCH  38  41
ENDBRANCH  36  37
ENDBRANCH  35  36
ENDBRANCH  34  35
ENDBRANCH  33  34
ENDBRANCH   1  33
TORSDOF 18
ENDMDL
MODEL 3
REMARK VINA RESULT:     -13.2      4.164     10.122
REMARK SMILES Cc1ccc(S(=O)(=O)n2cc(C(=O)C(=O)NCC(=O)NCCCCCCNC(=O)c3ccc(-c4c5nc(c(-c6c(F)c(F)c(F)c(F)c6F)c6ccc([nH]6)c(-c6c(F)c(F)c(F)c(F)c6F)c6nc(c(-c7c(F)c(F)c(F)c(F)c7F)c7ccc4[nH]7)C=C6)C=C5)cc3)c3ccccc32)cc1
REMARK SMILES IDX 22 1 21 2 20 3 18 4 19 5 17 7 16 8 14 9 15 10 12 12 13 13
REMARK SMILES IDX 11 14 9 15 10 16 98 17 93 18 97 19 94 20 96 21 95 22 6 23
REMARK SMILES IDX 7 24 8 25 5 26 1 27 2 28 3 29 100 30 4 31 99 32 23 33 24 34
REMARK SMILES IDX 25 35 26 36 27 37 28 38 29 40 30 41 31 42 92 43 32 44 91 45
REMARK SMILES IDX 33 46 34 47 35 48 85 49 36 50 90 51 84 52 86 53 37 54 89 55
REMARK SMILES IDX 83 56 82 57 38 59 70 60 50 61 69 62 51 63 54 64 68 65 87 66
REMARK SMILES IDX 52 67 53 68 67 70 88 71 55 72 39 73 40 74 48 75 41 76 42 77
REMARK SMILES IDX 46 78 49 79 43 80 44 81 47 82 45 83 71 84 72 85 80 86 73 87
REMARK SMILES IDX 74 88 78 89 81 90 75 91 76 92 79 93 77 94 56 95 57 96 65 97
REMARK SMILES IDX 58 98 59 99 63 100 66 101 60 102 61 103 64 104 62 105
REMARK H PARENT 20 6 16 11 27 39 86 58 54 69
REMARK Flexibility Score: inf
ROOT
ATOM      1  C   UNL A   1      37.006  21.095  24.513  1.00  0.00     0.021 C 
ENDROOT
BRANCH   1   2
ATOM      2  C   UNL A   1      35.769  20.696  25.317  1.00  0.00     0.116 C 
BRANCH   2   3
ATOM      3  N   UNL A   1      35.312  19.376  24.950  1.00  0.00    -0.355 N 
ATOM      4  C   UNL A   1      34.052  18.941  24.664  1.00  0.00     0.239 C 
ATOM      5  O   UNL A   1      33.913  17.769  24.310  1.00  0.00    -0.273 OA
ATOM      6  H   UNL A   1      36.014  18.688  24.898  1.00  0.00     0.163 HD
BRANCH   4   7
ATOM      7  C   UNL A   1      32.874  19.922  24.637  1.00  0.00     0.216 C 
BRANCH   7   8
ATOM      8  N   UNL A   1      32.247  20.079  23.327  1.00  0.00    -0.340 N 
ATOM      9  C   UNL A   1      32.190  21.156  22.466  1.00  0.00     0.292 C 
ATOM     10  O   UNL A   1      31.609  21.012  21.395  1.00  0.00    -0.265 OA
ATOM     11  H   UNL A   1      31.782  19.274  23.001  1.00  0.00     0.164 HD
BRANCH   9  12
ATOM     12  C   UNL A   1      32.800  22.533  22.849  1.00  0.00     0.252 C 
ATOM     13  O   UNL A   1      34.015  22.678  22.754  1.00  0.00    -0.283 OA
BRANCH  12  14
ATOM     14  C   UNL A   1      31.969  23.646  23.340  1.00  0.00     0.054 A 
ATOM     15  N   UNL A   1      30.971  25.636  23.561  1.00  0.00    -0.240 N 
ATOM     16  C   UNL A   1      31.762  24.876  22.737  1.00  0.00     0.117 A 
ATOM     17  C   UNL A   1      30.612  24.938  24.693  1.00  0.00     0.065 A 
ATOM     18  C   UNL A   1      31.229  23.684  24.581  1.00  0.00     0.012 A 
ATOM     19  C   UNL A   1      29.844  25.293  25.818  1.00  0.00     0.028 A 
ATOM     20  C   UNL A   1      31.046  22.755  25.632  1.00  0.00     0.011 A 
ATOM     21  C   UNL A   1      29.707  24.361  26.850  1.00  0.00     0.002 A 
ATOM     22  C   UNL A   1      30.293  23.106  26.757  1.00  0.00     0.001 A 
BRANCH  15  23
ATOM     23  S   UNL A   1      30.587  27.269  23.259  1.00  0.00     0.268 S 
ATOM     24  O   UNL A   1      29.172  27.383  23.538  1.00  0.00    -0.201 OA
ATOM     25  O   UNL A   1      31.136  27.564  21.945  1.00  0.00    -0.201 OA
BRANCH  23  26
ATOM     26  C   UNL A   1      31.463  28.267  24.435  1.00  0.00     0.088 A 
ATOM     27  C   UNL A   1      33.898  30.606  27.105  1.00  0.00     0.044 C 
ATOM     28  C   UNL A   1      33.036  29.788  26.189  1.00  0.00    -0.051 A 
ATOM     29  C   UNL A   1      33.443  28.503  25.808  1.00  0.00     0.005 A 
ATOM     30  C   UNL A   1      31.820  30.289  25.707  1.00  0.00     0.005 A 
ATOM     31  C   UNL A   1      32.665  27.747  24.931  1.00  0.00     0.022 A 
ATOM     32  C   UNL A   1      31.027  29.530  24.842  1.00  0.00     0.022 A 
ENDBRANCH  23  26
ENDBRANCH  15  23
ENDBRANCH  12  14
ENDBRANCH   9  12
ENDBRANCH   7   8
ENDBRANCH   4   7
ENDBRANCH   2   3
ENDBRANCH   1   2
BRANCH   1  33
ATOM     33  C   UNL A   1      37.070  22.591  24.173  1.00  0.00     0.002 C 
BRANCH  33  34
ATOM     34  C   UNL A   1      37.072  23.544  25.378  1.00  0.00     0.002 C 
BRANCH  34  35
ATOM     35  C   UNL A   1      38.101  23.220  26.457  1.00  0.00     0.021 C 
BRANCH  35  36
ATOM     36  C   UNL A   1      39.486  22.923  25.909  1.00  0.00     0.116 C 
BRANCH  36  37
ATOM     37  N   UNL A   1      40.515  23.057  26.937  1.00  0.00    -0.352 N 
ATOM     38  C   UNL A   1      40.983  24.167  27.611  1.00  0.00     0.251 C 
ATOM     39  H   UNL A   1      40.949  22.211  27.192  1.00  0.00     0.163 HD
ATOM     40  O   UNL A   1      41.975  24.080  28.326  1.00  0.00    -0.269 OA
BRANCH  38  41
ATOM     41  C   UNL A   1      40.153  25.392  27.655  1.00  0.00     0.039 A 
ATOM     42  C   UNL A   1      40.565  26.413  26.785  1.00  0.00     0.014 A 
ATOM     43  C   UNL A   1      39.396  25.679  28.780  1.00  0.00     0.014 A 
ATOM     44  C   UNL A   1      40.542  27.720  27.235  1.00  0.00     0.010 A 
ATOM     45  C   UNL A   1      39.510  26.942  29.298  1.00  0.00     0.010 A 
ATOM     46  C   UNL A   1      40.162  27.930  28.551  1.00  0.00    -0.014 A 
BRANCH  46  47
ATOM     47  C   UNL A   1      40.362  29.170  29.264  1.00  0.00     0.031 A 
ATOM     48  C   UNL A   1      39.291  30.165  29.161  1.00  0.00     0.074 A 
ATOM     49  C   UNL A   1      41.394  29.241  30.131  1.00  0.00     0.049 A 
ATOM     50  N   UNL A   1      39.386  31.381  29.549  1.00  0.00    -0.248 NA
ATOM     51  C   UNL A   1      38.001  29.857  28.548  1.00  0.00     0.031 C 
ATOM     52  C   UNL A   1      41.609  30.194  31.214  1.00  0.00     0.029 A 
ATOM     53  N   UNL A   1      42.601  28.522  30.064  1.00  0.00    -0.354 N 
ATOM     54  C   UNL A   1      38.118  31.922  29.531  1.00  0.00     0.074 A 
ATOM     55  C   UNL A   1      37.317  30.974  28.805  1.00  0.00     0.031 C 
ATOM     56  C   UNL A   1      42.923  30.238  31.499  1.00  0.00     0.029 A 
ATOM     57  C   UNL A   1      43.595  29.435  30.490  1.00  0.00     0.049 A 
ATOM     58  H   UNL A   1      42.727  27.587  29.782  1.00  0.00     0.167 HD
ATOM     59  C   UNL A   1      37.906  33.043  30.279  1.00  0.00     0.037 A 
ATOM     60  C   UNL A   1      44.503  29.924  29.592  1.00  0.00     0.037 A 
ATOM     61  C   UNL A   1      39.195  33.548  30.763  1.00  0.00     0.049 A 
ATOM     62  C   UNL A   1      44.381  31.421  29.410  1.00  0.00     0.074 A 
ATOM     63  C   UNL A   1      39.874  33.391  31.960  1.00  0.00     0.029 A 
ATOM     64  N   UNL A   1      40.137  33.968  29.828  1.00  0.00    -0.354 N 
ATOM     65  N   UNL A   1      43.275  32.096  29.591  1.00  0.00    -0.248 NA
ATOM     66  C   UNL A   1      45.511  32.276  29.067  1.00  0.00     0.031 C 
ATOM     67  C   UNL A   1      41.252  33.643  31.714  1.00  0.00     0.029 A 
ATOM     68  C   UNL A   1      41.404  33.983  30.380  1.00  0.00     0.049 A 
ATOM     69  H   UNL A   1      39.930  34.221  28.900  1.00  0.00     0.167 HD
ATOM     70  C   UNL A   1      43.526  33.436  29.429  1.00  0.00     0.074 A 
ATOM     71  C   UNL A   1      44.941  33.493  29.109  1.00  0.00     0.031 C 
ATOM     72  C   UNL A   1      42.558  34.392  29.588  1.00  0.00     0.037 A 
BRANCH  59  73
ATOM     73  C   UNL A   1      36.565  33.522  30.799  1.00  0.00     0.064 A 
ATOM     74  C   UNL A   1      35.629  34.093  29.906  1.00  0.00     0.173 A 
ATOM     75  C   UNL A   1      36.155  33.532  32.148  1.00  0.00     0.173 A 
ATOM     76  F   UNL A   1      35.841  34.105  28.584  1.00  0.00    -0.203 F 
ATOM     77  C   UNL A   1      34.434  34.683  30.336  1.00  0.00     0.198 A 
ATOM     78  C   UNL A   1      34.972  34.143  32.580  1.00  0.00     0.198 A 
ATOM     79  F   UNL A   1      36.845  32.916  33.108  1.00  0.00    -0.203 F 
ATOM     80  F   UNL A   1      33.599  35.220  29.435  1.00  0.00    -0.200 F 
ATOM     81  C   UNL A   1      34.115  34.726  31.675  1.00  0.00     0.200 A 
ATOM     82  F   UNL A   1      34.673  34.155  33.887  1.00  0.00    -0.200 F 
ATOM     83  F   UNL A   1      32.980  35.304  32.090  1.00  0.00    -0.200 F 
ENDBRANCH  59  73
BRANCH  60  84
ATOM     84  C   UNL A   1      44.833  28.926  28.529  1.00  0.00     0.064 A 
ATOM     85  C   UNL A   1      45.458  27.728  28.937  1.00  0.00     0.173 A 
ATOM     86  C   UNL A   1      44.174  28.917  27.294  1.00  0.00     0.173 A 
ATOM     87  F   UNL A   1      46.125  27.684  30.102  1.00  0.00    -0.203 F 
ATOM     88  C   UNL A   1      45.268  26.535  28.241  1.00  0.00     0.198 A 
ATOM     89  C   UNL A   1      44.023  27.724  26.577  1.00  0.00     0.198 A 
ATOM     90  F   UNL A   1      43.566  30.020  26.838  1.00  0.00    -0.203 F 
ATOM     91  F   UNL A   1      45.732  25.383  28.751  1.00  0.00    -0.200 F 
ATOM     92  C   UNL A   1      44.523  26.529  27.078  1.00  0.00     0.200 A 
ATOM     93  F   UNL A   1      43.294  27.712  25.451  1.00  0.00    -0.200 F 
ATOM     94  F   UNL A   1      44.245  25.370  26.464  1.00  0.00    -0.200 F 
ENDBRANCH  60  84
BRANCH  72  95
ATOM     95  C   UNL A   1      42.627  35.832  29.107  1.00  0.00     0.064 A 
ATOM     96  C   UNL A   1      41.986  36.316  27.954  1.00  0.00     0.173 A 
ATOM     97  C   UNL A   1      43.242  36.834  29.906  1.00  0.00     0.173 A 
ATOM     98  F   UNL A   1      41.235  35.524  27.180  1.00  0.00    -0.203 F 
ATOM     99  C   UNL A   1      42.032  37.664  27.584  1.00  0.00     0.198 A 
ATOM    100  C   UNL A   1      43.211  38.188  29.578  1.00  0.00     0.198 A 
ATOM    101  F   UNL A   1      43.867  36.542  31.056  1.00  0.00    -0.203 F 
ATOM    102  F   UNL A   1      41.459  38.052  26.436  1.00  0.00    -0.200 F 
ATOM    103  C   UNL A   1      42.630  38.601  28.402  1.00  0.00     0.200 A 
ATOM    104  F   UNL A   1      43.730  39.089  30.426  1.00  0.00    -0.200 F 
ATOM    105  F   UNL A   1      42.623  39.898  28.070  1.00  0.00    -0.200 F 
ENDBRANCH  72  95
ENDBRANCH  46  47
ENDBRANCH  38  41
ENDBRANCH  36  37
ENDBRANCH  35  36
ENDBRANCH  34  35
ENDBRANCH  33  34
ENDBRANCH   1  33
TORSDOF 18
ENDMDL
