MODEL 1
REMARK VINA RESULT:     -12.0      0.000      0.000
REMARK SMILES CCOc1cc(C(=O)NCCCCCCNC(=O)c2ccc(-c3c4nc(c(-c5c(F)c(F)c(F)c(F)c5F)c5ccc([nH]5)c(-c5c(F)c(F)c(F)c(F)c5F)c5nc(c(-c6c(F)c(F)c(F)c(F)c6F)c6ccc3[nH]6)C=C5)C=C4)cc2)ccc1OCc1ccc(Cl)c(Cl)c1
REMARK SMILES IDX 12 1 11 2 10 3 9 4 7 5 8 6 6 8 4 9 5 10 84 11 83 12 82 13
REMARK SMILES IDX 3 14 2 15 1 16 85 17 86 18 87 19 88 20 94 21 89 22 92 23
REMARK SMILES IDX 90 24 93 25 91 26 13 27 14 28 15 29 16 30 17 31 18 33 19 34
REMARK SMILES IDX 20 35 81 36 21 37 80 38 22 39 23 40 24 41 74 42 25 43 79 44
REMARK SMILES IDX 73 45 75 46 26 47 78 48 72 49 71 50 27 52 59 53 39 54 58 55
REMARK SMILES IDX 40 56 43 57 57 58 76 59 41 60 42 61 56 63 77 64 44 65 28 66
REMARK SMILES IDX 29 67 37 68 30 69 31 70 35 71 38 72 32 73 33 74 36 75 34 76
REMARK SMILES IDX 60 77 61 78 69 79 62 80 63 81 67 82 70 83 64 84 65 85 68 86
REMARK SMILES IDX 66 87 45 88 46 89 54 90 47 91 48 92 52 93 55 94 49 95 50 96
REMARK SMILES IDX 53 97 51 98
REMARK H PARENT 9 7 16 32 75 51 43 62
REMARK Flexibility Score: inf
ROOT
ATOM      1  C   UNL A   1      35.971  20.777  25.145  1.00  0.00     0.002 C 
ENDROOT
BRANCH   1   2
ATOM      2  C   UNL A   1      35.496  21.811  26.163  1.00  0.00     0.021 C 
BRANCH   2   3
ATOM      3  C   UNL A   1      34.211  21.466  26.905  1.00  0.00     0.116 C 
BRANCH   3   4
ATOM      4  N   UNL A   1      33.526  20.280  26.400  1.00  0.00    -0.352 N 
ATOM      5  C   UNL A   1      32.642  20.155  25.344  1.00  0.00     0.251 C 
ATOM      6  O   UNL A   1      32.102  19.078  25.113  1.00  0.00    -0.269 OA
ATOM      7  H   UNL A   1      33.722  19.446  26.885  1.00  0.00     0.163 HD
BRANCH   5   8
ATOM      8  C   UNL A   1      32.334  21.328  24.486  1.00  0.00     0.043 A 
ATOM      9  C   UNL A   1      31.340  23.520  24.188  1.00  0.00     0.161 A 
ATOM     10  C   UNL A   1      31.495  22.359  24.956  1.00  0.00     0.064 A 
ATOM     11  C   UNL A   1      32.054  23.638  22.986  1.00  0.00     0.161 A 
ATOM     12  C   UNL A   1      32.845  22.597  22.508  1.00  0.00     0.051 A 
ATOM     13  C   UNL A   1      32.915  21.413  23.217  1.00  0.00     0.018 A 
BRANCH   9  14
ATOM     14  O   UNL A   1      30.601  24.586  24.626  1.00  0.00    -0.490 OA
BRANCH  14  15
ATOM     15  C   UNL A   1      30.855  24.966  25.987  1.00  0.00     0.226 C 
ATOM     16  C   UNL A   1      30.339  26.386  26.209  1.00  0.00     0.049 C 
ENDBRANCH  14  15
ENDBRANCH   9  14
BRANCH  11  17
ATOM     17  O   UNL A   1      32.042  24.744  22.209  1.00  0.00    -0.485 OA
BRANCH  17  18
ATOM     18  C   UNL A   1      32.975  25.782  22.520  1.00  0.00     0.265 C 
BRANCH  18  19
ATOM     19  C   UNL A   1      32.705  27.087  23.281  1.00  0.00    -0.009 A 
ATOM     20  C   UNL A   1      31.712  28.040  23.018  1.00  0.00     0.009 A 
ATOM     21  C   UNL A   1      33.479  27.290  24.441  1.00  0.00     0.029 A 
ATOM     22  C   UNL A   1      31.467  29.116  23.880  1.00  0.00     0.022 A 
ATOM     23  C   UNL A   1      33.250  28.372  25.304  1.00  0.00     0.060 A 
ATOM     24  C   UNL A   1      32.229  29.280  25.030  1.00  0.00     0.059 A 
ATOM     25  Cl  UNL A   1      34.255  28.504  26.702  1.00  0.00    -0.083 Cl
ATOM     26  Cl  UNL A   1      31.842  30.601  26.070  1.00  0.00    -0.083 Cl
ENDBRANCH  18  19
ENDBRANCH  17  18
ENDBRANCH  11  17
ENDBRANCH   5   8
ENDBRANCH   3   4
ENDBRANCH   2   3
ENDBRANCH   1   2
BRANCH   1  27
ATOM     27  C   UNL A   1      37.425  20.908  24.679  1.00  0.00     0.002 C 
BRANCH  27  28
ATOM     28  C   UNL A   1      38.347  19.725  24.989  1.00  0.00     0.021 C 
BRANCH  28  29
ATOM     29  C   UNL A   1      39.447  19.993  26.014  1.00  0.00     0.116 C 
BRANCH  29  30
ATOM     30  N   UNL A   1      40.502  18.991  25.985  1.00  0.00    -0.352 N 
ATOM     31  C   UNL A   1      41.862  19.139  26.095  1.00  0.00     0.251 C 
ATOM     32  H   UNL A   1      40.192  18.063  25.868  1.00  0.00     0.163 HD
ATOM     33  O   UNL A   1      42.607  18.181  25.892  1.00  0.00    -0.269 OA
BRANCH  31  34
ATOM     34  C   UNL A   1      42.445  20.457  26.425  1.00  0.00     0.039 A 
ATOM     35  C   UNL A   1      43.018  21.217  25.402  1.00  0.00     0.014 A 
ATOM     36  C   UNL A   1      42.423  20.947  27.734  1.00  0.00     0.014 A 
ATOM     37  C   UNL A   1      43.487  22.506  25.672  1.00  0.00     0.010 A 
ATOM     38  C   UNL A   1      42.829  22.256  27.989  1.00  0.00     0.010 A 
ATOM     39  C   UNL A   1      43.348  23.053  26.957  1.00  0.00    -0.014 A 
BRANCH  39  40
ATOM     40  C   UNL A   1      43.687  24.475  27.232  1.00  0.00     0.031 A 
ATOM     41  C   UNL A   1      45.119  24.925  27.264  1.00  0.00     0.074 A 
ATOM     42  C   UNL A   1      42.701  25.340  27.540  1.00  0.00     0.049 A 
ATOM     43  N   UNL A   1      45.612  26.094  27.589  1.00  0.00    -0.248 NA
ATOM     44  C   UNL A   1      46.136  23.923  26.907  1.00  0.00     0.031 C 
ATOM     45  C   UNL A   1      41.274  25.015  27.576  1.00  0.00     0.029 A 
ATOM     46  N   UNL A   1      42.747  26.665  27.899  1.00  0.00    -0.354 N 
ATOM     47  C   UNL A   1      46.991  25.965  27.489  1.00  0.00     0.074 A 
ATOM     48  C   UNL A   1      47.260  24.593  27.115  1.00  0.00     0.031 C 
ATOM     49  C   UNL A   1      40.581  26.112  27.920  1.00  0.00     0.029 A 
ATOM     50  C   UNL A   1      41.514  27.202  28.181  1.00  0.00     0.049 A 
ATOM     51  H   UNL A   1      43.584  27.180  27.951  1.00  0.00     0.167 HD
ATOM     52  C   UNL A   1      47.942  26.911  27.677  1.00  0.00     0.037 A 
ATOM     53  C   UNL A   1      41.174  28.430  28.621  1.00  0.00     0.037 A 
ATOM     54  C   UNL A   1      47.665  28.280  28.030  1.00  0.00     0.049 A 
ATOM     55  C   UNL A   1      42.257  29.446  28.867  1.00  0.00     0.074 A 
ATOM     56  C   UNL A   1      48.555  29.331  28.166  1.00  0.00     0.029 A 
ATOM     57  N   UNL A   1      46.405  28.784  28.316  1.00  0.00    -0.354 N 
ATOM     58  N   UNL A   1      43.551  29.337  28.689  1.00  0.00    -0.248 NA
ATOM     59  C   UNL A   1      41.831  30.758  29.380  1.00  0.00     0.031 C 
ATOM     60  C   UNL A   1      47.843  30.453  28.600  1.00  0.00     0.029 A 
ATOM     61  C   UNL A   1      46.500  30.119  28.674  1.00  0.00     0.049 A 
ATOM     62  H   UNL A   1      45.567  28.269  28.272  1.00  0.00     0.167 HD
ATOM     63  C   UNL A   1      44.090  30.565  29.045  1.00  0.00     0.074 A 
ATOM     64  C   UNL A   1      42.983  31.413  29.431  1.00  0.00     0.031 C 
ATOM     65  C   UNL A   1      45.389  30.954  29.055  1.00  0.00     0.037 A 
BRANCH  52  66
ATOM     66  C   UNL A   1      49.378  26.504  27.513  1.00  0.00     0.064 A 
ATOM     67  C   UNL A   1      49.964  26.350  26.248  1.00  0.00     0.173 A 
ATOM     68  C   UNL A   1      50.196  26.322  28.640  1.00  0.00     0.173 A 
ATOM     69  F   UNL A   1      49.226  26.505  25.138  1.00  0.00    -0.203 F 
ATOM     70  C   UNL A   1      51.307  26.001  26.117  1.00  0.00     0.198 A 
ATOM     71  C   UNL A   1      51.545  26.005  28.504  1.00  0.00     0.198 A 
ATOM     72  F   UNL A   1      49.690  26.466  29.874  1.00  0.00    -0.203 F 
ATOM     73  F   UNL A   1      51.832  25.814  24.898  1.00  0.00    -0.200 F 
ATOM     74  C   UNL A   1      52.098  25.838  27.243  1.00  0.00     0.200 A 
ATOM     75  F   UNL A   1      52.312  25.866  29.595  1.00  0.00    -0.200 F 
ATOM     76  F   UNL A   1      53.392  25.516  27.116  1.00  0.00    -0.200 F 
ENDBRANCH  52  66
BRANCH  53  77
ATOM     77  C   UNL A   1      39.746  28.766  28.863  1.00  0.00     0.064 A 
ATOM     78  C   UNL A   1      39.163  28.568  30.123  1.00  0.00     0.173 A 
ATOM     79  C   UNL A   1      38.930  29.277  27.842  1.00  0.00     0.173 A 
ATOM     80  F   UNL A   1      39.896  28.060  31.126  1.00  0.00    -0.203 F 
ATOM     81  C   UNL A   1      37.817  28.847  30.347  1.00  0.00     0.198 A 
ATOM     82  C   UNL A   1      37.591  29.586  28.076  1.00  0.00     0.198 A 
ATOM     83  F   UNL A   1      39.436  29.487  26.618  1.00  0.00    -0.203 F 
ATOM     84  F   UNL A   1      37.275  28.599  31.547  1.00  0.00    -0.200 F 
ATOM     85  C   UNL A   1      37.034  29.361  29.326  1.00  0.00     0.200 A 
ATOM     86  F   UNL A   1      36.842  30.098  27.090  1.00  0.00    -0.200 F 
ATOM     87  F   UNL A   1      35.739  29.633  29.542  1.00  0.00    -0.200 F 
ENDBRANCH  53  77
BRANCH  65  88
ATOM     88  C   UNL A   1      45.687  32.362  29.481  1.00  0.00     0.064 A 
ATOM     89  C   UNL A   1      45.660  33.426  28.568  1.00  0.00     0.173 A 
ATOM     90  C   UNL A   1      45.941  32.659  30.829  1.00  0.00     0.173 A 
ATOM     91  F   UNL A   1      45.440  33.193  27.265  1.00  0.00    -0.203 F 
ATOM     92  C   UNL A   1      45.891  34.734  28.986  1.00  0.00     0.198 A 
ATOM     93  C   UNL A   1      46.140  33.972  31.249  1.00  0.00     0.198 A 
ATOM     94  F   UNL A   1      45.974  31.679  31.744  1.00  0.00    -0.203 F 
ATOM     95  F   UNL A   1      45.901  35.730  28.090  1.00  0.00    -0.200 F 
ATOM     96  C   UNL A   1      46.120  35.007  30.326  1.00  0.00     0.200 A 
ATOM     97  F   UNL A   1      46.344  34.235  32.547  1.00  0.00    -0.200 F 
ATOM     98  F   UNL A   1      46.324  36.269  30.730  1.00  0.00    -0.200 F 
ENDBRANCH  65  88
ENDBRANCH  39  40
ENDBRANCH  31  34
ENDBRANCH  29  30
ENDBRANCH  28  29
ENDBRANCH  27  28
ENDBRANCH   1  27
TORSDOF 18
ENDMDL
MODEL 2
REMARK VINA RESULT:     -11.9      4.447      8.141
REMARK SMILES CCOc1cc(C(=O)NCCCCCCNC(=O)c2ccc(-c3c4nc(c(-c5c(F)c(F)c(F)c(F)c5F)c5ccc([nH]5)c(-c5c(F)c(F)c(F)c(F)c5F)c5nc(c(-c6c(F)c(F)c(F)c(F)c6F)c6ccc3[nH]6)C=C5)C=C4)cc2)ccc1OCc1ccc(Cl)c(Cl)c1
REMARK SMILES IDX 12 1 11 2 10 3 9 4 7 5 8 6 6 8 4 9 5 10 84 11 83 12 82 13
REMARK SMILES IDX 3 14 2 15 1 16 85 17 86 18 87 19 88 20 94 21 89 22 92 23
REMARK SMILES IDX 90 24 93 25 91 26 13 27 14 28 15 29 16 30 17 31 18 33 19 34
REMARK SMILES IDX 20 35 81 36 21 37 80 38 22 39 23 40 24 41 74 42 25 43 79 44
REMARK SMILES IDX 73 45 75 46 26 47 78 48 72 49 71 50 27 52 59 53 39 54 58 55
REMARK SMILES IDX 40 56 43 57 57 58 76 59 41 60 42 61 56 63 77 64 44 65 28 66
REMARK SMILES IDX 29 67 37 68 30 69 31 70 35 71 38 72 32 73 33 74 36 75 34 76
REMARK SMILES IDX 60 77 61 78 69 79 62 80 63 81 67 82 70 83 64 84 65 85 68 86
REMARK SMILES IDX 66 87 45 88 46 89 54 90 47 91 48 92 52 93 55 94 49 95 50 96
REMARK SMILES IDX 53 97 51 98
REMARK H PARENT 9 7 16 32 75 51 43 62
REMARK Flexibility Score: inf
ROOT
ATOM      1  C   UNL A   1      43.281  23.379  25.020  1.00  0.00     0.002 C 
ENDROOT
BRANCH   1   2
ATOM      2  C   UNL A   1      44.340  22.683  24.170  1.00  0.00     0.021 C 
BRANCH   2   3
ATOM      3  C   UNL A   1      45.713  23.344  24.152  1.00  0.00     0.116 C 
BRANCH   3   4
ATOM      4  N   UNL A   1      46.417  23.301  25.429  1.00  0.00    -0.352 N 
ATOM      5  C   UNL A   1      46.887  24.339  26.212  1.00  0.00     0.251 C 
ATOM      6  O   UNL A   1      47.531  24.105  27.231  1.00  0.00    -0.269 OA
ATOM      7  H   UNL A   1      46.582  22.399  25.786  1.00  0.00     0.163 HD
BRANCH   5   8
ATOM      8  C   UNL A   1      46.624  25.748  25.820  1.00  0.00     0.043 A 
ATOM      9  C   UNL A   1      45.225  27.728  25.876  1.00  0.00     0.161 A 
ATOM     10  C   UNL A   1      45.392  26.360  26.125  1.00  0.00     0.064 A 
ATOM     11  C   UNL A   1      46.305  28.460  25.362  1.00  0.00     0.161 A 
ATOM     12  C   UNL A   1      47.505  27.839  25.021  1.00  0.00     0.051 A 
ATOM     13  C   UNL A   1      47.631  26.471  25.172  1.00  0.00     0.018 A 
BRANCH   9  14
ATOM     14  O   UNL A   1      44.080  28.394  26.222  1.00  0.00    -0.490 OA
BRANCH  14  15
ATOM     15  C   UNL A   1      42.904  27.954  25.525  1.00  0.00     0.226 C 
ATOM     16  C   UNL A   1      41.846  29.053  25.598  1.00  0.00     0.049 C 
ENDBRANCH  14  15
ENDBRANCH   9  14
BRANCH  11  17
ATOM     17  O   UNL A   1      46.283  29.796  25.160  1.00  0.00    -0.485 OA
BRANCH  17  18
ATOM     18  C   UNL A   1      46.498  30.640  26.293  1.00  0.00     0.265 C 
BRANCH  18  19
ATOM     19  C   UNL A   1      45.502  31.612  26.941  1.00  0.00    -0.009 A 
ATOM     20  C   UNL A   1      45.248  31.790  28.308  1.00  0.00     0.009 A 
ATOM     21  C   UNL A   1      44.850  32.498  26.061  1.00  0.00     0.029 A 
ATOM     22  C   UNL A   1      44.426  32.818  28.784  1.00  0.00     0.022 A 
ATOM     23  C   UNL A   1      44.015  33.524  26.527  1.00  0.00     0.060 A 
ATOM     24  C   UNL A   1      43.814  33.694  27.896  1.00  0.00     0.059 A 
ATOM     25  Cl  UNL A   1      43.286  34.555  25.349  1.00  0.00    -0.083 Cl
ATOM     26  Cl  UNL A   1      42.852  34.965  28.553  1.00  0.00    -0.083 Cl
ENDBRANCH  18  19
ENDBRANCH  17  18
ENDBRANCH  11  17
ENDBRANCH   5   8
ENDBRANCH   3   4
ENDBRANCH   2   3
ENDBRANCH   1   2
BRANCH   1  27
ATOM     27  C   UNL A   1      42.854  22.648  26.298  1.00  0.00     0.002 C 
BRANCH  27  28
ATOM     28  C   UNL A   1      42.024  21.375  26.106  1.00  0.00     0.021 C 
BRANCH  28  29
ATOM     29  C   UNL A   1      40.744  21.286  26.934  1.00  0.00     0.116 C 
BRANCH  29  30
ATOM     30  N   UNL A   1      39.541  21.461  26.135  1.00  0.00    -0.352 N 
ATOM     31  C   UNL A   1      38.720  22.553  26.003  1.00  0.00     0.251 C 
ATOM     32  H   UNL A   1      39.274  20.673  25.606  1.00  0.00     0.163 HD
ATOM     33  O   UNL A   1      37.657  22.457  25.393  1.00  0.00    -0.269 OA
BRANCH  31  34
ATOM     34  C   UNL A   1      39.092  23.844  26.620  1.00  0.00     0.039 A 
ATOM     35  C   UNL A   1      38.682  24.109  27.930  1.00  0.00     0.014 A 
ATOM     36  C   UNL A   1      39.846  24.789  25.918  1.00  0.00     0.014 A 
ATOM     37  C   UNL A   1      39.103  25.279  28.567  1.00  0.00     0.010 A 
ATOM     38  C   UNL A   1      40.320  25.922  26.576  1.00  0.00     0.010 A 
ATOM     39  C   UNL A   1      39.968  26.169  27.911  1.00  0.00    -0.014 A 
BRANCH  39  40
ATOM     40  C   UNL A   1      40.561  27.334  28.621  1.00  0.00     0.031 A 
ATOM     41  C   UNL A   1      41.986  27.295  29.090  1.00  0.00     0.074 A 
ATOM     42  C   UNL A   1      39.781  28.392  28.918  1.00  0.00     0.049 A 
ATOM     43  N   UNL A   1      42.643  28.167  29.814  1.00  0.00    -0.248 NA
ATOM     44  C   UNL A   1      42.774  26.110  28.718  1.00  0.00     0.031 C 
ATOM     45  C   UNL A   1      38.371  28.532  28.546  1.00  0.00     0.029 A 
ATOM     46  N   UNL A   1      40.054  29.543  29.615  1.00  0.00    -0.354 N 
ATOM     47  C   UNL A   1      43.911  27.632  29.995  1.00  0.00     0.074 A 
ATOM     48  C   UNL A   1      43.920  26.341  29.342  1.00  0.00     0.031 C 
ATOM     49  C   UNL A   1      37.909  29.706  29.004  1.00  0.00     0.029 A 
ATOM     50  C   UNL A   1      38.971  30.379  29.745  1.00  0.00     0.049 A 
ATOM     51  H   UNL A   1      40.942  29.749  29.987  1.00  0.00     0.167 HD
ATOM     52  C   UNL A   1      44.973  28.178  30.634  1.00  0.00     0.037 A 
ATOM     53  C   UNL A   1      38.840  31.545  30.408  1.00  0.00     0.037 A 
ATOM     54  C   UNL A   1      44.961  29.473  31.265  1.00  0.00     0.049 A 
ATOM     55  C   UNL A   1      40.025  32.104  31.149  1.00  0.00     0.074 A 
ATOM     56  C   UNL A   1      46.009  30.145  31.870  1.00  0.00     0.029 A 
ATOM     57  N   UNL A   1      43.844  30.285  31.385  1.00  0.00    -0.354 N 
ATOM     58  N   UNL A   1      41.242  31.628  31.243  1.00  0.00    -0.248 NA
ATOM     59  C   UNL A   1      39.815  33.362  31.882  1.00  0.00     0.031 C 
ATOM     60  C   UNL A   1      45.511  31.332  32.415  1.00  0.00     0.029 A 
ATOM     61  C   UNL A   1      44.166  31.430  32.096  1.00  0.00     0.049 A 
ATOM     62  H   UNL A   1      42.953  30.078  31.020  1.00  0.00     0.167 HD
ATOM     63  C   UNL A   1      41.948  32.534  32.022  1.00  0.00     0.074 A 
ATOM     64  C   UNL A   1      41.029  33.600  32.361  1.00  0.00     0.031 C 
ATOM     65  C   UNL A   1      43.241  32.485  32.425  1.00  0.00     0.037 A 
BRANCH  52  66
ATOM     66  C   UNL A   1      46.242  27.377  30.695  1.00  0.00     0.064 A 
ATOM     67  C   UNL A   1      47.224  27.469  29.696  1.00  0.00     0.173 A 
ATOM     68  C   UNL A   1      46.506  26.550  31.797  1.00  0.00     0.173 A 
ATOM     69  F   UNL A   1      47.019  28.240  28.617  1.00  0.00    -0.203 F 
ATOM     70  C   UNL A   1      48.408  26.742  29.785  1.00  0.00     0.198 A 
ATOM     71  C   UNL A   1      47.706  25.849  31.898  1.00  0.00     0.198 A 
ATOM     72  F   UNL A   1      45.607  26.432  32.786  1.00  0.00    -0.203 F 
ATOM     73  F   UNL A   1      49.310  26.811  28.796  1.00  0.00    -0.200 F 
ATOM     74  C   UNL A   1      48.652  25.940  30.889  1.00  0.00     0.200 A 
ATOM     75  F   UNL A   1      47.946  25.089  32.976  1.00  0.00    -0.200 F 
ATOM     76  F   UNL A   1      49.798  25.251  30.980  1.00  0.00    -0.200 F 
ENDBRANCH  52  66
BRANCH  53  77
ATOM     77  C   UNL A   1      37.538  32.263  30.404  1.00  0.00     0.064 A 
ATOM     78  C   UNL A   1      36.572  32.007  31.388  1.00  0.00     0.173 A 
ATOM     79  C   UNL A   1      37.222  33.205  29.413  1.00  0.00     0.173 A 
ATOM     80  F   UNL A   1      36.817  31.098  32.344  1.00  0.00    -0.203 F 
ATOM     81  C   UNL A   1      35.336  32.649  31.370  1.00  0.00     0.198 A 
ATOM     82  C   UNL A   1      35.998  33.871  29.415  1.00  0.00     0.198 A 
ATOM     83  F   UNL A   1      38.109  33.489  28.448  1.00  0.00    -0.203 F 
ATOM     84  F   UNL A   1      34.414  32.347  32.294  1.00  0.00    -0.200 F 
ATOM     85  C   UNL A   1      35.052  33.584  30.387  1.00  0.00     0.200 A 
ATOM     86  F   UNL A   1      35.734  34.786  28.472  1.00  0.00    -0.200 F 
ATOM     87  F   UNL A   1      33.864  34.204  30.372  1.00  0.00    -0.200 F 
ENDBRANCH  53  77
BRANCH  65  88
ATOM     88  C   UNL A   1      43.749  33.622  33.264  1.00  0.00     0.064 A 
ATOM     89  C   UNL A   1      43.682  33.589  34.664  1.00  0.00     0.173 A 
ATOM     90  C   UNL A   1      44.369  34.729  32.662  1.00  0.00     0.173 A 
ATOM     91  F   UNL A   1      43.084  32.561  35.287  1.00  0.00    -0.203 F 
ATOM     92  C   UNL A   1      44.202  34.628  35.431  1.00  0.00     0.198 A 
ATOM     93  C   UNL A   1      44.916  35.751  33.433  1.00  0.00     0.198 A 
ATOM     94  F   UNL A   1      44.464  34.808  31.326  1.00  0.00    -0.203 F 
ATOM     95  F   UNL A   1      44.090  34.594  36.766  1.00  0.00    -0.200 F 
ATOM     96  C   UNL A   1      44.827  35.702  34.816  1.00  0.00     0.200 A 
ATOM     97  F   UNL A   1      45.534  36.779  32.837  1.00  0.00    -0.200 F 
ATOM     98  F   UNL A   1      45.343  36.693  35.557  1.00  0.00    -0.200 F 
ENDBRANCH  65  88
ENDBRANCH  39  40
ENDBRANCH  31  34
ENDBRANCH  29  30
ENDBRANCH  28  29
ENDBRANCH  27  28
ENDBRANCH   1  27
TORSDOF 18
ENDMDL
MODEL 3
REMARK VINA RESULT:     -11.7      0.940      7.235
REMARK SMILES CCOc1cc(C(=O)NCCCCCCNC(=O)c2ccc(-c3c4nc(c(-c5c(F)c(F)c(F)c(F)c5F)c5ccc([nH]5)c(-c5c(F)c(F)c(F)c(F)c5F)c5nc(c(-c6c(F)c(F)c(F)c(F)c6F)c6ccc3[nH]6)C=C5)C=C4)cc2)ccc1OCc1ccc(Cl)c(Cl)c1
REMARK SMILES IDX 12 1 11 2 10 3 9 4 7 5 8 6 6 8 4 9 5 10 84 11 83 12 82 13
REMARK SMILES IDX 3 14 2 15 1 16 85 17 86 18 87 19 88 20 94 21 89 22 92 23
REMARK SMILES IDX 90 24 93 25 91 26 13 27 14 28 15 29 16 30 17 31 18 33 19 34
REMARK SMILES IDX 20 35 81 36 21 37 80 38 22 39 23 40 24 41 74 42 25 43 79 44
REMARK SMILES IDX 73 45 75 46 26 47 78 48 72 49 71 50 27 52 59 53 39 54 58 55
REMARK SMILES IDX 40 56 43 57 57 58 76 59 41 60 42 61 56 63 77 64 44 65 28 66
REMARK SMILES IDX 29 67 37 68 30 69 31 70 35 71 38 72 32 73 33 74 36 75 34 76
REMARK SMILES IDX 60 77 61 78 69 79 62 80 63 81 67 82 70 83 64 84 65 85 68 86
REMARK SMILES IDX 66 87 45 88 46 89 54 90 47 91 48 92 52 93 55 94 49 95 50 96
REMARK SMILES IDX 53 97 51 98
REMARK H PARENT 9 7 16 32 75 51 43 62
REMARK Flexibility Score: inf
ROOT
ATOM      1  C   UNL A   1      37.003  22.167  25.736  1.00  0.00     0.002 C 
ENDROOT
BRANCH   1   2
ATOM      2  C   UNL A   1      35.739  23.023  25.742  1.00  0.00     0.021 C 
BRANCH   2   3
ATOM      3  C   UNL A   1      34.646  22.582  26.707  1.00  0.00     0.116 C 
BRANCH   3   4
ATOM      4  N   UNL A   1      34.012  21.315  26.357  1.00  0.00    -0.352 N 
ATOM      5  C   UNL A   1      33.184  21.007  25.293  1.00  0.00     0.251 C 
ATOM      6  O   UNL A   1      32.678  19.893  25.204  1.00  0.00    -0.269 OA
ATOM      7  H   UNL A   1      34.202  20.569  26.970  1.00  0.00     0.163 HD
BRANCH   5   8
ATOM      8  C   UNL A   1      32.892  22.029  24.256  1.00  0.00     0.043 A 
ATOM      9  C   UNL A   1      31.485  23.796  23.370  1.00  0.00     0.161 A 
ATOM     10  C   UNL A   1      31.673  22.737  24.268  1.00  0.00     0.064 A 
ATOM     11  C   UNL A   1      32.532  24.145  22.506  1.00  0.00     0.161 A 
ATOM     12  C   UNL A   1      33.717  23.413  22.468  1.00  0.00     0.051 A 
ATOM     13  C   UNL A   1      33.859  22.305  23.284  1.00  0.00     0.018 A 
BRANCH   9  14
ATOM     14  O   UNL A   1      30.355  24.568  23.387  1.00  0.00    -0.490 OA
BRANCH  14  15
ATOM     15  C   UNL A   1      30.269  25.474  24.497  1.00  0.00     0.226 C 
ATOM     16  C   UNL A   1      29.134  26.462  24.243  1.00  0.00     0.049 C 
ENDBRANCH  14  15
ENDBRANCH   9  14
BRANCH  11  17
ATOM     17  O   UNL A   1      32.491  25.196  21.657  1.00  0.00    -0.485 OA
BRANCH  17  18
ATOM     18  C   UNL A   1      33.277  26.344  21.987  1.00  0.00     0.265 C 
BRANCH  18  19
ATOM     19  C   UNL A   1      32.912  27.486  22.946  1.00  0.00    -0.009 A 
ATOM     20  C   UNL A   1      31.870  28.413  22.813  1.00  0.00     0.009 A 
ATOM     21  C   UNL A   1      33.646  27.534  24.147  1.00  0.00     0.029 A 
ATOM     22  C   UNL A   1      31.542  29.315  23.833  1.00  0.00     0.022 A 
ATOM     23  C   UNL A   1      33.333  28.440  25.171  1.00  0.00     0.060 A 
ATOM     24  C   UNL A   1      32.266  29.325  25.018  1.00  0.00     0.059 A 
ATOM     25  Cl  UNL A   1      34.297  28.391  26.602  1.00  0.00    -0.083 Cl
ATOM     26  Cl  UNL A   1      31.778  30.429  26.251  1.00  0.00    -0.083 Cl
ENDBRANCH  18  19
ENDBRANCH  17  18
ENDBRANCH  11  17
ENDBRANCH   5   8
ENDBRANCH   3   4
ENDBRANCH   2   3
ENDBRANCH   1   2
BRANCH   1  27
ATOM     27  C   UNL A   1      37.054  21.047  24.692  1.00  0.00     0.002 C 
BRANCH  27  28
ATOM     28  C   UNL A   1      38.013  19.888  24.985  1.00  0.00     0.021 C 
BRANCH  28  29
ATOM     29  C   UNL A   1      39.255  20.244  25.799  1.00  0.00     0.116 C 
BRANCH  29  30
ATOM     30  N   UNL A   1      40.232  19.166  25.839  1.00  0.00    -0.352 N 
ATOM     31  C   UNL A   1      41.590  19.214  26.029  1.00  0.00     0.251 C 
ATOM     32  H   UNL A   1      39.861  18.263  25.710  1.00  0.00     0.163 HD
ATOM     33  O   UNL A   1      42.272  18.202  25.877  1.00  0.00    -0.269 OA
BRANCH  31  34
ATOM     34  C   UNL A   1      42.249  20.489  26.385  1.00  0.00     0.039 A 
ATOM     35  C   UNL A   1      42.885  21.224  25.380  1.00  0.00     0.014 A 
ATOM     36  C   UNL A   1      42.237  20.964  27.699  1.00  0.00     0.014 A 
ATOM     37  C   UNL A   1      43.429  22.477  25.674  1.00  0.00     0.010 A 
ATOM     38  C   UNL A   1      42.721  22.241  27.977  1.00  0.00     0.010 A 
ATOM     39  C   UNL A   1      43.305  23.017  26.964  1.00  0.00    -0.014 A 
BRANCH  39  40
ATOM     40  C   UNL A   1      43.728  24.411  27.262  1.00  0.00     0.031 A 
ATOM     41  C   UNL A   1      42.726  25.429  27.725  1.00  0.00     0.074 A 
ATOM     42  C   UNL A   1      45.003  24.777  27.028  1.00  0.00     0.049 A 
ATOM     43  N   UNL A   1      42.885  26.712  27.932  1.00  0.00    -0.248 NA
ATOM     44  C   UNL A   1      41.357  24.948  27.967  1.00  0.00     0.031 C 
ATOM     45  C   UNL A   1      46.062  23.888  26.545  1.00  0.00     0.029 A 
ATOM     46  N   UNL A   1      45.625  25.996  27.146  1.00  0.00    -0.354 N 
ATOM     47  C   UNL A   1      41.640  27.192  28.313  1.00  0.00     0.074 A 
ATOM     48  C   UNL A   1      40.724  26.073  28.268  1.00  0.00     0.031 C 
ATOM     49  C   UNL A   1      47.202  24.586  26.424  1.00  0.00     0.029 A 
ATOM     50  C   UNL A   1      46.946  25.980  26.769  1.00  0.00     0.049 A 
ATOM     51  H   UNL A   1      45.167  26.805  27.470  1.00  0.00     0.167 HD
ATOM     52  C   UNL A   1      41.298  28.451  28.681  1.00  0.00     0.037 A 
ATOM     53  C   UNL A   1      47.846  26.981  26.689  1.00  0.00     0.037 A 
ATOM     54  C   UNL A   1      42.220  29.556  28.742  1.00  0.00     0.049 A 
ATOM     55  C   UNL A   1      47.424  28.377  27.059  1.00  0.00     0.074 A 
ATOM     56  C   UNL A   1      41.986  30.849  29.177  1.00  0.00     0.029 A 
ATOM     57  N   UNL A   1      43.547  29.503  28.343  1.00  0.00    -0.354 N 
ATOM     58  N   UNL A   1      46.264  28.803  27.497  1.00  0.00    -0.248 NA
ATOM     59  C   UNL A   1      48.437  29.435  26.919  1.00  0.00     0.031 C 
ATOM     60  C   UNL A   1      43.151  31.595  28.978  1.00  0.00     0.029 A 
ATOM     61  C   UNL A   1      44.131  30.752  28.477  1.00  0.00     0.049 A 
ATOM     62  H   UNL A   1      44.005  28.697  28.012  1.00  0.00     0.167 HD
ATOM     63  C   UNL A   1      46.412  30.167  27.705  1.00  0.00     0.074 A 
ATOM     64  C   UNL A   1      47.780  30.497  27.365  1.00  0.00     0.031 C 
ATOM     65  C   UNL A   1      45.495  31.067  28.136  1.00  0.00     0.037 A 
BRANCH  52  66
ATOM     66  C   UNL A   1      39.864  28.710  29.042  1.00  0.00     0.064 A 
ATOM     67  C   UNL A   1      39.383  28.521  30.347  1.00  0.00     0.173 A 
ATOM     68  C   UNL A   1      38.970  29.211  28.082  1.00  0.00     0.173 A 
ATOM     69  F   UNL A   1      40.193  28.037  31.302  1.00  0.00    -0.203 F 
ATOM     70  C   UNL A   1      38.056  28.797  30.670  1.00  0.00     0.198 A 
ATOM     71  C   UNL A   1      37.653  29.516  28.416  1.00  0.00     0.198 A 
ATOM     72  F   UNL A   1      39.379  29.420  26.822  1.00  0.00    -0.203 F 
ATOM     73  F   UNL A   1      37.609  28.564  31.912  1.00  0.00    -0.200 F 
ATOM     74  C   UNL A   1      37.195  29.301  29.708  1.00  0.00     0.200 A 
ATOM     75  F   UNL A   1      36.828  30.021  27.488  1.00  0.00    -0.200 F 
ATOM     76  F   UNL A   1      35.923  29.579  30.022  1.00  0.00    -0.200 F 
ENDBRANCH  52  66
BRANCH  53  77
ATOM     77  C   UNL A   1      49.234  26.700  26.235  1.00  0.00     0.064 A 
ATOM     78  C   UNL A   1      50.214  26.268  27.140  1.00  0.00     0.173 A 
ATOM     79  C   UNL A   1      49.616  26.870  24.895  1.00  0.00     0.173 A 
ATOM     80  F   UNL A   1      49.904  26.114  28.436  1.00  0.00    -0.203 F 
ATOM     81  C   UNL A   1      51.524  26.038  26.729  1.00  0.00     0.198 A 
ATOM     82  C   UNL A   1      50.920  26.607  24.479  1.00  0.00     0.198 A 
ATOM     83  F   UNL A   1      48.719  27.278  23.986  1.00  0.00    -0.203 F 
ATOM     84  F   UNL A   1      52.451  25.676  27.626  1.00  0.00    -0.200 F 
ATOM     85  C   UNL A   1      51.875  26.202  25.398  1.00  0.00     0.200 A 
ATOM     86  F   UNL A   1      51.250  26.751  23.188  1.00  0.00    -0.200 F 
ATOM     87  F   UNL A   1      53.136  25.976  25.002  1.00  0.00    -0.200 F 
ENDBRANCH  53  77
BRANCH  65  88
ATOM     88  C   UNL A   1      45.939  32.494  28.282  1.00  0.00     0.064 A 
ATOM     89  C   UNL A   1      46.468  32.979  29.487  1.00  0.00     0.173 A 
ATOM     90  C   UNL A   1      45.894  33.369  27.186  1.00  0.00     0.173 A 
ATOM     91  F   UNL A   1      46.517  32.187  30.570  1.00  0.00    -0.203 F 
ATOM     92  C   UNL A   1      46.921  34.291  29.594  1.00  0.00     0.198 A 
ATOM     93  C   UNL A   1      46.378  34.671  27.287  1.00  0.00     0.198 A 
ATOM     94  F   UNL A   1      45.403  32.954  26.008  1.00  0.00    -0.203 F 
ATOM     95  F   UNL A   1      47.385  34.744  30.767  1.00  0.00    -0.200 F 
ATOM     96  C   UNL A   1      46.886  35.132  28.492  1.00  0.00     0.200 A 
ATOM     97  F   UNL A   1      46.359  35.476  26.216  1.00  0.00    -0.200 F 
ATOM     98  F   UNL A   1      47.339  36.389  28.592  1.00  0.00    -0.200 F 
ENDBRANCH  65  88
ENDBRANCH  39  40
ENDBRANCH  31  34
ENDBRANCH  29  30
ENDBRANCH  28  29
ENDBRANCH  27  28
ENDBRANCH   1  27
TORSDOF 18
ENDMDL
