MODEL 1
REMARK VINA RESULT:     -13.7      0.000      0.000
REMARK SMILES O=C(NCCCCCCNC(=O)[C@H]1CCCCN1c1cc(-c2ccccc2)nc(-c2cccc(Cl)c2)n1)c1ccc(-c2c3nc(c(-c4c(F)c(F)c(F)c(F)c4F)c4ccc([nH]4)c(-c4c(F)c(F)c(F)c(F)c4F)c4nc(c(-c5c(F)c(F)c(F)c(F)c5F)c5ccc2[nH]5)C=C4)C=C3)cc1
REMARK SMILES IDX 6 1 5 2 4 3 3 4 1 5 2 6 38 8 39 9 100 10 40 11 99 12 41 13
REMARK SMILES IDX 42 14 43 15 93 16 44 17 98 18 92 19 94 20 45 21 97 22 91 23
REMARK SMILES IDX 90 24 46 26 78 27 58 28 77 29 59 30 62 31 76 32 95 33 60 34
REMARK SMILES IDX 61 35 75 37 96 38 63 39 47 40 48 41 56 42 49 43 50 44 54 45
REMARK SMILES IDX 57 46 51 47 52 48 55 49 53 50 79 51 80 52 88 53 81 54 82 55
REMARK SMILES IDX 86 56 89 57 83 58 84 59 87 60 85 61 64 62 65 63 73 64 66 65
REMARK SMILES IDX 67 66 71 67 74 68 68 69 69 70 72 71 70 72 7 73 8 74 9 75
REMARK SMILES IDX 10 76 11 77 12 79 13 80 14 81 18 82 15 83 17 84 16 85 19 86
REMARK SMILES IDX 20 87 37 88 21 89 29 90 28 91 22 92 23 93 27 94 24 95 26 96
REMARK SMILES IDX 25 97 30 98 31 99 36 100 32 101 34 102 33 103 35 104
REMARK H PARENT 3 7 94 25 62 36 10 78
REMARK Flexibility Score: inf
ROOT
ATOM      1  C   UNL A   1      35.488  20.627  24.969  1.00  0.00     0.002 C 
ENDROOT
BRANCH   1   2
ATOM      2  C   UNL A   1      36.135  21.898  24.420  1.00  0.00     0.021 C 
BRANCH   2   3
ATOM      3  C   UNL A   1      37.423  22.331  25.109  1.00  0.00     0.116 C 
BRANCH   3   4
ATOM      4  N   UNL A   1      38.177  21.224  25.669  1.00  0.00    -0.352 N 
ATOM      5  O   UNL A   1      39.913  20.213  26.698  1.00  0.00    -0.269 OA
ATOM      6  C   UNL A   1      39.348  21.252  26.390  1.00  0.00     0.251 C 
ATOM      7  H   UNL A   1      37.797  20.330  25.512  1.00  0.00     0.163 HD
BRANCH   6   8
ATOM      8  C   UNL A   1      39.945  22.555  26.762  1.00  0.00     0.039 A 
ATOM      9  C   UNL A   1      39.455  23.749  26.227  1.00  0.00     0.014 A 
ATOM     10  C   UNL A   1      41.014  22.575  27.661  1.00  0.00     0.014 A 
ATOM     11  C   UNL A   1      40.119  24.944  26.482  1.00  0.00     0.010 A 
ATOM     12  C   UNL A   1      41.629  23.788  27.982  1.00  0.00     0.010 A 
ATOM     13  C   UNL A   1      41.205  24.978  27.372  1.00  0.00    -0.014 A 
BRANCH  13  14
ATOM     14  C   UNL A   1      41.843  26.279  27.697  1.00  0.00     0.031 A 
ATOM     15  C   UNL A   1      43.204  26.632  27.171  1.00  0.00     0.074 A 
ATOM     16  C   UNL A   1      41.166  27.152  28.467  1.00  0.00     0.049 A 
ATOM     17  N   UNL A   1      43.899  27.729  27.350  1.00  0.00    -0.248 NA
ATOM     18  C   UNL A   1      43.880  25.623  26.345  1.00  0.00     0.031 C 
ATOM     19  C   UNL A   1      39.842  26.912  29.043  1.00  0.00     0.029 A 
ATOM     20  N   UNL A   1      41.488  28.418  28.886  1.00  0.00    -0.354 N 
ATOM     21  C   UNL A   1      45.097  27.534  26.678  1.00  0.00     0.074 A 
ATOM     22  C   UNL A   1      45.049  26.203  26.109  1.00  0.00     0.031 C 
ATOM     23  C   UNL A   1      39.444  28.010  29.701  1.00  0.00     0.029 A 
ATOM     24  C   UNL A   1      40.508  29.007  29.644  1.00  0.00     0.049 A 
ATOM     25  H   UNL A   1      42.338  28.860  28.663  1.00  0.00     0.167 HD
ATOM     26  C   UNL A   1      46.139  28.392  26.544  1.00  0.00     0.037 A 
ATOM     27  C   UNL A   1      40.472  30.212  30.242  1.00  0.00     0.037 A 
ATOM     28  C   UNL A   1      46.174  29.720  27.105  1.00  0.00     0.049 A 
ATOM     29  C   UNL A   1      41.651  31.131  30.099  1.00  0.00     0.074 A 
ATOM     30  C   UNL A   1      47.164  30.681  26.989  1.00  0.00     0.029 A 
ATOM     31  N   UNL A   1      45.177  30.270  27.897  1.00  0.00    -0.354 N 
ATOM     32  N   UNL A   1      42.762  30.951  29.428  1.00  0.00    -0.248 NA
ATOM     33  C   UNL A   1      41.571  32.417  30.802  1.00  0.00     0.031 C 
ATOM     34  C   UNL A   1      46.787  31.793  27.751  1.00  0.00     0.029 A 
ATOM     35  C   UNL A   1      45.539  31.547  28.299  1.00  0.00     0.049 A 
ATOM     36  H   UNL A   1      44.335  29.820  28.138  1.00  0.00     0.167 HD
ATOM     37  C   UNL A   1      43.507  32.107  29.609  1.00  0.00     0.074 A 
ATOM     38  C   UNL A   1      42.711  32.989  30.442  1.00  0.00     0.031 C 
ATOM     39  C   UNL A   1      44.737  32.410  29.130  1.00  0.00     0.037 A 
BRANCH  26  40
ATOM     40  C   UNL A   1      47.340  27.912  25.780  1.00  0.00     0.064 A 
ATOM     41  C   UNL A   1      48.498  27.455  26.430  1.00  0.00     0.173 A 
ATOM     42  C   UNL A   1      47.324  27.883  24.377  1.00  0.00     0.173 A 
ATOM     43  F   UNL A   1      48.571  27.469  27.769  1.00  0.00    -0.203 F 
ATOM     44  C   UNL A   1      49.604  27.018  25.703  1.00  0.00     0.198 A 
ATOM     45  C   UNL A   1      48.420  27.420  23.654  1.00  0.00     0.198 A 
ATOM     46  F   UNL A   1      46.241  28.301  23.704  1.00  0.00    -0.203 F 
ATOM     47  F   UNL A   1      50.716  26.635  26.345  1.00  0.00    -0.200 F 
ATOM     48  C   UNL A   1      49.563  26.997  24.317  1.00  0.00     0.200 A 
ATOM     49  F   UNL A   1      48.374  27.387  22.315  1.00  0.00    -0.200 F 
ATOM     50  F   UNL A   1      50.627  26.576  23.620  1.00  0.00    -0.200 F 
ENDBRANCH  26  40
BRANCH  27  51
ATOM     51  C   UNL A   1      39.268  30.610  31.013  1.00  0.00     0.064 A 
ATOM     52  C   UNL A   1      39.129  30.252  32.360  1.00  0.00     0.173 A 
ATOM     53  C   UNL A   1      38.255  31.386  30.433  1.00  0.00     0.173 A 
ATOM     54  F   UNL A   1      40.066  29.497  32.953  1.00  0.00    -0.203 F 
ATOM     55  C   UNL A   1      38.017  30.651  33.097  1.00  0.00     0.198 A 
ATOM     56  C   UNL A   1      37.156  31.807  31.178  1.00  0.00     0.198 A 
ATOM     57  F   UNL A   1      38.346  31.758  29.148  1.00  0.00    -0.203 F 
ATOM     58  F   UNL A   1      37.893  30.272  34.376  1.00  0.00    -0.200 F 
ATOM     59  C   UNL A   1      37.036  31.436  32.508  1.00  0.00     0.200 A 
ATOM     60  F   UNL A   1      36.221  32.580  30.610  1.00  0.00    -0.200 F 
ATOM     61  F   UNL A   1      35.975  31.832  33.223  1.00  0.00    -0.200 F 
ENDBRANCH  27  51
BRANCH  39  62
ATOM     62  C   UNL A   1      45.287  33.765  29.473  1.00  0.00     0.064 A 
ATOM     63  C   UNL A   1      45.028  34.888  28.675  1.00  0.00     0.173 A 
ATOM     64  C   UNL A   1      46.065  33.942  30.627  1.00  0.00     0.173 A 
ATOM     65  F   UNL A   1      44.304  34.766  27.552  1.00  0.00    -0.203 F 
ATOM     66  C   UNL A   1      45.549  36.136  29.006  1.00  0.00     0.198 A 
ATOM     67  C   UNL A   1      46.560  35.196  30.971  1.00  0.00     0.198 A 
ATOM     68  F   UNL A   1      46.340  32.899  31.425  1.00  0.00    -0.203 F 
ATOM     69  F   UNL A   1      45.330  37.186  28.203  1.00  0.00    -0.200 F 
ATOM     70  C   UNL A   1      46.309  36.290  30.156  1.00  0.00     0.200 A 
ATOM     71  F   UNL A   1      47.286  35.346  32.087  1.00  0.00    -0.200 F 
ATOM     72  F   UNL A   1      46.808  37.493  30.476  1.00  0.00    -0.200 F 
ENDBRANCH  39  62
ENDBRANCH  13  14
ENDBRANCH   6   8
ENDBRANCH   3   4
ENDBRANCH   2   3
ENDBRANCH   1   2
BRANCH   1  73
ATOM     73  C   UNL A   1      34.100  20.800  25.591  1.00  0.00     0.002 C 
BRANCH  73  74
ATOM     74  C   UNL A   1      34.054  21.238  27.059  1.00  0.00     0.021 C 
BRANCH  74  75
ATOM     75  C   UNL A   1      33.878  22.732  27.315  1.00  0.00     0.116 C 
BRANCH  75  76
ATOM     76  N   UNL A   1      32.490  23.114  27.390  1.00  0.00    -0.354 N 
ATOM     77  C   UNL A   1      31.775  24.025  26.681  1.00  0.00     0.242 C 
ATOM     78  H   UNL A   1      31.971  22.631  28.073  1.00  0.00     0.163 HD
ATOM     79  O   UNL A   1      30.600  24.161  27.052  1.00  0.00    -0.273 OA
BRANCH  77  80
ATOM     80  C   UNL A   1      32.390  24.885  25.524  1.00  0.00     0.173 C 
ATOM     81  C   UNL A   1      33.089  24.131  24.385  1.00  0.00     0.035 C 
ATOM     82  N   UNL A   1      31.299  25.658  24.899  1.00  0.00    -0.344 N 
ATOM     83  C   UNL A   1      32.110  23.253  23.608  1.00  0.00     0.004 C 
ATOM     84  C   UNL A   1      30.278  24.933  24.153  1.00  0.00     0.119 C 
ATOM     85  C   UNL A   1      30.945  24.085  23.066  1.00  0.00     0.022 C 
BRANCH  82  86
ATOM     86  C   UNL A   1      31.355  27.029  24.901  1.00  0.00     0.133 A 
ATOM     87  C   UNL A   1      30.477  27.769  24.136  1.00  0.00     0.076 A 
ATOM     88  N   UNL A   1      32.270  27.625  25.679  1.00  0.00    -0.211 NA
ATOM     89  C   UNL A   1      30.565  29.145  24.210  1.00  0.00     0.076 A 
ATOM     90  C   UNL A   1      32.309  28.969  25.667  1.00  0.00     0.162 A 
ATOM     91  N   UNL A   1      31.489  29.768  24.967  1.00  0.00    -0.228 NA
BRANCH  89  92
ATOM     92  C   UNL A   1      29.645  30.015  23.470  1.00  0.00     0.000 A 
ATOM     93  C   UNL A   1      29.356  31.310  23.927  1.00  0.00     0.010 A 
ATOM     94  C   UNL A   1      29.036  29.580  22.280  1.00  0.00     0.010 A 
ATOM     95  C   UNL A   1      28.502  32.151  23.207  1.00  0.00     0.001 A 
ATOM     96  C   UNL A   1      28.174  30.415  21.567  1.00  0.00     0.001 A 
ATOM     97  C   UNL A   1      27.911  31.703  22.028  1.00  0.00     0.000 A 
ENDBRANCH  89  92
BRANCH  90  98
ATOM     98  C   UNL A   1      33.339  29.608  26.488  1.00  0.00     0.021 A 
ATOM     99  C   UNL A   1      34.508  28.914  26.851  1.00  0.00     0.012 A 
ATOM    100  C   UNL A   1      33.182  30.927  26.945  1.00  0.00     0.032 A 
ATOM    101  C   UNL A   1      35.490  29.514  27.642  1.00  0.00     0.002 A 
ATOM    102  C   UNL A   1      34.154  31.516  27.753  1.00  0.00     0.041 A 
ATOM    103  C   UNL A   1      35.309  30.818  28.099  1.00  0.00     0.020 A 
ATOM    104  Cl  UNL A   1      33.920  33.118  28.339  1.00  0.00    -0.084 Cl
ENDBRANCH  90  98
ENDBRANCH  82  86
ENDBRANCH  77  80
ENDBRANCH  75  76
ENDBRANCH  74  75
ENDBRANCH  73  74
ENDBRANCH   1  73
TORSDOF 16
ENDMDL
MODEL 2
REMARK VINA RESULT:     -13.6      4.339     10.090
REMARK SMILES O=C(NCCCCCCNC(=O)[C@H]1CCCCN1c1cc(-c2ccccc2)nc(-c2cccc(Cl)c2)n1)c1ccc(-c2c3nc(c(-c4c(F)c(F)c(F)c(F)c4F)c4ccc([nH]4)c(-c4c(F)c(F)c(F)c(F)c4F)c4nc(c(-c5c(F)c(F)c(F)c(F)c5F)c5ccc2[nH]5)C=C4)C=C3)cc1
REMARK SMILES IDX 6 1 5 2 4 3 3 4 1 5 2 6 38 8 39 9 100 10 40 11 99 12 41 13
REMARK SMILES IDX 42 14 43 15 93 16 44 17 98 18 92 19 94 20 45 21 97 22 91 23
REMARK SMILES IDX 90 24 46 26 78 27 58 28 77 29 59 30 62 31 76 32 95 33 60 34
REMARK SMILES IDX 61 35 75 37 96 38 63 39 47 40 48 41 56 42 49 43 50 44 54 45
REMARK SMILES IDX 57 46 51 47 52 48 55 49 53 50 79 51 80 52 88 53 81 54 82 55
REMARK SMILES IDX 86 56 89 57 83 58 84 59 87 60 85 61 64 62 65 63 73 64 66 65
REMARK SMILES IDX 67 66 71 67 74 68 68 69 69 70 72 71 70 72 7 73 8 74 9 75
REMARK SMILES IDX 10 76 11 77 12 79 13 80 14 81 18 82 15 83 17 84 16 85 19 86
REMARK SMILES IDX 20 87 37 88 21 89 29 90 28 91 22 92 23 93 27 94 24 95 26 96
REMARK SMILES IDX 25 97 30 98 31 99 36 100 32 101 34 102 33 103 35 104
REMARK H PARENT 3 7 94 25 62 36 10 78
REMARK Flexibility Score: inf
ROOT
ATOM      1  C   UNL A   1      34.031  28.354  23.982  1.00  0.00     0.002 C 
ENDROOT
BRANCH   1   2
ATOM      2  C   UNL A   1      32.864  29.106  24.622  1.00  0.00     0.021 C 
BRANCH   2   3
ATOM      3  C   UNL A   1      33.049  29.486  26.085  1.00  0.00     0.116 C 
BRANCH   3   4
ATOM      4  N   UNL A   1      32.729  30.873  26.365  1.00  0.00    -0.352 N 
ATOM      5  O   UNL A   1      32.906  32.870  27.405  1.00  0.00    -0.269 OA
ATOM      6  C   UNL A   1      33.373  31.759  27.198  1.00  0.00     0.251 C 
ATOM      7  H   UNL A   1      31.943  31.230  25.894  1.00  0.00     0.163 HD
BRANCH   6   8
ATOM      8  C   UNL A   1      34.623  31.346  27.876  1.00  0.00     0.039 A 
ATOM      9  C   UNL A   1      34.781  30.046  28.362  1.00  0.00     0.014 A 
ATOM     10  C   UNL A   1      35.649  32.282  28.026  1.00  0.00     0.014 A 
ATOM     11  C   UNL A   1      35.904  29.722  29.116  1.00  0.00     0.010 A 
ATOM     12  C   UNL A   1      36.814  31.930  28.713  1.00  0.00     0.010 A 
ATOM     13  C   UNL A   1      36.937  30.657  29.289  1.00  0.00    -0.014 A 
BRANCH  13  14
ATOM     14  C   UNL A   1      38.166  30.261  30.023  1.00  0.00     0.031 A 
ATOM     15  C   UNL A   1      38.407  30.706  31.437  1.00  0.00     0.074 A 
ATOM     16  C   UNL A   1      39.062  29.473  29.399  1.00  0.00     0.049 A 
ATOM     17  N   UNL A   1      39.420  30.441  32.225  1.00  0.00    -0.248 NA
ATOM     18  C   UNL A   1      37.386  31.570  32.045  1.00  0.00     0.031 C 
ATOM     19  C   UNL A   1      38.939  28.988  28.024  1.00  0.00     0.029 A 
ATOM     20  N   UNL A   1      40.242  28.931  29.839  1.00  0.00    -0.354 N 
ATOM     21  C   UNL A   1      39.168  31.118  33.410  1.00  0.00     0.074 A 
ATOM     22  C   UNL A   1      37.920  31.830  33.230  1.00  0.00     0.031 C 
ATOM     23  C   UNL A   1      39.975  28.184  27.747  1.00  0.00     0.029 A 
ATOM     24  C   UNL A   1      40.865  28.145  28.902  1.00  0.00     0.049 A 
ATOM     25  H   UNL A   1      40.607  29.089  30.740  1.00  0.00     0.167 HD
ATOM     26  C   UNL A   1      39.910  31.137  34.544  1.00  0.00     0.037 A 
ATOM     27  C   UNL A   1      42.031  27.477  28.959  1.00  0.00     0.037 A 
ATOM     28  C   UNL A   1      41.146  30.416  34.719  1.00  0.00     0.049 A 
ATOM     29  C   UNL A   1      42.845  27.537  30.219  1.00  0.00     0.074 A 
ATOM     30  C   UNL A   1      41.949  30.336  35.844  1.00  0.00     0.029 A 
ATOM     31  N   UNL A   1      41.764  29.658  33.735  1.00  0.00    -0.354 N 
ATOM     32  N   UNL A   1      42.577  28.149  31.347  1.00  0.00    -0.248 NA
ATOM     33  C   UNL A   1      44.125  26.818  30.211  1.00  0.00     0.031 C 
ATOM     34  C   UNL A   1      43.077  29.570  35.525  1.00  0.00     0.029 A 
ATOM     35  C   UNL A   1      42.951  29.128  34.218  1.00  0.00     0.049 A 
ATOM     36  H   UNL A   1      41.411  29.516  32.826  1.00  0.00     0.167 HD
ATOM     37  C   UNL A   1      43.644  27.874  32.191  1.00  0.00     0.074 A 
ATOM     38  C   UNL A   1      44.555  27.026  31.447  1.00  0.00     0.031 C 
ATOM     39  C   UNL A   1      43.849  28.288  33.464  1.00  0.00     0.037 A 
BRANCH  26  40
ATOM     40  C   UNL A   1      39.417  31.986  35.682  1.00  0.00     0.064 A 
ATOM     41  C   UNL A   1      39.844  33.311  35.857  1.00  0.00     0.173 A 
ATOM     42  C   UNL A   1      38.482  31.474  36.597  1.00  0.00     0.173 A 
ATOM     43  F   UNL A   1      40.742  33.848  35.019  1.00  0.00    -0.203 F 
ATOM     44  C   UNL A   1      39.378  34.080  36.922  1.00  0.00     0.198 A 
ATOM     45  C   UNL A   1      37.998  32.254  37.643  1.00  0.00     0.198 A 
ATOM     46  F   UNL A   1      38.034  30.215  36.473  1.00  0.00    -0.203 F 
ATOM     47  F   UNL A   1      39.839  35.326  37.098  1.00  0.00    -0.200 F 
ATOM     48  C   UNL A   1      38.453  33.554  37.811  1.00  0.00     0.200 A 
ATOM     49  F   UNL A   1      37.094  31.747  38.493  1.00  0.00    -0.200 F 
ATOM     50  F   UNL A   1      38.006  34.295  38.834  1.00  0.00    -0.200 F 
ENDBRANCH  26  40
BRANCH  27  51
ATOM     51  C   UNL A   1      42.479  26.687  27.785  1.00  0.00     0.064 A 
ATOM     52  C   UNL A   1      43.261  27.273  26.782  1.00  0.00     0.173 A 
ATOM     53  C   UNL A   1      42.167  25.325  27.661  1.00  0.00     0.173 A 
ATOM     54  F   UNL A   1      43.571  28.576  26.850  1.00  0.00    -0.203 F 
ATOM     55  C   UNL A   1      43.711  26.527  25.695  1.00  0.00     0.198 A 
ATOM     56  C   UNL A   1      42.640  24.574  26.588  1.00  0.00     0.198 A 
ATOM     57  F   UNL A   1      41.425  24.718  28.600  1.00  0.00    -0.203 F 
ATOM     58  F   UNL A   1      44.434  27.118  24.735  1.00  0.00    -0.200 F 
ATOM     59  C   UNL A   1      43.407  25.176  25.604  1.00  0.00     0.200 A 
ATOM     60  F   UNL A   1      42.359  23.266  26.514  1.00  0.00    -0.200 F 
ATOM     61  F   UNL A   1      43.854  24.457  24.566  1.00  0.00    -0.200 F 
ENDBRANCH  27  51
BRANCH  39  62
ATOM     62  C   UNL A   1      45.096  27.804  34.145  1.00  0.00     0.064 A 
ATOM     63  C   UNL A   1      46.299  28.521  34.074  1.00  0.00     0.173 A 
ATOM     64  C   UNL A   1      45.079  26.619  34.896  1.00  0.00     0.173 A 
ATOM     65  F   UNL A   1      46.370  29.650  33.353  1.00  0.00    -0.203 F 
ATOM     66  C   UNL A   1      47.448  28.055  34.708  1.00  0.00     0.198 A 
ATOM     67  C   UNL A   1      46.222  26.172  35.553  1.00  0.00     0.198 A 
ATOM     68  F   UNL A   1      43.952  25.898  34.998  1.00  0.00    -0.203 F 
ATOM     69  F   UNL A   1      48.599  28.730  34.586  1.00  0.00    -0.200 F 
ATOM     70  C   UNL A   1      47.407  26.885  35.452  1.00  0.00     0.200 A 
ATOM     71  F   UNL A   1      46.178  25.047  36.280  1.00  0.00    -0.200 F 
ATOM     72  F   UNL A   1      48.512  26.440  36.066  1.00  0.00    -0.200 F 
ENDBRANCH  39  62
ENDBRANCH  13  14
ENDBRANCH   6   8
ENDBRANCH   3   4
ENDBRANCH   2   3
ENDBRANCH   1   2
BRANCH   1  73
ATOM     73  C   UNL A   1      33.963  28.185  22.463  1.00  0.00     0.002 C 
BRANCH  73  74
ATOM     74  C   UNL A   1      32.715  27.492  21.903  1.00  0.00     0.021 C 
BRANCH  74  75
ATOM     75  C   UNL A   1      32.851  26.005  21.584  1.00  0.00     0.116 C 
BRANCH  75  76
ATOM     76  N   UNL A   1      31.664  25.262  21.924  1.00  0.00    -0.354 N 
ATOM     77  C   UNL A   1      31.339  24.558  23.038  1.00  0.00     0.242 C 
ATOM     78  H   UNL A   1      30.968  25.266  21.227  1.00  0.00     0.163 HD
ATOM     79  O   UNL A   1      30.251  23.968  22.977  1.00  0.00    -0.273 OA
BRANCH  77  80
ATOM     80  C   UNL A   1      32.282  24.443  24.285  1.00  0.00     0.173 C 
ATOM     81  C   UNL A   1      32.151  25.525  25.365  1.00  0.00     0.035 C 
ATOM     82  N   UNL A   1      32.003  23.157  24.953  1.00  0.00    -0.344 N 
ATOM     83  C   UNL A   1      30.779  25.490  26.033  1.00  0.00     0.004 C 
ATOM     84  C   UNL A   1      30.709  22.984  25.603  1.00  0.00     0.119 C 
ATOM     85  C   UNL A   1      30.495  24.107  26.622  1.00  0.00     0.022 C 
BRANCH  82  86
ATOM     86  C   UNL A   1      33.006  22.230  25.081  1.00  0.00     0.133 A 
ATOM     87  C   UNL A   1      32.737  20.883  24.950  1.00  0.00     0.076 A 
ATOM     88  N   UNL A   1      34.250  22.670  25.314  1.00  0.00    -0.211 NA
ATOM     89  C   UNL A   1      33.798  20.005  25.055  1.00  0.00     0.076 A 
ATOM     90  C   UNL A   1      35.219  21.746  25.436  1.00  0.00     0.162 A 
ATOM     91  N   UNL A   1      35.054  20.420  25.312  1.00  0.00    -0.228 NA
BRANCH  89  92
ATOM     92  C   UNL A   1      33.620  18.559  24.885  1.00  0.00     0.000 A 
ATOM     93  C   UNL A   1      32.759  17.837  25.727  1.00  0.00     0.010 A 
ATOM     94  C   UNL A   1      34.296  17.860  23.869  1.00  0.00     0.010 A 
ATOM     95  C   UNL A   1      32.565  16.465  25.548  1.00  0.00     0.001 A 
ATOM     96  C   UNL A   1      34.112  16.487  23.698  1.00  0.00     0.001 A 
ATOM     97  C   UNL A   1      33.242  15.790  24.533  1.00  0.00     0.000 A 
ENDBRANCH  89  92
BRANCH  90  98
ATOM     98  C   UNL A   1      36.567  22.236  25.733  1.00  0.00     0.021 A 
ATOM     99  C   UNL A   1      36.805  23.603  25.961  1.00  0.00     0.012 A 
ATOM    100  C   UNL A   1      37.659  21.354  25.786  1.00  0.00     0.032 A 
ATOM    101  C   UNL A   1      38.089  24.078  26.235  1.00  0.00     0.002 A 
ATOM    102  C   UNL A   1      38.944  21.834  26.039  1.00  0.00     0.041 A 
ATOM    103  C   UNL A   1      39.163  23.191  26.268  1.00  0.00     0.020 A 
ATOM    104  Cl  UNL A   1      40.275  20.743  26.054  1.00  0.00    -0.084 Cl
ENDBRANCH  90  98
ENDBRANCH  82  86
ENDBRANCH  77  80
ENDBRANCH  75  76
ENDBRANCH  74  75
ENDBRANCH  73  74
ENDBRANCH   1  73
TORSDOF 16
ENDMDL
MODEL 3
REMARK VINA RESULT:     -13.1      4.610      9.958
REMARK SMILES O=C(NCCCCCCNC(=O)[C@H]1CCCCN1c1cc(-c2ccccc2)nc(-c2cccc(Cl)c2)n1)c1ccc(-c2c3nc(c(-c4c(F)c(F)c(F)c(F)c4F)c4ccc([nH]4)c(-c4c(F)c(F)c(F)c(F)c4F)c4nc(c(-c5c(F)c(F)c(F)c(F)c5F)c5ccc2[nH]5)C=C4)C=C3)cc1
REMARK SMILES IDX 6 1 5 2 4 3 3 4 1 5 2 6 38 8 39 9 100 10 40 11 99 12 41 13
REMARK SMILES IDX 42 14 43 15 93 16 44 17 98 18 92 19 94 20 45 21 97 22 91 23
REMARK SMILES IDX 90 24 46 26 78 27 58 28 77 29 59 30 62 31 76 32 95 33 60 34
REMARK SMILES IDX 61 35 75 37 96 38 63 39 47 40 48 41 56 42 49 43 50 44 54 45
REMARK SMILES IDX 57 46 51 47 52 48 55 49 53 50 79 51 80 52 88 53 81 54 82 55
REMARK SMILES IDX 86 56 89 57 83 58 84 59 87 60 85 61 64 62 65 63 73 64 66 65
REMARK SMILES IDX 67 66 71 67 74 68 68 69 69 70 72 71 70 72 7 73 8 74 9 75
REMARK SMILES IDX 10 76 11 77 12 79 13 80 14 81 18 82 15 83 17 84 16 85 19 86
REMARK SMILES IDX 20 87 37 88 21 89 29 90 28 91 22 92 23 93 27 94 24 95 26 96
REMARK SMILES IDX 25 97 30 98 31 99 36 100 32 101 34 102 33 103 35 104
REMARK H PARENT 3 7 94 25 62 36 10 78
REMARK Flexibility Score: inf
ROOT
ATOM      1  C   UNL A   1      34.013  28.120  24.645  1.00  0.00     0.002 C 
ENDROOT
BRANCH   1   2
ATOM      2  C   UNL A   1      33.638  28.497  26.078  1.00  0.00     0.021 C 
BRANCH   2   3
ATOM      3  C   UNL A   1      34.735  29.171  26.890  1.00  0.00     0.116 C 
BRANCH   3   4
ATOM      4  N   UNL A   1      34.321  30.428  27.486  1.00  0.00    -0.352 N 
ATOM      5  O   UNL A   1      34.391  32.149  28.946  1.00  0.00    -0.269 OA
ATOM      6  C   UNL A   1      34.933  31.157  28.479  1.00  0.00     0.251 C 
ATOM      7  H   UNL A   1      33.489  30.812  27.130  1.00  0.00     0.163 HD
BRANCH   6   8
ATOM      8  C   UNL A   1      36.242  30.713  29.011  1.00  0.00     0.039 A 
ATOM      9  C   UNL A   1      37.432  31.302  28.574  1.00  0.00     0.014 A 
ATOM     10  C   UNL A   1      36.272  29.690  29.960  1.00  0.00     0.014 A 
ATOM     11  C   UNL A   1      38.653  30.775  28.981  1.00  0.00     0.010 A 
ATOM     12  C   UNL A   1      37.500  29.216  30.432  1.00  0.00     0.010 A 
ATOM     13  C   UNL A   1      38.699  29.736  29.924  1.00  0.00    -0.014 A 
BRANCH  13  14
ATOM     14  C   UNL A   1      40.015  29.248  30.410  1.00  0.00     0.031 A 
ATOM     15  C   UNL A   1      40.682  29.867  31.606  1.00  0.00     0.074 A 
ATOM     16  C   UNL A   1      40.599  28.221  29.765  1.00  0.00     0.049 A 
ATOM     17  N   UNL A   1      41.823  29.554  32.168  1.00  0.00    -0.248 NA
ATOM     18  C   UNL A   1      39.984  30.988  32.249  1.00  0.00     0.031 C 
ATOM     19  C   UNL A   1      40.050  27.549  28.587  1.00  0.00     0.029 A 
ATOM     20  N   UNL A   1      41.771  27.553  30.014  1.00  0.00    -0.354 N 
ATOM     21  C   UNL A   1      41.990  30.449  33.215  1.00  0.00     0.074 A 
ATOM     22  C   UNL A   1      40.845  31.336  33.196  1.00  0.00     0.031 C 
ATOM     23  C   UNL A   1      40.858  26.537  28.241  1.00  0.00     0.029 A 
ATOM     24  C   UNL A   1      42.010  26.527  29.136  1.00  0.00     0.049 A 
ATOM     25  H   UNL A   1      42.380  27.788  30.751  1.00  0.00     0.167 HD
ATOM     26  C   UNL A   1      43.003  30.518  34.114  1.00  0.00     0.037 A 
ATOM     27  C   UNL A   1      43.050  25.676  29.049  1.00  0.00     0.037 A 
ATOM     28  C   UNL A   1      44.133  29.624  34.133  1.00  0.00     0.049 A 
ATOM     29  C   UNL A   1      44.170  25.792  30.041  1.00  0.00     0.074 A 
ATOM     30  C   UNL A   1      45.189  29.584  35.027  1.00  0.00     0.029 A 
ATOM     31  N   UNL A   1      44.359  28.616  33.206  1.00  0.00    -0.354 N 
ATOM     32  N   UNL A   1      44.297  26.617  31.051  1.00  0.00    -0.248 NA
ATOM     33  C   UNL A   1      45.294  24.862  29.876  1.00  0.00     0.031 C 
ATOM     34  C   UNL A   1      46.078  28.585  34.613  1.00  0.00     0.029 A 
ATOM     35  C   UNL A   1      45.551  27.966  33.491  1.00  0.00     0.049 A 
ATOM     36  H   UNL A   1      43.761  28.394  32.455  1.00  0.00     0.167 HD
ATOM     37  C   UNL A   1      45.504  26.295  31.656  1.00  0.00     0.074 A 
ATOM     38  C   UNL A   1      46.063  25.187  30.906  1.00  0.00     0.031 C 
ATOM     39  C   UNL A   1      46.095  26.866  32.733  1.00  0.00     0.037 A 
BRANCH  26  40
ATOM     40  C   UNL A   1      42.948  31.615  35.139  1.00  0.00     0.064 A 
ATOM     41  C   UNL A   1      43.535  32.870  34.913  1.00  0.00     0.173 A 
ATOM     42  C   UNL A   1      42.276  31.417  36.356  1.00  0.00     0.173 A 
ATOM     43  F   UNL A   1      44.198  33.110  33.772  1.00  0.00    -0.203 F 
ATOM     44  C   UNL A   1      43.479  33.873  35.879  1.00  0.00     0.198 A 
ATOM     45  C   UNL A   1      42.197  32.431  37.307  1.00  0.00     0.198 A 
ATOM     46  F   UNL A   1      41.691  30.240  36.621  1.00  0.00    -0.203 F 
ATOM     47  F   UNL A   1      44.091  35.045  35.661  1.00  0.00    -0.200 F 
ATOM     48  C   UNL A   1      42.806  33.655  37.072  1.00  0.00     0.200 A 
ATOM     49  F   UNL A   1      41.536  32.222  38.454  1.00  0.00    -0.200 F 
ATOM     50  F   UNL A   1      42.752  34.621  37.999  1.00  0.00    -0.200 F 
ENDBRANCH  26  40
BRANCH  27  51
ATOM     51  C   UNL A   1      43.058  24.638  27.988  1.00  0.00     0.064 A 
ATOM     52  C   UNL A   1      43.483  24.944  26.689  1.00  0.00     0.173 A 
ATOM     53  C   UNL A   1      42.680  23.316  28.260  1.00  0.00     0.173 A 
ATOM     54  F   UNL A   1      43.839  26.199  26.379  1.00  0.00    -0.203 F 
ATOM     55  C   UNL A   1      43.524  23.966  25.699  1.00  0.00     0.198 A 
ATOM     56  C   UNL A   1      42.748  22.332  27.276  1.00  0.00     0.198 A 
ATOM     57  F   UNL A   1      42.272  22.973  29.491  1.00  0.00    -0.203 F 
ATOM     58  F   UNL A   1      43.906  24.289  24.456  1.00  0.00    -0.200 F 
ATOM     59  C   UNL A   1      43.165  22.659  25.996  1.00  0.00     0.200 A 
ATOM     60  F   UNL A   1      42.418  21.067  27.573  1.00  0.00    -0.200 F 
ATOM     61  F   UNL A   1      43.220  21.715  25.046  1.00  0.00    -0.200 F 
ENDBRANCH  27  51
BRANCH  39  62
ATOM     62  C   UNL A   1      47.403  26.282  33.182  1.00  0.00     0.064 A 
ATOM     63  C   UNL A   1      48.629  26.819  32.769  1.00  0.00     0.173 A 
ATOM     64  C   UNL A   1      47.425  25.184  34.055  1.00  0.00     0.173 A 
ATOM     65  F   UNL A   1      48.660  27.858  31.920  1.00  0.00    -0.203 F 
ATOM     66  C   UNL A   1      49.833  26.263  33.192  1.00  0.00     0.198 A 
ATOM     67  C   UNL A   1      48.630  24.648  34.500  1.00  0.00     0.198 A 
ATOM     68  F   UNL A   1      46.278  24.635  34.483  1.00  0.00    -0.203 F 
ATOM     69  F   UNL A   1      50.994  26.760  32.745  1.00  0.00    -0.200 F 
ATOM     70  C   UNL A   1      49.833  25.182  34.062  1.00  0.00     0.200 A 
ATOM     71  F   UNL A   1      48.628  23.611  35.349  1.00  0.00    -0.200 F 
ATOM     72  F   UNL A   1      50.992  24.649  34.472  1.00  0.00    -0.200 F 
ENDBRANCH  39  62
ENDBRANCH  13  14
ENDBRANCH   6   8
ENDBRANCH   3   4
ENDBRANCH   2   3
ENDBRANCH   1   2
BRANCH   1  73
ATOM     73  C   UNL A   1      33.307  28.910  23.540  1.00  0.00     0.002 C 
BRANCH  73  74
ATOM     74  C   UNL A   1      32.281  28.145  22.696  1.00  0.00     0.021 C 
BRANCH  74  75
ATOM     75  C   UNL A   1      32.664  26.726  22.286  1.00  0.00     0.116 C 
BRANCH  75  76
ATOM     76  N   UNL A   1      31.563  25.804  22.412  1.00  0.00    -0.354 N 
ATOM     77  C   UNL A   1      31.279  24.876  23.362  1.00  0.00     0.242 C 
ATOM     78  H   UNL A   1      30.903  25.857  21.683  1.00  0.00     0.163 HD
ATOM     79  O   UNL A   1      30.275  24.189  23.127  1.00  0.00    -0.273 OA
BRANCH  77  80
ATOM     80  C   UNL A   1      32.174  24.643  24.627  1.00  0.00     0.173 C 
ATOM     81  C   UNL A   1      31.831  25.449  25.886  1.00  0.00     0.035 C 
ATOM     82  N   UNL A   1      32.069  23.220  25.005  1.00  0.00    -0.344 N 
ATOM     83  C   UNL A   1      30.453  25.080  26.432  1.00  0.00     0.004 C 
ATOM     84  C   UNL A   1      30.792  22.733  25.511  1.00  0.00     0.119 C 
ATOM     85  C   UNL A   1      30.362  23.579  26.713  1.00  0.00     0.022 C 
BRANCH  82  86
ATOM     86  C   UNL A   1      33.198  22.440  25.020  1.00  0.00     0.133 A 
ATOM     87  C   UNL A   1      34.424  22.985  25.342  1.00  0.00     0.076 A 
ATOM     88  N   UNL A   1      33.071  21.136  24.735  1.00  0.00    -0.211 NA
ATOM     89  C   UNL A   1      35.513  22.137  25.373  1.00  0.00     0.076 A 
ATOM     90  C   UNL A   1      34.188  20.388  24.755  1.00  0.00     0.162 A 
ATOM     91  N   UNL A   1      35.416  20.828  25.068  1.00  0.00    -0.228 NA
BRANCH  89  92
ATOM     92  C   UNL A   1      36.848  22.614  25.748  1.00  0.00     0.000 A 
ATOM     93  C   UNL A   1      37.055  23.950  26.125  1.00  0.00     0.010 A 
ATOM     94  C   UNL A   1      37.954  21.746  25.751  1.00  0.00     0.010 A 
ATOM     95  C   UNL A   1      38.320  24.400  26.511  1.00  0.00     0.001 A 
ATOM     96  C   UNL A   1      39.221  22.197  26.125  1.00  0.00     0.001 A 
ATOM     97  C   UNL A   1      39.403  23.523  26.511  1.00  0.00     0.000 A 
ENDBRANCH  89  92
BRANCH  90  98
ATOM     98  C   UNL A   1      34.044  18.975  24.401  1.00  0.00     0.021 A 
ATOM     99  C   UNL A   1      33.050  18.554  23.499  1.00  0.00     0.012 A 
ATOM    100  C   UNL A   1      34.887  18.001  24.962  1.00  0.00     0.032 A 
ATOM    101  C   UNL A   1      32.902  17.206  23.164  1.00  0.00     0.002 A 
ATOM    102  C   UNL A   1      34.722  16.654  24.642  1.00  0.00     0.041 A 
ATOM    103  C   UNL A   1      33.737  16.253  23.743  1.00  0.00     0.020 A 
ATOM    104  Cl  UNL A   1      35.737  15.472  25.376  1.00  0.00    -0.084 Cl
ENDBRANCH  90  98
ENDBRANCH  82  86
ENDBRANCH  77  80
ENDBRANCH  75  76
ENDBRANCH  74  75
ENDBRANCH  73  74
ENDBRANCH   1  73
TORSDOF 16
ENDMDL
