MODEL 1
REMARK VINA RESULT:     -14.5      0.000      0.000
REMARK SMILES Cc1cccc(N2CCN(c3ncc(NC(=O)c4ccccc4F)cc3C(=O)NCCCCCCNC(=O)c3ccc(-c4c5nc(c(-c6c(F)c(F)c(F)c(F)c6F)c6ccc([nH]6)c(-c6c(F)c(F)c(F)c(F)c6F)c6nc(c(-c7c(F)c(F)c(F)c(F)c7F)c7ccc4[nH]7)C=C6)C=C5)cc3)C[C@@H]2C)c1
REMARK SMILES IDX 32 1 31 2 30 3 29 4 27 5 28 6 26 8 11 9 12 10 13 11 25 12
REMARK SMILES IDX 14 13 10 14 7 15 8 16 103 17 9 18 102 19 104 20 6 21 1 22
REMARK SMILES IDX 2 23 3 24 105 25 4 26 5 27 15 28 16 29 17 31 18 32 19 33
REMARK SMILES IDX 23 34 20 35 22 36 24 37 21 38 33 39 34 40 35 41 36 42 37 43
REMARK SMILES IDX 38 45 39 46 40 47 101 48 41 49 100 50 42 51 43 52 44 53
REMARK SMILES IDX 94 54 45 55 99 56 93 57 95 58 46 59 98 60 92 61 91 62 47 64
REMARK SMILES IDX 79 65 59 66 78 67 60 68 63 69 77 70 96 71 61 72 62 73 76 75
REMARK SMILES IDX 97 76 64 77 48 78 49 79 57 80 50 81 51 82 55 83 58 84 52 85
REMARK SMILES IDX 53 86 56 87 54 88 80 89 81 90 89 91 82 92 83 93 87 94 90 95
REMARK SMILES IDX 84 96 85 97 88 98 86 99 65 100 66 101 74 102 67 103 68 104
REMARK SMILES IDX 72 105 75 106 69 107 70 108 73 109 71 110
REMARK H PARENT 29 7 15 30 36 44 95 63 63 74
REMARK Flexibility Score: inf
ROOT
ATOM      1  C   UNL A   1      31.837  27.531  26.388  1.00  0.00     0.002 C 
ENDROOT
BRANCH   1   2
ATOM      2  C   UNL A   1      32.799  26.336  26.472  1.00  0.00     0.021 C 
BRANCH   2   3
ATOM      3  C   UNL A   1      34.077  26.512  25.638  1.00  0.00     0.116 C 
BRANCH   3   4
ATOM      4  N   UNL A   1      33.738  26.739  24.247  1.00  0.00    -0.352 N 
ATOM      5  C   UNL A   1      33.717  25.741  23.298  1.00  0.00     0.255 C 
ATOM      6  O   UNL A   1      34.524  25.776  22.374  1.00  0.00    -0.269 OA
ATOM      7  H   UNL A   1      33.511  27.654  23.967  1.00  0.00     0.163 HD
BRANCH   5   8
ATOM      8  C   UNL A   1      32.720  24.658  23.415  1.00  0.00     0.084 A 
ATOM      9  C   UNL A   1      31.345  24.888  23.232  1.00  0.00     0.141 A 
ATOM     10  N   UNL A   1      30.460  23.869  23.408  1.00  0.00    -0.236 NA
ATOM     11  C   UNL A   1      30.924  22.641  23.762  1.00  0.00     0.139 A 
ATOM     12  C   UNL A   1      33.168  23.385  23.779  1.00  0.00     0.045 A 
ATOM     13  C   UNL A   1      32.261  22.358  23.979  1.00  0.00     0.060 A 
BRANCH   9  14
ATOM     14  N   UNL A   1      30.813  26.142  23.007  1.00  0.00    -0.352 N 
ATOM     15  N   UNL A   1      29.765  28.778  22.717  1.00  0.00    -0.365 N 
ATOM     16  C   UNL A   1      29.369  27.942  23.867  1.00  0.00     0.138 C 
ATOM     17  C   UNL A   1      31.038  28.426  22.033  1.00  0.00     0.098 C 
ATOM     18  C   UNL A   1      29.473  26.435  23.538  1.00  0.00     0.139 C 
ATOM     19  C   UNL A   1      31.098  26.890  21.768  1.00  0.00     0.142 C 
ATOM     20  C   UNL A   1      32.235  28.904  22.865  1.00  0.00     0.033 C 
BRANCH  15  21
ATOM     21  C   UNL A   1      29.286  30.076  22.623  1.00  0.00     0.037 A 
ATOM     22  C   UNL A   1      27.756  32.340  19.951  1.00  0.00     0.044 C 
ATOM     23  C   UNL A   1      28.292  31.859  21.266  1.00  0.00    -0.049 A 
ATOM     24  C   UNL A   1      28.194  32.669  22.400  1.00  0.00     0.003 A 
ATOM     25  C   UNL A   1      28.851  30.577  21.389  1.00  0.00     0.029 A 
ATOM     26  C   UNL A   1      28.645  32.203  23.631  1.00  0.00     0.002 A 
ATOM     27  C   UNL A   1      29.179  30.916  23.739  1.00  0.00     0.026 A 
ENDBRANCH  15  21
ENDBRANCH   9  14
BRANCH  13  28
ATOM     28  N   UNL A   1      32.762  21.132  24.443  1.00  0.00    -0.320 N 
ATOM     29  C   UNL A   1      34.056  20.742  24.686  1.00  0.00     0.258 C 
ATOM     30  H   UNL A   1      32.080  20.444  24.622  1.00  0.00     0.170 HD
ATOM     31  O   UNL A   1      34.332  19.544  24.739  1.00  0.00    -0.269 OA
BRANCH  29  32
ATOM     32  C   UNL A   1      35.102  21.734  25.008  1.00  0.00     0.075 A 
ATOM     33  C   UNL A   1      36.220  21.827  24.172  1.00  0.00     0.017 A 
ATOM     34  C   UNL A   1      35.061  22.492  26.181  1.00  0.00     0.135 A 
ATOM     35  C   UNL A   1      37.249  22.720  24.480  1.00  0.00     0.001 A 
ATOM     36  C   UNL A   1      36.070  23.403  26.476  1.00  0.00     0.040 A 
ATOM     37  F   UNL A   1      34.074  22.342  27.076  1.00  0.00    -0.206 F 
ATOM     38  C   UNL A   1      37.164  23.519  25.622  1.00  0.00     0.003 A 
ENDBRANCH  29  32
ENDBRANCH  13  28
ENDBRANCH   5   8
ENDBRANCH   3   4
ENDBRANCH   2   3
ENDBRANCH   1   2
BRANCH   1  39
ATOM     39  C   UNL A   1      31.911  28.527  27.558  1.00  0.00     0.002 C 
BRANCH  39  40
ATOM     40  C   UNL A   1      32.097  29.993  27.164  1.00  0.00     0.021 C 
BRANCH  40  41
ATOM     41  C   UNL A   1      33.540  30.365  26.862  1.00  0.00     0.116 C 
BRANCH  41  42
ATOM     42  N   UNL A   1      34.072  31.408  27.726  1.00  0.00    -0.352 N 
ATOM     43  C   UNL A   1      35.132  31.379  28.616  1.00  0.00     0.251 C 
ATOM     44  H   UNL A   1      33.604  32.272  27.668  1.00  0.00     0.163 HD
ATOM     45  O   UNL A   1      35.341  32.339  29.339  1.00  0.00    -0.269 OA
BRANCH  43  46
ATOM     46  C   UNL A   1      36.102  30.255  28.580  1.00  0.00     0.039 A 
ATOM     47  C   UNL A   1      36.331  29.551  29.772  1.00  0.00     0.014 A 
ATOM     48  C   UNL A   1      36.927  30.045  27.484  1.00  0.00     0.014 A 
ATOM     49  C   UNL A   1      37.524  28.854  29.940  1.00  0.00     0.010 A 
ATOM     50  C   UNL A   1      38.163  29.481  27.690  1.00  0.00     0.010 A 
ATOM     51  C   UNL A   1      38.482  28.938  28.938  1.00  0.00    -0.014 A 
BRANCH  51  52
ATOM     52  C   UNL A   1      39.870  28.531  29.079  1.00  0.00     0.031 A 
ATOM     53  C   UNL A   1      40.261  27.163  28.685  1.00  0.00     0.074 A 
ATOM     54  C   UNL A   1      40.798  29.478  29.342  1.00  0.00     0.049 A 
ATOM     55  N   UNL A   1      41.403  26.627  28.944  1.00  0.00    -0.248 NA
ATOM     56  C   UNL A   1      39.358  26.262  27.980  1.00  0.00     0.031 C 
ATOM     57  C   UNL A   1      42.238  29.395  29.117  1.00  0.00     0.029 A 
ATOM     58  N   UNL A   1      40.624  30.681  30.048  1.00  0.00    -0.354 N 
ATOM     59  C   UNL A   1      41.497  25.456  28.225  1.00  0.00     0.074 A 
ATOM     60  C   UNL A   1      40.174  25.245  27.692  1.00  0.00     0.031 C 
ATOM     61  C   UNL A   1      42.852  30.300  29.897  1.00  0.00     0.029 A 
ATOM     62  C   UNL A   1      41.834  30.870  30.761  1.00  0.00     0.049 A 
ATOM     63  H   UNL A   1      39.834  31.267  30.045  1.00  0.00     0.167 HD
ATOM     64  C   UNL A   1      42.729  24.885  28.078  1.00  0.00     0.037 A 
ATOM     65  C   UNL A   1      41.865  30.817  32.125  1.00  0.00     0.037 A 
ATOM     66  C   UNL A   1      43.715  25.590  28.898  1.00  0.00     0.049 A 
ATOM     67  C   UNL A   1      42.767  29.735  32.666  1.00  0.00     0.074 A 
ATOM     68  C   UNL A   1      44.654  26.567  28.610  1.00  0.00     0.029 A 
ATOM     69  N   UNL A   1      43.589  25.560  30.284  1.00  0.00    -0.354 N 
ATOM     70  N   UNL A   1      43.099  28.664  31.999  1.00  0.00    -0.248 NA
ATOM     71  C   UNL A   1      43.363  29.773  33.998  1.00  0.00     0.031 C 
ATOM     72  C   UNL A   1      45.054  27.163  29.833  1.00  0.00     0.029 A 
ATOM     73  C   UNL A   1      44.378  26.533  30.864  1.00  0.00     0.049 A 
ATOM     74  H   UNL A   1      43.018  24.931  30.782  1.00  0.00     0.167 HD
ATOM     75  C   UNL A   1      43.929  27.887  32.765  1.00  0.00     0.074 A 
ATOM     76  C   UNL A   1      44.069  28.628  34.005  1.00  0.00     0.031 C 
ATOM     77  C   UNL A   1      44.428  26.698  32.310  1.00  0.00     0.037 A 
BRANCH  64  78
ATOM     78  C   UNL A   1      43.109  23.873  27.011  1.00  0.00     0.064 A 
ATOM     79  C   UNL A   1      42.760  22.510  27.162  1.00  0.00     0.173 A 
ATOM     80  C   UNL A   1      43.861  24.149  25.854  1.00  0.00     0.173 A 
ATOM     81  F   UNL A   1      41.966  22.095  28.158  1.00  0.00    -0.203 F 
ATOM     82  C   UNL A   1      43.217  21.510  26.297  1.00  0.00     0.198 A 
ATOM     83  C   UNL A   1      44.355  23.146  25.013  1.00  0.00     0.198 A 
ATOM     84  F   UNL A   1      44.097  25.400  25.449  1.00  0.00    -0.203 F 
ATOM     85  F   UNL A   1      42.857  20.236  26.506  1.00  0.00    -0.200 F 
ATOM     86  C   UNL A   1      44.041  21.824  25.239  1.00  0.00     0.200 A 
ATOM     87  F   UNL A   1      45.135  23.478  23.973  1.00  0.00    -0.200 F 
ATOM     88  F   UNL A   1      44.507  20.865  24.428  1.00  0.00    -0.200 F 
ENDBRANCH  64  78
BRANCH  65  89
ATOM     89  C   UNL A   1      40.592  31.277  32.743  1.00  0.00     0.064 A 
ATOM     90  C   UNL A   1      40.323  32.660  32.734  1.00  0.00     0.173 A 
ATOM     91  C   UNL A   1      39.508  30.407  32.910  1.00  0.00     0.173 A 
ATOM     92  F   UNL A   1      41.331  33.536  32.584  1.00  0.00    -0.203 F 
ATOM     93  C   UNL A   1      39.017  33.143  32.739  1.00  0.00     0.198 A 
ATOM     94  C   UNL A   1      38.200  30.898  32.935  1.00  0.00     0.198 A 
ATOM     95  F   UNL A   1      39.697  29.080  32.917  1.00  0.00    -0.203 F 
ATOM     96  F   UNL A   1      38.790  34.456  32.594  1.00  0.00    -0.200 F 
ATOM     97  C   UNL A   1      37.955  32.259  32.804  1.00  0.00     0.200 A 
ATOM     98  F   UNL A   1      37.168  30.044  32.979  1.00  0.00    -0.200 F 
ATOM     99  F   UNL A   1      36.698  32.710  32.698  1.00  0.00    -0.200 F 
ENDBRANCH  65  89
BRANCH  77 100
ATOM    100  C   UNL A   1      45.099  25.624  33.139  1.00  0.00     0.064 A 
ATOM    101  C   UNL A   1      46.481  25.373  33.137  1.00  0.00     0.173 A 
ATOM    102  C   UNL A   1      44.357  24.895  34.105  1.00  0.00     0.173 A 
ATOM    103  F   UNL A   1      47.320  26.079  32.370  1.00  0.00    -0.203 F 
ATOM    104  C   UNL A   1      47.065  24.424  33.982  1.00  0.00     0.198 A 
ATOM    105  C   UNL A   1      44.953  23.998  34.990  1.00  0.00     0.198 A 
ATOM    106  F   UNL A   1      43.034  25.054  34.246  1.00  0.00    -0.203 F 
ATOM    107  F   UNL A   1      48.384  24.193  33.907  1.00  0.00    -0.200 F 
ATOM    108  C   UNL A   1      46.305  23.748  34.917  1.00  0.00     0.200 A 
ATOM    109  F   UNL A   1      44.208  23.398  35.930  1.00  0.00    -0.200 F 
ATOM    110  F   UNL A   1      46.878  22.878  35.758  1.00  0.00    -0.200 F 
ENDBRANCH  77 100
ENDBRANCH  51  52
ENDBRANCH  43  46
ENDBRANCH  41  42
ENDBRANCH  40  41
ENDBRANCH  39  40
ENDBRANCH   1  39
TORSDOF 17
ENDMDL
MODEL 2
REMARK VINA RESULT:     -14.0      1.176      1.696
REMARK SMILES Cc1cccc(N2CCN(c3ncc(NC(=O)c4ccccc4F)cc3C(=O)NCCCCCCNC(=O)c3ccc(-c4c5nc(c(-c6c(F)c(F)c(F)c(F)c6F)c6ccc([nH]6)c(-c6c(F)c(F)c(F)c(F)c6F)c6nc(c(-c7c(F)c(F)c(F)c(F)c7F)c7ccc4[nH]7)C=C6)C=C5)cc3)C[C@@H]2C)c1
REMARK SMILES IDX 32 1 31 2 30 3 29 4 27 5 28 6 26 8 11 9 12 10 13 11 25 12
REMARK SMILES IDX 14 13 10 14 7 15 8 16 103 17 9 18 102 19 104 20 6 21 1 22
REMARK SMILES IDX 2 23 3 24 105 25 4 26 5 27 15 28 16 29 17 31 18 32 19 33
REMARK SMILES IDX 23 34 20 35 22 36 24 37 21 38 33 39 34 40 35 41 36 42 37 43
REMARK SMILES IDX 38 45 39 46 40 47 101 48 41 49 100 50 42 51 43 52 44 53
REMARK SMILES IDX 94 54 45 55 99 56 93 57 95 58 46 59 98 60 92 61 91 62 47 64
REMARK SMILES IDX 79 65 59 66 78 67 60 68 63 69 77 70 96 71 61 72 62 73 76 75
REMARK SMILES IDX 97 76 64 77 48 78 49 79 57 80 50 81 51 82 55 83 58 84 52 85
REMARK SMILES IDX 53 86 56 87 54 88 80 89 81 90 89 91 82 92 83 93 87 94 90 95
REMARK SMILES IDX 84 96 85 97 88 98 86 99 65 100 66 101 74 102 67 103 68 104
REMARK SMILES IDX 72 105 75 106 69 107 70 108 73 109 71 110
REMARK H PARENT 29 7 15 30 36 44 95 63 63 74
REMARK Flexibility Score: inf
ROOT
ATOM      1  C   UNL A   1      33.982  28.978  27.387  1.00  0.00     0.002 C 
ENDROOT
BRANCH   1   2
ATOM      2  C   UNL A   1      32.675  28.193  27.577  1.00  0.00     0.021 C 
BRANCH   2   3
ATOM      3  C   UNL A   1      32.406  27.163  26.469  1.00  0.00     0.116 C 
BRANCH   3   4
ATOM      4  N   UNL A   1      31.619  26.063  26.991  1.00  0.00    -0.352 N 
ATOM      5  C   UNL A   1      30.725  25.341  26.232  1.00  0.00     0.255 C 
ATOM      6  O   UNL A   1      29.529  25.398  26.500  1.00  0.00    -0.269 OA
ATOM      7  H   UNL A   1      31.730  25.820  27.938  1.00  0.00     0.163 HD
BRANCH   5   8
ATOM      8  C   UNL A   1      31.231  24.515  25.118  1.00  0.00     0.084 A 
ATOM      9  C   UNL A   1      31.255  24.983  23.792  1.00  0.00     0.141 A 
ATOM     10  N   UNL A   1      31.676  24.162  22.793  1.00  0.00    -0.236 NA
ATOM     11  C   UNL A   1      32.066  22.895  23.094  1.00  0.00     0.139 A 
ATOM     12  C   UNL A   1      31.636  23.206  25.399  1.00  0.00     0.045 A 
ATOM     13  C   UNL A   1      32.042  22.368  24.374  1.00  0.00     0.060 A 
BRANCH   9  14
ATOM     14  N   UNL A   1      30.744  26.210  23.417  1.00  0.00    -0.352 N 
ATOM     15  N   UNL A   1      29.677  28.786  22.822  1.00  0.00    -0.365 N 
ATOM     16  C   UNL A   1      28.995  27.903  23.787  1.00  0.00     0.138 C 
ATOM     17  C   UNL A   1      31.119  28.523  22.570  1.00  0.00     0.098 C 
ATOM     18  C   UNL A   1      29.289  26.412  23.502  1.00  0.00     0.139 C 
ATOM     19  C   UNL A   1      31.355  27.000  22.332  1.00  0.00     0.142 C 
ATOM     20  C   UNL A   1      31.964  29.051  23.736  1.00  0.00     0.033 C 
BRANCH  15  21
ATOM     21  C   UNL A   1      29.172  30.056  22.587  1.00  0.00     0.037 A 
ATOM     22  C   UNL A   1      27.731  32.027  19.646  1.00  0.00     0.044 C 
ATOM     23  C   UNL A   1      28.208  31.681  21.025  1.00  0.00    -0.049 A 
ATOM     24  C   UNL A   1      28.029  32.585  22.075  1.00  0.00     0.003 A 
ATOM     25  C   UNL A   1      28.790  30.432  21.291  1.00  0.00     0.029 A 
ATOM     26  C   UNL A   1      28.425  32.244  23.364  1.00  0.00     0.002 A 
ATOM     27  C   UNL A   1      28.984  30.988  23.615  1.00  0.00     0.026 A 
ENDBRANCH  15  21
ENDBRANCH   9  14
BRANCH  13  28
ATOM     28  N   UNL A   1      32.339  21.037  24.705  1.00  0.00    -0.320 N 
ATOM     29  C   UNL A   1      33.553  20.407  24.824  1.00  0.00     0.258 C 
ATOM     30  H   UNL A   1      31.556  20.466  24.877  1.00  0.00     0.170 HD
ATOM     31  O   UNL A   1      33.612  19.179  24.764  1.00  0.00    -0.269 OA
BRANCH  29  32
ATOM     32  C   UNL A   1      34.777  21.169  25.146  1.00  0.00     0.075 A 
ATOM     33  C   UNL A   1      35.851  21.127  24.250  1.00  0.00     0.017 A 
ATOM     34  C   UNL A   1      34.933  21.828  26.369  1.00  0.00     0.135 A 
ATOM     35  C   UNL A   1      37.039  21.796  24.554  1.00  0.00     0.001 A 
ATOM     36  C   UNL A   1      36.104  22.518  26.662  1.00  0.00     0.040 A 
ATOM     37  F   UNL A   1      33.981  21.785  27.312  1.00  0.00    -0.206 F 
ATOM     38  C   UNL A   1      37.158  22.506  25.750  1.00  0.00     0.003 A 
ENDBRANCH  29  32
ENDBRANCH  13  28
ENDBRANCH   5   8
ENDBRANCH   3   4
ENDBRANCH   2   3
ENDBRANCH   1   2
BRANCH   1  39
ATOM     39  C   UNL A   1      33.838  30.358  26.726  1.00  0.00     0.002 C 
BRANCH  39  40
ATOM     40  C   UNL A   1      33.287  31.466  27.625  1.00  0.00     0.021 C 
BRANCH  40  41
ATOM     41  C   UNL A   1      34.314  32.527  27.985  1.00  0.00     0.116 C 
BRANCH  41  42
ATOM     42  N   UNL A   1      34.506  32.697  29.418  1.00  0.00    -0.352 N 
ATOM     43  C   UNL A   1      35.248  31.950  30.316  1.00  0.00     0.251 C 
ATOM     44  H   UNL A   1      34.035  33.467  29.809  1.00  0.00     0.163 HD
ATOM     45  O   UNL A   1      35.180  32.197  31.509  1.00  0.00    -0.269 OA
BRANCH  43  46
ATOM     46  C   UNL A   1      36.239  30.961  29.821  1.00  0.00     0.039 A 
ATOM     47  C   UNL A   1      36.316  29.726  30.482  1.00  0.00     0.014 A 
ATOM     48  C   UNL A   1      37.212  31.312  28.896  1.00  0.00     0.014 A 
ATOM     49  C   UNL A   1      37.491  28.982  30.413  1.00  0.00     0.010 A 
ATOM     50  C   UNL A   1      38.420  30.657  28.932  1.00  0.00     0.010 A 
ATOM     51  C   UNL A   1      38.576  29.526  29.738  1.00  0.00    -0.014 A 
BRANCH  51  52
ATOM     52  C   UNL A   1      39.940  29.031  29.822  1.00  0.00     0.031 A 
ATOM     53  C   UNL A   1      40.245  27.675  29.325  1.00  0.00     0.074 A 
ATOM     54  C   UNL A   1      40.925  29.903  30.133  1.00  0.00     0.049 A 
ATOM     55  N   UNL A   1      41.357  27.058  29.522  1.00  0.00    -0.248 NA
ATOM     56  C   UNL A   1      39.279  26.880  28.576  1.00  0.00     0.031 C 
ATOM     57  C   UNL A   1      42.354  29.755  29.874  1.00  0.00     0.029 A 
ATOM     58  N   UNL A   1      40.832  31.060  30.925  1.00  0.00    -0.354 N 
ATOM     59  C   UNL A   1      41.371  25.938  28.720  1.00  0.00     0.074 A 
ATOM     60  C   UNL A   1      40.030  25.841  28.201  1.00  0.00     0.031 C 
ATOM     61  C   UNL A   1      43.032  30.565  30.704  1.00  0.00     0.029 A 
ATOM     62  C   UNL A   1      42.062  31.128  31.626  1.00  0.00     0.049 A 
ATOM     63  H   UNL A   1      40.077  31.688  30.980  1.00  0.00     0.167 HD
ATOM     64  C   UNL A   1      42.566  25.310  28.509  1.00  0.00     0.037 A 
ATOM     65  C   UNL A   1      42.112  30.976  32.982  1.00  0.00     0.037 A 
ATOM     66  C   UNL A   1      43.604  25.897  29.357  1.00  0.00     0.049 A 
ATOM     67  C   UNL A   1      42.958  29.808  33.427  1.00  0.00     0.074 A 
ATOM     68  C   UNL A   1      44.594  26.838  29.121  1.00  0.00     0.029 A 
ATOM     69  N   UNL A   1      43.499  25.775  30.740  1.00  0.00    -0.354 N 
ATOM     70  N   UNL A   1      43.216  28.771  32.679  1.00  0.00    -0.248 NA
ATOM     71  C   UNL A   1      43.576  29.717  34.746  1.00  0.00     0.031 C 
ATOM     72  C   UNL A   1      45.046  27.321  30.374  1.00  0.00     0.029 A 
ATOM     73  C   UNL A   1      44.352  26.658  31.371  1.00  0.00     0.049 A 
ATOM     74  H   UNL A   1      42.900  25.146  31.203  1.00  0.00     0.167 HD
ATOM     75  C   UNL A   1      44.012  27.895  33.372  1.00  0.00     0.074 A 
ATOM     76  C   UNL A   1      44.214  28.536  34.658  1.00  0.00     0.031 C 
ATOM     77  C   UNL A   1      44.434  26.715  32.824  1.00  0.00     0.037 A 
BRANCH  64  78
ATOM     78  C   UNL A   1      42.869  24.357  27.366  1.00  0.00     0.064 A 
ATOM     79  C   UNL A   1      42.459  23.005  27.435  1.00  0.00     0.173 A 
ATOM     80  C   UNL A   1      43.605  24.677  26.210  1.00  0.00     0.173 A 
ATOM     81  F   UNL A   1      41.670  22.560  28.422  1.00  0.00    -0.203 F 
ATOM     82  C   UNL A   1      42.845  22.047  26.491  1.00  0.00     0.198 A 
ATOM     83  C   UNL A   1      44.029  23.712  25.288  1.00  0.00     0.198 A 
ATOM     84  F   UNL A   1      43.890  25.940  25.883  1.00  0.00    -0.203 F 
ATOM     85  F   UNL A   1      42.429  20.779  26.624  1.00  0.00    -0.200 F 
ATOM     86  C   UNL A   1      43.656  22.393  25.434  1.00  0.00     0.200 A 
ATOM     87  F   UNL A   1      44.797  24.079  24.252  1.00  0.00    -0.200 F 
ATOM     88  F   UNL A   1      44.055  21.472  24.547  1.00  0.00    -0.200 F 
ENDBRANCH  64  78
BRANCH  65  89
ATOM     89  C   UNL A   1      40.878  31.462  33.656  1.00  0.00     0.064 A 
ATOM     90  C   UNL A   1      40.769  32.845  33.902  1.00  0.00     0.173 A 
ATOM     91  C   UNL A   1      39.697  30.711  33.641  1.00  0.00     0.173 A 
ATOM     92  F   UNL A   1      41.874  33.607  33.934  1.00  0.00    -0.203 F 
ATOM     93  C   UNL A   1      39.527  33.471  33.978  1.00  0.00     0.198 A 
ATOM     94  C   UNL A   1      38.453  31.341  33.738  1.00  0.00     0.198 A 
ATOM     95  F   UNL A   1      39.733  29.393  33.402  1.00  0.00    -0.203 F 
ATOM     96  F   UNL A   1      39.456  34.805  34.079  1.00  0.00    -0.200 F 
ATOM     97  C   UNL A   1      38.370  32.721  33.861  1.00  0.00     0.200 A 
ATOM     98  F   UNL A   1      37.329  30.622  33.606  1.00  0.00    -0.200 F 
ATOM     99  F   UNL A   1      37.176  33.331  33.823  1.00  0.00    -0.200 F 
ENDBRANCH  65  89
BRANCH  77 100
ATOM    100  C   UNL A   1      45.055  25.548  33.561  1.00  0.00     0.064 A 
ATOM    101  C   UNL A   1      44.319  24.566  34.245  1.00  0.00     0.173 A 
ATOM    102  C   UNL A   1      46.448  25.298  33.466  1.00  0.00     0.173 A 
ATOM    103  F   UNL A   1      42.983  24.605  34.303  1.00  0.00    -0.203 F 
ATOM    104  C   UNL A   1      44.933  23.460  34.843  1.00  0.00     0.198 A 
ATOM    105  C   UNL A   1      47.047  24.160  34.007  1.00  0.00     0.198 A 
ATOM    106  F   UNL A   1      47.272  26.130  32.814  1.00  0.00    -0.203 F 
ATOM    107  F   UNL A   1      44.188  22.577  35.522  1.00  0.00    -0.200 F 
ATOM    108  C   UNL A   1      46.292  23.250  34.712  1.00  0.00     0.200 A 
ATOM    109  F   UNL A   1      48.356  23.944  33.816  1.00  0.00    -0.200 F 
ATOM    110  F   UNL A   1      46.866  22.163  35.243  1.00  0.00    -0.200 F 
ENDBRANCH  77 100
ENDBRANCH  51  52
ENDBRANCH  43  46
ENDBRANCH  41  42
ENDBRANCH  40  41
ENDBRANCH  39  40
ENDBRANCH   1  39
TORSDOF 17
ENDMDL
MODEL 3
REMARK VINA RESULT:     -13.8      3.432      9.849
REMARK SMILES Cc1cccc(N2CCN(c3ncc(NC(=O)c4ccccc4F)cc3C(=O)NCCCCCCNC(=O)c3ccc(-c4c5nc(c(-c6c(F)c(F)c(F)c(F)c6F)c6ccc([nH]6)c(-c6c(F)c(F)c(F)c(F)c6F)c6nc(c(-c7c(F)c(F)c(F)c(F)c7F)c7ccc4[nH]7)C=C6)C=C5)cc3)C[C@@H]2C)c1
REMARK SMILES IDX 32 1 31 2 30 3 29 4 27 5 28 6 26 8 11 9 12 10 13 11 25 12
REMARK SMILES IDX 14 13 10 14 7 15 8 16 103 17 9 18 102 19 104 20 6 21 1 22
REMARK SMILES IDX 2 23 3 24 105 25 4 26 5 27 15 28 16 29 17 31 18 32 19 33
REMARK SMILES IDX 23 34 20 35 22 36 24 37 21 38 33 39 34 40 35 41 36 42 37 43
REMARK SMILES IDX 38 45 39 46 40 47 101 48 41 49 100 50 42 51 43 52 44 53
REMARK SMILES IDX 94 54 45 55 99 56 93 57 95 58 46 59 98 60 92 61 91 62 47 64
REMARK SMILES IDX 79 65 59 66 78 67 60 68 63 69 77 70 96 71 61 72 62 73 76 75
REMARK SMILES IDX 97 76 64 77 48 78 49 79 57 80 50 81 51 82 55 83 58 84 52 85
REMARK SMILES IDX 53 86 56 87 54 88 80 89 81 90 89 91 82 92 83 93 87 94 90 95
REMARK SMILES IDX 84 96 85 97 88 98 86 99 65 100 66 101 74 102 67 103 68 104
REMARK SMILES IDX 72 105 75 106 69 107 70 108 73 109 71 110
REMARK H PARENT 29 7 15 30 36 44 95 63 63 74
REMARK Flexibility Score: inf
ROOT
ATOM      1  C   UNL A   1      37.494  22.941  25.856  1.00  0.00     0.002 C 
ENDROOT
BRANCH   1   2
ATOM      2  C   UNL A   1      36.809  23.221  24.510  1.00  0.00     0.021 C 
BRANCH   2   3
ATOM      3  C   UNL A   1      35.533  24.068  24.630  1.00  0.00     0.116 C 
BRANCH   3   4
ATOM      4  N   UNL A   1      35.078  24.472  23.315  1.00  0.00    -0.352 N 
ATOM      5  C   UNL A   1      33.869  24.087  22.777  1.00  0.00     0.255 C 
ATOM      6  O   UNL A   1      33.857  23.367  21.785  1.00  0.00    -0.269 OA
ATOM      7  H   UNL A   1      35.663  25.053  22.777  1.00  0.00     0.163 HD
BRANCH   5   8
ATOM      8  C   UNL A   1      32.620  24.558  23.408  1.00  0.00     0.084 A 
ATOM      9  C   UNL A   1      31.819  23.714  24.198  1.00  0.00     0.141 A 
ATOM     10  N   UNL A   1      30.646  24.179  24.709  1.00  0.00    -0.236 NA
ATOM     11  C   UNL A   1      30.267  25.457  24.444  1.00  0.00     0.139 A 
ATOM     12  C   UNL A   1      32.204  25.868  23.151  1.00  0.00     0.045 A 
ATOM     13  C   UNL A   1      30.999  26.328  23.656  1.00  0.00     0.060 A 
BRANCH   9  14
ATOM     14  N   UNL A   1      32.091  22.373  24.382  1.00  0.00    -0.352 N 
ATOM     15  N   UNL A   1      32.808  19.627  24.665  1.00  0.00    -0.365 N 
ATOM     16  C   UNL A   1      32.778  20.256  23.329  1.00  0.00     0.138 C 
ATOM     17  C   UNL A   1      32.944  20.536  25.834  1.00  0.00     0.098 C 
ATOM     18  C   UNL A   1      31.792  21.444  23.281  1.00  0.00     0.139 C 
ATOM     19  C   UNL A   1      31.953  21.733  25.704  1.00  0.00     0.142 C 
ATOM     20  C   UNL A   1      34.396  21.014  25.965  1.00  0.00     0.033 C 
BRANCH  15  21
ATOM     21  C   UNL A   1      33.211  18.307  24.785  1.00  0.00     0.037 A 
ATOM     22  C   UNL A   1      31.780  15.024  26.120  1.00  0.00     0.044 C 
ATOM     23  C   UNL A   1      32.722  16.015  25.504  1.00  0.00    -0.049 A 
ATOM     24  C   UNL A   1      33.931  15.583  24.955  1.00  0.00     0.003 A 
ATOM     25  C   UNL A   1      32.382  17.374  25.426  1.00  0.00     0.029 A 
ATOM     26  C   UNL A   1      34.782  16.495  24.339  1.00  0.00     0.002 A 
ATOM     27  C   UNL A   1      34.419  17.841  24.251  1.00  0.00     0.026 A 
ENDBRANCH  15  21
ENDBRANCH   9  14
BRANCH  13  28
ATOM     28  N   UNL A   1      30.587  27.616  23.280  1.00  0.00    -0.320 N 
ATOM     29  C   UNL A   1      30.703  28.809  23.948  1.00  0.00     0.258 C 
ATOM     30  H   UNL A   1      30.147  27.673  22.401  1.00  0.00     0.170 HD
ATOM     31  O   UNL A   1      29.978  29.754  23.639  1.00  0.00    -0.269 OA
BRANCH  29  32
ATOM     32  C   UNL A   1      31.767  29.020  24.952  1.00  0.00     0.075 A 
ATOM     33  C   UNL A   1      31.402  29.200  26.290  1.00  0.00     0.017 A 
ATOM     34  C   UNL A   1      33.108  29.160  24.585  1.00  0.00     0.135 A 
ATOM     35  C   UNL A   1      32.383  29.452  27.253  1.00  0.00     0.001 A 
ATOM     36  C   UNL A   1      34.090  29.382  25.544  1.00  0.00     0.040 A 
ATOM     37  F   UNL A   1      33.487  29.123  23.299  1.00  0.00    -0.206 F 
ATOM     38  C   UNL A   1      33.727  29.525  26.881  1.00  0.00     0.003 A 
ENDBRANCH  29  32
ENDBRANCH  13  28
ENDBRANCH   5   8
ENDBRANCH   3   4
ENDBRANCH   2   3
ENDBRANCH   1   2
BRANCH   1  39
ATOM     39  C   UNL A   1      38.509  24.000  26.318  1.00  0.00     0.002 C 
BRANCH  39  40
ATOM     40  C   UNL A   1      39.935  23.493  26.543  1.00  0.00     0.021 C 
BRANCH  40  41
ATOM     41  C   UNL A   1      39.999  22.056  27.033  1.00  0.00     0.116 C 
BRANCH  41  42
ATOM     42  N   UNL A   1      40.976  21.237  26.328  1.00  0.00    -0.352 N 
ATOM     43  C   UNL A   1      42.325  21.447  26.105  1.00  0.00     0.251 C 
ATOM     44  H   UNL A   1      40.619  20.401  25.951  1.00  0.00     0.163 HD
ATOM     45  O   UNL A   1      42.944  20.686  25.380  1.00  0.00    -0.269 OA
BRANCH  43  46
ATOM     46  C   UNL A   1      43.050  22.496  26.867  1.00  0.00     0.039 A 
ATOM     47  C   UNL A   1      42.943  22.479  28.265  1.00  0.00     0.014 A 
ATOM     48  C   UNL A   1      43.621  23.590  26.230  1.00  0.00     0.014 A 
ATOM     49  C   UNL A   1      43.159  23.651  28.986  1.00  0.00     0.010 A 
ATOM     50  C   UNL A   1      43.701  24.780  26.913  1.00  0.00     0.010 A 
ATOM     51  C   UNL A   1      43.411  24.820  28.280  1.00  0.00    -0.014 A 
BRANCH  51  52
ATOM     52  C   UNL A   1      43.363  26.159  28.845  1.00  0.00     0.031 A 
ATOM     53  C   UNL A   1      42.101  26.921  28.781  1.00  0.00     0.074 A 
ATOM     54  C   UNL A   1      44.395  26.573  29.613  1.00  0.00     0.049 A 
ATOM     55  N   UNL A   1      41.988  28.171  29.065  1.00  0.00    -0.248 NA
ATOM     56  C   UNL A   1      40.844  26.320  28.351  1.00  0.00     0.031 C 
ATOM     57  C   UNL A   1      44.393  27.654  30.594  1.00  0.00     0.029 A 
ATOM     58  N   UNL A   1      45.744  26.186  29.524  1.00  0.00    -0.354 N 
ATOM     59  C   UNL A   1      40.645  28.474  29.129  1.00  0.00     0.074 A 
ATOM     60  C   UNL A   1      39.980  27.303  28.614  1.00  0.00     0.031 C 
ATOM     61  C   UNL A   1      45.658  28.055  30.802  1.00  0.00     0.029 A 
ATOM     62  C   UNL A   1      46.485  27.354  29.837  1.00  0.00     0.049 A 
ATOM     63  H   UNL A   1      46.098  25.298  29.295  1.00  0.00     0.167 HD
ATOM     64  C   UNL A   1      40.275  29.644  29.730  1.00  0.00     0.037 A 
ATOM     65  C   UNL A   1      47.262  27.969  28.899  1.00  0.00     0.037 A 
ATOM     66  C   UNL A   1      41.457  30.445  30.050  1.00  0.00     0.049 A 
ATOM     67  C   UNL A   1      46.854  29.395  28.619  1.00  0.00     0.074 A 
ATOM     68  C   UNL A   1      42.185  30.626  31.215  1.00  0.00     0.029 A 
ATOM     69  N   UNL A   1      42.244  30.936  29.012  1.00  0.00    -0.354 N 
ATOM     70  N   UNL A   1      45.654  29.863  28.831  1.00  0.00    -0.248 NA
ATOM     71  C   UNL A   1      47.760  30.403  28.078  1.00  0.00     0.031 C 
ATOM     72  C   UNL A   1      43.441  31.182  30.863  1.00  0.00     0.029 A 
ATOM     73  C   UNL A   1      43.467  31.361  29.491  1.00  0.00     0.049 A 
ATOM     74  H   UNL A   1      41.966  30.976  28.068  1.00  0.00     0.167 HD
ATOM     75  C   UNL A   1      45.611  31.188  28.480  1.00  0.00     0.074 A 
ATOM     76  C   UNL A   1      46.957  31.480  28.021  1.00  0.00     0.031 C 
ATOM     77  C   UNL A   1      44.468  31.929  28.598  1.00  0.00     0.037 A 
BRANCH  64  78
ATOM     78  C   UNL A   1      38.890  29.956  30.268  1.00  0.00     0.064 A 
ATOM     79  C   UNL A   1      37.847  30.325  29.387  1.00  0.00     0.173 A 
ATOM     80  C   UNL A   1      38.527  29.975  31.628  1.00  0.00     0.173 A 
ATOM     81  F   UNL A   1      37.997  30.267  28.057  1.00  0.00    -0.203 F 
ATOM     82  C   UNL A   1      36.600  30.776  29.834  1.00  0.00     0.198 A 
ATOM     83  C   UNL A   1      37.297  30.467  32.079  1.00  0.00     0.198 A 
ATOM     84  F   UNL A   1      39.317  29.461  32.575  1.00  0.00    -0.203 F 
ATOM     85  F   UNL A   1      35.659  31.121  28.943  1.00  0.00    -0.200 F 
ATOM     86  C   UNL A   1      36.335  30.877  31.182  1.00  0.00     0.200 A 
ATOM     87  F   UNL A   1      37.052  30.531  33.396  1.00  0.00    -0.200 F 
ATOM     88  F   UNL A   1      35.155  31.339  31.614  1.00  0.00    -0.200 F 
ENDBRANCH  64  78
BRANCH  65  89
ATOM     89  C   UNL A   1      47.821  27.015  27.904  1.00  0.00     0.064 A 
ATOM     90  C   UNL A   1      47.185  26.931  26.650  1.00  0.00     0.173 A 
ATOM     91  C   UNL A   1      49.143  26.564  27.991  1.00  0.00     0.173 A 
ATOM     92  F   UNL A   1      45.914  27.344  26.516  1.00  0.00    -0.203 F 
ATOM     93  C   UNL A   1      47.886  26.556  25.506  1.00  0.00     0.198 A 
ATOM     94  C   UNL A   1      49.837  26.170  26.844  1.00  0.00     0.198 A 
ATOM     95  F   UNL A   1      49.807  26.628  29.154  1.00  0.00    -0.203 F 
ATOM     96  F   UNL A   1      47.289  26.614  24.307  1.00  0.00    -0.200 F 
ATOM     97  C   UNL A   1      49.222  26.209  25.600  1.00  0.00     0.200 A 
ATOM     98  F   UNL A   1      51.137  25.851  26.928  1.00  0.00    -0.200 F 
ATOM     99  F   UNL A   1      49.929  25.955  24.490  1.00  0.00    -0.200 F 
ENDBRANCH  65  89
BRANCH  77 100
ATOM    100  C   UNL A   1      44.206  33.288  27.985  1.00  0.00     0.064 A 
ATOM    101  C   UNL A   1      43.874  33.495  26.636  1.00  0.00     0.173 A 
ATOM    102  C   UNL A   1      44.132  34.443  28.806  1.00  0.00     0.173 A 
ATOM    103  F   UNL A   1      43.776  32.476  25.774  1.00  0.00    -0.203 F 
ATOM    104  C   UNL A   1      43.560  34.762  26.135  1.00  0.00     0.198 A 
ATOM    105  C   UNL A   1      43.755  35.692  28.315  1.00  0.00     0.198 A 
ATOM    106  F   UNL A   1      44.389  34.392  30.121  1.00  0.00    -0.203 F 
ATOM    107  F   UNL A   1      43.294  34.910  24.829  1.00  0.00    -0.200 F 
ATOM    108  C   UNL A   1      43.487  35.856  26.975  1.00  0.00     0.200 A 
ATOM    109  F   UNL A   1      43.631  36.728  29.158  1.00  0.00    -0.200 F 
ATOM    110  F   UNL A   1      43.136  37.058  26.498  1.00  0.00    -0.200 F 
ENDBRANCH  77 100
ENDBRANCH  51  52
ENDBRANCH  43  46
ENDBRANCH  41  42
ENDBRANCH  40  41
ENDBRANCH  39  40
ENDBRANCH   1  39
TORSDOF 17
ENDMDL
