MODEL 1
REMARK VINA RESULT:     -10.1      0.000      0.000
REMARK SMILES COc1ccc([C@@H]2[C@@H](C(=O)c3cccc4c3CCCC4)[C@H](C(=O)NCCCCCCNC(=O)c3ccc(-c4c5nc(c(-c6c(F)c(F)c(F)c(F)c6F)c6ccc([nH]6)c(-c6c(F)c(F)c(F)c(F)c6F)c6nc(c(-c7c(F)c(F)c(F)c(F)c7F)c7ccc4[nH]7)C=C6)C=C5)cc3)SC3=NC(=O)S[C@H]32)cc1
REMARK SMILES IDX 27 1 26 2 25 3 24 4 22 5 23 6 21 8 7 9 8 10 103 11 98 12
REMARK SMILES IDX 102 13 97 14 99 15 100 16 101 17 6 18 3 19 4 20 105 21 5 22
REMARK SMILES IDX 104 23 2 24 1 25 9 26 10 27 11 28 12 29 16 30 13 31 15 32
REMARK SMILES IDX 17 33 14 34 20 35 18 36 19 37 28 38 29 39 30 40 31 41 32 42
REMARK SMILES IDX 33 44 34 45 35 46 96 47 36 48 95 49 37 50 38 51 39 52 89 53
REMARK SMILES IDX 40 54 94 55 88 56 90 57 41 58 93 59 87 60 86 61 42 63 74 64
REMARK SMILES IDX 54 65 73 66 55 67 58 68 72 69 91 70 56 71 57 72 71 74 92 75
REMARK SMILES IDX 59 76 43 77 44 78 52 79 45 80 46 81 50 82 53 83 47 84 48 85
REMARK SMILES IDX 51 86 49 87 75 88 76 89 84 90 77 91 78 92 82 93 85 94 79 95
REMARK SMILES IDX 80 96 83 97 81 98 60 99 61 100 69 101 62 102 63 103 67 104
REMARK SMILES IDX 70 105 64 106 65 107 68 108 66 109
REMARK H PARENT 24 7 31 43 90 62 58 73
REMARK Flexibility Score: inf
ROOT
ATOM      1  C   UNL A   1      40.904  27.457  28.389  1.00  0.00     0.002 C 
ENDROOT
BRANCH   1   2
ATOM      2  C   UNL A   1      41.748  27.430  29.669  1.00  0.00     0.021 C 
BRANCH   2   3
ATOM      3  C   UNL A   1      41.208  28.319  30.790  1.00  0.00     0.116 C 
BRANCH   3   4
ATOM      4  N   UNL A   1      41.393  29.727  30.479  1.00  0.00    -0.355 N 
ATOM      5  C   UNL A   1      40.506  30.728  30.204  1.00  0.00     0.234 C 
ATOM      6  O   UNL A   1      40.961  31.854  29.991  1.00  0.00    -0.274 OA
ATOM      7  H   UNL A   1      42.335  30.013  30.465  1.00  0.00     0.163 HD
BRANCH   5   8
ATOM      8  C   UNL A   1      38.985  30.496  30.209  1.00  0.00     0.153 C 
ATOM      9  C   UNL A   1      36.705  31.594  30.898  1.00  0.00     0.052 C 
ATOM     10  C   UNL A   1      38.240  31.451  31.170  1.00  0.00     0.093 C 
ATOM     11  C   UNL A   1      36.369  31.864  29.412  1.00  0.00     0.121 C 
ATOM     12  C   UNL A   1      36.824  30.770  28.497  1.00  0.00     0.093 C 
ATOM     13  S   UNL A   1      34.571  31.916  29.050  1.00  0.00    -0.052 SA
ATOM     14  S   UNL A   1      38.501  30.391  28.442  1.00  0.00    -0.095 SA
ATOM     15  N   UNL A   1      36.014  30.203  27.673  1.00  0.00    -0.200 NA
ATOM     16  C   UNL A   1      34.745  30.712  27.778  1.00  0.00     0.306 C 
ATOM     17  O   UNL A   1      33.807  30.402  27.075  1.00  0.00    -0.259 OA
BRANCH   9  18
ATOM     18  C   UNL A   1      36.088  32.734  31.720  1.00  0.00    -0.042 A 
ATOM     19  C   UNL A   1      35.109  34.846  33.309  1.00  0.00     0.118 A 
ATOM     20  C   UNL A   1      35.964  35.109  32.246  1.00  0.00     0.047 A 
ATOM     21  C   UNL A   1      34.729  33.534  33.581  1.00  0.00     0.047 A 
ATOM     22  C   UNL A   1      36.484  34.060  31.487  1.00  0.00     0.008 A 
ATOM     23  C   UNL A   1      35.208  32.487  32.787  1.00  0.00     0.008 A 
BRANCH  19  24
ATOM     24  O   UNL A   1      34.644  35.934  33.994  1.00  0.00    -0.497 OA
ATOM     25  C   UNL A   1      34.029  36.916  33.166  1.00  0.00     0.278 C 
ENDBRANCH  19  24
ENDBRANCH   9  18
BRANCH  10  26
ATOM     26  C   UNL A   1      38.662  31.104  32.643  1.00  0.00     0.168 C 
ATOM     27  O   UNL A   1      38.393  30.004  33.126  1.00  0.00    -0.294 OA
BRANCH  26  28
ATOM     28  C   UNL A   1      39.303  32.116  33.536  1.00  0.00     0.021 A 
ATOM     29  C   UNL A   1      40.070  33.104  32.950  1.00  0.00     0.012 A 
ATOM     30  C   UNL A   1      38.732  32.393  34.778  1.00  0.00    -0.034 A 
ATOM     31  C   UNL A   1      39.889  34.426  33.360  1.00  0.00     0.001 A 
ATOM     32  C   UNL A   1      38.295  33.700  35.023  1.00  0.00    -0.044 A 
ATOM     33  C   UNL A   1      39.492  31.864  36.022  1.00  0.00     0.036 C 
ATOM     34  C   UNL A   1      38.903  34.731  34.308  1.00  0.00     0.004 A 
ATOM     35  C   UNL A   1      37.378  33.934  36.195  1.00  0.00     0.036 C 
ATOM     36  C   UNL A   1      38.790  32.170  37.355  1.00  0.00     0.005 C 
ATOM     37  C   UNL A   1      37.388  32.746  37.170  1.00  0.00     0.005 C 
ENDBRANCH  26  28
ENDBRANCH  10  26
ENDBRANCH   5   8
ENDBRANCH   3   4
ENDBRANCH   2   3
ENDBRANCH   1   2
BRANCH   1  38
ATOM     38  C   UNL A   1      39.569  26.708  28.473  1.00  0.00     0.002 C 
BRANCH  38  39
ATOM     39  C   UNL A   1      39.628  25.230  28.080  1.00  0.00     0.021 C 
BRANCH  39  40
ATOM     40  C   UNL A   1      39.813  24.975  26.587  1.00  0.00     0.116 C 
BRANCH  40  41
ATOM     41  N   UNL A   1      40.577  23.765  26.323  1.00  0.00    -0.352 N 
ATOM     42  C   UNL A   1      41.916  23.614  26.064  1.00  0.00     0.251 C 
ATOM     43  H   UNL A   1      40.054  22.931  26.332  1.00  0.00     0.163 HD
ATOM     44  O   UNL A   1      42.353  22.534  25.682  1.00  0.00    -0.269 OA
BRANCH  42  45
ATOM     45  C   UNL A   1      42.835  24.761  26.226  1.00  0.00     0.039 A 
ATOM     46  C   UNL A   1      43.459  24.956  27.461  1.00  0.00     0.014 A 
ATOM     47  C   UNL A   1      43.074  25.649  25.172  1.00  0.00     0.014 A 
ATOM     48  C   UNL A   1      44.368  26.004  27.620  1.00  0.00     0.010 A 
ATOM     49  C   UNL A   1      44.037  26.645  25.310  1.00  0.00     0.010 A 
ATOM     50  C   UNL A   1      44.693  26.835  26.536  1.00  0.00    -0.014 A 
BRANCH  50  51
ATOM     51  C   UNL A   1      45.718  27.902  26.668  1.00  0.00     0.031 A 
ATOM     52  C   UNL A   1      45.307  29.316  26.975  1.00  0.00     0.074 A 
ATOM     53  C   UNL A   1      47.015  27.609  26.451  1.00  0.00     0.049 A 
ATOM     54  N   UNL A   1      46.049  30.391  27.073  1.00  0.00    -0.248 NA
ATOM     55  C   UNL A   1      43.870  29.561  27.172  1.00  0.00     0.031 C 
ATOM     56  C   UNL A   1      47.535  26.286  26.099  1.00  0.00     0.029 A 
ATOM     57  N   UNL A   1      48.134  28.404  26.485  1.00  0.00    -0.354 N 
ATOM     58  C   UNL A   1      45.170  31.436  27.327  1.00  0.00     0.074 A 
ATOM     59  C   UNL A   1      43.836  30.878  27.316  1.00  0.00     0.031 C 
ATOM     60  C   UNL A   1      48.869  26.356  25.970  1.00  0.00     0.029 A 
ATOM     61  C   UNL A   1      49.296  27.735  26.190  1.00  0.00     0.049 A 
ATOM     62  H   UNL A   1      48.105  29.365  26.702  1.00  0.00     0.167 HD
ATOM     63  C   UNL A   1      45.453  32.738  27.567  1.00  0.00     0.037 A 
ATOM     64  C   UNL A   1      50.563  28.184  26.095  1.00  0.00     0.037 A 
ATOM     65  C   UNL A   1      46.786  33.283  27.604  1.00  0.00     0.049 A 
ATOM     66  C   UNL A   1      50.847  29.639  26.360  1.00  0.00     0.074 A 
ATOM     67  C   UNL A   1      47.180  34.574  27.913  1.00  0.00     0.029 A 
ATOM     68  N   UNL A   1      47.940  32.571  27.316  1.00  0.00    -0.354 N 
ATOM     69  N   UNL A   1      50.016  30.600  26.682  1.00  0.00    -0.248 NA
ATOM     70  C   UNL A   1      52.248  30.070  26.257  1.00  0.00     0.031 C 
ATOM     71  C   UNL A   1      48.567  34.658  27.750  1.00  0.00     0.029 A 
ATOM     72  C   UNL A   1      49.045  33.403  27.407  1.00  0.00     0.049 A 
ATOM     73  H   UNL A   1      47.970  31.615  27.082  1.00  0.00     0.167 HD
ATOM     74  C   UNL A   1      50.794  31.737  26.853  1.00  0.00     0.074 A 
ATOM     75  C   UNL A   1      52.166  31.343  26.615  1.00  0.00     0.031 C 
ATOM     76  C   UNL A   1      50.407  32.995  27.178  1.00  0.00     0.037 A 
BRANCH  63  77
ATOM     77  C   UNL A   1      44.301  33.674  27.806  1.00  0.00     0.064 A 
ATOM     78  C   UNL A   1      43.721  33.826  29.075  1.00  0.00     0.173 A 
ATOM     79  C   UNL A   1      43.808  34.471  26.761  1.00  0.00     0.173 A 
ATOM     80  F   UNL A   1      44.148  33.082  30.106  1.00  0.00    -0.203 F 
ATOM     81  C   UNL A   1      42.672  34.718  29.281  1.00  0.00     0.198 A 
ATOM     82  C   UNL A   1      42.782  35.386  26.979  1.00  0.00     0.198 A 
ATOM     83  F   UNL A   1      44.330  34.372  25.530  1.00  0.00    -0.203 F 
ATOM     84  F   UNL A   1      42.102  34.810  30.490  1.00  0.00    -0.200 F 
ATOM     85  C   UNL A   1      42.210  35.504  28.237  1.00  0.00     0.200 A 
ATOM     86  F   UNL A   1      42.348  36.157  25.971  1.00  0.00    -0.200 F 
ATOM     87  F   UNL A   1      41.209  36.372  28.440  1.00  0.00    -0.200 F 
ENDBRANCH  63  77
BRANCH  64  88
ATOM     88  C   UNL A   1      51.664  27.248  25.741  1.00  0.00     0.064 A 
ATOM     89  C   UNL A   1      51.975  26.972  24.401  1.00  0.00     0.173 A 
ATOM     90  C   UNL A   1      52.411  26.592  26.731  1.00  0.00     0.173 A 
ATOM     91  F   UNL A   1      51.277  27.558  23.417  1.00  0.00    -0.203 F 
ATOM     92  C   UNL A   1      52.969  26.053  24.067  1.00  0.00     0.198 A 
ATOM     93  C   UNL A   1      53.427  25.701  26.395  1.00  0.00     0.198 A 
ATOM     94  F   UNL A   1      52.158  26.825  28.028  1.00  0.00    -0.203 F 
ATOM     95  F   UNL A   1      53.205  25.764  22.781  1.00  0.00    -0.200 F 
ATOM     96  C   UNL A   1      53.698  25.423  25.064  1.00  0.00     0.200 A 
ATOM     97  F   UNL A   1      54.140  25.107  27.362  1.00  0.00    -0.200 F 
ATOM     98  F   UNL A   1      54.653  24.540  24.742  1.00  0.00    -0.200 F 
ENDBRANCH  64  88
BRANCH  76  99
ATOM     99  C   UNL A   1      51.485  34.029  27.343  1.00  0.00     0.064 A 
ATOM    100  C   UNL A   1      52.134  34.234  28.569  1.00  0.00     0.173 A 
ATOM    101  C   UNL A   1      51.900  34.798  26.245  1.00  0.00     0.173 A 
ATOM    102  F   UNL A   1      51.765  33.535  29.654  1.00  0.00    -0.203 F 
ATOM    103  C   UNL A   1      53.137  35.192  28.697  1.00  0.00     0.198 A 
ATOM    104  C   UNL A   1      52.928  35.729  26.368  1.00  0.00     0.198 A 
ATOM    105  F   UNL A   1      51.319  34.636  25.047  1.00  0.00    -0.203 F 
ATOM    106  F   UNL A   1      53.704  35.408  29.892  1.00  0.00    -0.200 F 
ATOM    107  C   UNL A   1      53.539  35.932  27.596  1.00  0.00     0.200 A 
ATOM    108  F   UNL A   1      53.325  36.430  25.297  1.00  0.00    -0.200 F 
ATOM    109  F   UNL A   1      54.511  36.845  27.718  1.00  0.00    -0.200 F 
ENDBRANCH  76  99
ENDBRANCH  50  51
ENDBRANCH  42  45
ENDBRANCH  40  41
ENDBRANCH  39  40
ENDBRANCH  38  39
ENDBRANCH   1  38
TORSDOF 17
ENDMDL
MODEL 2
REMARK VINA RESULT:      -9.8      4.789      9.756
REMARK SMILES COc1ccc([C@@H]2[C@@H](C(=O)c3cccc4c3CCCC4)[C@H](C(=O)NCCCCCCNC(=O)c3ccc(-c4c5nc(c(-c6c(F)c(F)c(F)c(F)c6F)c6ccc([nH]6)c(-c6c(F)c(F)c(F)c(F)c6F)c6nc(c(-c7c(F)c(F)c(F)c(F)c7F)c7ccc4[nH]7)C=C6)C=C5)cc3)SC3=NC(=O)S[C@H]32)cc1
REMARK SMILES IDX 27 1 26 2 25 3 24 4 22 5 23 6 21 8 7 9 8 10 103 11 98 12
REMARK SMILES IDX 102 13 97 14 99 15 100 16 101 17 6 18 3 19 4 20 105 21 5 22
REMARK SMILES IDX 104 23 2 24 1 25 9 26 10 27 11 28 12 29 16 30 13 31 15 32
REMARK SMILES IDX 17 33 14 34 20 35 18 36 19 37 28 38 29 39 30 40 31 41 32 42
REMARK SMILES IDX 33 44 34 45 35 46 96 47 36 48 95 49 37 50 38 51 39 52 89 53
REMARK SMILES IDX 40 54 94 55 88 56 90 57 41 58 93 59 87 60 86 61 42 63 74 64
REMARK SMILES IDX 54 65 73 66 55 67 58 68 72 69 91 70 56 71 57 72 71 74 92 75
REMARK SMILES IDX 59 76 43 77 44 78 52 79 45 80 46 81 50 82 53 83 47 84 48 85
REMARK SMILES IDX 51 86 49 87 75 88 76 89 84 90 77 91 78 92 82 93 85 94 79 95
REMARK SMILES IDX 80 96 83 97 81 98 60 99 61 100 69 101 62 102 63 103 67 104
REMARK SMILES IDX 70 105 64 106 65 107 68 108 66 109
REMARK H PARENT 24 7 31 43 90 62 58 73
REMARK Flexibility Score: inf
ROOT
ATOM      1  C   UNL A   1      42.742  36.504  34.030  1.00  0.00     0.002 C 
ENDROOT
BRANCH   1   2
ATOM      2  C   UNL A   1      42.290  35.061  34.284  1.00  0.00     0.021 C 
BRANCH   2   3
ATOM      3  C   UNL A   1      41.113  34.614  33.416  1.00  0.00     0.116 C 
BRANCH   3   4
ATOM      4  N   UNL A   1      39.844  35.017  34.003  1.00  0.00    -0.355 N 
ATOM      5  C   UNL A   1      38.822  34.298  34.553  1.00  0.00     0.234 C 
ATOM      6  O   UNL A   1      37.857  34.924  34.998  1.00  0.00    -0.274 OA
ATOM      7  H   UNL A   1      39.695  35.989  34.004  1.00  0.00     0.163 HD
BRANCH   5   8
ATOM      8  C   UNL A   1      38.875  32.766  34.677  1.00  0.00     0.153 C 
ATOM      9  C   UNL A   1      39.220  30.567  33.288  1.00  0.00     0.052 C 
ATOM     10  C   UNL A   1      38.726  32.052  33.312  1.00  0.00     0.093 C 
ATOM     11  C   UNL A   1      40.625  30.379  33.909  1.00  0.00     0.121 C 
ATOM     12  C   UNL A   1      40.692  30.785  35.348  1.00  0.00     0.093 C 
ATOM     13  S   UNL A   1      41.173  28.630  34.000  1.00  0.00    -0.052 SA
ATOM     14  S   UNL A   1      40.314  32.413  35.759  1.00  0.00    -0.095 SA
ATOM     15  N   UNL A   1      41.143  29.987  36.252  1.00  0.00    -0.200 NA
ATOM     16  C   UNL A   1      41.504  28.775  35.723  1.00  0.00     0.306 C 
ATOM     17  O   UNL A   1      42.017  27.867  36.342  1.00  0.00    -0.259 OA
BRANCH   9  18
ATOM     18  C   UNL A   1      39.275  30.011  31.859  1.00  0.00    -0.042 A 
ATOM     19  C   UNL A   1      39.449  28.845  29.298  1.00  0.00     0.118 A 
ATOM     20  C   UNL A   1      38.483  28.413  30.200  1.00  0.00     0.047 A 
ATOM     21  C   UNL A   1      40.325  29.864  29.662  1.00  0.00     0.047 A 
ATOM     22  C   UNL A   1      38.426  28.959  31.483  1.00  0.00     0.008 A 
ATOM     23  C   UNL A   1      40.233  30.449  30.929  1.00  0.00     0.008 A 
BRANCH  19  24
ATOM     24  O   UNL A   1      39.428  28.258  28.064  1.00  0.00    -0.497 OA
ATOM     25  C   UNL A   1      40.130  28.992  27.066  1.00  0.00     0.278 C 
ENDBRANCH  19  24
ENDBRANCH   9  18
BRANCH  10  26
ATOM     26  C   UNL A   1      37.278  32.319  32.766  1.00  0.00     0.168 C 
ATOM     27  O   UNL A   1      36.295  31.889  33.370  1.00  0.00    -0.294 OA
BRANCH  26  28
ATOM     28  C   UNL A   1      37.045  33.004  31.458  1.00  0.00     0.021 A 
ATOM     29  C   UNL A   1      37.767  34.151  31.189  1.00  0.00     0.012 A 
ATOM     30  C   UNL A   1      36.579  32.264  30.372  1.00  0.00    -0.034 A 
ATOM     31  C   UNL A   1      38.371  34.285  29.939  1.00  0.00     0.001 A 
ATOM     32  C   UNL A   1      37.384  32.197  29.229  1.00  0.00    -0.044 A 
ATOM     33  C   UNL A   1      35.107  32.509  29.949  1.00  0.00     0.036 C 
ATOM     34  C   UNL A   1      38.282  33.242  29.008  1.00  0.00     0.004 A 
ATOM     35  C   UNL A   1      37.071  31.143  28.200  1.00  0.00     0.036 C 
ATOM     36  C   UNL A   1      34.646  31.636  28.771  1.00  0.00     0.005 C 
ATOM     37  C   UNL A   1      35.662  30.560  28.395  1.00  0.00     0.005 C 
ENDBRANCH  26  28
ENDBRANCH  10  26
ENDBRANCH   5   8
ENDBRANCH   3   4
ENDBRANCH   2   3
ENDBRANCH   1   2
BRANCH   1  38
ATOM     38  C   UNL A   1      42.709  37.421  35.257  1.00  0.00     0.002 C 
BRANCH  38  39
ATOM     39  C   UNL A   1      43.907  37.288  36.200  1.00  0.00     0.021 C 
BRANCH  39  40
ATOM     40  C   UNL A   1      43.586  36.664  37.555  1.00  0.00     0.116 C 
BRANCH  40  41
ATOM     41  N   UNL A   1      44.782  36.401  38.340  1.00  0.00    -0.352 N 
ATOM     42  C   UNL A   1      45.636  35.329  38.301  1.00  0.00     0.251 C 
ATOM     43  H   UNL A   1      45.011  37.097  38.998  1.00  0.00     0.163 HD
ATOM     44  O   UNL A   1      46.493  35.189  39.168  1.00  0.00    -0.269 OA
BRANCH  42  45
ATOM     45  C   UNL A   1      45.515  34.324  37.223  1.00  0.00     0.039 A 
ATOM     46  C   UNL A   1      44.333  33.588  37.118  1.00  0.00     0.014 A 
ATOM     47  C   UNL A   1      46.564  34.098  36.326  1.00  0.00     0.014 A 
ATOM     48  C   UNL A   1      44.178  32.669  36.077  1.00  0.00     0.010 A 
ATOM     49  C   UNL A   1      46.379  33.239  35.245  1.00  0.00     0.010 A 
ATOM     50  C   UNL A   1      45.185  32.513  35.111  1.00  0.00    -0.014 A 
BRANCH  50  51
ATOM     51  C   UNL A   1      45.002  31.600  33.954  1.00  0.00     0.031 A 
ATOM     52  C   UNL A   1      44.721  32.156  32.584  1.00  0.00     0.074 A 
ATOM     53  C   UNL A   1      45.028  30.267  34.148  1.00  0.00     0.049 A 
ATOM     54  N   UNL A   1      44.477  31.519  31.467  1.00  0.00    -0.248 NA
ATOM     55  C   UNL A   1      44.681  33.621  32.459  1.00  0.00     0.031 C 
ATOM     56  C   UNL A   1      45.243  29.605  35.435  1.00  0.00     0.029 A 
ATOM     57  N   UNL A   1      44.864  29.227  33.266  1.00  0.00    -0.354 N 
ATOM     58  C   UNL A   1      44.242  32.502  30.514  1.00  0.00     0.074 A 
ATOM     59  C   UNL A   1      44.319  33.776  31.194  1.00  0.00     0.031 C 
ATOM     60  C   UNL A   1      45.219  28.275  35.257  1.00  0.00     0.029 A 
ATOM     61  C   UNL A   1      44.946  27.988  33.852  1.00  0.00     0.049 A 
ATOM     62  H   UNL A   1      44.703  29.359  32.303  1.00  0.00     0.167 HD
ATOM     63  C   UNL A   1      44.003  32.355  29.189  1.00  0.00     0.037 A 
ATOM     64  C   UNL A   1      44.805  26.759  33.320  1.00  0.00     0.037 A 
ATOM     65  C   UNL A   1      43.954  31.084  28.512  1.00  0.00     0.049 A 
ATOM     66  C   UNL A   1      44.532  26.625  31.845  1.00  0.00     0.074 A 
ATOM     67  C   UNL A   1      43.793  30.834  27.160  1.00  0.00     0.029 A 
ATOM     68  N   UNL A   1      44.059  29.851  29.136  1.00  0.00    -0.354 N 
ATOM     69  N   UNL A   1      44.396  27.563  30.939  1.00  0.00    -0.248 NA
ATOM     70  C   UNL A   1      44.403  25.260  31.315  1.00  0.00     0.031 C 
ATOM     71  C   UNL A   1      43.737  29.449  26.975  1.00  0.00     0.029 A 
ATOM     72  C   UNL A   1      43.931  28.835  28.202  1.00  0.00     0.049 A 
ATOM     73  H   UNL A   1      44.202  29.716  30.101  1.00  0.00     0.167 HD
ATOM     74  C   UNL A   1      44.199  26.904  29.733  1.00  0.00     0.074 A 
ATOM     75  C   UNL A   1      44.251  25.487  30.019  1.00  0.00     0.031 C 
ATOM     76  C   UNL A   1      43.996  27.427  28.499  1.00  0.00     0.037 A 
BRANCH  63  77
ATOM     77  C   UNL A   1      43.770  33.597  28.376  1.00  0.00     0.064 A 
ATOM     78  C   UNL A   1      42.581  34.335  28.474  1.00  0.00     0.173 A 
ATOM     79  C   UNL A   1      44.776  34.086  27.526  1.00  0.00     0.173 A 
ATOM     80  F   UNL A   1      41.584  33.908  29.263  1.00  0.00    -0.203 F 
ATOM     81  C   UNL A   1      42.396  35.499  27.732  1.00  0.00     0.198 A 
ATOM     82  C   UNL A   1      44.601  35.267  26.812  1.00  0.00     0.198 A 
ATOM     83  F   UNL A   1      45.935  33.423  27.399  1.00  0.00    -0.203 F 
ATOM     84  F   UNL A   1      41.234  36.160  27.805  1.00  0.00    -0.200 F 
ATOM     85  C   UNL A   1      43.408  35.969  26.909  1.00  0.00     0.200 A 
ATOM     86  F   UNL A   1      45.587  35.728  26.030  1.00  0.00    -0.200 F 
ATOM     87  F   UNL A   1      43.234  37.096  26.206  1.00  0.00    -0.200 F 
ENDBRANCH  63  77
BRANCH  64  88
ATOM     88  C   UNL A   1      44.927  25.552  34.181  1.00  0.00     0.064 A 
ATOM     89  C   UNL A   1      46.173  24.951  34.411  1.00  0.00     0.173 A 
ATOM     90  C   UNL A   1      43.800  24.961  34.773  1.00  0.00     0.173 A 
ATOM     91  F   UNL A   1      47.278  25.466  33.852  1.00  0.00    -0.203 F 
ATOM     92  C   UNL A   1      46.283  23.788  35.173  1.00  0.00     0.198 A 
ATOM     93  C   UNL A   1      43.916  23.819  35.562  1.00  0.00     0.198 A 
ATOM     94  F   UNL A   1      42.585  25.499  34.591  1.00  0.00    -0.203 F 
ATOM     95  F   UNL A   1      47.477  23.202  35.326  1.00  0.00    -0.200 F 
ATOM     96  C   UNL A   1      45.155  23.226  35.752  1.00  0.00     0.200 A 
ATOM     97  F   UNL A   1      42.826  23.289  36.134  1.00  0.00    -0.200 F 
ATOM     98  F   UNL A   1      45.261  22.109  36.483  1.00  0.00    -0.200 F 
ENDBRANCH  64  88
BRANCH  76  99
ATOM     99  C   UNL A   1      43.859  26.463  27.354  1.00  0.00     0.064 A 
ATOM    100  C   UNL A   1      44.935  26.162  26.507  1.00  0.00     0.173 A 
ATOM    101  C   UNL A   1      42.642  25.802  27.128  1.00  0.00     0.173 A 
ATOM    102  F   UNL A   1      46.117  26.777  26.671  1.00  0.00    -0.203 F 
ATOM    103  C   UNL A   1      44.789  25.258  25.457  1.00  0.00     0.198 A 
ATOM    104  C   UNL A   1      42.510  24.873  26.100  1.00  0.00     0.198 A 
ATOM    105  F   UNL A   1      41.583  26.046  27.914  1.00  0.00    -0.203 F 
ATOM    106  F   UNL A   1      45.816  25.028  24.627  1.00  0.00    -0.200 F 
ATOM    107  C   UNL A   1      43.581  24.608  25.260  1.00  0.00     0.200 A 
ATOM    108  F   UNL A   1      41.345  24.233  25.923  1.00  0.00    -0.200 F 
ATOM    109  F   UNL A   1      43.445  23.731  24.256  1.00  0.00    -0.200 F 
ENDBRANCH  76  99
ENDBRANCH  50  51
ENDBRANCH  42  45
ENDBRANCH  40  41
ENDBRANCH  39  40
ENDBRANCH  38  39
ENDBRANCH   1  38
TORSDOF 17
ENDMDL
MODEL 3
REMARK VINA RESULT:      -9.7      4.716     11.978
REMARK SMILES COc1ccc([C@@H]2[C@@H](C(=O)c3cccc4c3CCCC4)[C@H](C(=O)NCCCCCCNC(=O)c3ccc(-c4c5nc(c(-c6c(F)c(F)c(F)c(F)c6F)c6ccc([nH]6)c(-c6c(F)c(F)c(F)c(F)c6F)c6nc(c(-c7c(F)c(F)c(F)c(F)c7F)c7ccc4[nH]7)C=C6)C=C5)cc3)SC3=NC(=O)S[C@H]32)cc1
REMARK SMILES IDX 27 1 26 2 25 3 24 4 22 5 23 6 21 8 7 9 8 10 103 11 98 12
REMARK SMILES IDX 102 13 97 14 99 15 100 16 101 17 6 18 3 19 4 20 105 21 5 22
REMARK SMILES IDX 104 23 2 24 1 25 9 26 10 27 11 28 12 29 16 30 13 31 15 32
REMARK SMILES IDX 17 33 14 34 20 35 18 36 19 37 28 38 29 39 30 40 31 41 32 42
REMARK SMILES IDX 33 44 34 45 35 46 96 47 36 48 95 49 37 50 38 51 39 52 89 53
REMARK SMILES IDX 40 54 94 55 88 56 90 57 41 58 93 59 87 60 86 61 42 63 74 64
REMARK SMILES IDX 54 65 73 66 55 67 58 68 72 69 91 70 56 71 57 72 71 74 92 75
REMARK SMILES IDX 59 76 43 77 44 78 52 79 45 80 46 81 50 82 53 83 47 84 48 85
REMARK SMILES IDX 51 86 49 87 75 88 76 89 84 90 77 91 78 92 82 93 85 94 79 95
REMARK SMILES IDX 80 96 83 97 81 98 60 99 61 100 69 101 62 102 63 103 67 104
REMARK SMILES IDX 70 105 64 106 65 107 68 108 66 109
REMARK H PARENT 24 7 31 43 90 62 58 73
REMARK Flexibility Score: inf
ROOT
ATOM      1  C   UNL A   1      50.359  25.718  28.977  1.00  0.00     0.002 C 
ENDROOT
BRANCH   1   2
ATOM      2  C   UNL A   1      49.074  26.033  29.753  1.00  0.00     0.021 C 
BRANCH   2   3
ATOM      3  C   UNL A   1      47.806  25.994  28.901  1.00  0.00     0.116 C 
BRANCH   3   4
ATOM      4  N   UNL A   1      47.960  25.094  27.769  1.00  0.00    -0.355 N 
ATOM      5  C   UNL A   1      47.433  25.109  26.509  1.00  0.00     0.234 C 
ATOM      6  O   UNL A   1      47.763  24.204  25.740  1.00  0.00    -0.274 OA
ATOM      7  H   UNL A   1      48.556  24.331  27.944  1.00  0.00     0.163 HD
BRANCH   5   8
ATOM      8  C   UNL A   1      46.503  26.235  26.026  1.00  0.00     0.153 C 
ATOM      9  C   UNL A   1      44.215  27.416  26.526  1.00  0.00     0.052 C 
ATOM     10  C   UNL A   1      45.068  26.105  26.587  1.00  0.00     0.093 C 
ATOM     11  C   UNL A   1      44.959  28.656  27.076  1.00  0.00     0.121 C 
ATOM     12  C   UNL A   1      46.212  28.974  26.321  1.00  0.00     0.093 C 
ATOM     13  S   UNL A   1      44.023  30.225  26.905  1.00  0.00    -0.052 SA
ATOM     14  S   UNL A   1      47.455  27.787  26.258  1.00  0.00    -0.095 SA
ATOM     15  N   UNL A   1      46.424  30.147  25.835  1.00  0.00    -0.200 NA
ATOM     16  C   UNL A   1      45.374  30.995  26.081  1.00  0.00     0.306 C 
ATOM     17  O   UNL A   1      45.344  32.171  25.789  1.00  0.00    -0.259 OA
BRANCH   9  18
ATOM     18  C   UNL A   1      42.908  27.279  27.319  1.00  0.00    -0.042 A 
ATOM     19  C   UNL A   1      40.546  26.859  28.799  1.00  0.00     0.118 A 
ATOM     20  C   UNL A   1      41.773  26.930  29.446  1.00  0.00     0.047 A 
ATOM     21  C   UNL A   1      40.485  27.005  27.415  1.00  0.00     0.047 A 
ATOM     22  C   UNL A   1      42.947  27.093  28.709  1.00  0.00     0.008 A 
ATOM     23  C   UNL A   1      41.657  27.223  26.682  1.00  0.00     0.008 A 
BRANCH  19  24
ATOM     24  O   UNL A   1      39.449  26.702  29.600  1.00  0.00    -0.497 OA
ATOM     25  C   UNL A   1      39.062  27.890  30.283  1.00  0.00     0.278 C 
ENDBRANCH  19  24
ENDBRANCH   9  18
BRANCH  10  26
ATOM     26  C   UNL A   1      44.411  24.812  25.981  1.00  0.00     0.168 C 
ATOM     27  O   UNL A   1      44.174  24.741  24.775  1.00  0.00    -0.294 OA
BRANCH  26  28
ATOM     28  C   UNL A   1      43.961  23.680  26.846  1.00  0.00     0.021 A 
ATOM     29  C   UNL A   1      44.687  23.410  27.990  1.00  0.00     0.012 A 
ATOM     30  C   UNL A   1      42.622  23.292  26.824  1.00  0.00    -0.034 A 
ATOM     31  C   UNL A   1      44.000  23.194  29.185  1.00  0.00     0.001 A 
ATOM     32  C   UNL A   1      41.894  23.378  28.016  1.00  0.00    -0.044 A 
ATOM     33  C   UNL A   1      42.303  21.945  26.124  1.00  0.00     0.036 C 
ATOM     34  C   UNL A   1      42.603  23.309  29.214  1.00  0.00     0.004 A 
ATOM     35  C   UNL A   1      40.392  23.301  27.937  1.00  0.00     0.036 C 
ATOM     36  C   UNL A   1      40.807  21.596  26.101  1.00  0.00     0.005 C 
ATOM     37  C   UNL A   1      39.921  22.742  26.585  1.00  0.00     0.005 C 
ENDBRANCH  26  28
ENDBRANCH  10  26
ENDBRANCH   5   8
ENDBRANCH   3   4
ENDBRANCH   2   3
ENDBRANCH   1   2
BRANCH   1  38
ATOM     38  C   UNL A   1      51.658  26.148  29.667  1.00  0.00     0.002 C 
BRANCH  38  39
ATOM     39  C   UNL A   1      51.473  26.993  30.930  1.00  0.00     0.021 C 
BRANCH  39  40
ATOM     40  C   UNL A   1      52.692  27.816  31.331  1.00  0.00     0.116 C 
BRANCH  40  41
ATOM     41  N   UNL A   1      53.175  28.656  30.245  1.00  0.00    -0.352 N 
ATOM     42  C   UNL A   1      52.486  29.528  29.441  1.00  0.00     0.251 C 
ATOM     43  H   UNL A   1      54.139  28.587  30.061  1.00  0.00     0.163 HD
ATOM     44  O   UNL A   1      53.025  30.014  28.453  1.00  0.00    -0.269 OA
BRANCH  42  45
ATOM     45  C   UNL A   1      51.081  29.869  29.751  1.00  0.00     0.039 A 
ATOM     46  C   UNL A   1      50.083  29.504  28.844  1.00  0.00     0.014 A 
ATOM     47  C   UNL A   1      50.746  30.555  30.922  1.00  0.00     0.014 A 
ATOM     48  C   UNL A   1      48.745  29.773  29.140  1.00  0.00     0.010 A 
ATOM     49  C   UNL A   1      49.408  30.753  31.252  1.00  0.00     0.010 A 
ATOM     50  C   UNL A   1      48.393  30.367  30.363  1.00  0.00    -0.014 A 
BRANCH  50  51
ATOM     51  C   UNL A   1      46.969  30.585  30.727  1.00  0.00     0.031 A 
ATOM     52  C   UNL A   1      46.207  29.527  31.478  1.00  0.00     0.074 A 
ATOM     53  C   UNL A   1      46.345  31.711  30.328  1.00  0.00     0.049 A 
ATOM     54  N   UNL A   1      44.947  29.511  31.834  1.00  0.00    -0.248 NA
ATOM     55  C   UNL A   1      46.950  28.315  31.855  1.00  0.00     0.031 C 
ATOM     56  C   UNL A   1      46.962  32.788  29.553  1.00  0.00     0.029 A 
ATOM     57  N   UNL A   1      45.051  32.133  30.509  1.00  0.00    -0.354 N 
ATOM     58  C   UNL A   1      44.746  28.288  32.461  1.00  0.00     0.074 A 
ATOM     59  C   UNL A   1      45.997  27.567  32.391  1.00  0.00     0.031 C 
ATOM     60  C   UNL A   1      46.055  33.756  29.344  1.00  0.00     0.029 A 
ATOM     61  C   UNL A   1      44.782  33.350  29.933  1.00  0.00     0.049 A 
ATOM     62  H   UNL A   1      44.380  31.612  31.006  1.00  0.00     0.167 HD
ATOM     63  C   UNL A   1      43.624  27.819  33.058  1.00  0.00     0.037 A 
ATOM     64  C   UNL A   1      43.637  34.056  29.875  1.00  0.00     0.037 A 
ATOM     65  C   UNL A   1      42.388  28.554  33.150  1.00  0.00     0.049 A 
ATOM     66  C   UNL A   1      42.403  33.506  30.542  1.00  0.00     0.074 A 
ATOM     67  C   UNL A   1      41.220  28.195  33.800  1.00  0.00     0.029 A 
ATOM     68  N   UNL A   1      42.159  29.791  32.568  1.00  0.00    -0.354 N 
ATOM     69  N   UNL A   1      42.249  32.385  31.205  1.00  0.00    -0.248 NA
ATOM     70  C   UNL A   1      41.185  34.325  30.461  1.00  0.00     0.031 C 
ATOM     71  C   UNL A   1      40.264  29.187  33.558  1.00  0.00     0.029 A 
ATOM     72  C   UNL A   1      40.856  30.196  32.816  1.00  0.00     0.049 A 
ATOM     73  H   UNL A   1      42.823  30.307  32.056  1.00  0.00     0.167 HD
ATOM     74  C   UNL A   1      40.932  32.380  31.646  1.00  0.00     0.074 A 
ATOM     75  C   UNL A   1      40.335  33.617  31.190  1.00  0.00     0.031 C 
ATOM     76  C   UNL A   1      40.278  31.436  32.365  1.00  0.00     0.037 A 
BRANCH  63  77
ATOM     77  C   UNL A   1      43.673  26.443  33.660  1.00  0.00     0.064 A 
ATOM     78  C   UNL A   1      43.784  25.291  32.867  1.00  0.00     0.173 A 
ATOM     79  C   UNL A   1      43.665  26.279  35.055  1.00  0.00     0.173 A 
ATOM     80  F   UNL A   1      43.786  25.390  31.529  1.00  0.00    -0.203 F 
ATOM     81  C   UNL A   1      43.855  24.027  33.445  1.00  0.00     0.198 A 
ATOM     82  C   UNL A   1      43.770  25.016  35.629  1.00  0.00     0.198 A 
ATOM     83  F   UNL A   1      43.567  27.347  35.860  1.00  0.00    -0.203 F 
ATOM     84  F   UNL A   1      43.911  22.938  32.666  1.00  0.00    -0.200 F 
ATOM     85  C   UNL A   1      43.858  23.890  34.825  1.00  0.00     0.200 A 
ATOM     86  F   UNL A   1      43.789  24.889  36.964  1.00  0.00    -0.200 F 
ATOM     87  F   UNL A   1      43.940  22.673  35.380  1.00  0.00    -0.200 F 
ENDBRANCH  63  77
BRANCH  64  88
ATOM     88  C   UNL A   1      43.598  35.364  29.168  1.00  0.00     0.064 A 
ATOM     89  C   UNL A   1      43.865  36.561  29.848  1.00  0.00     0.173 A 
ATOM     90  C   UNL A   1      43.271  35.448  27.806  1.00  0.00     0.173 A 
ATOM     91  F   UNL A   1      44.163  36.536  31.156  1.00  0.00    -0.203 F 
ATOM     92  C   UNL A   1      43.775  37.793  29.202  1.00  0.00     0.198 A 
ATOM     93  C   UNL A   1      43.216  36.677  27.153  1.00  0.00     0.198 A 
ATOM     94  F   UNL A   1      43.013  34.333  27.107  1.00  0.00    -0.203 F 
ATOM     95  F   UNL A   1      43.976  38.924  29.890  1.00  0.00    -0.200 F 
ATOM     96  C   UNL A   1      43.456  37.849  27.854  1.00  0.00     0.200 A 
ATOM     97  F   UNL A   1      42.924  36.725  25.846  1.00  0.00    -0.200 F 
ATOM     98  F   UNL A   1      43.369  39.033  27.232  1.00  0.00    -0.200 F 
ENDBRANCH  64  88
BRANCH  76  99
ATOM     99  C   UNL A   1      38.852  31.722  32.746  1.00  0.00     0.064 A 
ATOM    100  C   UNL A   1      38.516  32.298  33.979  1.00  0.00     0.173 A 
ATOM    101  C   UNL A   1      37.812  31.451  31.844  1.00  0.00     0.173 A 
ATOM    102  F   UNL A   1      39.471  32.564  34.883  1.00  0.00    -0.203 F 
ATOM    103  C   UNL A   1      37.189  32.563  34.308  1.00  0.00     0.198 A 
ATOM    104  C   UNL A   1      36.490  31.750  32.161  1.00  0.00     0.198 A 
ATOM    105  F   UNL A   1      38.078  30.908  30.646  1.00  0.00    -0.203 F 
ATOM    106  F   UNL A   1      36.887  33.063  35.514  1.00  0.00    -0.200 F 
ATOM    107  C   UNL A   1      36.178  32.298  33.396  1.00  0.00     0.200 A 
ATOM    108  F   UNL A   1      35.518  31.509  31.271  1.00  0.00    -0.200 F 
ATOM    109  F   UNL A   1      34.903  32.563  33.710  1.00  0.00    -0.200 F 
ENDBRANCH  76  99
ENDBRANCH  50  51
ENDBRANCH  42  45
ENDBRANCH  40  41
ENDBRANCH  39  40
ENDBRANCH  38  39
ENDBRANCH   1  38
TORSDOF 17
ENDMDL
