MODEL 1
REMARK VINA RESULT:     -11.7      0.000      0.000
REMARK SMILES O=C(CCC(=O)Nc1ccc(N2CCN(c3ccc(F)cc3)CC2)cc1)NCCCCCCNC(=O)c1ccc(-c2c3nc(c(-c4c(F)c(F)c(F)c(F)c4F)c4ccc([nH]4)c(-c4c(F)c(F)c(F)c(F)c4F)c4nc(c(-c5c(F)c(F)c(F)c(F)c5F)c5ccc2[nH]5)C=C4)C=C3)cc1
REMARK SMILES IDX 29 1 28 2 27 3 1 4 2 5 3 7 4 8 5 9 6 10 7 11 8 13 9 14 26 15
REMARK SMILES IDX 10 16 25 17 11 18 12 19 13 20 24 21 14 22 23 23 15 24 16 25
REMARK SMILES IDX 17 26 22 27 18 28 21 29 19 30 20 31 30 32 31 33 32 34 33 35
REMARK SMILES IDX 34 36 35 37 36 39 37 40 38 41 99 42 39 43 98 44 40 45 41 46
REMARK SMILES IDX 42 47 92 48 43 49 97 50 91 51 93 52 44 53 96 54 90 55 89 56
REMARK SMILES IDX 45 58 77 59 57 60 76 61 58 62 61 63 75 64 94 65 59 66 60 67
REMARK SMILES IDX 74 69 95 70 62 71 46 72 47 73 55 74 48 75 49 76 53 77 56 78
REMARK SMILES IDX 50 79 51 80 54 81 52 82 78 83 79 84 87 85 80 86 81 87 85 88
REMARK SMILES IDX 88 89 82 90 83 91 86 92 84 93 63 94 64 95 72 96 65 97 66 98
REMARK SMILES IDX 70 99 73 100 67 101 68 102 71 103 69 104
REMARK H PARENT 27 6 7 12 34 38 93 57 61 68
REMARK Flexibility Score: inf
ROOT
ATOM      1  C   UNL A   1      44.427  23.457  32.129  1.00  0.00     0.021 C 
ENDROOT
BRANCH   1   2
ATOM      2  C   UNL A   1      44.421  23.894  30.669  1.00  0.00     0.116 C 
BRANCH   2   3
ATOM      3  N   UNL A   1      43.235  23.471  29.950  1.00  0.00    -0.356 N 
ATOM      4  O   UNL A   1      44.285  22.994  27.960  1.00  0.00    -0.275 OA
ATOM      5  C   UNL A   1      43.288  22.959  28.675  1.00  0.00     0.220 C 
ATOM      6  H   UNL A   1      42.359  23.554  30.391  1.00  0.00     0.163 HD
BRANCH   5   7
ATOM      7  C   UNL A   1      42.000  22.304  28.218  1.00  0.00     0.110 C 
BRANCH   7   8
ATOM      8  C   UNL A   1      42.042  21.662  26.832  1.00  0.00     0.110 C 
BRANCH   8   9
ATOM      9  C   UNL A   1      41.792  20.174  26.808  1.00  0.00     0.224 C 
ATOM     10  O   UNL A   1      42.728  19.407  27.068  1.00  0.00    -0.275 OA
ATOM     11  N   UNL A   1      40.606  19.597  26.470  1.00  0.00    -0.326 N 
ATOM     12  H   UNL A   1      40.540  18.658  26.759  1.00  0.00     0.169 HD
BRANCH  11  13
ATOM     13  C   UNL A   1      39.452  20.047  25.798  1.00  0.00     0.041 A 
ATOM     14  C   UNL A   1      39.147  21.407  25.939  1.00  0.00     0.028 A 
ATOM     15  C   UNL A   1      38.523  19.238  25.158  1.00  0.00     0.028 A 
ATOM     16  C   UNL A   1      37.880  21.894  25.594  1.00  0.00     0.028 A 
ATOM     17  C   UNL A   1      37.247  19.720  24.845  1.00  0.00     0.028 A 
ATOM     18  C   UNL A   1      36.893  21.042  25.095  1.00  0.00     0.037 A 
BRANCH  18  19
ATOM     19  N   UNL A   1      35.625  21.538  24.842  1.00  0.00    -0.368 N 
ATOM     20  C   UNL A   1      34.728  21.621  26.007  1.00  0.00     0.138 C 
ATOM     21  C   UNL A   1      35.453  22.607  23.832  1.00  0.00     0.138 C 
ATOM     22  C   UNL A   1      34.762  23.026  26.648  1.00  0.00     0.138 C 
ATOM     23  C   UNL A   1      35.293  24.026  24.434  1.00  0.00     0.138 C 
ATOM     24  N   UNL A   1      34.444  24.051  25.637  1.00  0.00    -0.368 N 
BRANCH  24  25
ATOM     25  C   UNL A   1      33.173  24.591  25.661  1.00  0.00     0.037 A 
ATOM     26  C   UNL A   1      32.115  23.883  25.063  1.00  0.00     0.029 A 
ATOM     27  C   UNL A   1      32.886  25.840  26.224  1.00  0.00     0.029 A 
ATOM     28  C   UNL A   1      30.821  24.404  25.011  1.00  0.00     0.041 A 
ATOM     29  C   UNL A   1      31.593  26.376  26.163  1.00  0.00     0.041 A 
ATOM     30  C   UNL A   1      30.574  25.653  25.556  1.00  0.00     0.123 A 
ATOM     31  F   UNL A   1      29.341  26.171  25.493  1.00  0.00    -0.207 F 
ENDBRANCH  24  25
ENDBRANCH  18  19
ENDBRANCH  11  13
ENDBRANCH   8   9
ENDBRANCH   7   8
ENDBRANCH   5   7
ENDBRANCH   2   3
ENDBRANCH   1   2
BRANCH   1  32
ATOM     32  C   UNL A   1      44.980  24.492  33.118  1.00  0.00     0.002 C 
BRANCH  32  33
ATOM     33  C   UNL A   1      46.340  25.103  32.764  1.00  0.00     0.002 C 
BRANCH  33  34
ATOM     34  C   UNL A   1      47.476  24.818  33.748  1.00  0.00     0.021 C 
BRANCH  34  35
ATOM     35  C   UNL A   1      47.056  24.170  35.063  1.00  0.00     0.116 C 
BRANCH  35  36
ATOM     36  N   UNL A   1      47.435  24.943  36.234  1.00  0.00    -0.352 N 
ATOM     37  C   UNL A   1      46.942  26.144  36.679  1.00  0.00     0.251 C 
ATOM     38  H   UNL A   1      48.149  24.549  36.787  1.00  0.00     0.163 HD
ATOM     39  O   UNL A   1      47.460  26.705  37.644  1.00  0.00    -0.269 OA
BRANCH  37  40
ATOM     40  C   UNL A   1      45.807  26.786  35.981  1.00  0.00     0.039 A 
ATOM     41  C   UNL A   1      46.053  27.913  35.193  1.00  0.00     0.014 A 
ATOM     42  C   UNL A   1      44.506  26.290  36.105  1.00  0.00     0.014 A 
ATOM     43  C   UNL A   1      45.005  28.511  34.488  1.00  0.00     0.010 A 
ATOM     44  C   UNL A   1      43.480  26.835  35.337  1.00  0.00     0.010 A 
ATOM     45  C   UNL A   1      43.715  27.959  34.531  1.00  0.00    -0.014 A 
BRANCH  45  46
ATOM     46  C   UNL A   1      42.591  28.567  33.770  1.00  0.00     0.031 A 
ATOM     47  C   UNL A   1      41.608  29.464  34.473  1.00  0.00     0.074 A 
ATOM     48  C   UNL A   1      42.429  28.279  32.464  1.00  0.00     0.049 A 
ATOM     49  N   UNL A   1      40.520  30.027  34.009  1.00  0.00    -0.248 NA
ATOM     50  C   UNL A   1      41.867  29.746  35.895  1.00  0.00     0.031 C 
ATOM     51  C   UNL A   1      43.288  27.393  31.678  1.00  0.00     0.029 A 
ATOM     52  N   UNL A   1      41.474  28.693  31.567  1.00  0.00    -0.354 N 
ATOM     53  C   UNL A   1      39.971  30.725  35.078  1.00  0.00     0.074 A 
ATOM     54  C   UNL A   1      40.802  30.457  36.231  1.00  0.00     0.031 C 
ATOM     55  C   UNL A   1      42.835  27.344  30.415  1.00  0.00     0.029 A 
ATOM     56  C   UNL A   1      41.629  28.160  30.310  1.00  0.00     0.049 A 
ATOM     57  H   UNL A   1      40.748  29.315  31.803  1.00  0.00     0.167 HD
ATOM     58  C   UNL A   1      38.892  31.542  35.091  1.00  0.00     0.037 A 
ATOM     59  C   UNL A   1      40.875  28.304  29.202  1.00  0.00     0.037 A 
ATOM     60  C   UNL A   1      38.073  31.821  33.940  1.00  0.00     0.049 A 
ATOM     61  C   UNL A   1      39.664  29.201  29.254  1.00  0.00     0.074 A 
ATOM     62  C   UNL A   1      36.965  32.644  33.847  1.00  0.00     0.029 A 
ATOM     63  N   UNL A   1      38.280  31.283  32.678  1.00  0.00    -0.354 N 
ATOM     64  N   UNL A   1      39.183  29.891  30.259  1.00  0.00    -0.248 NA
ATOM     65  C   UNL A   1      38.897  29.349  28.008  1.00  0.00     0.031 C 
ATOM     66  C   UNL A   1      36.477  32.575  32.538  1.00  0.00     0.029 A 
ATOM     67  C   UNL A   1      37.317  31.756  31.801  1.00  0.00     0.049 A 
ATOM     68  H   UNL A   1      39.003  30.659  32.440  1.00  0.00     0.167 HD
ATOM     69  C   UNL A   1      38.091  30.588  29.758  1.00  0.00     0.074 A 
ATOM     70  C   UNL A   1      37.987  30.247  28.355  1.00  0.00     0.031 C 
ATOM     71  C   UNL A   1      37.248  31.433  30.400  1.00  0.00     0.037 A 
BRANCH  58  72
ATOM     72  C   UNL A   1      38.543  32.217  36.386  1.00  0.00     0.064 A 
ATOM     73  C   UNL A   1      37.854  31.537  37.402  1.00  0.00     0.173 A 
ATOM     74  C   UNL A   1      38.948  33.536  36.640  1.00  0.00     0.173 A 
ATOM     75  F   UNL A   1      37.432  30.278  37.205  1.00  0.00    -0.203 F 
ATOM     76  C   UNL A   1      37.566  32.157  38.614  1.00  0.00     0.198 A 
ATOM     77  C   UNL A   1      38.688  34.143  37.866  1.00  0.00     0.198 A 
ATOM     78  F   UNL A   1      39.614  34.233  35.706  1.00  0.00    -0.203 F 
ATOM     79  F   UNL A   1      36.869  31.500  39.552  1.00  0.00    -0.200 F 
ATOM     80  C   UNL A   1      37.993  33.455  38.850  1.00  0.00     0.200 A 
ATOM     81  F   UNL A   1      39.114  35.392  38.098  1.00  0.00    -0.200 F 
ATOM     82  F   UNL A   1      37.729  34.046  40.024  1.00  0.00    -0.200 F 
ENDBRANCH  58  72
BRANCH  59  83
ATOM     83  C   UNL A   1      41.235  27.594  27.945  1.00  0.00     0.064 A 
ATOM     84  C   UNL A   1      40.642  26.368  27.609  1.00  0.00     0.173 A 
ATOM     85  C   UNL A   1      42.218  28.097  27.081  1.00  0.00     0.173 A 
ATOM     86  F   UNL A   1      39.709  25.834  28.411  1.00  0.00    -0.203 F 
ATOM     87  C   UNL A   1      41.051  25.652  26.485  1.00  0.00     0.198 A 
ATOM     88  C   UNL A   1      42.600  27.399  25.938  1.00  0.00     0.198 A 
ATOM     89  F   UNL A   1      42.813  29.269  27.349  1.00  0.00    -0.203 F 
ATOM     90  F   UNL A   1      40.521  24.448  26.231  1.00  0.00    -0.200 F 
ATOM     91  C   UNL A   1      42.028  26.170  25.649  1.00  0.00     0.200 A 
ATOM     92  F   UNL A   1      43.532  27.911  25.122  1.00  0.00    -0.200 F 
ATOM     93  F   UNL A   1      42.428  25.477  24.574  1.00  0.00    -0.200 F 
ENDBRANCH  59  83
BRANCH  71  94
ATOM     94  C   UNL A   1      36.186  32.108  29.578  1.00  0.00     0.064 A 
ATOM     95  C   UNL A   1      36.218  33.483  29.305  1.00  0.00     0.173 A 
ATOM     96  C   UNL A   1      35.137  31.354  29.029  1.00  0.00     0.173 A 
ATOM     97  F   UNL A   1      37.193  34.252  29.815  1.00  0.00    -0.203 F 
ATOM     98  C   UNL A   1      35.218  34.085  28.544  1.00  0.00     0.198 A 
ATOM     99  C   UNL A   1      34.160  31.952  28.239  1.00  0.00     0.198 A 
ATOM    100  F   UNL A   1      35.065  30.033  29.251  1.00  0.00    -0.203 F 
ATOM    101  F   UNL A   1      35.237  35.410  28.346  1.00  0.00    -0.200 F 
ATOM    102  C   UNL A   1      34.196  33.318  28.006  1.00  0.00     0.200 A 
ATOM    103  F   UNL A   1      33.183  31.206  27.705  1.00  0.00    -0.200 F 
ATOM    104  F   UNL A   1      33.238  33.898  27.269  1.00  0.00    -0.200 F 
ENDBRANCH  71  94
ENDBRANCH  45  46
ENDBRANCH  37  40
ENDBRANCH  35  36
ENDBRANCH  34  35
ENDBRANCH  33  34
ENDBRANCH  32  33
ENDBRANCH   1  32
TORSDOF 18
ENDMDL
MODEL 2
REMARK VINA RESULT:     -11.5      7.082     12.582
REMARK SMILES O=C(CCC(=O)Nc1ccc(N2CCN(c3ccc(F)cc3)CC2)cc1)NCCCCCCNC(=O)c1ccc(-c2c3nc(c(-c4c(F)c(F)c(F)c(F)c4F)c4ccc([nH]4)c(-c4c(F)c(F)c(F)c(F)c4F)c4nc(c(-c5c(F)c(F)c(F)c(F)c5F)c5ccc2[nH]5)C=C4)C=C3)cc1
REMARK SMILES IDX 29 1 28 2 27 3 1 4 2 5 3 7 4 8 5 9 6 10 7 11 8 13 9 14 26 15
REMARK SMILES IDX 10 16 25 17 11 18 12 19 13 20 24 21 14 22 23 23 15 24 16 25
REMARK SMILES IDX 17 26 22 27 18 28 21 29 19 30 20 31 30 32 31 33 32 34 33 35
REMARK SMILES IDX 34 36 35 37 36 39 37 40 38 41 99 42 39 43 98 44 40 45 41 46
REMARK SMILES IDX 42 47 92 48 43 49 97 50 91 51 93 52 44 53 96 54 90 55 89 56
REMARK SMILES IDX 45 58 77 59 57 60 76 61 58 62 61 63 75 64 94 65 59 66 60 67
REMARK SMILES IDX 74 69 95 70 62 71 46 72 47 73 55 74 48 75 49 76 53 77 56 78
REMARK SMILES IDX 50 79 51 80 54 81 52 82 78 83 79 84 87 85 80 86 81 87 85 88
REMARK SMILES IDX 88 89 82 90 83 91 86 92 84 93 63 94 64 95 72 96 65 97 66 98
REMARK SMILES IDX 70 99 73 100 67 101 68 102 71 103 69 104
REMARK H PARENT 27 6 7 12 34 38 93 57 61 68
REMARK Flexibility Score: inf
ROOT
ATOM      1  C   UNL A   1      40.257  28.786  26.909  1.00  0.00     0.021 C 
ENDROOT
BRANCH   1   2
ATOM      2  C   UNL A   1      39.684  29.372  28.194  1.00  0.00     0.116 C 
BRANCH   2   3
ATOM      3  N   UNL A   1      38.275  29.081  28.377  1.00  0.00    -0.356 N 
ATOM      4  O   UNL A   1      37.596  31.251  28.723  1.00  0.00    -0.275 OA
ATOM      5  C   UNL A   1      37.330  30.068  28.529  1.00  0.00     0.220 C 
ATOM      6  H   UNL A   1      37.984  28.140  28.394  1.00  0.00     0.163 HD
BRANCH   5   7
ATOM      7  C   UNL A   1      35.901  29.580  28.404  1.00  0.00     0.110 C 
BRANCH   7   8
ATOM      8  C   UNL A   1      35.108  30.153  27.231  1.00  0.00     0.110 C 
BRANCH   8   9
ATOM      9  C   UNL A   1      33.938  31.025  27.616  1.00  0.00     0.224 C 
ATOM     10  O   UNL A   1      34.122  31.954  28.412  1.00  0.00    -0.275 OA
ATOM     11  N   UNL A   1      32.661  30.835  27.185  1.00  0.00    -0.326 N 
ATOM     12  H   UNL A   1      32.090  31.628  27.312  1.00  0.00     0.169 HD
BRANCH  11  13
ATOM     13  C   UNL A   1      31.974  29.755  26.596  1.00  0.00     0.041 A 
ATOM     14  C   UNL A   1      31.725  28.655  27.428  1.00  0.00     0.028 A 
ATOM     15  C   UNL A   1      31.676  29.625  25.246  1.00  0.00     0.028 A 
ATOM     16  C   UNL A   1      31.347  27.420  26.886  1.00  0.00     0.028 A 
ATOM     17  C   UNL A   1      31.331  28.382  24.704  1.00  0.00     0.028 A 
ATOM     18  C   UNL A   1      31.201  27.254  25.507  1.00  0.00     0.037 A 
BRANCH  18  19
ATOM     19  N   UNL A   1      30.908  26.001  24.996  1.00  0.00    -0.368 N 
ATOM     20  C   UNL A   1      31.704  25.585  23.829  1.00  0.00     0.138 C 
ATOM     21  C   UNL A   1      30.526  24.912  25.924  1.00  0.00     0.138 C 
ATOM     22  C   UNL A   1      32.924  24.737  24.249  1.00  0.00     0.138 C 
ATOM     23  C   UNL A   1      31.672  23.914  26.235  1.00  0.00     0.138 C 
ATOM     24  N   UNL A   1      32.484  23.581  25.052  1.00  0.00    -0.368 N 
BRANCH  24  25
ATOM     25  C   UNL A   1      32.444  22.352  24.424  1.00  0.00     0.037 A 
ATOM     26  C   UNL A   1      32.172  22.293  23.045  1.00  0.00     0.029 A 
ATOM     27  C   UNL A   1      32.625  21.141  25.105  1.00  0.00     0.029 A 
ATOM     28  C   UNL A   1      32.068  21.077  22.369  1.00  0.00     0.041 A 
ATOM     29  C   UNL A   1      32.507  19.916  24.436  1.00  0.00     0.041 A 
ATOM     30  C   UNL A   1      32.229  19.896  23.076  1.00  0.00     0.123 A 
ATOM     31  F   UNL A   1      32.110  18.724  22.440  1.00  0.00    -0.207 F 
ENDBRANCH  24  25
ENDBRANCH  18  19
ENDBRANCH  11  13
ENDBRANCH   8   9
ENDBRANCH   7   8
ENDBRANCH   5   7
ENDBRANCH   2   3
ENDBRANCH   1   2
BRANCH   1  32
ATOM     32  C   UNL A   1      41.014  27.462  27.076  1.00  0.00     0.002 C 
BRANCH  32  33
ATOM     33  C   UNL A   1      40.720  26.674  28.357  1.00  0.00     0.002 C 
BRANCH  33  34
ATOM     34  C   UNL A   1      40.182  25.256  28.159  1.00  0.00     0.021 C 
BRANCH  34  35
ATOM     35  C   UNL A   1      40.105  24.780  26.713  1.00  0.00     0.116 C 
BRANCH  35  36
ATOM     36  N   UNL A   1      40.792  23.520  26.482  1.00  0.00    -0.352 N 
ATOM     37  C   UNL A   1      42.126  23.287  26.257  1.00  0.00     0.251 C 
ATOM     38  H   UNL A   1      40.219  22.719  26.488  1.00  0.00     0.163 HD
ATOM     39  O   UNL A   1      42.516  22.154  25.978  1.00  0.00    -0.269 OA
BRANCH  37  40
ATOM     40  C   UNL A   1      43.096  24.401  26.316  1.00  0.00     0.039 A 
ATOM     41  C   UNL A   1      43.342  25.142  25.157  1.00  0.00     0.014 A 
ATOM     42  C   UNL A   1      43.768  24.714  27.501  1.00  0.00     0.014 A 
ATOM     43  C   UNL A   1      44.220  26.227  25.199  1.00  0.00     0.010 A 
ATOM     44  C   UNL A   1      44.579  25.846  27.561  1.00  0.00     0.010 A 
ATOM     45  C   UNL A   1      44.824  26.607  26.408  1.00  0.00    -0.014 A 
BRANCH  45  46
ATOM     46  C   UNL A   1      45.743  27.773  26.478  1.00  0.00     0.031 A 
ATOM     47  C   UNL A   1      47.227  27.568  26.325  1.00  0.00     0.074 A 
ATOM     48  C   UNL A   1      45.253  29.004  26.721  1.00  0.00     0.049 A 
ATOM     49  N   UNL A   1      48.200  28.438  26.430  1.00  0.00    -0.248 NA
ATOM     50  C   UNL A   1      47.680  26.196  26.039  1.00  0.00     0.031 C 
ATOM     51  C   UNL A   1      43.841  29.329  26.928  1.00  0.00     0.029 A 
ATOM     52  N   UNL A   1      45.892  30.214  26.849  1.00  0.00    -0.354 N 
ATOM     53  C   UNL A   1      49.372  27.721  26.226  1.00  0.00     0.074 A 
ATOM     54  C   UNL A   1      48.998  26.334  26.062  1.00  0.00     0.031 C 
ATOM     55  C   UNL A   1      43.718  30.649  27.139  1.00  0.00     0.029 A 
ATOM     56  C   UNL A   1      45.044  31.259  27.124  1.00  0.00     0.049 A 
ATOM     57  H   UNL A   1      46.865  30.321  26.751  1.00  0.00     0.167 HD
ATOM     58  C   UNL A   1      50.643  28.181  26.147  1.00  0.00     0.037 A 
ATOM     59  C   UNL A   1      45.309  32.561  27.350  1.00  0.00     0.037 A 
ATOM     60  C   UNL A   1      51.015  29.563  26.295  1.00  0.00     0.049 A 
ATOM     61  C   UNL A   1      46.737  33.039  27.282  1.00  0.00     0.074 A 
ATOM     62  C   UNL A   1      52.274  30.132  26.220  1.00  0.00     0.029 A 
ATOM     63  N   UNL A   1      50.123  30.596  26.544  1.00  0.00    -0.354 N 
ATOM     64  N   UNL A   1      47.831  32.357  27.041  1.00  0.00    -0.248 NA
ATOM     65  C   UNL A   1      46.966  34.474  27.503  1.00  0.00     0.031 C 
ATOM     66  C   UNL A   1      52.151  31.503  26.463  1.00  0.00     0.029 A 
ATOM     67  C   UNL A   1      50.807  31.798  26.629  1.00  0.00     0.049 A 
ATOM     68  H   UNL A   1      49.150  30.491  26.645  1.00  0.00     0.167 HD
ATOM     69  C   UNL A   1      48.866  33.284  27.036  1.00  0.00     0.074 A 
ATOM     70  C   UNL A   1      48.269  34.578  27.285  1.00  0.00     0.031 C 
ATOM     71  C   UNL A   1      50.193  33.082  26.844  1.00  0.00     0.037 A 
BRANCH  58  72
ATOM     72  C   UNL A   1      51.730  27.182  25.865  1.00  0.00     0.064 A 
ATOM     73  C   UNL A   1      52.068  26.824  24.551  1.00  0.00     0.173 A 
ATOM     74  C   UNL A   1      52.478  26.621  26.910  1.00  0.00     0.173 A 
ATOM     75  F   UNL A   1      51.376  27.323  23.515  1.00  0.00    -0.203 F 
ATOM     76  C   UNL A   1      53.101  25.927  24.295  1.00  0.00     0.198 A 
ATOM     77  C   UNL A   1      53.532  25.748  26.650  1.00  0.00     0.198 A 
ATOM     78  F   UNL A   1      52.200  26.931  28.185  1.00  0.00    -0.203 F 
ATOM     79  F   UNL A   1      53.377  25.568  23.033  1.00  0.00    -0.200 F 
ATOM     80  C   UNL A   1      53.839  25.398  25.343  1.00  0.00     0.200 A 
ATOM     81  F   UNL A   1      54.253  25.250  27.663  1.00  0.00    -0.200 F 
ATOM     82  F   UNL A   1      54.843  24.546  25.095  1.00  0.00    -0.200 F 
ENDBRANCH  58  72
BRANCH  59  83
ATOM     83  C   UNL A   1      44.208  33.515  27.658  1.00  0.00     0.064 A 
ATOM     84  C   UNL A   1      43.716  34.394  26.682  1.00  0.00     0.173 A 
ATOM     85  C   UNL A   1      43.663  33.605  28.947  1.00  0.00     0.173 A 
ATOM     86  F   UNL A   1      44.216  34.361  25.438  1.00  0.00    -0.203 F 
ATOM     87  C   UNL A   1      42.757  35.356  26.995  1.00  0.00     0.198 A 
ATOM     88  C   UNL A   1      42.677  34.541  29.249  1.00  0.00     0.198 A 
ATOM     89  F   UNL A   1      44.090  32.784  29.917  1.00  0.00    -0.203 F 
ATOM     90  F   UNL A   1      42.362  36.232  26.062  1.00  0.00    -0.200 F 
ATOM     91  C   UNL A   1      42.237  35.427  28.278  1.00  0.00     0.200 A 
ATOM     92  F   UNL A   1      42.164  34.596  30.485  1.00  0.00    -0.200 F 
ATOM     93  F   UNL A   1      41.322  36.358  28.581  1.00  0.00    -0.200 F 
ENDBRANCH  59  83
BRANCH  71  94
ATOM     94  C   UNL A   1      51.081  34.294  26.819  1.00  0.00     0.064 A 
ATOM     95  C   UNL A   1      51.763  34.742  27.959  1.00  0.00     0.173 A 
ATOM     96  C   UNL A   1      51.275  34.999  25.620  1.00  0.00     0.173 A 
ATOM     97  F   UNL A   1      51.604  34.112  29.133  1.00  0.00    -0.203 F 
ATOM     98  C   UNL A   1      52.576  35.871  27.909  1.00  0.00     0.198 A 
ATOM     99  C   UNL A   1      52.117  36.105  25.565  1.00  0.00     0.198 A 
ATOM    100  F   UNL A   1      50.654  34.607  24.497  1.00  0.00    -0.203 F 
ATOM    101  F   UNL A   1      53.170  36.316  29.025  1.00  0.00    -0.200 F 
ATOM    102  C   UNL A   1      52.759  36.546  26.711  1.00  0.00     0.200 A 
ATOM    103  F   UNL A   1      52.306  36.745  24.402  1.00  0.00    -0.200 F 
ATOM    104  F   UNL A   1      53.547  37.629  26.664  1.00  0.00    -0.200 F 
ENDBRANCH  71  94
ENDBRANCH  45  46
ENDBRANCH  37  40
ENDBRANCH  35  36
ENDBRANCH  34  35
ENDBRANCH  33  34
ENDBRANCH  32  33
ENDBRANCH   1  32
TORSDOF 18
ENDMDL
MODEL 3
REMARK VINA RESULT:     -11.4      4.204      9.657
REMARK SMILES O=C(CCC(=O)Nc1ccc(N2CCN(c3ccc(F)cc3)CC2)cc1)NCCCCCCNC(=O)c1ccc(-c2c3nc(c(-c4c(F)c(F)c(F)c(F)c4F)c4ccc([nH]4)c(-c4c(F)c(F)c(F)c(F)c4F)c4nc(c(-c5c(F)c(F)c(F)c(F)c5F)c5ccc2[nH]5)C=C4)C=C3)cc1
REMARK SMILES IDX 29 1 28 2 27 3 1 4 2 5 3 7 4 8 5 9 6 10 7 11 8 13 9 14 26 15
REMARK SMILES IDX 10 16 25 17 11 18 12 19 13 20 24 21 14 22 23 23 15 24 16 25
REMARK SMILES IDX 17 26 22 27 18 28 21 29 19 30 20 31 30 32 31 33 32 34 33 35
REMARK SMILES IDX 34 36 35 37 36 39 37 40 38 41 99 42 39 43 98 44 40 45 41 46
REMARK SMILES IDX 42 47 92 48 43 49 97 50 91 51 93 52 44 53 96 54 90 55 89 56
REMARK SMILES IDX 45 58 77 59 57 60 76 61 58 62 61 63 75 64 94 65 59 66 60 67
REMARK SMILES IDX 74 69 95 70 62 71 46 72 47 73 55 74 48 75 49 76 53 77 56 78
REMARK SMILES IDX 50 79 51 80 54 81 52 82 78 83 79 84 87 85 80 86 81 87 85 88
REMARK SMILES IDX 88 89 82 90 83 91 86 92 84 93 63 94 64 95 72 96 65 97 66 98
REMARK SMILES IDX 70 99 73 100 67 101 68 102 71 103 69 104
REMARK H PARENT 27 6 7 12 34 38 93 57 61 68
REMARK Flexibility Score: inf
ROOT
ATOM      1  C   UNL A   1      29.533  25.892  25.758  1.00  0.00     0.021 C 
ENDROOT
BRANCH   1   2
ATOM      2  C   UNL A   1      29.057  26.307  24.371  1.00  0.00     0.116 C 
BRANCH   2   3
ATOM      3  N   UNL A   1      30.083  26.965  23.586  1.00  0.00    -0.356 N 
ATOM      4  O   UNL A   1      29.035  29.007  23.432  1.00  0.00    -0.275 OA
ATOM      5  C   UNL A   1      30.026  28.301  23.267  1.00  0.00     0.220 C 
ATOM      6  H   UNL A   1      30.850  26.434  23.270  1.00  0.00     0.163 HD
BRANCH   5   7
ATOM      7  C   UNL A   1      31.321  28.859  22.710  1.00  0.00     0.110 C 
BRANCH   7   8
ATOM      8  C   UNL A   1      32.195  27.863  21.949  1.00  0.00     0.110 C 
BRANCH   8   9
ATOM      9  C   UNL A   1      33.636  27.808  22.395  1.00  0.00     0.224 C 
ATOM     10  O   UNL A   1      34.465  28.530  21.827  1.00  0.00    -0.275 OA
ATOM     11  N   UNL A   1      34.113  26.973  23.358  1.00  0.00    -0.326 N 
ATOM     12  H   UNL A   1      34.993  27.247  23.703  1.00  0.00     0.169 HD
BRANCH  11  13
ATOM     13  C   UNL A   1      33.624  25.803  23.973  1.00  0.00     0.041 A 
ATOM     14  C   UNL A   1      34.195  25.471  25.209  1.00  0.00     0.028 A 
ATOM     15  C   UNL A   1      32.762  24.883  23.391  1.00  0.00     0.028 A 
ATOM     16  C   UNL A   1      34.029  24.190  25.752  1.00  0.00     0.028 A 
ATOM     17  C   UNL A   1      32.625  23.594  23.918  1.00  0.00     0.028 A 
ATOM     18  C   UNL A   1      33.287  23.215  25.082  1.00  0.00     0.037 A 
BRANCH  18  19
ATOM     19  N   UNL A   1      33.211  21.935  25.603  1.00  0.00    -0.368 N 
ATOM     20  C   UNL A   1      32.181  21.065  25.011  1.00  0.00     0.138 C 
ATOM     21  C   UNL A   1      34.454  21.250  26.026  1.00  0.00     0.138 C 
ATOM     22  C   UNL A   1      32.764  20.187  23.882  1.00  0.00     0.138 C 
ATOM     23  C   UNL A   1      34.984  20.213  25.003  1.00  0.00     0.138 C 
ATOM     24  N   UNL A   1      33.913  19.412  24.385  1.00  0.00    -0.368 N 
BRANCH  24  25
ATOM     25  C   UNL A   1      33.702  18.077  24.668  1.00  0.00     0.037 A 
ATOM     26  C   UNL A   1      32.571  17.704  25.416  1.00  0.00     0.029 A 
ATOM     27  C   UNL A   1      34.587  17.065  24.274  1.00  0.00     0.029 A 
ATOM     28  C   UNL A   1      32.335  16.376  25.776  1.00  0.00     0.041 A 
ATOM     29  C   UNL A   1      34.365  15.733  24.644  1.00  0.00     0.041 A 
ATOM     30  C   UNL A   1      33.242  15.401  25.391  1.00  0.00     0.123 A 
ATOM     31  F   UNL A   1      33.036  14.128  25.749  1.00  0.00    -0.207 F 
ENDBRANCH  24  25
ENDBRANCH  18  19
ENDBRANCH  11  13
ENDBRANCH   8   9
ENDBRANCH   7   8
ENDBRANCH   5   7
ENDBRANCH   2   3
ENDBRANCH   1   2
BRANCH   1  32
ATOM     32  C   UNL A   1      30.950  26.351  26.126  1.00  0.00     0.002 C 
BRANCH  32  33
ATOM     33  C   UNL A   1      31.063  27.728  26.788  1.00  0.00     0.002 C 
BRANCH  33  34
ATOM     34  C   UNL A   1      32.484  28.223  27.061  1.00  0.00     0.021 C 
BRANCH  34  35
ATOM     35  C   UNL A   1      33.047  29.198  26.033  1.00  0.00     0.116 C 
BRANCH  35  36
ATOM     36  N   UNL A   1      32.755  30.590  26.337  1.00  0.00    -0.352 N 
ATOM     37  C   UNL A   1      33.425  31.457  27.163  1.00  0.00     0.251 C 
ATOM     38  H   UNL A   1      31.963  30.963  25.887  1.00  0.00     0.163 HD
ATOM     39  O   UNL A   1      32.969  32.579  27.381  1.00  0.00    -0.269 OA
BRANCH  37  40
ATOM     40  C   UNL A   1      34.681  31.036  27.823  1.00  0.00     0.039 A 
ATOM     41  C   UNL A   1      35.722  31.960  27.939  1.00  0.00     0.014 A 
ATOM     42  C   UNL A   1      34.839  29.739  28.319  1.00  0.00     0.014 A 
ATOM     43  C   UNL A   1      36.900  31.601  28.598  1.00  0.00     0.010 A 
ATOM     44  C   UNL A   1      35.979  29.409  29.048  1.00  0.00     0.010 A 
ATOM     45  C   UNL A   1      37.028  30.331  29.183  1.00  0.00    -0.014 A 
BRANCH  45  46
ATOM     46  C   UNL A   1      38.264  29.938  29.909  1.00  0.00     0.031 A 
ATOM     47  C   UNL A   1      38.546  30.507  31.273  1.00  0.00     0.074 A 
ATOM     48  C   UNL A   1      39.152  29.108  29.327  1.00  0.00     0.049 A 
ATOM     49  N   UNL A   1      39.600  30.352  32.036  1.00  0.00    -0.248 NA
ATOM     50  C   UNL A   1      37.517  31.389  31.849  1.00  0.00     0.031 C 
ATOM     51  C   UNL A   1      39.015  28.521  27.993  1.00  0.00     0.029 A 
ATOM     52  N   UNL A   1      40.355  28.622  29.779  1.00  0.00    -0.354 N 
ATOM     53  C   UNL A   1      39.359  31.114  33.173  1.00  0.00     0.074 A 
ATOM     54  C   UNL A   1      38.095  31.788  32.972  1.00  0.00     0.031 C 
ATOM     55  C   UNL A   1      40.080  27.742  27.743  1.00  0.00     0.029 A 
ATOM     56  C   UNL A   1      40.995  27.806  28.878  1.00  0.00     0.049 A 
ATOM     57  H   UNL A   1      40.723  28.838  30.666  1.00  0.00     0.167 HD
ATOM     58  C   UNL A   1      40.106  31.216  34.297  1.00  0.00     0.037 A 
ATOM     59  C   UNL A   1      42.191  27.190  28.955  1.00  0.00     0.037 A 
ATOM     60  C   UNL A   1      41.356  30.534  34.504  1.00  0.00     0.049 A 
ATOM     61  C   UNL A   1      43.013  27.344  30.210  1.00  0.00     0.074 A 
ATOM     62  C   UNL A   1      42.184  30.562  35.613  1.00  0.00     0.029 A 
ATOM     63  N   UNL A   1      41.957  29.693  33.578  1.00  0.00    -0.354 N 
ATOM     64  N   UNL A   1      42.751  28.030  31.296  1.00  0.00    -0.248 NA
ATOM     65  C   UNL A   1      44.294  26.624  30.255  1.00  0.00     0.031 C 
ATOM     66  C   UNL A   1      43.304  29.771  35.344  1.00  0.00     0.029 A 
ATOM     67  C   UNL A   1      43.146  29.201  34.091  1.00  0.00     0.049 A 
ATOM     68  H   UNL A   1      41.593  29.478  32.689  1.00  0.00     0.167 HD
ATOM     69  C   UNL A   1      43.806  27.787  32.166  1.00  0.00     0.074 A 
ATOM     70  C   UNL A   1      44.707  26.881  31.486  1.00  0.00     0.031 C 
ATOM     71  C   UNL A   1      44.014  28.272  33.414  1.00  0.00     0.037 A 
BRANCH  58  72
ATOM     72  C   UNL A   1      39.581  32.081  35.407  1.00  0.00     0.064 A 
ATOM     73  C   UNL A   1      38.727  31.565  36.393  1.00  0.00     0.173 A 
ATOM     74  C   UNL A   1      39.978  33.422  35.521  1.00  0.00     0.173 A 
ATOM     75  F   UNL A   1      38.306  30.292  36.324  1.00  0.00    -0.203 F 
ATOM     76  C   UNL A   1      38.273  32.363  37.440  1.00  0.00     0.198 A 
ATOM     77  C   UNL A   1      39.550  34.208  36.588  1.00  0.00     0.198 A 
ATOM     78  F   UNL A   1      40.798  33.966  34.609  1.00  0.00    -0.203 F 
ATOM     79  F   UNL A   1      37.423  31.858  38.345  1.00  0.00    -0.200 F 
ATOM     80  C   UNL A   1      38.693  33.680  37.543  1.00  0.00     0.200 A 
ATOM     81  F   UNL A   1      39.969  35.477  36.694  1.00  0.00    -0.200 F 
ATOM     82  F   UNL A   1      38.269  34.443  38.559  1.00  0.00    -0.200 F 
ENDBRANCH  58  72
BRANCH  59  83
ATOM     83  C   UNL A   1      42.692  26.366  27.821  1.00  0.00     0.064 A 
ATOM     84  C   UNL A   1      43.597  26.891  26.887  1.00  0.00     0.173 A 
ATOM     85  C   UNL A   1      42.235  25.057  27.616  1.00  0.00     0.173 A 
ATOM     86  F   UNL A   1      44.051  28.145  27.027  1.00  0.00    -0.203 F 
ATOM     87  C   UNL A   1      43.988  26.156  25.769  1.00  0.00     0.198 A 
ATOM     88  C   UNL A   1      42.655  24.309  26.519  1.00  0.00     0.198 A 
ATOM     89  F   UNL A   1      41.374  24.501  28.483  1.00  0.00    -0.203 F 
ATOM     90  F   UNL A   1      44.793  26.711  24.854  1.00  0.00    -0.200 F 
ATOM     91  C   UNL A   1      43.519  24.864  25.587  1.00  0.00     0.200 A 
ATOM     92  F   UNL A   1      42.214  23.054  26.356  1.00  0.00    -0.200 F 
ATOM     93  F   UNL A   1      43.887  24.161  24.508  1.00  0.00    -0.200 F 
ENDBRANCH  59  83
BRANCH  71  94
ATOM     94  C   UNL A   1      45.221  27.774  34.159  1.00  0.00     0.064 A 
ATOM     95  C   UNL A   1      45.163  26.667  35.017  1.00  0.00     0.173 A 
ATOM     96  C   UNL A   1      46.465  28.401  33.980  1.00  0.00     0.173 A 
ATOM     97  F   UNL A   1      43.996  26.038  35.231  1.00  0.00    -0.203 F 
ATOM     98  C   UNL A   1      46.296  26.229  35.698  1.00  0.00     0.198 A 
ATOM     99  C   UNL A   1      47.603  27.939  34.634  1.00  0.00     0.198 A 
ATOM    100  F   UNL A   1      46.578  29.459  33.163  1.00  0.00    -0.203 F 
ATOM    101  F   UNL A   1      46.203  25.206  36.559  1.00  0.00    -0.200 F 
ATOM    102  C   UNL A   1      47.515  26.860  35.500  1.00  0.00     0.200 A 
ATOM    103  F   UNL A   1      48.783  28.538  34.428  1.00  0.00    -0.200 F 
ATOM    104  F   UNL A   1      48.606  26.433  36.152  1.00  0.00    -0.200 F 
ENDBRANCH  71  94
ENDBRANCH  45  46
ENDBRANCH  37  40
ENDBRANCH  35  36
ENDBRANCH  34  35
ENDBRANCH  33  34
ENDBRANCH  32  33
ENDBRANCH   1  32
TORSDOF 18
ENDMDL
