MODEL 1
REMARK VINA RESULT:     -12.4      0.000      0.000
REMARK SMILES CC1(C)[C@@](C)(C(=O)NCCCCCCNC(=O)c2ccc(-c3c4nc(c(-c5c(F)c(F)c(F)c(F)c5F)c5ccc([nH]5)c(-c5c(F)c(F)c(F)c(F)c5F)c5nc(c(-c6c(F)c(F)c(F)c(F)c6F)c6ccc3[nH]6)C=C5)C=C4)cc2)[C@@]12CC[C@@H]2C(=O)NCc1ccco1
REMARK SMILES IDX 11 1 10 2 9 3 8 4 6 5 7 6 4 8 1 9 2 10 3 11 81 12 5 13 82 14
REMARK SMILES IDX 84 15 83 16 85 17 86 18 87 19 88 21 89 22 90 23 93 24 91 25
REMARK SMILES IDX 92 26 12 27 13 28 14 29 15 30 16 31 17 33 18 34 19 35 80 36
REMARK SMILES IDX 20 37 79 38 21 39 22 40 23 41 73 42 24 43 78 44 72 45 74 46
REMARK SMILES IDX 25 47 77 48 71 49 70 50 26 52 58 53 38 54 57 55 39 56 42 57
REMARK SMILES IDX 56 58 75 59 40 60 41 61 55 63 76 64 43 65 27 66 28 67 36 68
REMARK SMILES IDX 29 69 30 70 34 71 37 72 31 73 32 74 35 75 33 76 59 77 60 78
REMARK SMILES IDX 68 79 61 80 62 81 66 82 69 83 63 84 64 85 67 86 65 87 44 88
REMARK SMILES IDX 45 89 53 90 46 91 47 92 51 93 54 94 48 95 49 96 52 97 50 98
REMARK H PARENT 8 7 87 20 15 32 74 51 42 62
REMARK Flexibility Score: inf
ROOT
ATOM      1  C   UNL A   1      34.474  20.301  24.681  1.00  0.00     0.002 C 
ENDROOT
BRANCH   1   2
ATOM      2  C   UNL A   1      33.296  20.344  25.658  1.00  0.00     0.021 C 
BRANCH   2   3
ATOM      3  C   UNL A   1      32.054  21.090  25.182  1.00  0.00     0.116 C 
BRANCH   3   4
ATOM      4  N   UNL A   1      31.361  21.830  26.201  1.00  0.00    -0.356 N 
ATOM      5  C   UNL A   1      31.051  23.168  26.202  1.00  0.00     0.227 C 
ATOM      6  O   UNL A   1      30.448  23.643  27.161  1.00  0.00    -0.274 OA
ATOM      7  H   UNL A   1      31.075  21.318  26.993  1.00  0.00     0.163 HD
BRANCH   5   8
ATOM      8  C   UNL A   1      31.550  24.061  25.079  1.00  0.00     0.059 C 
ATOM      9  C   UNL A   1      33.931  24.077  26.273  1.00  0.00     0.013 C 
ATOM     10  C   UNL A   1      33.048  24.484  25.102  1.00  0.00    -0.013 C 
ATOM     11  C   UNL A   1      33.854  24.520  23.820  1.00  0.00     0.013 C 
ATOM     12  C   UNL A   1      31.946  25.516  25.344  1.00  0.00     0.003 C 
ATOM     13  C   UNL A   1      30.992  23.653  23.724  1.00  0.00     0.023 C 
ATOM     14  C   UNL A   1      31.945  26.305  26.612  1.00  0.00     0.010 C 
ATOM     15  C   UNL A   1      31.704  26.753  24.503  1.00  0.00     0.086 C 
ATOM     16  C   UNL A   1      32.138  27.550  25.740  1.00  0.00     0.015 C 
BRANCH  15  17
ATOM     17  C   UNL A   1      30.332  27.016  23.815  1.00  0.00     0.224 C 
ATOM     18  O   UNL A   1      29.261  26.573  24.252  1.00  0.00    -0.275 OA
ATOM     19  N   UNL A   1      30.267  27.623  22.571  1.00  0.00    -0.349 N 
ATOM     20  H   UNL A   1      29.918  27.106  21.808  1.00  0.00     0.163 HD
BRANCH  19  21
ATOM     21  C   UNL A   1      30.689  28.978  22.352  1.00  0.00     0.191 C 
BRANCH  21  22
ATOM     22  C   UNL A   1      29.595  29.968  22.362  1.00  0.00     0.122 A 
ATOM     23  C   UNL A   1      28.991  30.657  23.394  1.00  0.00     0.047 A 
ATOM     24  O   UNL A   1      28.914  30.172  21.199  1.00  0.00    -0.467 OA
ATOM     25  C   UNL A   1      27.875  31.318  22.832  1.00  0.00     0.042 A 
ATOM     26  C   UNL A   1      27.878  31.002  21.494  1.00  0.00     0.195 A 
ENDBRANCH  21  22
ENDBRANCH  19  21
ENDBRANCH  15  17
ENDBRANCH   5   8
ENDBRANCH   3   4
ENDBRANCH   2   3
ENDBRANCH   1   2
BRANCH   1  27
ATOM     27  C   UNL A   1      35.806  20.886  25.169  1.00  0.00     0.002 C 
BRANCH  27  28
ATOM     28  C   UNL A   1      37.065  20.041  24.950  1.00  0.00     0.021 C 
BRANCH  28  29
ATOM     29  C   UNL A   1      38.386  20.634  25.436  1.00  0.00     0.116 C 
BRANCH  29  30
ATOM     30  N   UNL A   1      39.426  19.635  25.608  1.00  0.00    -0.352 N 
ATOM     31  C   UNL A   1      40.721  19.746  26.048  1.00  0.00     0.251 C 
ATOM     32  H   UNL A   1      39.154  18.720  25.366  1.00  0.00     0.163 HD
ATOM     33  O   UNL A   1      41.459  18.766  25.980  1.00  0.00    -0.269 OA
BRANCH  31  34
ATOM     34  C   UNL A   1      41.264  21.021  26.580  1.00  0.00     0.039 A 
ATOM     35  C   UNL A   1      41.712  21.981  25.662  1.00  0.00     0.014 A 
ATOM     36  C   UNL A   1      41.401  21.265  27.948  1.00  0.00     0.014 A 
ATOM     37  C   UNL A   1      42.238  23.197  26.112  1.00  0.00     0.010 A 
ATOM     38  C   UNL A   1      41.871  22.503  28.397  1.00  0.00     0.010 A 
ATOM     39  C   UNL A   1      42.293  23.484  27.484  1.00  0.00    -0.014 A 
BRANCH  39  40
ATOM     40  C   UNL A   1      42.765  24.807  27.972  1.00  0.00     0.031 A 
ATOM     41  C   UNL A   1      41.784  25.893  28.323  1.00  0.00     0.074 A 
ATOM     42  C   UNL A   1      44.088  25.054  28.041  1.00  0.00     0.049 A 
ATOM     43  N   UNL A   1      42.015  27.128  28.693  1.00  0.00    -0.248 NA
ATOM     44  C   UNL A   1      40.357  25.553  28.224  1.00  0.00     0.031 C 
ATOM     45  C   UNL A   1      45.145  24.104  27.689  1.00  0.00     0.029 A 
ATOM     46  N   UNL A   1      44.771  26.186  28.415  1.00  0.00    -0.354 N 
ATOM     47  C   UNL A   1      40.767  27.717  28.848  1.00  0.00     0.074 A 
ATOM     48  C   UNL A   1      39.782  26.715  28.505  1.00  0.00     0.031 C 
ATOM     49  C   UNL A   1      46.340  24.689  27.870  1.00  0.00     0.029 A 
ATOM     50  C   UNL A   1      46.137  26.064  28.318  1.00  0.00     0.049 A 
ATOM     51  H   UNL A   1      44.325  27.007  28.724  1.00  0.00     0.167 HD
ATOM     52  C   UNL A   1      40.471  28.976  29.256  1.00  0.00     0.037 A 
ATOM     53  C   UNL A   1      47.114  26.961  28.551  1.00  0.00     0.037 A 
ATOM     54  C   UNL A   1      41.448  29.962  29.639  1.00  0.00     0.049 A 
ATOM     55  C   UNL A   1      46.755  28.344  29.023  1.00  0.00     0.074 A 
ATOM     56  C   UNL A   1      41.236  31.233  30.144  1.00  0.00     0.029 A 
ATOM     57  N   UNL A   1      42.820  29.787  29.561  1.00  0.00    -0.354 N 
ATOM     58  N   UNL A   1      45.571  28.862  29.238  1.00  0.00    -0.248 NA
ATOM     59  C   UNL A   1      47.869  29.264  29.291  1.00  0.00     0.031 C 
ATOM     60  C   UNL A   1      42.480  31.844  30.333  1.00  0.00     0.029 A 
ATOM     61  C   UNL A   1      43.468  30.938  29.986  1.00  0.00     0.049 A 
ATOM     62  H   UNL A   1      43.270  28.969  29.248  1.00  0.00     0.167 HD
ATOM     63  C   UNL A   1      45.797  30.155  29.689  1.00  0.00     0.074 A 
ATOM     64  C   UNL A   1      47.233  30.340  29.733  1.00  0.00     0.031 C 
ATOM     65  C   UNL A   1      44.896  31.106  30.035  1.00  0.00     0.037 A 
BRANCH  52  66
ATOM     66  C   UNL A   1      39.025  29.372  29.316  1.00  0.00     0.064 A 
ATOM     67  C   UNL A   1      38.336  29.457  30.534  1.00  0.00     0.173 A 
ATOM     68  C   UNL A   1      38.344  29.746  28.147  1.00  0.00     0.173 A 
ATOM     69  F   UNL A   1      38.942  29.102  31.677  1.00  0.00    -0.203 F 
ATOM     70  C   UNL A   1      37.013  29.886  30.578  1.00  0.00     0.198 A 
ATOM     71  C   UNL A   1      37.028  30.199  28.199  1.00  0.00     0.198 A 
ATOM     72  F   UNL A   1      38.962  29.691  26.957  1.00  0.00    -0.203 F 
ATOM     73  F   UNL A   1      36.364  29.931  31.751  1.00  0.00    -0.200 F 
ATOM     74  C   UNL A   1      36.363  30.265  29.413  1.00  0.00     0.200 A 
ATOM     75  F   UNL A   1      36.406  30.578  27.073  1.00  0.00    -0.200 F 
ATOM     76  F   UNL A   1      35.094  30.693  29.461  1.00  0.00    -0.200 F 
ENDBRANCH  52  66
BRANCH  53  77
ATOM     77  C   UNL A   1      48.536  26.579  28.346  1.00  0.00     0.064 A 
ATOM     78  C   UNL A   1      49.322  26.123  29.414  1.00  0.00     0.173 A 
ATOM     79  C   UNL A   1      49.140  26.679  27.085  1.00  0.00     0.173 A 
ATOM     80  F   UNL A   1      48.792  26.032  30.643  1.00  0.00    -0.203 F 
ATOM     81  C   UNL A   1      50.667  25.807  29.233  1.00  0.00     0.198 A 
ATOM     82  C   UNL A   1      50.478  26.336  26.900  1.00  0.00     0.198 A 
ATOM     83  F   UNL A   1      48.429  27.102  26.030  1.00  0.00    -0.203 F 
ATOM     84  F   UNL A   1      51.408  25.421  30.280  1.00  0.00    -0.200 F 
ATOM     85  C   UNL A   1      51.242  25.910  27.976  1.00  0.00     0.200 A 
ATOM     86  F   UNL A   1      51.025  26.421  25.680  1.00  0.00    -0.200 F 
ATOM     87  F   UNL A   1      52.535  25.604  27.801  1.00  0.00    -0.200 F 
ENDBRANCH  53  77
BRANCH  65  88
ATOM     88  C   UNL A   1      45.432  32.421  30.518  1.00  0.00     0.064 A 
ATOM     89  C   UNL A   1      45.696  32.651  31.876  1.00  0.00     0.173 A 
ATOM     90  C   UNL A   1      45.719  33.449  29.608  1.00  0.00     0.173 A 
ATOM     91  F   UNL A   1      45.422  31.704  32.787  1.00  0.00    -0.203 F 
ATOM     92  C   UNL A   1      46.209  33.871  32.307  1.00  0.00     0.198 A 
ATOM     93  C   UNL A   1      46.256  34.658  30.040  1.00  0.00     0.198 A 
ATOM     94  F   UNL A   1      45.488  33.276  28.298  1.00  0.00    -0.203 F 
ATOM     95  F   UNL A   1      46.414  34.086  33.615  1.00  0.00    -0.200 F 
ATOM     96  C   UNL A   1      46.495  34.870  31.389  1.00  0.00     0.200 A 
ATOM     97  F   UNL A   1      46.542  35.618  29.150  1.00  0.00    -0.200 F 
ATOM     98  F   UNL A   1      46.993  36.043  31.806  1.00  0.00    -0.200 F 
ENDBRANCH  65  88
ENDBRANCH  39  40
ENDBRANCH  31  34
ENDBRANCH  29  30
ENDBRANCH  28  29
ENDBRANCH  27  28
ENDBRANCH   1  27
TORSDOF 16
ENDMDL
MODEL 2
REMARK VINA RESULT:     -12.3      5.404     10.180
REMARK SMILES CC1(C)[C@@](C)(C(=O)NCCCCCCNC(=O)c2ccc(-c3c4nc(c(-c5c(F)c(F)c(F)c(F)c5F)c5ccc([nH]5)c(-c5c(F)c(F)c(F)c(F)c5F)c5nc(c(-c6c(F)c(F)c(F)c(F)c6F)c6ccc3[nH]6)C=C5)C=C4)cc2)[C@@]12CC[C@@H]2C(=O)NCc1ccco1
REMARK SMILES IDX 11 1 10 2 9 3 8 4 6 5 7 6 4 8 1 9 2 10 3 11 81 12 5 13 82 14
REMARK SMILES IDX 84 15 83 16 85 17 86 18 87 19 88 21 89 22 90 23 93 24 91 25
REMARK SMILES IDX 92 26 12 27 13 28 14 29 15 30 16 31 17 33 18 34 19 35 80 36
REMARK SMILES IDX 20 37 79 38 21 39 22 40 23 41 73 42 24 43 78 44 72 45 74 46
REMARK SMILES IDX 25 47 77 48 71 49 70 50 26 52 58 53 38 54 57 55 39 56 42 57
REMARK SMILES IDX 56 58 75 59 40 60 41 61 55 63 76 64 43 65 27 66 28 67 36 68
REMARK SMILES IDX 29 69 30 70 34 71 37 72 31 73 32 74 35 75 33 76 59 77 60 78
REMARK SMILES IDX 68 79 61 80 62 81 66 82 69 83 63 84 64 85 67 86 65 87 44 88
REMARK SMILES IDX 45 89 53 90 46 91 47 92 51 93 54 94 48 95 49 96 52 97 50 98
REMARK H PARENT 8 7 87 20 15 32 74 51 42 62
REMARK Flexibility Score: inf
ROOT
ATOM      1  C   UNL A   1      34.380  32.306  28.966  1.00  0.00     0.002 C 
ENDROOT
BRANCH   1   2
ATOM      2  C   UNL A   1      34.680  31.221  27.929  1.00  0.00     0.021 C 
BRANCH   2   3
ATOM      3  C   UNL A   1      33.525  30.823  27.016  1.00  0.00     0.116 C 
BRANCH   3   4
ATOM      4  N   UNL A   1      32.518  30.001  27.631  1.00  0.00    -0.356 N 
ATOM      5  C   UNL A   1      32.165  28.716  27.298  1.00  0.00     0.227 C 
ATOM      6  O   UNL A   1      31.278  28.154  27.933  1.00  0.00    -0.274 OA
ATOM      7  H   UNL A   1      32.023  30.407  28.380  1.00  0.00     0.163 HD
BRANCH   5   8
ATOM      8  C   UNL A   1      32.794  28.049  26.086  1.00  0.00     0.059 C 
ATOM      9  C   UNL A   1      31.092  29.420  24.564  1.00  0.00     0.013 C 
ATOM     10  C   UNL A   1      32.264  28.456  24.680  1.00  0.00    -0.013 C 
ATOM     11  C   UNL A   1      33.225  28.649  23.525  1.00  0.00     0.013 C 
ATOM     12  C   UNL A   1      32.002  27.054  25.233  1.00  0.00     0.003 C 
ATOM     13  C   UNL A   1      34.304  27.915  26.217  1.00  0.00     0.023 C 
ATOM     14  C   UNL A   1      30.597  26.568  25.366  1.00  0.00     0.010 C 
ATOM     15  C   UNL A   1      32.454  25.759  24.588  1.00  0.00     0.086 C 
ATOM     16  C   UNL A   1      30.964  25.484  24.348  1.00  0.00     0.015 C 
BRANCH  15  17
ATOM     17  C   UNL A   1      33.350  24.738  25.349  1.00  0.00     0.224 C 
ATOM     18  O   UNL A   1      33.052  24.271  26.457  1.00  0.00    -0.275 OA
ATOM     19  N   UNL A   1      34.622  24.433  24.892  1.00  0.00    -0.349 N 
ATOM     20  H   UNL A   1      35.397  24.678  25.447  1.00  0.00     0.163 HD
BRANCH  19  21
ATOM     21  C   UNL A   1      34.852  23.771  23.638  1.00  0.00     0.191 C 
BRANCH  21  22
ATOM     22  C   UNL A   1      33.860  22.731  23.306  1.00  0.00     0.122 A 
ATOM     23  C   UNL A   1      32.852  22.693  22.364  1.00  0.00     0.047 A 
ATOM     24  O   UNL A   1      33.770  21.652  24.134  1.00  0.00    -0.467 OA
ATOM     25  C   UNL A   1      32.100  21.527  22.633  1.00  0.00     0.042 A 
ATOM     26  C   UNL A   1      32.705  20.922  23.710  1.00  0.00     0.195 A 
ENDBRANCH  21  22
ENDBRANCH  19  21
ENDBRANCH  15  17
ENDBRANCH   5   8
ENDBRANCH   3   4
ENDBRANCH   2   3
ENDBRANCH   1   2
BRANCH   1  27
ATOM     27  C   UNL A   1      34.351  33.757  28.468  1.00  0.00     0.002 C 
BRANCH  27  28
ATOM     28  C   UNL A   1      33.064  34.554  28.705  1.00  0.00     0.021 C 
BRANCH  28  29
ATOM     29  C   UNL A   1      33.225  35.983  29.222  1.00  0.00     0.116 C 
BRANCH  29  30
ATOM     30  N   UNL A   1      32.515  36.216  30.468  1.00  0.00    -0.352 N 
ATOM     31  C   UNL A   1      32.727  35.728  31.733  1.00  0.00     0.251 C 
ATOM     32  H   UNL A   1      31.749  36.829  30.391  1.00  0.00     0.163 HD
ATOM     33  O   UNL A   1      31.902  35.969  32.611  1.00  0.00    -0.269 OA
BRANCH  31  34
ATOM     34  C   UNL A   1      33.911  34.896  32.067  1.00  0.00     0.039 A 
ATOM     35  C   UNL A   1      35.183  35.439  31.840  1.00  0.00     0.014 A 
ATOM     36  C   UNL A   1      33.799  33.583  32.531  1.00  0.00     0.014 A 
ATOM     37  C   UNL A   1      36.331  34.694  32.131  1.00  0.00     0.010 A 
ATOM     38  C   UNL A   1      34.945  32.861  32.878  1.00  0.00     0.010 A 
ATOM     39  C   UNL A   1      36.223  33.409  32.684  1.00  0.00    -0.014 A 
BRANCH  39  40
ATOM     40  C   UNL A   1      37.434  32.642  33.082  1.00  0.00     0.031 A 
ATOM     41  C   UNL A   1      38.149  32.948  34.371  1.00  0.00     0.074 A 
ATOM     42  C   UNL A   1      37.930  31.708  32.249  1.00  0.00     0.049 A 
ATOM     43  N   UNL A   1      39.257  32.435  34.844  1.00  0.00    -0.248 NA
ATOM     44  C   UNL A   1      37.552  33.980  35.231  1.00  0.00     0.031 C 
ATOM     45  C   UNL A   1      37.361  31.345  30.950  1.00  0.00     0.029 A 
ATOM     46  N   UNL A   1      39.038  30.902  32.361  1.00  0.00    -0.354 N 
ATOM     47  C   UNL A   1      39.502  33.095  36.041  1.00  0.00     0.074 A 
ATOM     48  C   UNL A   1      38.443  34.067  36.210  1.00  0.00     0.031 C 
ATOM     49  C   UNL A   1      38.116  30.386  30.390  1.00  0.00     0.029 A 
ATOM     50  C   UNL A   1      39.242  30.088  31.272  1.00  0.00     0.049 A 
ATOM     51  H   UNL A   1      39.629  30.906  33.148  1.00  0.00     0.167 HD
ATOM     52  C   UNL A   1      40.510  32.897  36.926  1.00  0.00     0.037 A 
ATOM     53  C   UNL A   1      40.229  29.212  31.007  1.00  0.00     0.037 A 
ATOM     54  C   UNL A   1      41.540  31.902  36.781  1.00  0.00     0.049 A 
ATOM     55  C   UNL A   1      41.323  28.999  32.018  1.00  0.00     0.074 A 
ATOM     56  C   UNL A   1      42.552  31.575  37.668  1.00  0.00     0.029 A 
ATOM     57  N   UNL A   1      41.691  31.074  35.681  1.00  0.00    -0.354 N 
ATOM     58  N   UNL A   1      41.498  29.578  33.181  1.00  0.00    -0.248 NA
ATOM     59  C   UNL A   1      42.353  28.005  31.683  1.00  0.00     0.031 C 
ATOM     60  C   UNL A   1      43.340  30.576  37.087  1.00  0.00     0.029 A 
ATOM     61  C   UNL A   1      42.794  30.252  35.856  1.00  0.00     0.049 A 
ATOM     62  H   UNL A   1      41.104  31.070  34.891  1.00  0.00     0.167 HD
ATOM     63  C   UNL A   1      42.637  29.002  33.725  1.00  0.00     0.074 A 
ATOM     64  C   UNL A   1      43.106  28.016  32.774  1.00  0.00     0.031 C 
ATOM     65  C   UNL A   1      43.244  29.268  34.907  1.00  0.00     0.037 A 
BRANCH  52  66
ATOM     66  C   UNL A   1      40.556  33.773  38.143  1.00  0.00     0.064 A 
ATOM     67  C   UNL A   1      41.359  34.921  38.193  1.00  0.00     0.173 A 
ATOM     68  C   UNL A   1      39.726  33.502  39.242  1.00  0.00     0.173 A 
ATOM     69  F   UNL A   1      42.175  35.218  37.171  1.00  0.00    -0.203 F 
ATOM     70  C   UNL A   1      41.343  35.757  39.306  1.00  0.00     0.198 A 
ATOM     71  C   UNL A   1      39.694  34.354  40.343  1.00  0.00     0.198 A 
ATOM     72  F   UNL A   1      38.932  32.420  39.240  1.00  0.00    -0.203 F 
ATOM     73  F   UNL A   1      42.141  36.833  39.345  1.00  0.00    -0.200 F 
ATOM     74  C   UNL A   1      40.505  35.478  40.376  1.00  0.00     0.200 A 
ATOM     75  F   UNL A   1      38.873  34.090  41.370  1.00  0.00    -0.200 F 
ATOM     76  F   UNL A   1      40.479  36.294  41.439  1.00  0.00    -0.200 F 
ENDBRANCH  52  66
BRANCH  53  77
ATOM     77  C   UNL A   1      40.230  28.461  29.725  1.00  0.00     0.064 A 
ATOM     78  C   UNL A   1      39.530  27.254  29.595  1.00  0.00     0.173 A 
ATOM     79  C   UNL A   1      40.945  28.926  28.611  1.00  0.00     0.173 A 
ATOM     80  F   UNL A   1      38.849  26.759  30.640  1.00  0.00    -0.203 F 
ATOM     81  C   UNL A   1      39.565  26.525  28.408  1.00  0.00     0.198 A 
ATOM     82  C   UNL A   1      40.957  28.210  27.416  1.00  0.00     0.198 A 
ATOM     83  F   UNL A   1      41.624  30.079  28.682  1.00  0.00    -0.203 F 
ATOM     84  F   UNL A   1      38.928  25.350  28.327  1.00  0.00    -0.200 F 
ATOM     85  C   UNL A   1      40.276  27.006  27.318  1.00  0.00     0.200 A 
ATOM     86  F   UNL A   1      41.632  28.687  26.360  1.00  0.00    -0.200 F 
ATOM     87  F   UNL A   1      40.309  26.307  26.176  1.00  0.00    -0.200 F 
ENDBRANCH  53  77
BRANCH  65  88
ATOM     88  C   UNL A   1      44.462  28.464  35.254  1.00  0.00     0.064 A 
ATOM     89  C   UNL A   1      45.751  28.903  34.918  1.00  0.00     0.173 A 
ATOM     90  C   UNL A   1      44.339  27.260  35.963  1.00  0.00     0.173 A 
ATOM     91  F   UNL A   1      45.918  30.039  34.225  1.00  0.00    -0.203 F 
ATOM     92  C   UNL A   1      46.873  28.152  35.261  1.00  0.00     0.198 A 
ATOM     93  C   UNL A   1      45.465  26.526  36.328  1.00  0.00     0.198 A 
ATOM     94  F   UNL A   1      43.129  26.800  36.312  1.00  0.00    -0.203 F 
ATOM     95  F   UNL A   1      48.093  28.568  34.892  1.00  0.00    -0.200 F 
ATOM     96  C   UNL A   1      46.730  26.970  35.971  1.00  0.00     0.200 A 
ATOM     97  F   UNL A   1      45.326  25.389  37.022  1.00  0.00    -0.200 F 
ATOM     98  F   UNL A   1      47.811  26.251  36.305  1.00  0.00    -0.200 F 
ENDBRANCH  65  88
ENDBRANCH  39  40
ENDBRANCH  31  34
ENDBRANCH  29  30
ENDBRANCH  28  29
ENDBRANCH  27  28
ENDBRANCH   1  27
TORSDOF 16
ENDMDL
MODEL 3
REMARK VINA RESULT:     -12.2      0.982      7.027
REMARK SMILES CC1(C)[C@@](C)(C(=O)NCCCCCCNC(=O)c2ccc(-c3c4nc(c(-c5c(F)c(F)c(F)c(F)c5F)c5ccc([nH]5)c(-c5c(F)c(F)c(F)c(F)c5F)c5nc(c(-c6c(F)c(F)c(F)c(F)c6F)c6ccc3[nH]6)C=C5)C=C4)cc2)[C@@]12CC[C@@H]2C(=O)NCc1ccco1
REMARK SMILES IDX 11 1 10 2 9 3 8 4 6 5 7 6 4 8 1 9 2 10 3 11 81 12 5 13 82 14
REMARK SMILES IDX 84 15 83 16 85 17 86 18 87 19 88 21 89 22 90 23 93 24 91 25
REMARK SMILES IDX 92 26 12 27 13 28 14 29 15 30 16 31 17 33 18 34 19 35 80 36
REMARK SMILES IDX 20 37 79 38 21 39 22 40 23 41 73 42 24 43 78 44 72 45 74 46
REMARK SMILES IDX 25 47 77 48 71 49 70 50 26 52 58 53 38 54 57 55 39 56 42 57
REMARK SMILES IDX 56 58 75 59 40 60 41 61 55 63 76 64 43 65 27 66 28 67 36 68
REMARK SMILES IDX 29 69 30 70 34 71 37 72 31 73 32 74 35 75 33 76 59 77 60 78
REMARK SMILES IDX 68 79 61 80 62 81 66 82 69 83 63 84 64 85 67 86 65 87 44 88
REMARK SMILES IDX 45 89 53 90 46 91 47 92 51 93 54 94 48 95 49 96 52 97 50 98
REMARK H PARENT 8 7 87 20 15 32 74 51 42 62
REMARK Flexibility Score: inf
ROOT
ATOM      1  C   UNL A   1      34.444  20.075  24.651  1.00  0.00     0.002 C 
ENDROOT
BRANCH   1   2
ATOM      2  C   UNL A   1      33.287  20.247  25.638  1.00  0.00     0.021 C 
BRANCH   2   3
ATOM      3  C   UNL A   1      32.110  21.089  25.156  1.00  0.00     0.116 C 
BRANCH   3   4
ATOM      4  N   UNL A   1      31.434  21.836  26.182  1.00  0.00    -0.356 N 
ATOM      5  C   UNL A   1      31.121  23.173  26.179  1.00  0.00     0.227 C 
ATOM      6  O   UNL A   1      30.534  23.653  27.145  1.00  0.00    -0.274 OA
ATOM      7  H   UNL A   1      31.165  21.328  26.982  1.00  0.00     0.163 HD
BRANCH   5   8
ATOM      8  C   UNL A   1      31.597  24.058  25.040  1.00  0.00     0.059 C 
ATOM      9  C   UNL A   1      34.009  24.055  26.168  1.00  0.00     0.013 C 
ATOM     10  C   UNL A   1      33.098  24.468  25.021  1.00  0.00    -0.013 C 
ATOM     11  C   UNL A   1      33.868  24.494  23.716  1.00  0.00     0.013 C 
ATOM     12  C   UNL A   1      32.013  25.511  25.290  1.00  0.00     0.003 C 
ATOM     13  C   UNL A   1      30.998  23.652  23.702  1.00  0.00     0.023 C 
ATOM     14  C   UNL A   1      32.054  26.302  26.555  1.00  0.00     0.010 C 
ATOM     15  C   UNL A   1      31.758  26.748  24.453  1.00  0.00     0.086 C 
ATOM     16  C   UNL A   1      32.234  27.543  25.675  1.00  0.00     0.015 C 
BRANCH  15  17
ATOM     17  C   UNL A   1      30.370  27.022  23.802  1.00  0.00     0.224 C 
ATOM     18  O   UNL A   1      29.309  26.576  24.262  1.00  0.00    -0.275 OA
ATOM     19  N   UNL A   1      30.276  27.642  22.568  1.00  0.00    -0.349 N 
ATOM     20  H   UNL A   1      29.906  27.135  21.808  1.00  0.00     0.163 HD
BRANCH  19  21
ATOM     21  C   UNL A   1      30.695  28.999  22.353  1.00  0.00     0.191 C 
BRANCH  21  22
ATOM     22  C   UNL A   1      29.601  29.987  22.373  1.00  0.00     0.122 A 
ATOM     23  C   UNL A   1      29.035  30.708  23.406  1.00  0.00     0.047 A 
ATOM     24  O   UNL A   1      28.876  30.155  21.232  1.00  0.00    -0.467 OA
ATOM     25  C   UNL A   1      27.898  31.350  22.866  1.00  0.00     0.042 A 
ATOM     26  C   UNL A   1      27.851  30.993  21.540  1.00  0.00     0.195 A 
ENDBRANCH  21  22
ENDBRANCH  19  21
ENDBRANCH  15  17
ENDBRANCH   5   8
ENDBRANCH   3   4
ENDBRANCH   2   3
ENDBRANCH   1   2
BRANCH   1  27
ATOM     27  C   UNL A   1      35.777  20.739  25.018  1.00  0.00     0.002 C 
BRANCH  27  28
ATOM     28  C   UNL A   1      37.032  19.861  24.977  1.00  0.00     0.021 C 
BRANCH  28  29
ATOM     29  C   UNL A   1      38.351  20.525  25.368  1.00  0.00     0.116 C 
BRANCH  29  30
ATOM     30  N   UNL A   1      39.396  19.567  25.682  1.00  0.00    -0.352 N 
ATOM     31  C   UNL A   1      40.684  19.746  26.120  1.00  0.00     0.251 C 
ATOM     32  H   UNL A   1      39.136  18.625  25.557  1.00  0.00     0.163 HD
ATOM     33  O   UNL A   1      41.431  18.773  26.190  1.00  0.00    -0.269 OA
BRANCH  31  34
ATOM     34  C   UNL A   1      41.209  21.085  26.490  1.00  0.00     0.039 A 
ATOM     35  C   UNL A   1      41.808  21.858  25.486  1.00  0.00     0.014 A 
ATOM     36  C   UNL A   1      41.186  21.565  27.801  1.00  0.00     0.014 A 
ATOM     37  C   UNL A   1      42.323  23.124  25.782  1.00  0.00     0.010 A 
ATOM     38  C   UNL A   1      41.647  22.853  28.086  1.00  0.00     0.010 A 
ATOM     39  C   UNL A   1      42.219  23.648  27.080  1.00  0.00    -0.014 A 
BRANCH  39  40
ATOM     40  C   UNL A   1      42.682  25.028  27.389  1.00  0.00     0.031 A 
ATOM     41  C   UNL A   1      44.110  25.433  27.142  1.00  0.00     0.074 A 
ATOM     42  C   UNL A   1      41.828  25.903  27.953  1.00  0.00     0.049 A 
ATOM     43  N   UNL A   1      44.709  26.566  27.418  1.00  0.00    -0.248 NA
ATOM     44  C   UNL A   1      44.987  24.427  26.524  1.00  0.00     0.031 C 
ATOM     45  C   UNL A   1      40.430  25.625  28.286  1.00  0.00     0.029 A 
ATOM     46  N   UNL A   1      42.014  27.201  28.365  1.00  0.00    -0.354 N 
ATOM     47  C   UNL A   1      46.032  26.401  27.030  1.00  0.00     0.074 A 
ATOM     48  C   UNL A   1      46.158  25.050  26.526  1.00  0.00     0.031 C 
ATOM     49  C   UNL A   1      39.883  26.718  28.842  1.00  0.00     0.029 A 
ATOM     50  C   UNL A   1      40.898  27.764  28.936  1.00  0.00     0.049 A 
ATOM     51  H   UNL A   1      42.865  27.683  28.258  1.00  0.00     0.167 HD
ATOM     52  C   UNL A   1      47.045  27.301  27.076  1.00  0.00     0.037 A 
ATOM     53  C   UNL A   1      40.716  28.980  29.487  1.00  0.00     0.037 A 
ATOM     54  C   UNL A   1      46.911  28.658  27.536  1.00  0.00     0.049 A 
ATOM     55  C   UNL A   1      41.853  29.965  29.504  1.00  0.00     0.074 A 
ATOM     56  C   UNL A   1      47.864  29.663  27.540  1.00  0.00     0.029 A 
ATOM     57  N   UNL A   1      45.756  29.201  28.075  1.00  0.00    -0.354 N 
ATOM     58  N   UNL A   1      43.079  29.819  29.064  1.00  0.00    -0.248 NA
ATOM     59  C   UNL A   1      41.580  31.285  30.089  1.00  0.00     0.031 C 
ATOM     60  C   UNL A   1      47.296  30.804  28.118  1.00  0.00     0.029 A 
ATOM     61  C   UNL A   1      45.978  30.521  28.437  1.00  0.00     0.049 A 
ATOM     62  H   UNL A   1      44.904  28.720  28.186  1.00  0.00     0.167 HD
ATOM     63  C   UNL A   1      43.713  31.032  29.293  1.00  0.00     0.074 A 
ATOM     64  C   UNL A   1      42.733  31.910  29.898  1.00  0.00     0.031 C 
ATOM     65  C   UNL A   1      44.994  31.387  29.028  1.00  0.00     0.037 A 
BRANCH  52  66
ATOM     66  C   UNL A   1      48.400  26.855  26.611  1.00  0.00     0.064 A 
ATOM     67  C   UNL A   1      49.284  26.179  27.464  1.00  0.00     0.173 A 
ATOM     68  C   UNL A   1      48.786  27.037  25.274  1.00  0.00     0.173 A 
ATOM     69  F   UNL A   1      48.964  25.987  28.753  1.00  0.00    -0.203 F 
ATOM     70  C   UNL A   1      50.512  25.717  27.000  1.00  0.00     0.198 A 
ATOM     71  C   UNL A   1      50.005  26.551  24.808  1.00  0.00     0.198 A 
ATOM     72  F   UNL A   1      47.972  27.669  24.415  1.00  0.00    -0.203 F 
ATOM     73  F   UNL A   1      51.355  25.099  27.841  1.00  0.00    -0.200 F 
ATOM     74  C   UNL A   1      50.868  25.894  25.671  1.00  0.00     0.200 A 
ATOM     75  F   UNL A   1      50.340  26.711  23.519  1.00  0.00    -0.200 F 
ATOM     76  F   UNL A   1      52.044  25.433  25.224  1.00  0.00    -0.200 F 
ENDBRANCH  52  66
BRANCH  53  77
ATOM     77  C   UNL A   1      39.396  29.341  30.067  1.00  0.00     0.064 A 
ATOM     78  C   UNL A   1      39.100  29.072  31.411  1.00  0.00     0.173 A 
ATOM     79  C   UNL A   1      38.401  29.945  29.287  1.00  0.00     0.173 A 
ATOM     80  F   UNL A   1      40.015  28.475  32.191  1.00  0.00    -0.203 F 
ATOM     81  C   UNL A   1      37.848  29.369  31.945  1.00  0.00     0.198 A 
ATOM     82  C   UNL A   1      37.158  30.267  29.829  1.00  0.00     0.198 A 
ATOM     83  F   UNL A   1      38.637  30.230  27.998  1.00  0.00    -0.203 F 
ATOM     84  F   UNL A   1      37.575  29.055  33.219  1.00  0.00    -0.200 F 
ATOM     85  C   UNL A   1      36.880  29.969  31.155  1.00  0.00     0.200 A 
ATOM     86  F   UNL A   1      36.231  30.862  29.067  1.00  0.00    -0.200 F 
ATOM     87  F   UNL A   1      35.676  30.256  31.669  1.00  0.00    -0.200 F 
ENDBRANCH  53  77
BRANCH  65  88
ATOM     88  C   UNL A   1      45.403  32.791  29.363  1.00  0.00     0.064 A 
ATOM     89  C   UNL A   1      45.983  33.111  30.599  1.00  0.00     0.173 A 
ATOM     90  C   UNL A   1      45.247  33.819  28.421  1.00  0.00     0.173 A 
ATOM     91  F   UNL A   1      46.137  32.165  31.537  1.00  0.00    -0.203 F 
ATOM     92  C   UNL A   1      46.374  34.416  30.888  1.00  0.00     0.198 A 
ATOM     93  C   UNL A   1      45.663  35.118  28.704  1.00  0.00     0.198 A 
ATOM     94  F   UNL A   1      44.703  33.563  27.223  1.00  0.00    -0.203 F 
ATOM     95  F   UNL A   1      46.886  34.709  32.092  1.00  0.00    -0.200 F 
ATOM     96  C   UNL A   1      46.219  35.416  29.939  1.00  0.00     0.200 A 
ATOM     97  F   UNL A   1      45.524  36.080  27.783  1.00  0.00    -0.200 F 
ATOM     98  F   UNL A   1      46.600  36.671  30.217  1.00  0.00    -0.200 F 
ENDBRANCH  65  88
ENDBRANCH  39  40
ENDBRANCH  31  34
ENDBRANCH  29  30
ENDBRANCH  28  29
ENDBRANCH  27  28
ENDBRANCH   1  27
TORSDOF 16
ENDMDL
