MODEL 1
REMARK VINA RESULT:     -12.1      0.000      0.000
REMARK SMILES Cc1noc(C)c1COc1ccc(C(=O)NCCCCCCNC(=O)c2ccc(-c3c4nc(c(-c5c(F)c(F)c(F)c(F)c5F)c5ccc([nH]5)c(-c5c(F)c(F)c(F)c(F)c5F)c5nc(c(-c6c(F)c(F)c(F)c(F)c6F)c6ccc3[nH]6)C=C5)C=C4)cc2)cc1
REMARK SMILES IDX 19 1 18 2 17 3 16 4 14 5 15 6 13 8 10 9 11 10 90 11 12 12
REMARK SMILES IDX 89 13 9 14 8 15 7 16 1 17 2 18 3 19 4 20 5 21 6 22 20 23
REMARK SMILES IDX 21 24 22 25 23 26 24 27 25 29 26 30 27 31 88 32 28 33 87 34
REMARK SMILES IDX 29 35 30 36 31 37 81 38 32 39 86 40 80 41 82 42 33 43 85 44
REMARK SMILES IDX 79 45 78 46 34 48 66 49 46 50 65 51 47 52 50 53 64 54 83 55
REMARK SMILES IDX 48 56 49 57 63 59 84 60 51 61 35 62 36 63 44 64 37 65 38 66
REMARK SMILES IDX 42 67 45 68 39 69 40 70 43 71 41 72 67 73 68 74 76 75 69 76
REMARK SMILES IDX 70 77 74 78 77 79 71 80 72 81 75 82 73 83 52 84 53 85 61 86
REMARK SMILES IDX 54 87 55 88 59 89 62 90 56 91 57 92 60 93 58 94
REMARK H PARENT 16 7 23 28 82 47 50 58
REMARK Flexibility Score: inf
ROOT
ATOM      1  C   UNL A   1      33.001  30.149  26.826  1.00  0.00     0.002 C 
ENDROOT
BRANCH   1   2
ATOM      2  C   UNL A   1      33.051  28.716  27.370  1.00  0.00     0.021 C 
BRANCH   2   3
ATOM      3  C   UNL A   1      31.677  28.054  27.500  1.00  0.00     0.116 C 
BRANCH   3   4
ATOM      4  N   UNL A   1      31.697  26.703  26.965  1.00  0.00    -0.352 N 
ATOM      5  C   UNL A   1      31.489  26.237  25.691  1.00  0.00     0.251 C 
ATOM      6  O   UNL A   1      31.676  25.045  25.455  1.00  0.00    -0.269 OA
ATOM      7  H   UNL A   1      31.894  26.004  27.629  1.00  0.00     0.163 HD
BRANCH   5   8
ATOM      8  C   UNL A   1      31.096  27.141  24.582  1.00  0.00     0.040 A 
ATOM      9  C   UNL A   1      30.266  28.750  22.459  1.00  0.00     0.119 A 
ATOM     10  C   UNL A   1      29.328  27.981  23.142  1.00  0.00     0.047 A 
ATOM     11  C   UNL A   1      31.591  28.791  22.884  1.00  0.00     0.047 A 
ATOM     12  C   UNL A   1      29.746  27.172  24.202  1.00  0.00     0.017 A 
ATOM     13  C   UNL A   1      32.005  27.994  23.950  1.00  0.00     0.017 A 
BRANCH   9  14
ATOM     14  O   UNL A   1      29.865  29.541  21.416  1.00  0.00    -0.489 OA
BRANCH  14  15
ATOM     15  C   UNL A   1      28.494  29.958  21.568  1.00  0.00     0.271 C 
BRANCH  15  16
ATOM     16  C   UNL A   1      28.332  31.423  21.783  1.00  0.00     0.055 A 
ATOM     17  C   UNL A   1      29.016  31.685  24.296  1.00  0.00     0.071 C 
ATOM     18  C   UNL A   1      28.560  32.170  22.972  1.00  0.00     0.087 A 
ATOM     19  N   UNL A   1      28.337  33.476  22.779  1.00  0.00    -0.085 NA
ATOM     20  O   UNL A   1      27.948  33.602  21.462  1.00  0.00    -0.361 OA
ATOM     21  C   UNL A   1      27.945  32.380  20.869  1.00  0.00     0.140 A 
ATOM     22  C   UNL A   1      27.554  32.347  19.447  1.00  0.00     0.091 C 
ENDBRANCH  15  16
ENDBRANCH  14  15
ENDBRANCH   9  14
ENDBRANCH   5   8
ENDBRANCH   3   4
ENDBRANCH   2   3
ENDBRANCH   1   2
BRANCH   1  23
ATOM     23  C   UNL A   1      31.594  30.703  26.582  1.00  0.00     0.002 C 
BRANCH  23  24
ATOM     24  C   UNL A   1      31.414  32.195  26.878  1.00  0.00     0.021 C 
BRANCH  24  25
ATOM     25  C   UNL A   1      32.712  32.994  26.974  1.00  0.00     0.116 C 
BRANCH  25  26
ATOM     26  N   UNL A   1      32.508  34.288  27.603  1.00  0.00    -0.352 N 
ATOM     27  C   UNL A   1      33.077  34.820  28.731  1.00  0.00     0.251 C 
ATOM     28  H   UNL A   1      31.860  34.874  27.148  1.00  0.00     0.163 HD
ATOM     29  O   UNL A   1      32.620  35.851  29.215  1.00  0.00    -0.269 OA
BRANCH  27  30
ATOM     30  C   UNL A   1      34.236  34.164  29.377  1.00  0.00     0.039 A 
ATOM     31  C   UNL A   1      35.519  34.465  28.909  1.00  0.00     0.014 A 
ATOM     32  C   UNL A   1      34.069  33.207  30.384  1.00  0.00     0.014 A 
ATOM     33  C   UNL A   1      36.632  33.830  29.465  1.00  0.00     0.010 A 
ATOM     34  C   UNL A   1      35.185  32.618  30.979  1.00  0.00     0.010 A 
ATOM     35  C   UNL A   1      36.475  32.910  30.514  1.00  0.00    -0.014 A 
BRANCH  35  36
ATOM     36  C   UNL A   1      37.654  32.225  31.100  1.00  0.00     0.031 A 
ATOM     37  C   UNL A   1      38.135  32.588  32.478  1.00  0.00     0.074 A 
ATOM     38  C   UNL A   1      38.309  31.294  30.381  1.00  0.00     0.049 A 
ATOM     39  N   UNL A   1      39.142  32.101  33.159  1.00  0.00    -0.248 NA
ATOM     40  C   UNL A   1      37.403  33.657  33.174  1.00  0.00     0.031 C 
ATOM     41  C   UNL A   1      37.974  30.892  29.014  1.00  0.00     0.029 A 
ATOM     42  N   UNL A   1      39.394  30.517  30.700  1.00  0.00    -0.354 N 
ATOM     43  C   UNL A   1      39.171  32.810  34.352  1.00  0.00     0.074 A 
ATOM     44  C   UNL A   1      38.114  33.795  34.284  1.00  0.00     0.031 C 
ATOM     45  C   UNL A   1      38.822  29.928  28.620  1.00  0.00     0.029 A 
ATOM     46  C   UNL A   1      39.770  29.658  29.697  1.00  0.00     0.049 A 
ATOM     47  H   UNL A   1      39.860  30.572  31.566  1.00  0.00     0.167 HD
ATOM     48  C   UNL A   1      39.989  32.640  35.418  1.00  0.00     0.037 A 
ATOM     49  C   UNL A   1      40.762  28.749  29.656  1.00  0.00     0.037 A 
ATOM     50  C   UNL A   1      41.020  31.638  35.500  1.00  0.00     0.049 A 
ATOM     51  C   UNL A   1      41.635  28.558  30.865  1.00  0.00     0.074 A 
ATOM     52  C   UNL A   1      41.856  31.342  36.561  1.00  0.00     0.029 A 
ATOM     53  N   UNL A   1      41.352  30.766  34.474  1.00  0.00    -0.354 N 
ATOM     54  N   UNL A   1      41.603  29.182  32.017  1.00  0.00    -0.248 NA
ATOM     55  C   UNL A   1      42.674  27.523  30.773  1.00  0.00     0.031 C 
ATOM     56  C   UNL A   1      42.718  30.313  36.166  1.00  0.00     0.029 A 
ATOM     57  C   UNL A   1      42.392  29.941  34.872  1.00  0.00     0.049 A 
ATOM     58  H   UNL A   1      40.914  30.736  33.592  1.00  0.00     0.167 HD
ATOM     59  C   UNL A   1      42.599  28.604  32.793  1.00  0.00     0.074 A 
ATOM     60  C   UNL A   1      43.204  27.564  31.987  1.00  0.00     0.031 C 
ATOM     61  C   UNL A   1      42.981  28.910  34.057  1.00  0.00     0.037 A 
BRANCH  48  62
ATOM     62  C   UNL A   1      39.797  33.556  36.592  1.00  0.00     0.064 A 
ATOM     63  C   UNL A   1      40.482  34.777  36.688  1.00  0.00     0.173 A 
ATOM     64  C   UNL A   1      38.895  33.227  37.614  1.00  0.00     0.173 A 
ATOM     65  F   UNL A   1      41.365  35.132  35.742  1.00  0.00    -0.203 F 
ATOM     66  C   UNL A   1      40.291  35.622  37.779  1.00  0.00     0.198 A 
ATOM     67  C   UNL A   1      38.686  34.087  38.689  1.00  0.00     0.198 A 
ATOM     68  F   UNL A   1      38.210  32.074  37.567  1.00  0.00    -0.203 F 
ATOM     69  F   UNL A   1      40.990  36.762  37.871  1.00  0.00    -0.200 F 
ATOM     70  C   UNL A   1      39.389  35.279  38.774  1.00  0.00     0.200 A 
ATOM     71  F   UNL A   1      37.805  33.761  39.646  1.00  0.00    -0.200 F 
ATOM     72  F   UNL A   1      39.201  36.096  39.820  1.00  0.00    -0.200 F 
ENDBRANCH  48  62
BRANCH  49  73
ATOM     73  C   UNL A   1      40.957  27.921  28.439  1.00  0.00     0.064 A 
ATOM     74  C   UNL A   1      40.313  26.683  28.302  1.00  0.00     0.173 A 
ATOM     75  C   UNL A   1      41.791  28.344  27.394  1.00  0.00     0.173 A 
ATOM     76  F   UNL A   1      39.522  26.228  29.285  1.00  0.00    -0.203 F 
ATOM     77  C   UNL A   1      40.512  25.891  27.174  1.00  0.00     0.198 A 
ATOM     78  C   UNL A   1      41.968  27.562  26.256  1.00  0.00     0.198 A 
ATOM     79  F   UNL A   1      42.425  29.523  27.477  1.00  0.00    -0.203 F 
ATOM     80  F   UNL A   1      39.918  24.692  27.087  1.00  0.00    -0.200 F 
ATOM     81  C   UNL A   1      41.335  26.333  26.150  1.00  0.00     0.200 A 
ATOM     82  F   UNL A   1      42.755  27.997  25.263  1.00  0.00    -0.200 F 
ATOM     83  F   UNL A   1      41.524  25.570  25.064  1.00  0.00    -0.200 F 
ENDBRANCH  49  73
BRANCH  61  84
ATOM     84  C   UNL A   1      44.092  28.095  34.650  1.00  0.00     0.064 A 
ATOM     85  C   UNL A   1      45.431  28.501  34.554  1.00  0.00     0.173 A 
ATOM     86  C   UNL A   1      43.811  26.905  35.339  1.00  0.00     0.173 A 
ATOM     87  F   UNL A   1      45.749  29.623  33.891  1.00  0.00    -0.203 F 
ATOM     88  C   UNL A   1      46.451  27.730  35.102  1.00  0.00     0.198 A 
ATOM     89  C   UNL A   1      44.833  26.151  35.909  1.00  0.00     0.198 A 
ATOM     90  F   UNL A   1      42.546  26.476  35.462  1.00  0.00    -0.203 F 
ATOM     91  F   UNL A   1      47.728  28.112  34.956  1.00  0.00    -0.200 F 
ATOM     92  C   UNL A   1      46.152  26.560  35.784  1.00  0.00     0.200 A 
ATOM     93  F   UNL A   1      44.541  25.025  36.576  1.00  0.00    -0.200 F 
ATOM     94  F   UNL A   1      47.138  25.819  36.311  1.00  0.00    -0.200 F 
ENDBRANCH  61  84
ENDBRANCH  35  36
ENDBRANCH  27  30
ENDBRANCH  25  26
ENDBRANCH  24  25
ENDBRANCH  23  24
ENDBRANCH   1  23
TORSDOF 16
ENDMDL
MODEL 2
REMARK VINA RESULT:     -11.9      0.483      7.447
REMARK SMILES Cc1noc(C)c1COc1ccc(C(=O)NCCCCCCNC(=O)c2ccc(-c3c4nc(c(-c5c(F)c(F)c(F)c(F)c5F)c5ccc([nH]5)c(-c5c(F)c(F)c(F)c(F)c5F)c5nc(c(-c6c(F)c(F)c(F)c(F)c6F)c6ccc3[nH]6)C=C5)C=C4)cc2)cc1
REMARK SMILES IDX 19 1 18 2 17 3 16 4 14 5 15 6 13 8 10 9 11 10 90 11 12 12
REMARK SMILES IDX 89 13 9 14 8 15 7 16 1 17 2 18 3 19 4 20 5 21 6 22 20 23
REMARK SMILES IDX 21 24 22 25 23 26 24 27 25 29 26 30 27 31 88 32 28 33 87 34
REMARK SMILES IDX 29 35 30 36 31 37 81 38 32 39 86 40 80 41 82 42 33 43 85 44
REMARK SMILES IDX 79 45 78 46 34 48 66 49 46 50 65 51 47 52 50 53 64 54 83 55
REMARK SMILES IDX 48 56 49 57 63 59 84 60 51 61 35 62 36 63 44 64 37 65 38 66
REMARK SMILES IDX 42 67 45 68 39 69 40 70 43 71 41 72 67 73 68 74 76 75 69 76
REMARK SMILES IDX 70 77 74 78 77 79 71 80 72 81 75 82 73 83 52 84 53 85 61 86
REMARK SMILES IDX 54 87 55 88 59 89 62 90 56 91 57 92 60 93 58 94
REMARK H PARENT 16 7 23 28 82 47 50 58
REMARK Flexibility Score: inf
ROOT
ATOM      1  C   UNL A   1      33.008  30.129  26.848  1.00  0.00     0.002 C 
ENDROOT
BRANCH   1   2
ATOM      2  C   UNL A   1      33.062  28.665  27.300  1.00  0.00     0.021 C 
BRANCH   2   3
ATOM      3  C   UNL A   1      31.685  28.019  27.474  1.00  0.00     0.116 C 
BRANCH   3   4
ATOM      4  N   UNL A   1      31.669  26.672  26.928  1.00  0.00    -0.352 N 
ATOM      5  C   UNL A   1      31.455  26.222  25.648  1.00  0.00     0.251 C 
ATOM      6  O   UNL A   1      31.609  25.028  25.404  1.00  0.00    -0.269 OA
ATOM      7  H   UNL A   1      31.843  25.962  27.587  1.00  0.00     0.163 HD
BRANCH   5   8
ATOM      8  C   UNL A   1      31.094  27.147  24.545  1.00  0.00     0.040 A 
ATOM      9  C   UNL A   1      30.319  28.799  22.434  1.00  0.00     0.119 A 
ATOM     10  C   UNL A   1      29.352  28.080  23.131  1.00  0.00     0.047 A 
ATOM     11  C   UNL A   1      31.651  28.769  22.840  1.00  0.00     0.047 A 
ATOM     12  C   UNL A   1      29.743  27.249  24.185  1.00  0.00     0.017 A 
ATOM     13  C   UNL A   1      32.037  27.951  23.900  1.00  0.00     0.017 A 
BRANCH   9  14
ATOM     14  O   UNL A   1      29.945  29.610  21.397  1.00  0.00    -0.489 OA
BRANCH  14  15
ATOM     15  C   UNL A   1      28.559  29.990  21.499  1.00  0.00     0.271 C 
BRANCH  15  16
ATOM     16  C   UNL A   1      28.351  31.447  21.732  1.00  0.00     0.055 A 
ATOM     17  C   UNL A   1      29.058  31.706  24.239  1.00  0.00     0.071 C 
ATOM     18  C   UNL A   1      28.569  32.189  22.926  1.00  0.00     0.087 A 
ATOM     19  N   UNL A   1      28.301  33.489  22.749  1.00  0.00    -0.085 NA
ATOM     20  O   UNL A   1      27.891  33.615  21.438  1.00  0.00    -0.361 OA
ATOM     21  C   UNL A   1      27.921  32.400  20.832  1.00  0.00     0.140 A 
ATOM     22  C   UNL A   1      27.514  32.369  19.415  1.00  0.00     0.091 C 
ENDBRANCH  15  16
ENDBRANCH  14  15
ENDBRANCH   9  14
ENDBRANCH   5   8
ENDBRANCH   3   4
ENDBRANCH   2   3
ENDBRANCH   1   2
BRANCH   1  23
ATOM     23  C   UNL A   1      31.598  30.700  26.661  1.00  0.00     0.002 C 
BRANCH  23  24
ATOM     24  C   UNL A   1      31.472  32.215  26.851  1.00  0.00     0.021 C 
BRANCH  24  25
ATOM     25  C   UNL A   1      32.793  32.951  27.060  1.00  0.00     0.116 C 
BRANCH  25  26
ATOM     26  N   UNL A   1      32.594  34.275  27.624  1.00  0.00    -0.352 N 
ATOM     27  C   UNL A   1      33.134  34.845  28.748  1.00  0.00     0.251 C 
ATOM     28  H   UNL A   1      31.976  34.854  27.121  1.00  0.00     0.163 HD
ATOM     29  O   UNL A   1      32.682  35.905  29.170  1.00  0.00    -0.269 OA
BRANCH  27  30
ATOM     30  C   UNL A   1      34.255  34.195  29.465  1.00  0.00     0.039 A 
ATOM     31  C   UNL A   1      35.562  34.490  29.063  1.00  0.00     0.014 A 
ATOM     32  C   UNL A   1      34.031  33.251  30.472  1.00  0.00     0.014 A 
ATOM     33  C   UNL A   1      36.641  33.860  29.687  1.00  0.00     0.010 A 
ATOM     34  C   UNL A   1      35.112  32.669  31.134  1.00  0.00     0.010 A 
ATOM     35  C   UNL A   1      36.426  32.953  30.736  1.00  0.00    -0.014 A 
BRANCH  35  36
ATOM     36  C   UNL A   1      37.571  32.274  31.394  1.00  0.00     0.031 A 
ATOM     37  C   UNL A   1      38.323  31.188  30.675  1.00  0.00     0.074 A 
ATOM     38  C   UNL A   1      37.917  32.617  32.649  1.00  0.00     0.049 A 
ATOM     39  N   UNL A   1      39.350  30.484  31.081  1.00  0.00    -0.248 NA
ATOM     40  C   UNL A   1      37.846  30.831  29.330  1.00  0.00     0.031 C 
ATOM     41  C   UNL A   1      37.232  33.615  33.471  1.00  0.00     0.029 A 
ATOM     42  N   UNL A   1      38.931  32.162  33.453  1.00  0.00    -0.354 N 
ATOM     43  C   UNL A   1      39.630  29.594  30.052  1.00  0.00     0.074 A 
ATOM     44  C   UNL A   1      38.637  29.812  29.023  1.00  0.00     0.031 C 
ATOM     45  C   UNL A   1      37.859  33.713  34.655  1.00  0.00     0.029 A 
ATOM     46  C   UNL A   1      38.975  32.773  34.682  1.00  0.00     0.049 A 
ATOM     47  H   UNL A   1      39.566  31.462  33.175  1.00  0.00     0.167 HD
ATOM     48  C   UNL A   1      40.638  28.694  29.963  1.00  0.00     0.037 A 
ATOM     49  C   UNL A   1      39.827  32.600  35.710  1.00  0.00     0.037 A 
ATOM     50  C   UNL A   1      41.645  28.499  30.972  1.00  0.00     0.049 A 
ATOM     51  C   UNL A   1      40.957  31.617  35.571  1.00  0.00     0.074 A 
ATOM     52  C   UNL A   1      42.745  27.660  30.946  1.00  0.00     0.029 A 
ATOM     53  N   UNL A   1      41.674  29.159  32.192  1.00  0.00    -0.354 N 
ATOM     54  N   UNL A   1      41.257  30.837  34.562  1.00  0.00    -0.248 NA
ATOM     55  C   UNL A   1      41.876  31.502  36.712  1.00  0.00     0.031 C 
ATOM     56  C   UNL A   1      43.421  27.786  32.165  1.00  0.00     0.029 A 
ATOM     57  C   UNL A   1      42.765  28.734  32.934  1.00  0.00     0.049 A 
ATOM     58  H   UNL A   1      41.017  29.830  32.489  1.00  0.00     0.167 HD
ATOM     59  C   UNL A   1      42.408  30.155  34.935  1.00  0.00     0.074 A 
ATOM     60  C   UNL A   1      42.764  30.631  36.256  1.00  0.00     0.031 C 
ATOM     61  C   UNL A   1      43.105  29.217  34.247  1.00  0.00     0.037 A 
BRANCH  48  62
ATOM     62  C   UNL A   1      40.706  27.852  28.722  1.00  0.00     0.064 A 
ATOM     63  C   UNL A   1      39.984  26.654  28.609  1.00  0.00     0.173 A 
ATOM     64  C   UNL A   1      41.474  28.263  27.622  1.00  0.00     0.173 A 
ATOM     65  F   UNL A   1      39.244  26.212  29.637  1.00  0.00    -0.203 F 
ATOM     66  C   UNL A   1      40.051  25.884  27.450  1.00  0.00     0.198 A 
ATOM     67  C   UNL A   1      41.516  27.504  26.455  1.00  0.00     0.198 A 
ATOM     68  F   UNL A   1      42.179  29.403  27.676  1.00  0.00    -0.203 F 
ATOM     69  F   UNL A   1      39.388  24.721  27.381  1.00  0.00    -0.200 F 
ATOM     70  C   UNL A   1      40.810  26.314  26.373  1.00  0.00     0.200 A 
ATOM     71  F   UNL A   1      42.242  27.925  25.409  1.00  0.00    -0.200 F 
ATOM     72  F   UNL A   1      40.868  25.575  25.255  1.00  0.00    -0.200 F 
ENDBRANCH  48  62
BRANCH  49  73
ATOM     73  C   UNL A   1      39.668  33.405  36.947  1.00  0.00     0.064 A 
ATOM     74  C   UNL A   1      40.375  34.603  37.119  1.00  0.00     0.173 A 
ATOM     75  C   UNL A   1      38.813  32.995  37.979  1.00  0.00     0.173 A 
ATOM     76  F   UNL A   1      41.220  35.024  36.168  1.00  0.00    -0.203 F 
ATOM     77  C   UNL A   1      40.249  35.350  38.288  1.00  0.00     0.198 A 
ATOM     78  C   UNL A   1      38.668  33.756  39.137  1.00  0.00     0.198 A 
ATOM     79  F   UNL A   1      38.110  31.858  37.859  1.00  0.00    -0.203 F 
ATOM     80  F   UNL A   1      40.970  36.469  38.447  1.00  0.00    -0.200 F 
ATOM     81  C   UNL A   1      39.392  34.929  39.294  1.00  0.00     0.200 A 
ATOM     82  F   UNL A   1      37.830  33.353  40.101  1.00  0.00    -0.200 F 
ATOM     83  F   UNL A   1      39.270  35.649  40.417  1.00  0.00    -0.200 F 
ENDBRANCH  49  73
BRANCH  61  84
ATOM     84  C   UNL A   1      44.332  28.661  34.905  1.00  0.00     0.064 A 
ATOM     85  C   UNL A   1      44.277  27.510  35.705  1.00  0.00     0.173 A 
ATOM     86  C   UNL A   1      45.580  29.275  34.718  1.00  0.00     0.173 A 
ATOM     87  F   UNL A   1      43.104  26.898  35.926  1.00  0.00    -0.203 F 
ATOM     88  C   UNL A   1      45.423  27.010  36.315  1.00  0.00     0.198 A 
ATOM     89  C   UNL A   1      46.728  28.755  35.308  1.00  0.00     0.198 A 
ATOM     90  F   UNL A   1      45.685  30.375  33.959  1.00  0.00    -0.203 F 
ATOM     91  F   UNL A   1      45.339  25.937  37.116  1.00  0.00    -0.200 F 
ATOM     92  C   UNL A   1      46.647  27.628  36.113  1.00  0.00     0.200 A 
ATOM     93  F   UNL A   1      47.913  29.349  35.104  1.00  0.00    -0.200 F 
ATOM     94  F   UNL A   1      47.750  27.144  36.703  1.00  0.00    -0.200 F 
ENDBRANCH  61  84
ENDBRANCH  35  36
ENDBRANCH  27  30
ENDBRANCH  25  26
ENDBRANCH  24  25
ENDBRANCH  23  24
ENDBRANCH   1  23
TORSDOF 16
ENDMDL
MODEL 3
REMARK VINA RESULT:     -11.4      6.348     11.933
REMARK SMILES Cc1noc(C)c1COc1ccc(C(=O)NCCCCCCNC(=O)c2ccc(-c3c4nc(c(-c5c(F)c(F)c(F)c(F)c5F)c5ccc([nH]5)c(-c5c(F)c(F)c(F)c(F)c5F)c5nc(c(-c6c(F)c(F)c(F)c(F)c6F)c6ccc3[nH]6)C=C5)C=C4)cc2)cc1
REMARK SMILES IDX 19 1 18 2 17 3 16 4 14 5 15 6 13 8 10 9 11 10 90 11 12 12
REMARK SMILES IDX 89 13 9 14 8 15 7 16 1 17 2 18 3 19 4 20 5 21 6 22 20 23
REMARK SMILES IDX 21 24 22 25 23 26 24 27 25 29 26 30 27 31 88 32 28 33 87 34
REMARK SMILES IDX 29 35 30 36 31 37 81 38 32 39 86 40 80 41 82 42 33 43 85 44
REMARK SMILES IDX 79 45 78 46 34 48 66 49 46 50 65 51 47 52 50 53 64 54 83 55
REMARK SMILES IDX 48 56 49 57 63 59 84 60 51 61 35 62 36 63 44 64 37 65 38 66
REMARK SMILES IDX 42 67 45 68 39 69 40 70 43 71 41 72 67 73 68 74 76 75 69 76
REMARK SMILES IDX 70 77 74 78 77 79 71 80 72 81 75 82 73 83 52 84 53 85 61 86
REMARK SMILES IDX 54 87 55 88 59 89 62 90 56 91 57 92 60 93 58 94
REMARK H PARENT 16 7 23 28 82 47 50 58
REMARK Flexibility Score: inf
ROOT
ATOM      1  C   UNL A   1      37.330  22.209  24.627  1.00  0.00     0.002 C 
ENDROOT
BRANCH   1   2
ATOM      2  C   UNL A   1      36.447  22.967  23.628  1.00  0.00     0.021 C 
BRANCH   2   3
ATOM      3  C   UNL A   1      35.616  24.086  24.259  1.00  0.00     0.116 C 
BRANCH   3   4
ATOM      4  N   UNL A   1      34.425  24.357  23.473  1.00  0.00    -0.352 N 
ATOM      5  C   UNL A   1      33.245  23.663  23.359  1.00  0.00     0.251 C 
ATOM      6  O   UNL A   1      32.325  24.157  22.712  1.00  0.00    -0.269 OA
ATOM      7  H   UNL A   1      34.470  25.178  22.931  1.00  0.00     0.163 HD
BRANCH   5   8
ATOM      8  C   UNL A   1      33.036  22.361  24.037  1.00  0.00     0.040 A 
ATOM      9  C   UNL A   1      32.551  19.880  25.220  1.00  0.00     0.119 A 
ATOM     10  C   UNL A   1      32.500  19.999  23.834  1.00  0.00     0.047 A 
ATOM     11  C   UNL A   1      32.929  20.964  26.009  1.00  0.00     0.047 A 
ATOM     12  C   UNL A   1      32.739  21.243  23.244  1.00  0.00     0.017 A 
ATOM     13  C   UNL A   1      33.181  22.201  25.418  1.00  0.00     0.017 A 
BRANCH   9  14
ATOM     14  O   UNL A   1      32.313  18.667  25.807  1.00  0.00    -0.489 OA
BRANCH  14  15
ATOM     15  C   UNL A   1      32.192  17.620  24.823  1.00  0.00     0.271 C 
BRANCH  15  16
ATOM     16  C   UNL A   1      33.183  16.521  24.991  1.00  0.00     0.055 A 
ATOM     17  C   UNL A   1      35.425  17.700  24.332  1.00  0.00     0.071 C 
ATOM     18  C   UNL A   1      34.589  16.560  24.777  1.00  0.00     0.087 A 
ATOM     19  N   UNL A   1      35.159  15.382  25.060  1.00  0.00    -0.085 NA
ATOM     20  O   UNL A   1      34.132  14.550  25.454  1.00  0.00    -0.361 OA
ATOM     21  C   UNL A   1      32.955  15.228  25.413  1.00  0.00     0.140 A 
ATOM     22  C   UNL A   1      31.754  14.472  25.816  1.00  0.00     0.091 C 
ENDBRANCH  15  16
ENDBRANCH  14  15
ENDBRANCH   9  14
ENDBRANCH   5   8
ENDBRANCH   3   4
ENDBRANCH   2   3
ENDBRANCH   1   2
BRANCH   1  23
ATOM     23  C   UNL A   1      37.019  20.715  24.767  1.00  0.00     0.002 C 
BRANCH  23  24
ATOM     24  C   UNL A   1      38.240  19.792  24.831  1.00  0.00     0.021 C 
BRANCH  24  25
ATOM     25  C   UNL A   1      39.126  19.980  26.060  1.00  0.00     0.116 C 
BRANCH  25  26
ATOM     26  N   UNL A   1      40.345  19.195  25.976  1.00  0.00    -0.352 N 
ATOM     27  C   UNL A   1      41.656  19.594  26.019  1.00  0.00     0.251 C 
ATOM     28  H   UNL A   1      40.209  18.225  25.873  1.00  0.00     0.163 HD
ATOM     29  O   UNL A   1      42.544  18.800  25.725  1.00  0.00    -0.269 OA
BRANCH  27  30
ATOM     30  C   UNL A   1      42.016  20.976  26.411  1.00  0.00     0.039 A 
ATOM     31  C   UNL A   1      42.198  21.928  25.403  1.00  0.00     0.014 A 
ATOM     32  C   UNL A   1      42.246  21.322  27.746  1.00  0.00     0.014 A 
ATOM     33  C   UNL A   1      42.583  23.229  25.734  1.00  0.00     0.010 A 
ATOM     34  C   UNL A   1      42.571  22.637  28.080  1.00  0.00     0.010 A 
ATOM     35  C   UNL A   1      42.761  23.598  27.077  1.00  0.00    -0.014 A 
BRANCH  35  36
ATOM     36  C   UNL A   1      43.180  24.977  27.431  1.00  0.00     0.031 A 
ATOM     37  C   UNL A   1      44.590  25.432  27.171  1.00  0.00     0.074 A 
ATOM     38  C   UNL A   1      42.298  25.813  28.012  1.00  0.00     0.049 A 
ATOM     39  N   UNL A   1      45.141  26.596  27.407  1.00  0.00    -0.248 NA
ATOM     40  C   UNL A   1      45.508  24.441  26.589  1.00  0.00     0.031 C 
ATOM     41  C   UNL A   1      40.920  25.473  28.365  1.00  0.00     0.029 A 
ATOM     42  N   UNL A   1      42.432  27.120  28.408  1.00  0.00    -0.354 N 
ATOM     43  C   UNL A   1      46.468  26.473  27.017  1.00  0.00     0.074 A 
ATOM     44  C   UNL A   1      46.654  25.108  26.576  1.00  0.00     0.031 C 
ATOM     45  C   UNL A   1      40.328  26.551  28.906  1.00  0.00     0.029 A 
ATOM     46  C   UNL A   1      41.288  27.648  28.954  1.00  0.00     0.049 A 
ATOM     47  H   UNL A   1      43.269  27.629  28.312  1.00  0.00     0.167 HD
ATOM     48  C   UNL A   1      47.439  27.418  27.007  1.00  0.00     0.037 A 
ATOM     49  C   UNL A   1      41.043  28.883  29.432  1.00  0.00     0.037 A 
ATOM     50  C   UNL A   1      47.246  28.785  27.415  1.00  0.00     0.049 A 
ATOM     51  C   UNL A   1      42.128  29.922  29.377  1.00  0.00     0.074 A 
ATOM     52  C   UNL A   1      48.148  29.834  27.378  1.00  0.00     0.029 A 
ATOM     53  N   UNL A   1      46.064  29.291  27.936  1.00  0.00    -0.354 N 
ATOM     54  N   UNL A   1      43.357  29.815  28.935  1.00  0.00    -0.248 NA
ATOM     55  C   UNL A   1      41.785  31.262  29.876  1.00  0.00     0.031 C 
ATOM     56  C   UNL A   1      47.522  30.968  27.908  1.00  0.00     0.029 A 
ATOM     57  C   UNL A   1      46.218  30.635  28.238  1.00  0.00     0.049 A 
ATOM     58  H   UNL A   1      45.238  28.773  28.071  1.00  0.00     0.167 HD
ATOM     59  C   UNL A   1      43.927  31.072  29.081  1.00  0.00     0.074 A 
ATOM     60  C   UNL A   1      42.902  31.933  29.634  1.00  0.00     0.031 C 
ATOM     61  C   UNL A   1      45.187  31.477  28.788  1.00  0.00     0.037 A 
BRANCH  48  62
ATOM     62  C   UNL A   1      48.800  27.007  26.528  1.00  0.00     0.064 A 
ATOM     63  C   UNL A   1      49.762  26.488  27.409  1.00  0.00     0.173 A 
ATOM     64  C   UNL A   1      49.138  27.099  25.169  1.00  0.00     0.173 A 
ATOM     65  F   UNL A   1      49.492  26.390  28.720  1.00  0.00    -0.203 F 
ATOM     66  C   UNL A   1      51.020  26.104  26.952  1.00  0.00     0.198 A 
ATOM     67  C   UNL A   1      50.387  26.689  24.712  1.00  0.00     0.198 A 
ATOM     68  F   UNL A   1      48.253  27.583  24.284  1.00  0.00    -0.203 F 
ATOM     69  F   UNL A   1      51.937  25.654  27.820  1.00  0.00    -0.200 F 
ATOM     70  C   UNL A   1      51.329  26.198  25.604  1.00  0.00     0.200 A 
ATOM     71  F   UNL A   1      50.682  26.769  23.407  1.00  0.00    -0.200 F 
ATOM     72  F   UNL A   1      52.538  25.822  25.164  1.00  0.00    -0.200 F 
ENDBRANCH  48  62
BRANCH  49  73
ATOM     73  C   UNL A   1      39.698  29.215  29.966  1.00  0.00     0.064 A 
ATOM     74  C   UNL A   1      39.387  28.992  31.315  1.00  0.00     0.173 A 
ATOM     75  C   UNL A   1      38.699  29.755  29.145  1.00  0.00     0.173 A 
ATOM     76  F   UNL A   1      40.304  28.457  32.134  1.00  0.00    -0.203 F 
ATOM     77  C   UNL A   1      38.119  29.278  31.817  1.00  0.00     0.198 A 
ATOM     78  C   UNL A   1      37.440  30.065  29.654  1.00  0.00     0.198 A 
ATOM     79  F   UNL A   1      38.950  29.991  27.848  1.00  0.00    -0.203 F 
ATOM     80  F   UNL A   1      37.834  29.014  33.100  1.00  0.00    -0.200 F 
ATOM     81  C   UNL A   1      37.148  29.818  30.987  1.00  0.00     0.200 A 
ATOM     82  F   UNL A   1      36.508  30.598  28.853  1.00  0.00    -0.200 F 
ATOM     83  F   UNL A   1      35.930  30.095  31.472  1.00  0.00    -0.200 F 
ENDBRANCH  49  73
BRANCH  61  84
ATOM     84  C   UNL A   1      45.517  32.918  29.042  1.00  0.00     0.064 A 
ATOM     85  C   UNL A   1      46.072  33.338  30.259  1.00  0.00     0.173 A 
ATOM     86  C   UNL A   1      45.295  33.884  28.049  1.00  0.00     0.173 A 
ATOM     87  F   UNL A   1      46.289  32.453  31.244  1.00  0.00    -0.203 F 
ATOM     88  C   UNL A   1      46.367  34.680  30.483  1.00  0.00     0.198 A 
ATOM     89  C   UNL A   1      45.616  35.220  28.267  1.00  0.00     0.198 A 
ATOM     90  F   UNL A   1      44.770  33.531  26.866  1.00  0.00    -0.203 F 
ATOM     91  F   UNL A   1      46.850  35.068  31.672  1.00  0.00    -0.200 F 
ATOM     92  C   UNL A   1      46.144  35.618  29.487  1.00  0.00     0.200 A 
ATOM     93  F   UNL A   1      45.409  36.125  27.300  1.00  0.00    -0.200 F 
ATOM     94  F   UNL A   1      46.428  36.910  29.706  1.00  0.00    -0.200 F 
ENDBRANCH  61  84
ENDBRANCH  35  36
ENDBRANCH  27  30
ENDBRANCH  25  26
ENDBRANCH  24  25
ENDBRANCH  23  24
ENDBRANCH   1  23
TORSDOF 16
ENDMDL
