MODEL 1
REMARK VINA RESULT:     -13.3      0.000      0.000
REMARK SMILES Cc1cc(=O)c(Oc2ccc(C(=O)NCCCCCCNC(=O)c3ccc(-c4c5nc(c(-c6c(F)c(F)c(F)c(F)c6F)c6ccc([nH]6)c(-c6c(F)c(F)c(F)c(F)c6F)c6nc(c(-c7c(F)c(F)c(F)c(F)c7F)c7ccc4[nH]7)C=C6)C=C5)cc3)cc2)c(-c2ccc(S(C)(=O)=O)cc2)o1
REMARK SMILES IDX 16 1 15 2 14 3 12 4 13 5 11 7 8 8 9 9 88 10 10 11 87 12 7 13
REMARK SMILES IDX 6 14 1 15 2 16 3 17 100 18 4 19 89 20 5 21 90 22 91 23 99 24
REMARK SMILES IDX 92 25 98 26 93 27 94 28 95 29 96 30 97 31 17 32 18 33 19 34
REMARK SMILES IDX 20 35 21 36 22 37 23 39 24 40 25 41 86 42 26 43 85 44 27 45
REMARK SMILES IDX 28 46 29 47 79 48 30 49 84 50 78 51 80 52 31 53 83 54 77 55
REMARK SMILES IDX 76 56 32 58 64 59 44 60 63 61 45 62 48 63 62 64 81 65 46 66
REMARK SMILES IDX 47 67 61 69 82 70 49 71 33 72 34 73 42 74 35 75 36 76 40 77
REMARK SMILES IDX 43 78 37 79 38 80 41 81 39 82 65 83 66 84 74 85 67 86 68 87
REMARK SMILES IDX 72 88 75 89 69 90 70 91 73 92 71 93 50 94 51 95 59 96 52 97
REMARK SMILES IDX 53 98 57 99 60 100 54 101 55 102 58 103 56 104
REMARK H PARENT 14 6 21 38 80 57 48 68
REMARK Flexibility Score: inf
ROOT
ATOM      1  C   UNL A   1      30.127  25.498  24.298  1.00  0.00     0.021 C 
ENDROOT
BRANCH   1   2
ATOM      2  C   UNL A   1      30.758  24.598  23.240  1.00  0.00     0.116 C 
BRANCH   2   3
ATOM      3  N   UNL A   1      31.432  25.275  22.151  1.00  0.00    -0.352 N 
ATOM      4  C   UNL A   1      32.774  25.421  21.875  1.00  0.00     0.251 C 
ATOM      5  O   UNL A   1      33.111  25.935  20.810  1.00  0.00    -0.269 OA
ATOM      6  H   UNL A   1      30.830  25.703  21.500  1.00  0.00     0.163 HD
BRANCH   4   7
ATOM      7  C   UNL A   1      33.823  25.083  22.877  1.00  0.00     0.040 A 
ATOM      8  C   UNL A   1      35.271  24.166  25.070  1.00  0.00     0.127 A 
ATOM      9  C   UNL A   1      34.592  25.375  25.165  1.00  0.00     0.048 A 
ATOM     10  C   UNL A   1      35.428  23.555  23.827  1.00  0.00     0.048 A 
ATOM     11  C   UNL A   1      33.831  25.813  24.077  1.00  0.00     0.017 A 
ATOM     12  C   UNL A   1      34.732  24.038  22.720  1.00  0.00     0.017 A 
BRANCH   8  13
ATOM     13  O   UNL A   1      35.866  23.551  26.130  1.00  0.00    -0.449 OA
BRANCH  13  14
ATOM     14  C   UNL A   1      37.010  22.767  26.037  1.00  0.00     0.217 A 
ATOM     15  C   UNL A   1      40.806  20.706  26.168  1.00  0.00     0.088 C 
ATOM     16  C   UNL A   1      39.562  21.533  26.104  1.00  0.00     0.105 A 
ATOM     17  C   UNL A   1      39.535  22.832  26.406  1.00  0.00     0.098 A 
ATOM     18  O   UNL A   1      38.441  20.842  25.701  1.00  0.00    -0.457 OA
ATOM     19  C   UNL A   1      38.253  23.546  26.346  1.00  0.00     0.228 A 
ATOM     20  C   UNL A   1      37.196  21.467  25.676  1.00  0.00     0.180 A 
ATOM     21  O   UNL A   1      38.234  24.756  26.555  1.00  0.00    -0.285 OA
BRANCH  20  22
ATOM     22  C   UNL A   1      36.170  20.494  25.249  1.00  0.00     0.021 A 
ATOM     23  C   UNL A   1      36.574  19.208  24.845  1.00  0.00     0.013 A 
ATOM     24  C   UNL A   1      34.806  20.819  25.224  1.00  0.00     0.013 A 
ATOM     25  C   UNL A   1      35.628  18.236  24.507  1.00  0.00     0.021 A 
ATOM     26  C   UNL A   1      33.854  19.852  24.876  1.00  0.00     0.021 A 
ATOM     27  C   UNL A   1      34.270  18.562  24.535  1.00  0.00     0.067 A 
BRANCH  27  28
ATOM     28  S   UNL A   1      33.072  17.282  24.228  1.00  0.00     0.175 S 
ATOM     29  C   UNL A   1      33.729  15.877  25.079  1.00  0.00     0.163 C 
ATOM     30  O   UNL A   1      31.847  17.670  24.896  1.00  0.00    -0.224 OA
ATOM     31  O   UNL A   1      33.096  16.979  22.807  1.00  0.00    -0.224 OA
ENDBRANCH  27  28
ENDBRANCH  20  22
ENDBRANCH  13  14
ENDBRANCH   8  13
ENDBRANCH   4   7
ENDBRANCH   2   3
ENDBRANCH   1   2
BRANCH   1  32
ATOM     32  C   UNL A   1      30.282  27.009  24.125  1.00  0.00     0.002 C 
BRANCH  32  33
ATOM     33  C   UNL A   1      31.089  27.748  25.193  1.00  0.00     0.002 C 
BRANCH  33  34
ATOM     34  C   UNL A   1      31.958  28.907  24.710  1.00  0.00     0.021 C 
BRANCH  34  35
ATOM     35  C   UNL A   1      32.948  29.464  25.724  1.00  0.00     0.116 C 
BRANCH  35  36
ATOM     36  N   UNL A   1      32.591  30.784  26.222  1.00  0.00    -0.352 N 
ATOM     37  C   UNL A   1      33.256  31.591  27.117  1.00  0.00     0.251 C 
ATOM     38  H   UNL A   1      31.751  31.154  25.866  1.00  0.00     0.163 HD
ATOM     39  O   UNL A   1      32.750  32.637  27.509  1.00  0.00    -0.269 OA
BRANCH  37  40
ATOM     40  C   UNL A   1      34.571  31.167  27.648  1.00  0.00     0.039 A 
ATOM     41  C   UNL A   1      34.820  29.829  27.956  1.00  0.00     0.014 A 
ATOM     42  C   UNL A   1      35.549  32.136  27.890  1.00  0.00     0.014 A 
ATOM     43  C   UNL A   1      35.955  29.492  28.687  1.00  0.00     0.010 A 
ATOM     44  C   UNL A   1      36.735  31.777  28.539  1.00  0.00     0.010 A 
ATOM     45  C   UNL A   1      36.919  30.464  29.000  1.00  0.00    -0.014 A 
BRANCH  45  46
ATOM     46  C   UNL A   1      38.093  30.097  29.837  1.00  0.00     0.031 A 
ATOM     47  C   UNL A   1      39.206  29.254  29.271  1.00  0.00     0.074 A 
ATOM     48  C   UNL A   1      38.186  30.571  31.094  1.00  0.00     0.049 A 
ATOM     49  N   UNL A   1      40.299  28.826  29.854  1.00  0.00    -0.248 NA
ATOM     50  C   UNL A   1      39.075  28.831  27.868  1.00  0.00     0.031 C 
ATOM     51  C   UNL A   1      37.191  31.421  31.748  1.00  0.00     0.029 A 
ATOM     52  N   UNL A   1      39.171  30.424  32.038  1.00  0.00    -0.354 N 
ATOM     53  C   UNL A   1      40.973  28.077  28.897  1.00  0.00     0.074 A 
ATOM     54  C   UNL A   1      40.149  28.072  27.708  1.00  0.00     0.031 C 
ATOM     55  C   UNL A   1      37.635  31.761  32.966  1.00  0.00     0.029 A 
ATOM     56  C   UNL A   1      38.912  31.097  33.208  1.00  0.00     0.049 A 
ATOM     57  H   UNL A   1      39.984  29.889  31.893  1.00  0.00     0.167 HD
ATOM     58  C   UNL A   1      42.178  27.462  28.997  1.00  0.00     0.037 A 
ATOM     59  C   UNL A   1      39.612  31.157  34.356  1.00  0.00     0.037 A 
ATOM     60  C   UNL A   1      43.003  27.481  30.178  1.00  0.00     0.049 A 
ATOM     61  C   UNL A   1      40.909  30.405  34.466  1.00  0.00     0.074 A 
ATOM     62  C   UNL A   1      44.244  26.899  30.371  1.00  0.00     0.029 A 
ATOM     63  N   UNL A   1      42.671  28.116  31.366  1.00  0.00    -0.354 N 
ATOM     64  N   UNL A   1      41.535  29.701  33.556  1.00  0.00    -0.248 NA
ATOM     65  C   UNL A   1      41.589  30.449  35.766  1.00  0.00     0.031 C 
ATOM     66  C   UNL A   1      44.638  27.134  31.692  1.00  0.00     0.029 A 
ATOM     67  C   UNL A   1      43.671  27.914  32.306  1.00  0.00     0.049 A 
ATOM     68  H   UNL A   1      41.846  28.631  31.520  1.00  0.00     0.167 HD
ATOM     69  C   UNL A   1      42.689  29.229  34.166  1.00  0.00     0.074 A 
ATOM     70  C   UNL A   1      42.688  29.749  35.518  1.00  0.00     0.031 C 
ATOM     71  C   UNL A   1      43.658  28.433  33.651  1.00  0.00     0.037 A 
BRANCH  58  72
ATOM     72  C   UNL A   1      42.679  26.704  27.798  1.00  0.00     0.064 A 
ATOM     73  C   UNL A   1      43.401  27.338  26.776  1.00  0.00     0.173 A 
ATOM     74  C   UNL A   1      42.487  25.318  27.700  1.00  0.00     0.173 A 
ATOM     75  F   UNL A   1      43.606  28.664  26.814  1.00  0.00    -0.203 F 
ATOM     76  C   UNL A   1      43.890  26.616  25.690  1.00  0.00     0.198 A 
ATOM     77  C   UNL A   1      43.005  24.594  26.629  1.00  0.00     0.198 A 
ATOM     78  F   UNL A   1      41.810  24.659  28.654  1.00  0.00    -0.203 F 
ATOM     79  F   UNL A   1      44.539  27.250  24.703  1.00  0.00    -0.200 F 
ATOM     80  C   UNL A   1      43.700  25.244  25.622  1.00  0.00     0.200 A 
ATOM     81  F   UNL A   1      42.834  23.265  26.575  1.00  0.00    -0.200 F 
ATOM     82  F   UNL A   1      44.184  24.549  24.583  1.00  0.00    -0.200 F 
ENDBRANCH  58  72
BRANCH  59  83
ATOM     83  C   UNL A   1      39.094  31.972  35.484  1.00  0.00     0.064 A 
ATOM     84  C   UNL A   1      38.305  31.390  36.485  1.00  0.00     0.173 A 
ATOM     85  C   UNL A   1      39.410  33.334  35.609  1.00  0.00     0.173 A 
ATOM     86  F   UNL A   1      37.958  30.098  36.398  1.00  0.00    -0.203 F 
ATOM     87  C   UNL A   1      37.853  32.139  37.570  1.00  0.00     0.198 A 
ATOM     88  C   UNL A   1      38.983  34.073  36.709  1.00  0.00     0.198 A 
ATOM     89  F   UNL A   1      40.163  33.936  34.679  1.00  0.00    -0.203 F 
ATOM     90  F   UNL A   1      37.078  31.566  38.501  1.00  0.00    -0.200 F 
ATOM     91  C   UNL A   1      38.202  33.477  37.687  1.00  0.00     0.200 A 
ATOM     92  F   UNL A   1      39.340  35.359  36.828  1.00  0.00    -0.200 F 
ATOM     93  F   UNL A   1      37.786  34.190  38.742  1.00  0.00    -0.200 F 
ENDBRANCH  59  83
BRANCH  71  94
ATOM     94  C   UNL A   1      44.811  28.077  34.546  1.00  0.00     0.064 A 
ATOM     95  C   UNL A   1      45.934  28.911  34.664  1.00  0.00     0.173 A 
ATOM     96  C   UNL A   1      44.767  26.921  35.341  1.00  0.00     0.173 A 
ATOM     97  F   UNL A   1      46.031  30.020  33.916  1.00  0.00    -0.203 F 
ATOM     98  C   UNL A   1      46.977  28.589  35.528  1.00  0.00     0.198 A 
ATOM     99  C   UNL A   1      45.797  26.621  36.228  1.00  0.00     0.198 A 
ATOM    100  F   UNL A   1      43.714  26.093  35.272  1.00  0.00    -0.203 F 
ATOM    101  F   UNL A   1      48.058  29.378  35.592  1.00  0.00    -0.200 F 
ATOM    102  C   UNL A   1      46.903  27.451  36.316  1.00  0.00     0.200 A 
ATOM    103  F   UNL A   1      45.715  25.529  37.001  1.00  0.00    -0.200 F 
ATOM    104  F   UNL A   1      47.902  27.152  37.158  1.00  0.00    -0.200 F 
ENDBRANCH  71  94
ENDBRANCH  45  46
ENDBRANCH  37  40
ENDBRANCH  35  36
ENDBRANCH  34  35
ENDBRANCH  33  34
ENDBRANCH  32  33
ENDBRANCH   1  32
TORSDOF 17
ENDMDL
MODEL 2
REMARK VINA RESULT:     -13.3      3.108      5.812
REMARK SMILES Cc1cc(=O)c(Oc2ccc(C(=O)NCCCCCCNC(=O)c3ccc(-c4c5nc(c(-c6c(F)c(F)c(F)c(F)c6F)c6ccc([nH]6)c(-c6c(F)c(F)c(F)c(F)c6F)c6nc(c(-c7c(F)c(F)c(F)c(F)c7F)c7ccc4[nH]7)C=C6)C=C5)cc3)cc2)c(-c2ccc(S(C)(=O)=O)cc2)o1
REMARK SMILES IDX 16 1 15 2 14 3 12 4 13 5 11 7 8 8 9 9 88 10 10 11 87 12 7 13
REMARK SMILES IDX 6 14 1 15 2 16 3 17 100 18 4 19 89 20 5 21 90 22 91 23 99 24
REMARK SMILES IDX 92 25 98 26 93 27 94 28 95 29 96 30 97 31 17 32 18 33 19 34
REMARK SMILES IDX 20 35 21 36 22 37 23 39 24 40 25 41 86 42 26 43 85 44 27 45
REMARK SMILES IDX 28 46 29 47 79 48 30 49 84 50 78 51 80 52 31 53 83 54 77 55
REMARK SMILES IDX 76 56 32 58 64 59 44 60 63 61 45 62 48 63 62 64 81 65 46 66
REMARK SMILES IDX 47 67 61 69 82 70 49 71 33 72 34 73 42 74 35 75 36 76 40 77
REMARK SMILES IDX 43 78 37 79 38 80 41 81 39 82 65 83 66 84 74 85 67 86 68 87
REMARK SMILES IDX 72 88 75 89 69 90 70 91 73 92 71 93 50 94 51 95 59 96 52 97
REMARK SMILES IDX 53 98 57 99 60 100 54 101 55 102 58 103 56 104
REMARK H PARENT 14 6 21 38 80 57 48 68
REMARK Flexibility Score: inf
ROOT
ATOM      1  C   UNL A   1      35.451  32.191  27.981  1.00  0.00     0.021 C 
ENDROOT
BRANCH   1   2
ATOM      2  C   UNL A   1      34.268  31.232  27.905  1.00  0.00     0.116 C 
BRANCH   2   3
ATOM      3  N   UNL A   1      33.070  31.751  27.277  1.00  0.00    -0.352 N 
ATOM      4  C   UNL A   1      32.039  31.103  26.632  1.00  0.00     0.251 C 
ATOM      5  O   UNL A   1      31.051  31.750  26.287  1.00  0.00    -0.269 OA
ATOM      6  H   UNL A   1      32.978  32.730  27.316  1.00  0.00     0.163 HD
BRANCH   4   7
ATOM      7  C   UNL A   1      32.136  29.669  26.240  1.00  0.00     0.040 A 
ATOM      8  C   UNL A   1      32.848  26.999  25.911  1.00  0.00     0.127 A 
ATOM      9  C   UNL A   1      33.482  27.968  25.142  1.00  0.00     0.048 A 
ATOM     10  C   UNL A   1      31.711  27.330  26.645  1.00  0.00     0.048 A 
ATOM     11  C   UNL A   1      33.152  29.313  25.339  1.00  0.00     0.017 A 
ATOM     12  C   UNL A   1      31.332  28.665  26.778  1.00  0.00     0.017 A 
BRANCH   8  13
ATOM     13  O   UNL A   1      33.238  25.693  25.947  1.00  0.00    -0.449 OA
BRANCH  13  14
ATOM     14  C   UNL A   1      32.910  24.754  24.977  1.00  0.00     0.217 A 
ATOM     15  C   UNL A   1      32.083  21.410  22.367  1.00  0.00     0.088 C 
ATOM     16  C   UNL A   1      32.493  22.516  23.286  1.00  0.00     0.105 A 
ATOM     17  C   UNL A   1      33.450  22.381  24.205  1.00  0.00     0.098 A 
ATOM     18  O   UNL A   1      31.800  23.692  23.105  1.00  0.00    -0.457 OA
ATOM     19  C   UNL A   1      33.753  23.518  25.084  1.00  0.00     0.228 A 
ATOM     20  C   UNL A   1      32.020  24.780  23.947  1.00  0.00     0.180 A 
ATOM     21  O   UNL A   1      34.680  23.424  25.884  1.00  0.00    -0.285 OA
BRANCH  20  22
ATOM     22  C   UNL A   1      31.124  25.887  23.558  1.00  0.00     0.021 A 
ATOM     23  C   UNL A   1      29.808  25.910  24.055  1.00  0.00     0.013 A 
ATOM     24  C   UNL A   1      31.544  26.913  22.698  1.00  0.00     0.013 A 
ATOM     25  C   UNL A   1      28.955  26.981  23.772  1.00  0.00     0.021 A 
ATOM     26  C   UNL A   1      30.691  27.983  22.403  1.00  0.00     0.021 A 
ATOM     27  C   UNL A   1      29.407  28.018  22.953  1.00  0.00     0.067 A 
BRANCH  27  28
ATOM     28  S   UNL A   1      28.359  29.435  22.705  1.00  0.00     0.175 S 
ATOM     29  C   UNL A   1      29.149  30.713  23.640  1.00  0.00     0.163 C 
ATOM     30  O   UNL A   1      28.446  29.794  21.304  1.00  0.00    -0.224 OA
ATOM     31  O   UNL A   1      27.080  29.162  23.338  1.00  0.00    -0.224 OA
ENDBRANCH  27  28
ENDBRANCH  20  22
ENDBRANCH  13  14
ENDBRANCH   8  13
ENDBRANCH   4   7
ENDBRANCH   2   3
ENDBRANCH   1   2
BRANCH   1  32
ATOM     32  C   UNL A   1      35.311  33.418  28.883  1.00  0.00     0.002 C 
BRANCH  32  33
ATOM     33  C   UNL A   1      34.648  34.653  28.272  1.00  0.00     0.002 C 
BRANCH  33  34
ATOM     34  C   UNL A   1      33.282  35.042  28.835  1.00  0.00     0.021 C 
BRANCH  34  35
ATOM     35  C   UNL A   1      33.218  36.378  29.562  1.00  0.00     0.116 C 
BRANCH  35  36
ATOM     36  N   UNL A   1      32.454  36.331  30.800  1.00  0.00    -0.352 N 
ATOM     37  C   UNL A   1      32.708  35.631  31.958  1.00  0.00     0.251 C 
ATOM     38  H   UNL A   1      31.637  36.880  30.810  1.00  0.00     0.163 HD
ATOM     39  O   UNL A   1      31.891  35.625  32.873  1.00  0.00    -0.269 OA
BRANCH  37  40
ATOM     40  C   UNL A   1      33.953  34.842  32.079  1.00  0.00     0.039 A 
ATOM     41  C   UNL A   1      33.908  33.465  32.301  1.00  0.00     0.014 A 
ATOM     42  C   UNL A   1      35.183  35.503  32.022  1.00  0.00     0.014 A 
ATOM     43  C   UNL A   1      35.068  32.790  32.666  1.00  0.00     0.010 A 
ATOM     44  C   UNL A   1      36.362  34.800  32.294  1.00  0.00     0.010 A 
ATOM     45  C   UNL A   1      36.307  33.452  32.681  1.00  0.00    -0.014 A 
BRANCH  45  46
ATOM     46  C   UNL A   1      37.525  32.730  33.136  1.00  0.00     0.031 A 
ATOM     47  C   UNL A   1      38.173  31.689  32.260  1.00  0.00     0.074 A 
ATOM     48  C   UNL A   1      38.085  33.051  34.318  1.00  0.00     0.049 A 
ATOM     49  N   UNL A   1      39.230  30.950  32.494  1.00  0.00    -0.248 NA
ATOM     50  C   UNL A   1      37.551  31.439  30.950  1.00  0.00     0.031 C 
ATOM     51  C   UNL A   1      37.572  34.061  35.244  1.00  0.00     0.029 A 
ATOM     52  N   UNL A   1      39.217  32.578  34.933  1.00  0.00    -0.354 N 
ATOM     53  C   UNL A   1      39.388  30.144  31.373  1.00  0.00     0.074 A 
ATOM     54  C   UNL A   1      38.297  30.452  30.475  1.00  0.00     0.031 C 
ATOM     55  C   UNL A   1      38.411  34.169  36.284  1.00  0.00     0.029 A 
ATOM     56  C   UNL A   1      39.480  33.187  36.136  1.00  0.00     0.049 A 
ATOM     57  H   UNL A   1      39.785  31.871  34.551  1.00  0.00     0.167 HD
ATOM     58  C   UNL A   1      40.365  29.241  31.111  1.00  0.00     0.037 A 
ATOM     59  C   UNL A   1      40.461  32.967  37.032  1.00  0.00     0.037 A 
ATOM     60  C   UNL A   1      41.459  28.947  32.001  1.00  0.00     0.049 A 
ATOM     61  C   UNL A   1      41.489  31.907  36.751  1.00  0.00     0.074 A 
ATOM     62  C   UNL A   1      42.504  28.058  31.818  1.00  0.00     0.029 A 
ATOM     63  N   UNL A   1      41.650  29.536  33.243  1.00  0.00    -0.354 N 
ATOM     64  N   UNL A   1      41.628  31.153  35.689  1.00  0.00    -0.248 NA
ATOM     65  C   UNL A   1      42.489  31.663  37.798  1.00  0.00     0.031 C 
ATOM     66  C   UNL A   1      43.296  28.068  32.971  1.00  0.00     0.029 A 
ATOM     67  C   UNL A   1      42.780  29.007  33.849  1.00  0.00     0.049 A 
ATOM     68  H   UNL A   1      41.068  30.226  33.637  1.00  0.00     0.167 HD
ATOM     69  C   UNL A   1      42.737  30.354  35.931  1.00  0.00     0.074 A 
ATOM     70  C   UNL A   1      43.248  30.736  37.232  1.00  0.00     0.031 C 
ATOM     71  C   UNL A   1      43.278  29.390  35.147  1.00  0.00     0.037 A 
BRANCH  58  72
ATOM     72  C   UNL A   1      40.295  28.492  29.809  1.00  0.00     0.064 A 
ATOM     73  C   UNL A   1      40.974  28.939  28.665  1.00  0.00     0.173 A 
ATOM     74  C   UNL A   1      39.591  27.282  29.719  1.00  0.00     0.173 A 
ATOM     75  F   UNL A   1      41.655  30.095  28.691  1.00  0.00    -0.203 F 
ATOM     76  C   UNL A   1      40.929  28.216  27.475  1.00  0.00     0.198 A 
ATOM     77  C   UNL A   1      39.574  26.544  28.538  1.00  0.00     0.198 A 
ATOM     78  F   UNL A   1      38.930  26.803  30.785  1.00  0.00    -0.203 F 
ATOM     79  F   UNL A   1      41.549  28.685  26.383  1.00  0.00    -0.200 F 
ATOM     80  C   UNL A   1      40.237  27.015  27.415  1.00  0.00     0.200 A 
ATOM     81  F   UNL A   1      38.920  25.376  28.488  1.00  0.00    -0.200 F 
ATOM     82  F   UNL A   1      40.208  26.313  26.274  1.00  0.00    -0.200 F 
ENDBRANCH  58  72
BRANCH  59  83
ATOM     83  C   UNL A   1      40.510  33.782  38.273  1.00  0.00     0.064 A 
ATOM     84  C   UNL A   1      39.763  33.416  39.401  1.00  0.00     0.173 A 
ATOM     85  C   UNL A   1      41.335  34.913  38.373  1.00  0.00     0.173 A 
ATOM     86  F   UNL A   1      38.944  32.356  39.347  1.00  0.00    -0.203 F 
ATOM     87  C   UNL A   1      39.840  34.151  40.582  1.00  0.00     0.198 A 
ATOM     88  C   UNL A   1      41.434  35.628  39.564  1.00  0.00     0.198 A 
ATOM     89  F   UNL A   1      42.071  35.302  37.323  1.00  0.00    -0.203 F 
ATOM     90  F   UNL A   1      39.096  33.797  41.639  1.00  0.00    -0.200 F 
ATOM     91  C   UNL A   1      40.684  35.249  40.667  1.00  0.00     0.200 A 
ATOM     92  F   UNL A   1      42.266  36.674  39.647  1.00  0.00    -0.200 F 
ATOM     93  F   UNL A   1      40.775  35.940  41.811  1.00  0.00    -0.200 F 
ENDBRANCH  59  83
BRANCH  71  94
ATOM     94  C   UNL A   1      44.496  28.679  35.664  1.00  0.00     0.064 A 
ATOM     95  C   UNL A   1      45.790  29.155  35.405  1.00  0.00     0.173 A 
ATOM     96  C   UNL A   1      44.367  27.542  36.476  1.00  0.00     0.173 A 
ATOM     97  F   UNL A   1      45.969  30.230  34.623  1.00  0.00    -0.203 F 
ATOM     98  C   UNL A   1      46.909  28.509  35.925  1.00  0.00     0.198 A 
ATOM     99  C   UNL A   1      45.486  26.918  37.021  1.00  0.00     0.198 A 
ATOM    100  F   UNL A   1      43.152  27.048  36.760  1.00  0.00    -0.203 F 
ATOM    101  F   UNL A   1      48.136  28.958  35.629  1.00  0.00    -0.200 F 
ATOM    102  C   UNL A   1      46.756  27.398  36.740  1.00  0.00     0.200 A 
ATOM    103  F   UNL A   1      45.334  25.854  37.822  1.00  0.00    -0.200 F 
ATOM    104  F   UNL A   1      47.833  26.786  37.251  1.00  0.00    -0.200 F 
ENDBRANCH  71  94
ENDBRANCH  45  46
ENDBRANCH  37  40
ENDBRANCH  35  36
ENDBRANCH  34  35
ENDBRANCH  33  34
ENDBRANCH  32  33
ENDBRANCH   1  32
TORSDOF 17
ENDMDL
MODEL 3
REMARK VINA RESULT:     -13.1      3.183      8.889
REMARK SMILES Cc1cc(=O)c(Oc2ccc(C(=O)NCCCCCCNC(=O)c3ccc(-c4c5nc(c(-c6c(F)c(F)c(F)c(F)c6F)c6ccc([nH]6)c(-c6c(F)c(F)c(F)c(F)c6F)c6nc(c(-c7c(F)c(F)c(F)c(F)c7F)c7ccc4[nH]7)C=C6)C=C5)cc3)cc2)c(-c2ccc(S(C)(=O)=O)cc2)o1
REMARK SMILES IDX 16 1 15 2 14 3 12 4 13 5 11 7 8 8 9 9 88 10 10 11 87 12 7 13
REMARK SMILES IDX 6 14 1 15 2 16 3 17 100 18 4 19 89 20 5 21 90 22 91 23 99 24
REMARK SMILES IDX 92 25 98 26 93 27 94 28 95 29 96 30 97 31 17 32 18 33 19 34
REMARK SMILES IDX 20 35 21 36 22 37 23 39 24 40 25 41 86 42 26 43 85 44 27 45
REMARK SMILES IDX 28 46 29 47 79 48 30 49 84 50 78 51 80 52 31 53 83 54 77 55
REMARK SMILES IDX 76 56 32 58 64 59 44 60 63 61 45 62 48 63 62 64 81 65 46 66
REMARK SMILES IDX 47 67 61 69 82 70 49 71 33 72 34 73 42 74 35 75 36 76 40 77
REMARK SMILES IDX 43 78 37 79 38 80 41 81 39 82 65 83 66 84 74 85 67 86 68 87
REMARK SMILES IDX 72 88 75 89 69 90 70 91 73 92 71 93 50 94 51 95 59 96 52 97
REMARK SMILES IDX 53 98 57 99 60 100 54 101 55 102 58 103 56 104
REMARK H PARENT 14 6 21 38 80 57 48 68
REMARK Flexibility Score: inf
ROOT
ATOM      1  C   UNL A   1      35.653  31.941  28.500  1.00  0.00     0.021 C 
ENDROOT
BRANCH   1   2
ATOM      2  C   UNL A   1      34.782  30.958  27.726  1.00  0.00     0.116 C 
BRANCH   2   3
ATOM      3  N   UNL A   1      33.509  31.468  27.260  1.00  0.00    -0.352 N 
ATOM      4  C   UNL A   1      32.405  30.811  26.761  1.00  0.00     0.251 C 
ATOM      5  O   UNL A   1      31.377  31.452  26.547  1.00  0.00    -0.269 OA
ATOM      6  H   UNL A   1      33.418  32.447  27.306  1.00  0.00     0.163 HD
BRANCH   4   7
ATOM      7  C   UNL A   1      32.456  29.376  26.366  1.00  0.00     0.040 A 
ATOM      8  C   UNL A   1      33.135  26.709  25.953  1.00  0.00     0.127 A 
ATOM      9  C   UNL A   1      33.647  27.678  25.099  1.00  0.00     0.048 A 
ATOM     10  C   UNL A   1      32.109  27.037  26.838  1.00  0.00     0.048 A 
ATOM     11  C   UNL A   1      33.339  29.021  25.333  1.00  0.00     0.017 A 
ATOM     12  C   UNL A   1      31.743  28.370  27.016  1.00  0.00     0.017 A 
BRANCH   8  13
ATOM     13  O   UNL A   1      33.535  25.406  25.941  1.00  0.00    -0.449 OA
BRANCH  13  14
ATOM     14  C   UNL A   1      33.151  24.480  24.978  1.00  0.00     0.217 A 
ATOM     15  C   UNL A   1      32.125  21.172  22.393  1.00  0.00     0.088 C 
ATOM     16  C   UNL A   1      32.601  22.259  23.304  1.00  0.00     0.105 A 
ATOM     17  C   UNL A   1      33.553  22.076  24.220  1.00  0.00     0.098 A 
ATOM     18  O   UNL A   1      31.975  23.472  23.117  1.00  0.00    -0.457 OA
ATOM     19  C   UNL A   1      33.923  23.200  25.090  1.00  0.00     0.228 A 
ATOM     20  C   UNL A   1      32.259  24.550  23.952  1.00  0.00     0.180 A 
ATOM     21  O   UNL A   1      34.847  23.058  25.887  1.00  0.00    -0.285 OA
BRANCH  20  22
ATOM     22  C   UNL A   1      31.426  25.704  23.559  1.00  0.00     0.021 A 
ATOM     23  C   UNL A   1      30.190  25.905  24.201  1.00  0.00     0.013 A 
ATOM     24  C   UNL A   1      31.826  26.600  22.557  1.00  0.00     0.013 A 
ATOM     25  C   UNL A   1      29.409  27.028  23.911  1.00  0.00     0.021 A 
ATOM     26  C   UNL A   1      31.043  27.721  22.255  1.00  0.00     0.021 A 
ATOM     27  C   UNL A   1      29.846  27.937  22.944  1.00  0.00     0.067 A 
BRANCH  27  28
ATOM     28  S   UNL A   1      28.909  29.425  22.677  1.00  0.00     0.175 S 
ATOM     29  C   UNL A   1      27.258  28.969  23.125  1.00  0.00     0.163 C 
ATOM     30  O   UNL A   1      29.373  30.404  23.637  1.00  0.00    -0.224 OA
ATOM     31  O   UNL A   1      28.909  29.703  21.251  1.00  0.00    -0.224 OA
ENDBRANCH  27  28
ENDBRANCH  20  22
ENDBRANCH  13  14
ENDBRANCH   8  13
ENDBRANCH   4   7
ENDBRANCH   2   3
ENDBRANCH   1   2
BRANCH   1  32
ATOM     32  C   UNL A   1      34.945  33.028  29.309  1.00  0.00     0.002 C 
BRANCH  32  33
ATOM     33  C   UNL A   1      35.072  34.464  28.799  1.00  0.00     0.002 C 
BRANCH  33  34
ATOM     34  C   UNL A   1      33.792  35.297  28.783  1.00  0.00     0.021 C 
BRANCH  34  35
ATOM     35  C   UNL A   1      33.669  36.348  29.878  1.00  0.00     0.116 C 
BRANCH  35  36
ATOM     36  N   UNL A   1      32.521  36.149  30.750  1.00  0.00    -0.352 N 
ATOM     37  C   UNL A   1      32.444  35.493  31.958  1.00  0.00     0.251 C 
ATOM     38  H   UNL A   1      31.677  36.541  30.429  1.00  0.00     0.163 HD
ATOM     39  O   UNL A   1      31.360  35.328  32.509  1.00  0.00    -0.269 OA
BRANCH  37  40
ATOM     40  C   UNL A   1      33.671  34.941  32.572  1.00  0.00     0.039 A 
ATOM     41  C   UNL A   1      34.881  35.632  32.497  1.00  0.00     0.014 A 
ATOM     42  C   UNL A   1      33.618  33.686  33.185  1.00  0.00     0.014 A 
ATOM     43  C   UNL A   1      36.064  34.988  32.847  1.00  0.00     0.010 A 
ATOM     44  C   UNL A   1      34.798  33.079  33.627  1.00  0.00     0.010 A 
ATOM     45  C   UNL A   1      36.038  33.698  33.403  1.00  0.00    -0.014 A 
BRANCH  45  46
ATOM     46  C   UNL A   1      37.316  33.002  33.711  1.00  0.00     0.031 A 
ATOM     47  C   UNL A   1      38.042  33.266  35.005  1.00  0.00     0.074 A 
ATOM     48  C   UNL A   1      37.797  32.085  32.849  1.00  0.00     0.049 A 
ATOM     49  N   UNL A   1      39.171  32.762  35.438  1.00  0.00    -0.248 NA
ATOM     50  C   UNL A   1      37.423  34.225  35.933  1.00  0.00     0.031 C 
ATOM     51  C   UNL A   1      37.173  31.718  31.579  1.00  0.00     0.029 A 
ATOM     52  N   UNL A   1      38.907  31.282  32.920  1.00  0.00    -0.354 N 
ATOM     53  C   UNL A   1      39.402  33.351  36.676  1.00  0.00     0.074 A 
ATOM     54  C   UNL A   1      38.319  34.281  36.908  1.00  0.00     0.031 C 
ATOM     55  C   UNL A   1      37.879  30.729  31.012  1.00  0.00     0.029 A 
ATOM     56  C   UNL A   1      39.044  30.442  31.842  1.00  0.00     0.049 A 
ATOM     57  H   UNL A   1      39.545  31.306  33.670  1.00  0.00     0.167 HD
ATOM     58  C   UNL A   1      40.417  33.124  37.546  1.00  0.00     0.037 A 
ATOM     59  C   UNL A   1      40.009  29.553  31.543  1.00  0.00     0.037 A 
ATOM     60  C   UNL A   1      41.486  32.185  37.318  1.00  0.00     0.049 A 
ATOM     61  C   UNL A   1      41.164  29.375  32.490  1.00  0.00     0.074 A 
ATOM     62  C   UNL A   1      42.552  31.877  38.146  1.00  0.00     0.029 A 
ATOM     63  N   UNL A   1      41.626  31.404  36.180  1.00  0.00    -0.354 N 
ATOM     64  N   UNL A   1      41.370  29.936  33.655  1.00  0.00    -0.248 NA
ATOM     65  C   UNL A   1      42.221  28.446  32.073  1.00  0.00     0.031 C 
ATOM     66  C   UNL A   1      43.366  30.950  37.486  1.00  0.00     0.029 A 
ATOM     67  C   UNL A   1      42.777  30.636  36.272  1.00  0.00     0.049 A 
ATOM     68  H   UNL A   1      41.002  31.398  35.419  1.00  0.00     0.167 HD
ATOM     69  C   UNL A   1      42.572  29.421  34.119  1.00  0.00     0.074 A 
ATOM     70  C   UNL A   1      43.036  28.481  33.119  1.00  0.00     0.031 C 
ATOM     71  C   UNL A   1      43.232  29.706  35.268  1.00  0.00     0.037 A 
BRANCH  58  72
ATOM     72  C   UNL A   1      40.429  33.910  38.828  1.00  0.00     0.064 A 
ATOM     73  C   UNL A   1      41.130  35.119  38.943  1.00  0.00     0.173 A 
ATOM     74  C   UNL A   1      39.683  33.479  39.936  1.00  0.00     0.173 A 
ATOM     75  F   UNL A   1      41.868  35.573  37.919  1.00  0.00    -0.203 F 
ATOM     76  C   UNL A   1      41.104  35.854  40.126  1.00  0.00     0.198 A 
ATOM     77  C   UNL A   1      39.632  34.231  41.106  1.00  0.00     0.198 A 
ATOM     78  F   UNL A   1      38.987  32.333  39.878  1.00  0.00    -0.203 F 
ATOM     79  F   UNL A   1      41.817  36.985  40.228  1.00  0.00    -0.200 F 
ATOM     80  C   UNL A   1      40.348  35.415  41.203  1.00  0.00     0.200 A 
ATOM     81  F   UNL A   1      38.887  33.814  42.139  1.00  0.00    -0.200 F 
ATOM     82  F   UNL A   1      40.311  36.131  42.335  1.00  0.00    -0.200 F 
ENDBRANCH  58  72
BRANCH  59  83
ATOM     83  C   UNL A   1      39.910  28.762  30.289  1.00  0.00     0.064 A 
ATOM     84  C   UNL A   1      40.450  29.247  29.091  1.00  0.00     0.173 A 
ATOM     85  C   UNL A   1      39.314  27.492  30.271  1.00  0.00     0.173 A 
ATOM     86  F   UNL A   1      41.010  30.465  29.053  1.00  0.00    -0.203 F 
ATOM     87  C   UNL A   1      40.398  28.491  27.922  1.00  0.00     0.198 A 
ATOM     88  C   UNL A   1      39.290  26.725  29.109  1.00  0.00     0.198 A 
ATOM     89  F   UNL A   1      38.784  26.983  31.392  1.00  0.00    -0.203 F 
ATOM     90  F   UNL A   1      40.899  28.988  26.782  1.00  0.00    -0.200 F 
ATOM     91  C   UNL A   1      39.830  27.226  27.935  1.00  0.00     0.200 A 
ATOM     92  F   UNL A   1      38.758  25.495  29.132  1.00  0.00    -0.200 F 
ATOM     93  F   UNL A   1      39.802  26.490  26.815  1.00  0.00    -0.200 F 
ENDBRANCH  59  83
BRANCH  71  94
ATOM     94  C   UNL A   1      44.528  28.988  35.519  1.00  0.00     0.064 A 
ATOM     95  C   UNL A   1      45.755  29.518  35.094  1.00  0.00     0.173 A 
ATOM     96  C   UNL A   1      44.549  27.787  36.245  1.00  0.00     0.173 A 
ATOM     97  F   UNL A   1      45.789  30.656  34.384  1.00  0.00    -0.203 F 
ATOM     98  C   UNL A   1      46.953  28.863  35.369  1.00  0.00     0.198 A 
ATOM     99  C   UNL A   1      45.751  27.152  36.546  1.00  0.00     0.198 A 
ATOM    100  F   UNL A   1      43.405  27.240  36.680  1.00  0.00    -0.203 F 
ATOM    101  F   UNL A   1      48.108  29.367  34.915  1.00  0.00    -0.200 F 
ATOM    102  C   UNL A   1      46.951  27.687  36.102  1.00  0.00     0.200 A 
ATOM    103  F   UNL A   1      45.747  26.024  37.270  1.00  0.00    -0.200 F 
ATOM    104  F   UNL A   1      48.105  27.065  36.378  1.00  0.00    -0.200 F 
ENDBRANCH  71  94
ENDBRANCH  45  46
ENDBRANCH  37  40
ENDBRANCH  35  36
ENDBRANCH  34  35
ENDBRANCH  33  34
ENDBRANCH  32  33
ENDBRANCH   1  32
TORSDOF 17
ENDMDL
