MODEL 1
REMARK VINA RESULT:     -12.7      0.000      0.000
REMARK SMILES C[C@@H]1C[N@H+]2CCC[C@@H]2CN1C(=O)N1CC(C(=O)NCCCCCCNC(=O)c2ccc(-c3c4nc(c(-c5c(F)c(F)c(F)c(F)c5F)c5ccc([nH]5)c(-c5c(F)c(F)c(F)c(F)c5F)c5nc(c(-c6c(F)c(F)c(F)c(F)c6F)c6ccc3[nH]6)C=C5)C=C4)cc2)C1
REMARK SMILES IDX 22 1 21 2 20 3 19 4 18 5 16 6 17 7 15 9 11 10 12 11 13 12
REMARK SMILES IDX 14 13 91 14 10 15 1 16 2 17 3 18 4 19 9 20 5 21 8 22 6 24
REMARK SMILES IDX 7 25 23 26 24 27 25 28 26 29 27 31 28 32 29 33 90 34 30 35
REMARK SMILES IDX 89 36 31 37 32 38 33 39 83 40 34 41 88 42 82 43 84 44 35 45
REMARK SMILES IDX 87 46 81 47 80 48 36 50 68 51 48 52 67 53 49 54 52 55 66 56
REMARK SMILES IDX 85 57 50 58 51 59 65 61 86 62 53 63 37 64 38 65 46 66 39 67
REMARK SMILES IDX 40 68 44 69 47 70 41 71 42 72 45 73 43 74 69 75 70 76 78 77
REMARK SMILES IDX 71 78 72 79 76 80 79 81 73 82 74 83 77 84 75 85 54 86 55 87
REMARK SMILES IDX 63 88 56 89 57 90 61 91 64 92 58 93 59 94 62 95 60 96
REMARK H PARENT 18 8 4 23 25 30 84 49 52 60
REMARK Flexibility Score: inf
ROOT
ATOM      1  C   UNL A   1      31.706  30.652  26.817  1.00  0.00     0.002 C 
ENDROOT
BRANCH   1   2
ATOM      2  C   UNL A   1      31.600  30.032  25.419  1.00  0.00     0.002 C 
BRANCH   2   3
ATOM      3  C   UNL A   1      32.723  29.053  25.051  1.00  0.00     0.021 C 
BRANCH   3   4
ATOM      4  C   UNL A   1      32.281  27.910  24.138  1.00  0.00     0.116 C 
BRANCH   4   5
ATOM      5  N   UNL A   1      30.949  28.145  23.620  1.00  0.00    -0.356 N 
ATOM      6  C   UNL A   1      29.816  27.371  23.648  1.00  0.00     0.226 C 
ATOM      7  O   UNL A   1      28.833  27.843  23.058  1.00  0.00    -0.275 OA
ATOM      8  H   UNL A   1      30.836  29.013  23.170  1.00  0.00     0.163 HD
BRANCH   6   9
ATOM      9  C   UNL A   1      29.752  26.025  24.378  1.00  0.00     0.117 C 
ATOM     10  C   UNL A   1      31.298  23.748  26.261  1.00  0.00     0.320 C 
ATOM     11  O   UNL A   1      30.622  23.537  27.268  1.00  0.00    -0.248 OA
ATOM     12  N   UNL A   1      31.064  24.852  25.485  1.00  0.00    -0.323 N 
ATOM     13  C   UNL A   1      30.178  25.957  25.840  1.00  0.00     0.136 C 
ATOM     14  C   UNL A   1      30.720  24.886  24.063  1.00  0.00     0.136 C 
BRANCH  10  15
ATOM     15  N   UNL A   1      32.341  22.924  25.886  1.00  0.00    -0.310 N 
ATOM     16  C   UNL A   1      32.340  20.547  25.172  1.00  0.00     0.037 C 
ATOM     17  C   UNL A   1      32.341  22.007  24.714  1.00  0.00     0.139 C 
ATOM     18  C   UNL A   1      33.530  22.309  23.739  1.00  0.00     0.287 C 
ATOM     19  N   UNL A   1      34.802  22.455  24.449  1.00  0.00    -0.329 N 
ATOM     20  C   UNL A   1      33.658  23.134  26.524  1.00  0.00     0.186 C 
ATOM     21  C   UNL A   1      35.955  22.808  23.625  1.00  0.00     0.262 C 
ATOM     22  C   UNL A   1      34.686  23.521  25.461  1.00  0.00     0.204 C 
ATOM     23  H   UNL A   1      34.972  21.526  24.838  1.00  0.00     0.348 HD
ATOM     24  C   UNL A   1      36.879  23.575  24.582  1.00  0.00     0.068 C 
ATOM     25  C   UNL A   1      36.128  23.626  25.912  1.00  0.00     0.073 C 
ENDBRANCH  10  15
ENDBRANCH   6   9
ENDBRANCH   4   5
ENDBRANCH   3   4
ENDBRANCH   2   3
ENDBRANCH   1   2
BRANCH   1  26
ATOM     26  C   UNL A   1      31.508  32.169  26.872  1.00  0.00     0.021 C 
BRANCH  26  27
ATOM     27  C   UNL A   1      32.771  32.965  27.183  1.00  0.00     0.116 C 
BRANCH  27  28
ATOM     28  N   UNL A   1      32.475  34.318  27.627  1.00  0.00    -0.352 N 
ATOM     29  C   UNL A   1      33.012  35.024  28.673  1.00  0.00     0.251 C 
ATOM     30  H   UNL A   1      31.793  34.795  27.102  1.00  0.00     0.163 HD
ATOM     31  O   UNL A   1      32.516  36.096  29.017  1.00  0.00    -0.269 OA
BRANCH  29  32
ATOM     32  C   UNL A   1      34.178  34.488  29.406  1.00  0.00     0.039 A 
ATOM     33  C   UNL A   1      33.971  33.844  30.628  1.00  0.00     0.014 A 
ATOM     34  C   UNL A   1      35.470  34.620  28.891  1.00  0.00     0.014 A 
ATOM     35  C   UNL A   1      35.053  33.279  31.305  1.00  0.00     0.010 A 
ATOM     36  C   UNL A   1      36.536  33.991  29.528  1.00  0.00     0.010 A 
ATOM     37  C   UNL A   1      36.340  33.318  30.743  1.00  0.00    -0.014 A 
BRANCH  37  38
ATOM     38  C   UNL A   1      37.494  32.664  31.412  1.00  0.00     0.031 A 
ATOM     39  C   UNL A   1      38.188  31.502  30.756  1.00  0.00     0.074 A 
ATOM     40  C   UNL A   1      37.873  33.072  32.638  1.00  0.00     0.049 A 
ATOM     41  N   UNL A   1      39.162  30.755  31.211  1.00  0.00    -0.248 NA
ATOM     42  C   UNL A   1      37.703  31.112  29.424  1.00  0.00     0.031 C 
ATOM     43  C   UNL A   1      37.253  34.159  33.396  1.00  0.00     0.029 A 
ATOM     44  N   UNL A   1      38.865  32.611  33.467  1.00  0.00    -0.354 N 
ATOM     45  C   UNL A   1      39.394  29.801  30.229  1.00  0.00     0.074 A 
ATOM     46  C   UNL A   1      38.421  30.027  29.182  1.00  0.00     0.031 C 
ATOM     47  C   UNL A   1      37.894  34.299  34.568  1.00  0.00     0.029 A 
ATOM     48  C   UNL A   1      38.941  33.285  34.662  1.00  0.00     0.049 A 
ATOM     49  H   UNL A   1      39.466  31.869  33.228  1.00  0.00     0.167 HD
ATOM     50  C   UNL A   1      40.348  28.840  30.192  1.00  0.00     0.037 A 
ATOM     51  C   UNL A   1      39.757  33.102  35.717  1.00  0.00     0.037 A 
ATOM     52  C   UNL A   1      41.325  28.630  31.229  1.00  0.00     0.049 A 
ATOM     53  C   UNL A   1      40.795  32.013  35.662  1.00  0.00     0.074 A 
ATOM     54  C   UNL A   1      42.368  27.721  31.262  1.00  0.00     0.029 A 
ATOM     55  N   UNL A   1      41.375  29.337  32.422  1.00  0.00    -0.354 N 
ATOM     56  N   UNL A   1      41.050  31.160  34.700  1.00  0.00    -0.248 NA
ATOM     57  C   UNL A   1      41.662  31.866  36.839  1.00  0.00     0.031 C 
ATOM     58  C   UNL A   1      43.013  27.840  32.498  1.00  0.00     0.029 A 
ATOM     59  C   UNL A   1      42.413  28.865  33.210  1.00  0.00     0.049 A 
ATOM     60  H   UNL A   1      40.763  30.067  32.671  1.00  0.00     0.167 HD
ATOM     61  C   UNL A   1      42.125  30.398  35.140  1.00  0.00     0.074 A 
ATOM     62  C   UNL A   1      42.481  30.898  36.452  1.00  0.00     0.031 C 
ATOM     63  C   UNL A   1      42.759  29.377  34.512  1.00  0.00     0.037 A 
BRANCH  50  64
ATOM     64  C   UNL A   1      40.375  27.937  28.990  1.00  0.00     0.064 A 
ATOM     65  C   UNL A   1      41.144  28.240  27.856  1.00  0.00     0.173 A 
ATOM     66  C   UNL A   1      39.637  26.742  28.980  1.00  0.00     0.173 A 
ATOM     67  F   UNL A   1      41.860  29.373  27.808  1.00  0.00    -0.203 F 
ATOM     68  C   UNL A   1      41.140  27.403  26.742  1.00  0.00     0.198 A 
ATOM     69  C   UNL A   1      39.665  25.891  27.879  1.00  0.00     0.198 A 
ATOM     70  F   UNL A   1      38.891  26.399  30.040  1.00  0.00    -0.203 F 
ATOM     71  F   UNL A   1      41.832  27.747  25.647  1.00  0.00    -0.200 F 
ATOM     72  C   UNL A   1      40.407  26.227  26.757  1.00  0.00     0.200 A 
ATOM     73  F   UNL A   1      38.967  24.748  27.901  1.00  0.00    -0.200 F 
ATOM     74  F   UNL A   1      40.406  25.423  25.686  1.00  0.00    -0.200 F 
ENDBRANCH  50  64
BRANCH  51  75
ATOM     75  C   UNL A   1      39.643  33.989  36.904  1.00  0.00     0.064 A 
ATOM     76  C   UNL A   1      38.860  33.618  38.006  1.00  0.00     0.173 A 
ATOM     77  C   UNL A   1      40.315  35.218  36.965  1.00  0.00     0.173 A 
ATOM     78  F   UNL A   1      38.183  32.461  37.985  1.00  0.00    -0.203 F 
ATOM     79  C   UNL A   1      38.739  34.450  39.117  1.00  0.00     0.198 A 
ATOM     80  C   UNL A   1      40.217  36.036  38.089  1.00  0.00     0.198 A 
ATOM     81  F   UNL A   1      41.081  35.619  35.940  1.00  0.00    -0.203 F 
ATOM     82  F   UNL A   1      37.950  34.090  40.137  1.00  0.00    -0.200 F 
ATOM     83  C   UNL A   1      39.424  35.655  39.161  1.00  0.00     0.200 A 
ATOM     84  F   UNL A   1      40.892  37.193  38.134  1.00  0.00    -0.200 F 
ATOM     85  F   UNL A   1      39.313  36.452  40.233  1.00  0.00    -0.200 F 
ENDBRANCH  51  75
BRANCH  63  86
ATOM     86  C   UNL A   1      43.932  28.756  35.217  1.00  0.00     0.064 A 
ATOM     87  C   UNL A   1      43.776  27.688  36.113  1.00  0.00     0.173 A 
ATOM     88  C   UNL A   1      45.235  29.210  34.959  1.00  0.00     0.173 A 
ATOM     89  F   UNL A   1      42.551  27.227  36.406  1.00  0.00    -0.203 F 
ATOM     90  C   UNL A   1      44.878  27.115  36.743  1.00  0.00     0.198 A 
ATOM     91  C   UNL A   1      46.337  28.613  35.564  1.00  0.00     0.198 A 
ATOM     92  F   UNL A   1      45.441  30.224  34.105  1.00  0.00    -0.203 F 
ATOM     93  F   UNL A   1      44.700  26.128  37.632  1.00  0.00    -0.200 F 
ATOM     94  C   UNL A   1      46.157  27.571  36.462  1.00  0.00     0.200 A 
ATOM     95  F   UNL A   1      47.572  29.047  35.280  1.00  0.00    -0.200 F 
ATOM     96  F   UNL A   1      47.216  27.012  37.061  1.00  0.00    -0.200 F 
ENDBRANCH  63  86
ENDBRANCH  37  38
ENDBRANCH  29  32
ENDBRANCH  27  28
ENDBRANCH  26  27
ENDBRANCH   1  26
TORSDOF 14
ENDMDL
MODEL 2
REMARK VINA RESULT:     -12.6      5.567     11.152
REMARK SMILES C[C@@H]1C[N@H+]2CCC[C@@H]2CN1C(=O)N1CC(C(=O)NCCCCCCNC(=O)c2ccc(-c3c4nc(c(-c5c(F)c(F)c(F)c(F)c5F)c5ccc([nH]5)c(-c5c(F)c(F)c(F)c(F)c5F)c5nc(c(-c6c(F)c(F)c(F)c(F)c6F)c6ccc3[nH]6)C=C5)C=C4)cc2)C1
REMARK SMILES IDX 22 1 21 2 20 3 19 4 18 5 16 6 17 7 15 9 11 10 12 11 13 12
REMARK SMILES IDX 14 13 91 14 10 15 1 16 2 17 3 18 4 19 9 20 5 21 8 22 6 24
REMARK SMILES IDX 7 25 23 26 24 27 25 28 26 29 27 31 28 32 29 33 90 34 30 35
REMARK SMILES IDX 89 36 31 37 32 38 33 39 83 40 34 41 88 42 82 43 84 44 35 45
REMARK SMILES IDX 87 46 81 47 80 48 36 50 68 51 48 52 67 53 49 54 52 55 66 56
REMARK SMILES IDX 85 57 50 58 51 59 65 61 86 62 53 63 37 64 38 65 46 66 39 67
REMARK SMILES IDX 40 68 44 69 47 70 41 71 42 72 45 73 43 74 69 75 70 76 78 77
REMARK SMILES IDX 71 78 72 79 76 80 79 81 73 82 74 83 77 84 75 85 54 86 55 87
REMARK SMILES IDX 63 88 56 89 57 90 61 91 64 92 58 93 59 94 62 95 60 96
REMARK H PARENT 18 8 4 23 25 30 84 49 52 60
REMARK Flexibility Score: inf
ROOT
ATOM      1  C   UNL A   1      37.368  21.027  24.626  1.00  0.00     0.002 C 
ENDROOT
BRANCH   1   2
ATOM      2  C   UNL A   1      35.928  21.001  25.153  1.00  0.00     0.002 C 
BRANCH   2   3
ATOM      3  C   UNL A   1      35.373  22.358  25.605  1.00  0.00     0.021 C 
BRANCH   3   4
ATOM      4  C   UNL A   1      33.848  22.452  25.570  1.00  0.00     0.116 C 
BRANCH   4   5
ATOM      5  N   UNL A   1      33.273  21.304  24.900  1.00  0.00    -0.356 N 
ATOM      6  C   UNL A   1      32.558  21.198  23.733  1.00  0.00     0.226 C 
ATOM      7  O   UNL A   1      32.154  20.059  23.456  1.00  0.00    -0.275 OA
ATOM      8  H   UNL A   1      33.422  20.448  25.363  1.00  0.00     0.163 HD
BRANCH   6   9
ATOM      9  C   UNL A   1      32.294  22.396  22.815  1.00  0.00     0.117 C 
ATOM     10  C   UNL A   1      32.880  25.600  22.099  1.00  0.00     0.320 C 
ATOM     11  O   UNL A   1      33.278  25.683  20.936  1.00  0.00    -0.248 OA
ATOM     12  N   UNL A   1      32.870  24.393  22.746  1.00  0.00    -0.323 N 
ATOM     13  C   UNL A   1      33.480  23.164  22.244  1.00  0.00     0.136 C 
ATOM     14  C   UNL A   1      31.721  23.710  23.342  1.00  0.00     0.136 C 
BRANCH  10  15
ATOM     15  N   UNL A   1      32.472  26.705  22.821  1.00  0.00    -0.310 N 
ATOM     16  C   UNL A   1      30.657  28.338  22.376  1.00  0.00     0.037 C 
ATOM     17  C   UNL A   1      31.060  27.065  23.124  1.00  0.00     0.139 C 
ATOM     18  C   UNL A   1      30.812  27.195  24.667  1.00  0.00     0.287 C 
ATOM     19  N   UNL A   1      31.843  27.998  25.325  1.00  0.00    -0.329 N 
ATOM     20  C   UNL A   1      33.494  27.461  23.574  1.00  0.00     0.186 C 
ATOM     21  C   UNL A   1      31.731  28.113  26.777  1.00  0.00     0.262 C 
ATOM     22  C   UNL A   1      33.171  27.409  25.067  1.00  0.00     0.204 C 
ATOM     23  H   UNL A   1      31.716  28.931  24.930  1.00  0.00     0.348 HD
ATOM     24  C   UNL A   1      33.177  28.315  27.250  1.00  0.00     0.068 C 
ATOM     25  C   UNL A   1      34.027  28.260  25.982  1.00  0.00     0.073 C 
ENDBRANCH  10  15
ENDBRANCH   6   9
ENDBRANCH   4   5
ENDBRANCH   3   4
ENDBRANCH   2   3
ENDBRANCH   1   2
BRANCH   1  26
ATOM     26  C   UNL A   1      38.219  19.812  25.001  1.00  0.00     0.021 C 
BRANCH  26  27
ATOM     27  C   UNL A   1      39.278  20.080  26.065  1.00  0.00     0.116 C 
BRANCH  27  28
ATOM     28  N   UNL A   1      40.328  19.074  26.065  1.00  0.00    -0.352 N 
ATOM     29  C   UNL A   1      41.688  19.239  26.126  1.00  0.00     0.251 C 
ATOM     30  H   UNL A   1      40.019  18.140  26.015  1.00  0.00     0.163 HD
ATOM     31  O   UNL A   1      42.439  18.284  25.933  1.00  0.00    -0.269 OA
BRANCH  29  32
ATOM     32  C   UNL A   1      42.258  20.575  26.402  1.00  0.00     0.039 A 
ATOM     33  C   UNL A   1      42.676  21.367  25.330  1.00  0.00     0.014 A 
ATOM     34  C   UNL A   1      42.382  21.044  27.712  1.00  0.00     0.014 A 
ATOM     35  C   UNL A   1      43.162  22.654  25.567  1.00  0.00     0.010 A 
ATOM     36  C   UNL A   1      42.794  22.354  27.942  1.00  0.00     0.010 A 
ATOM     37  C   UNL A   1      43.192  23.170  26.873  1.00  0.00    -0.014 A 
BRANCH  37  38
ATOM     38  C   UNL A   1      43.640  24.561  27.141  1.00  0.00     0.031 A 
ATOM     39  C   UNL A   1      42.662  25.585  27.646  1.00  0.00     0.074 A 
ATOM     40  C   UNL A   1      44.909  24.918  26.867  1.00  0.00     0.049 A 
ATOM     41  N   UNL A   1      42.841  26.863  27.870  1.00  0.00    -0.248 NA
ATOM     42  C   UNL A   1      41.293  25.116  27.907  1.00  0.00     0.031 C 
ATOM     43  C   UNL A   1      45.941  24.027  26.336  1.00  0.00     0.029 A 
ATOM     44  N   UNL A   1      45.544  26.128  26.989  1.00  0.00    -0.354 N 
ATOM     45  C   UNL A   1      41.608  27.349  28.283  1.00  0.00     0.074 A 
ATOM     46  C   UNL A   1      40.675  26.244  28.221  1.00  0.00     0.031 C 
ATOM     47  C   UNL A   1      47.086  24.714  26.199  1.00  0.00     0.029 A 
ATOM     48  C   UNL A   1      46.859  26.102  26.593  1.00  0.00     0.049 A 
ATOM     49  H   UNL A   1      45.100  26.939  27.327  1.00  0.00     0.167 HD
ATOM     50  C   UNL A   1      41.287  28.598  28.699  1.00  0.00     0.037 A 
ATOM     51  C   UNL A   1      47.777  27.087  26.547  1.00  0.00     0.037 A 
ATOM     52  C   UNL A   1      42.222  29.690  28.774  1.00  0.00     0.049 A 
ATOM     53  C   UNL A   1      47.391  28.471  26.993  1.00  0.00     0.074 A 
ATOM     54  C   UNL A   1      42.011  30.978  29.235  1.00  0.00     0.029 A 
ATOM     55  N   UNL A   1      43.548  29.623  28.372  1.00  0.00    -0.354 N 
ATOM     56  N   UNL A   1      46.240  28.904  27.446  1.00  0.00    -0.248 NA
ATOM     57  C   UNL A   1      48.436  29.502  26.929  1.00  0.00     0.031 C 
ATOM     58  C   UNL A   1      43.193  31.705  29.059  1.00  0.00     0.029 A 
ATOM     59  C   UNL A   1      44.160  30.855  28.547  1.00  0.00     0.049 A 
ATOM     60  H   UNL A   1      43.990  28.819  28.015  1.00  0.00     0.167 HD
ATOM     61  C   UNL A   1      46.429  30.247  27.749  1.00  0.00     0.074 A 
ATOM     62  C   UNL A   1      47.810  30.553  27.440  1.00  0.00     0.031 C 
ATOM     63  C   UNL A   1      45.538  31.143  28.240  1.00  0.00     0.037 A 
BRANCH  50  64
ATOM     64  C   UNL A   1      39.859  28.849  29.098  1.00  0.00     0.064 A 
ATOM     65  C   UNL A   1      39.425  28.695  30.424  1.00  0.00     0.173 A 
ATOM     66  C   UNL A   1      38.916  29.269  28.146  1.00  0.00     0.173 A 
ATOM     67  F   UNL A   1      40.282  28.286  31.372  1.00  0.00    -0.203 F 
ATOM     68  C   UNL A   1      38.094  28.910  30.773  1.00  0.00     0.198 A 
ATOM     69  C   UNL A   1      37.595  29.518  28.507  1.00  0.00     0.198 A 
ATOM     70  F   UNL A   1      39.277  29.440  26.866  1.00  0.00    -0.203 F 
ATOM     71  F   UNL A   1      37.691  28.695  32.033  1.00  0.00    -0.200 F 
ATOM     72  C   UNL A   1      37.182  29.328  29.817  1.00  0.00     0.200 A 
ATOM     73  F   UNL A   1      36.718  29.936  27.584  1.00  0.00    -0.200 F 
ATOM     74  F   UNL A   1      35.903  29.537  30.155  1.00  0.00    -0.200 F 
ENDBRANCH  50  64
BRANCH  51  75
ATOM     75  C   UNL A   1      49.158  26.791  26.085  1.00  0.00     0.064 A 
ATOM     76  C   UNL A   1      50.122  26.293  26.972  1.00  0.00     0.173 A 
ATOM     77  C   UNL A   1      49.542  26.992  24.751  1.00  0.00     0.173 A 
ATOM     78  F   UNL A   1      49.808  26.102  28.262  1.00  0.00    -0.203 F 
ATOM     79  C   UNL A   1      51.421  26.024  26.549  1.00  0.00     0.198 A 
ATOM     80  C   UNL A   1      50.834  26.695  24.322  1.00  0.00     0.198 A 
ATOM     81  F   UNL A   1      48.657  27.462  23.859  1.00  0.00    -0.203 F 
ATOM     82  F   UNL A   1      52.334  25.589  27.427  1.00  0.00    -0.200 F 
ATOM     83  C   UNL A   1      51.775  26.218  25.221  1.00  0.00     0.200 A 
ATOM     84  F   UNL A   1      51.167  26.870  23.035  1.00  0.00    -0.200 F 
ATOM     85  F   UNL A   1      53.023  25.953  24.813  1.00  0.00    -0.200 F 
ENDBRANCH  51  75
BRANCH  63  86
ATOM     86  C   UNL A   1      46.038  32.533  28.514  1.00  0.00     0.064 A 
ATOM     87  C   UNL A   1      45.957  33.551  27.552  1.00  0.00     0.173 A 
ATOM     88  C   UNL A   1      46.566  32.861  29.772  1.00  0.00     0.173 A 
ATOM     89  F   UNL A   1      45.475  33.287  26.328  1.00  0.00    -0.203 F 
ATOM     90  C   UNL A   1      46.411  34.838  27.831  1.00  0.00     0.198 A 
ATOM     91  C   UNL A   1      46.987  34.156  30.060  1.00  0.00     0.198 A 
ATOM     92  F   UNL A   1      46.660  31.927  30.731  1.00  0.00    -0.203 F 
ATOM     93  F   UNL A   1      46.369  35.782  26.881  1.00  0.00    -0.200 F 
ATOM     94  C   UNL A   1      46.916  35.142  29.087  1.00  0.00     0.200 A 
ATOM     95  F   UNL A   1      47.462  34.450  31.278  1.00  0.00    -0.200 F 
ATOM     96  F   UNL A   1      47.343  36.383  29.357  1.00  0.00    -0.200 F 
ENDBRANCH  63  86
ENDBRANCH  37  38
ENDBRANCH  29  32
ENDBRANCH  27  28
ENDBRANCH  26  27
ENDBRANCH   1  26
TORSDOF 14
ENDMDL
MODEL 3
REMARK VINA RESULT:     -12.6      1.786      7.719
REMARK SMILES C[C@@H]1C[N@H+]2CCC[C@@H]2CN1C(=O)N1CC(C(=O)NCCCCCCNC(=O)c2ccc(-c3c4nc(c(-c5c(F)c(F)c(F)c(F)c5F)c5ccc([nH]5)c(-c5c(F)c(F)c(F)c(F)c5F)c5nc(c(-c6c(F)c(F)c(F)c(F)c6F)c6ccc3[nH]6)C=C5)C=C4)cc2)C1
REMARK SMILES IDX 22 1 21 2 20 3 19 4 18 5 16 6 17 7 15 9 11 10 12 11 13 12
REMARK SMILES IDX 14 13 91 14 10 15 1 16 2 17 3 18 4 19 9 20 5 21 8 22 6 24
REMARK SMILES IDX 7 25 23 26 24 27 25 28 26 29 27 31 28 32 29 33 90 34 30 35
REMARK SMILES IDX 89 36 31 37 32 38 33 39 83 40 34 41 88 42 82 43 84 44 35 45
REMARK SMILES IDX 87 46 81 47 80 48 36 50 68 51 48 52 67 53 49 54 52 55 66 56
REMARK SMILES IDX 85 57 50 58 51 59 65 61 86 62 53 63 37 64 38 65 46 66 39 67
REMARK SMILES IDX 40 68 44 69 47 70 41 71 42 72 45 73 43 74 69 75 70 76 78 77
REMARK SMILES IDX 71 78 72 79 76 80 79 81 73 82 74 83 77 84 75 85 54 86 55 87
REMARK SMILES IDX 63 88 56 89 57 90 61 91 64 92 58 93 59 94 62 95 60 96
REMARK H PARENT 18 8 4 23 25 30 84 49 52 60
REMARK Flexibility Score: inf
ROOT
ATOM      1  C   UNL A   1      34.672  33.859  29.105  1.00  0.00     0.002 C 
ENDROOT
BRANCH   1   2
ATOM      2  C   UNL A   1      34.446  32.344  29.038  1.00  0.00     0.002 C 
BRANCH   2   3
ATOM      3  C   UNL A   1      34.961  31.662  27.764  1.00  0.00     0.021 C 
BRANCH   3   4
ATOM      4  C   UNL A   1      34.411  30.253  27.544  1.00  0.00     0.116 C 
BRANCH   4   5
ATOM      5  N   UNL A   1      33.235  30.280  26.699  1.00  0.00    -0.356 N 
ATOM      6  C   UNL A   1      32.857  29.486  25.646  1.00  0.00     0.226 C 
ATOM      7  O   UNL A   1      31.797  29.808  25.087  1.00  0.00    -0.275 OA
ATOM      8  H   UNL A   1      32.594  30.993  26.919  1.00  0.00     0.163 HD
BRANCH   6   9
ATOM      9  C   UNL A   1      33.667  28.264  25.199  1.00  0.00     0.117 C 
ATOM     10  C   UNL A   1      33.681  25.067  24.254  1.00  0.00     0.320 C 
ATOM     11  O   UNL A   1      34.254  24.973  23.168  1.00  0.00    -0.248 OA
ATOM     12  N   UNL A   1      33.256  26.284  24.714  1.00  0.00    -0.323 N 
ATOM     13  C   UNL A   1      33.247  27.521  23.936  1.00  0.00     0.136 C 
ATOM     14  C   UNL A   1      33.630  26.943  25.966  1.00  0.00     0.136 C 
BRANCH  10  15
ATOM     15  N   UNL A   1      33.396  23.964  25.035  1.00  0.00    -0.310 N 
ATOM     16  C   UNL A   1      31.887  23.722  26.991  1.00  0.00     0.037 C 
ATOM     17  C   UNL A   1      32.037  23.547  25.478  1.00  0.00     0.139 C 
ATOM     18  C   UNL A   1      31.703  22.083  25.028  1.00  0.00     0.287 C 
ATOM     19  N   UNL A   1      32.795  21.153  25.319  1.00  0.00    -0.329 N 
ATOM     20  C   UNL A   1      34.464  22.966  25.248  1.00  0.00     0.186 C 
ATOM     21  C   UNL A   1      32.599  19.778  24.868  1.00  0.00     0.262 C 
ATOM     22  C   UNL A   1      34.032  21.620  24.665  1.00  0.00     0.204 C 
ATOM     23  H   UNL A   1      32.840  21.141  26.338  1.00  0.00     0.348 HD
ATOM     24  C   UNL A   1      34.021  19.257  24.619  1.00  0.00     0.068 C 
ATOM     25  C   UNL A   1      34.941  20.438  24.928  1.00  0.00     0.073 C 
ENDBRANCH  10  15
ENDBRANCH   6   9
ENDBRANCH   4   5
ENDBRANCH   3   4
ENDBRANCH   2   3
ENDBRANCH   1   2
BRANCH   1  26
ATOM     26  C   UNL A   1      33.416  34.713  28.914  1.00  0.00     0.021 C 
BRANCH  26  27
ATOM     27  C   UNL A   1      33.465  36.077  29.593  1.00  0.00     0.116 C 
BRANCH  27  28
ATOM     28  N   UNL A   1      32.497  36.191  30.673  1.00  0.00    -0.352 N 
ATOM     29  C   UNL A   1      32.526  35.635  31.927  1.00  0.00     0.251 C 
ATOM     30  H   UNL A   1      31.709  36.748  30.477  1.00  0.00     0.163 HD
ATOM     31  O   UNL A   1      31.535  35.689  32.652  1.00  0.00    -0.269 OA
BRANCH  29  32
ATOM     32  C   UNL A   1      33.745  34.947  32.401  1.00  0.00     0.039 A 
ATOM     33  C   UNL A   1      33.644  33.632  32.862  1.00  0.00     0.014 A 
ATOM     34  C   UNL A   1      34.983  35.595  32.393  1.00  0.00     0.014 A 
ATOM     35  C   UNL A   1      34.793  32.947  33.258  1.00  0.00     0.010 A 
ATOM     36  C   UNL A   1      36.137  34.887  32.716  1.00  0.00     0.010 A 
ATOM     37  C   UNL A   1      36.054  33.557  33.156  1.00  0.00    -0.014 A 
BRANCH  37  38
ATOM     38  C   UNL A   1      37.297  32.823  33.506  1.00  0.00     0.031 A 
ATOM     39  C   UNL A   1      38.017  33.128  34.791  1.00  0.00     0.074 A 
ATOM     40  C   UNL A   1      37.813  31.932  32.639  1.00  0.00     0.049 A 
ATOM     41  N   UNL A   1      39.151  32.650  35.239  1.00  0.00    -0.248 NA
ATOM     42  C   UNL A   1      37.393  34.123  35.676  1.00  0.00     0.031 C 
ATOM     43  C   UNL A   1      37.231  31.580  31.343  1.00  0.00     0.029 A 
ATOM     44  N   UNL A   1      38.950  31.168  32.711  1.00  0.00    -0.354 N 
ATOM     45  C   UNL A   1      39.381  33.296  36.446  1.00  0.00     0.074 A 
ATOM     46  C   UNL A   1      38.301  34.242  36.631  1.00  0.00     0.031 C 
ATOM     47  C   UNL A   1      38.001  30.652  30.754  1.00  0.00     0.029 A 
ATOM     48  C   UNL A   1      39.152  30.374  31.609  1.00  0.00     0.049 A 
ATOM     49  H   UNL A   1      39.564  31.186  33.481  1.00  0.00     0.167 HD
ATOM     50  C   UNL A   1      40.387  33.101  37.332  1.00  0.00     0.037 A 
ATOM     51  C   UNL A   1      40.155  29.523  31.316  1.00  0.00     0.037 A 
ATOM     52  C   UNL A   1      41.450  32.146  37.151  1.00  0.00     0.049 A 
ATOM     53  C   UNL A   1      41.273  29.340  32.306  1.00  0.00     0.074 A 
ATOM     54  C   UNL A   1      42.485  31.832  38.014  1.00  0.00     0.029 A 
ATOM     55  N   UNL A   1      41.616  31.355  36.023  1.00  0.00    -0.354 N 
ATOM     56  N   UNL A   1      41.445  29.906  33.476  1.00  0.00    -0.248 NA
ATOM     57  C   UNL A   1      42.334  28.393  31.937  1.00  0.00     0.031 C 
ATOM     58  C   UNL A   1      43.309  30.892  37.386  1.00  0.00     0.029 A 
ATOM     59  C   UNL A   1      42.754  30.573  36.157  1.00  0.00     0.049 A 
ATOM     60  H   UNL A   1      41.015  31.349  35.244  1.00  0.00     0.167 HD
ATOM     61  C   UNL A   1      42.613  29.363  33.995  1.00  0.00     0.074 A 
ATOM     62  C   UNL A   1      43.101  28.412  33.018  1.00  0.00     0.031 C 
ATOM     63  C   UNL A   1      43.224  29.627  35.176  1.00  0.00     0.037 A 
BRANCH  50  64
ATOM     64  C   UNL A   1      40.387  33.945  38.576  1.00  0.00     0.064 A 
ATOM     65  C   UNL A   1      41.075  35.167  38.640  1.00  0.00     0.173 A 
ATOM     66  C   UNL A   1      39.675  33.535  39.715  1.00  0.00     0.173 A 
ATOM     67  F   UNL A   1      41.780  35.601  37.584  1.00  0.00    -0.203 F 
ATOM     68  C   UNL A   1      41.083  35.926  39.808  1.00  0.00     0.198 A 
ATOM     69  C   UNL A   1      39.657  34.315  40.868  1.00  0.00     0.198 A 
ATOM     70  F   UNL A   1      38.994  32.380  39.708  1.00  0.00    -0.203 F 
ATOM     71  F   UNL A   1      41.800  37.058  39.863  1.00  0.00    -0.200 F 
ATOM     72  C   UNL A   1      40.370  35.503  40.918  1.00  0.00     0.200 A 
ATOM     73  F   UNL A   1      38.954  33.912  41.936  1.00  0.00    -0.200 F 
ATOM     74  F   UNL A   1      40.377  36.236  42.040  1.00  0.00    -0.200 F 
ENDBRANCH  50  64
BRANCH  51  75
ATOM     75  C   UNL A   1      40.130  28.761  30.041  1.00  0.00     0.064 A 
ATOM     76  C   UNL A   1      40.710  29.286  28.878  1.00  0.00     0.173 A 
ATOM     77  C   UNL A   1      39.535  27.494  29.958  1.00  0.00     0.173 A 
ATOM     78  F   UNL A   1      41.273  30.503  28.903  1.00  0.00    -0.203 F 
ATOM     79  C   UNL A   1      40.680  28.582  27.677  1.00  0.00     0.198 A 
ATOM     80  C   UNL A   1      39.532  26.777  28.763  1.00  0.00     0.198 A 
ATOM     81  F   UNL A   1      38.970  26.943  31.043  1.00  0.00    -0.203 F 
ATOM     82  F   UNL A   1      41.204  29.127  26.571  1.00  0.00    -0.200 F 
ATOM     83  C   UNL A   1      40.097  27.325  27.622  1.00  0.00     0.200 A 
ATOM     84  F   UNL A   1      38.981  25.556  28.717  1.00  0.00    -0.200 F 
ATOM     85  F   UNL A   1      40.076  26.645  26.467  1.00  0.00    -0.200 F 
ENDBRANCH  51  75
BRANCH  63  86
ATOM     86  C   UNL A   1      44.468  28.849  35.499  1.00  0.00     0.064 A 
ATOM     87  C   UNL A   1      45.744  29.314  35.144  1.00  0.00     0.173 A 
ATOM     88  C   UNL A   1      44.385  27.642  36.210  1.00  0.00     0.173 A 
ATOM     89  F   UNL A   1      45.878  30.454  34.450  1.00  0.00    -0.203 F 
ATOM     90  C   UNL A   1      46.887  28.586  35.467  1.00  0.00     0.198 A 
ATOM     91  C   UNL A   1      45.531  26.934  36.562  1.00  0.00     0.198 A 
ATOM     92  F   UNL A   1      43.191  27.156  36.581  1.00  0.00    -0.203 F 
ATOM     93  F   UNL A   1      48.091  29.024  35.075  1.00  0.00    -0.200 F 
ATOM     94  C   UNL A   1      46.780  27.403  36.183  1.00  0.00     0.200 A 
ATOM     95  F   UNL A   1      45.426  25.799  37.266  1.00  0.00    -0.200 F 
ATOM     96  F   UNL A   1      47.881  26.709  36.502  1.00  0.00    -0.200 F 
ENDBRANCH  63  86
ENDBRANCH  37  38
ENDBRANCH  29  32
ENDBRANCH  27  28
ENDBRANCH  26  27
ENDBRANCH   1  26
TORSDOF 14
ENDMDL
