MODEL 1
REMARK VINA RESULT:     -12.8      0.000      0.000
REMARK SMILES Cc1cccc(-c2cc(OCC(=O)NCCCCCCNC(=O)c3ccc(-c4c5nc(c(-c6c(F)c(F)c(F)c(F)c6F)c6ccc([nH]6)c(-c6c(F)c(F)c(F)c(F)c6F)c6nc(c(-c7c(F)c(F)c(F)c(F)c7F)c7ccc4[nH]7)C=C6)C=C5)cc3)ncn2)c1
REMARK SMILES IDX 17 1 16 2 15 3 14 4 12 5 13 6 11 8 10 9 9 10 7 11 8 12 89 13
REMARK SMILES IDX 88 14 87 15 6 16 1 17 2 18 3 19 90 20 4 21 5 22 18 23 19 24
REMARK SMILES IDX 20 25 21 26 22 27 23 29 24 30 25 31 86 32 26 33 85 34 27 35
REMARK SMILES IDX 28 36 29 37 79 38 30 39 84 40 78 41 80 42 31 43 83 44 77 45
REMARK SMILES IDX 76 46 32 48 64 49 44 50 63 51 45 52 48 53 62 54 81 55 46 56
REMARK SMILES IDX 47 57 61 59 82 60 49 61 33 62 34 63 42 64 35 65 36 66 40 67
REMARK SMILES IDX 43 68 37 69 38 70 41 71 39 72 65 73 66 74 74 75 67 76 68 77
REMARK SMILES IDX 72 78 75 79 69 80 70 81 73 82 71 83 50 84 51 85 59 86 52 87
REMARK SMILES IDX 53 88 57 89 60 90 54 91 55 92 58 93 56 94
REMARK H PARENT 14 7 21 28 80 47 48 58
REMARK Flexibility Score: inf
ROOT
ATOM      1  C   UNL A   1      32.901  29.344  24.465  1.00  0.00     0.002 C 
ENDROOT
BRANCH   1   2
ATOM      2  C   UNL A   1      33.975  28.261  24.640  1.00  0.00     0.021 C 
BRANCH   2   3
ATOM      3  C   UNL A   1      33.466  26.859  24.971  1.00  0.00     0.116 C 
BRANCH   3   4
ATOM      4  N   UNL A   1      34.185  25.827  24.255  1.00  0.00    -0.353 N 
ATOM      5  C   UNL A   1      33.696  24.925  23.360  1.00  0.00     0.258 C 
ATOM      6  O   UNL A   1      34.483  24.161  22.799  1.00  0.00    -0.271 OA
ATOM      7  H   UNL A   1      35.150  25.770  24.439  1.00  0.00     0.163 HD
BRANCH   5   8
ATOM      8  C   UNL A   1      32.192  24.884  23.059  1.00  0.00     0.331 C 
BRANCH   8   9
ATOM      9  O   UNL A   1      31.668  25.903  22.226  1.00  0.00    -0.467 OA
BRANCH   9  10
ATOM     10  C   UNL A   1      30.604  26.625  22.684  1.00  0.00     0.217 A 
ATOM     11  C   UNL A   1      29.254  28.520  22.988  1.00  0.00     0.077 A 
ATOM     12  C   UNL A   1      30.425  27.974  22.499  1.00  0.00     0.097 A 
ATOM     13  N   UNL A   1      28.347  27.798  23.673  1.00  0.00    -0.236 NA
ATOM     14  C   UNL A   1      28.631  26.498  23.817  1.00  0.00     0.226 A 
ATOM     15  N   UNL A   1      29.714  25.867  23.345  1.00  0.00    -0.202 NA
BRANCH  11  16
ATOM     16  C   UNL A   1      28.937  29.930  22.749  1.00  0.00     0.001 A 
ATOM     17  C   UNL A   1      27.822  32.146  19.840  1.00  0.00     0.044 C 
ATOM     18  C   UNL A   1      28.267  31.709  21.204  1.00  0.00    -0.050 A 
ATOM     19  C   UNL A   1      28.464  32.649  22.219  1.00  0.00     0.003 A 
ATOM     20  C   UNL A   1      28.509  30.357  21.477  1.00  0.00     0.013 A 
ATOM     21  C   UNL A   1      28.873  32.243  23.490  1.00  0.00     0.001 A 
ATOM     22  C   UNL A   1      29.099  30.891  23.756  1.00  0.00     0.010 A 
ENDBRANCH  11  16
ENDBRANCH   9  10
ENDBRANCH   8   9
ENDBRANCH   5   8
ENDBRANCH   3   4
ENDBRANCH   2   3
ENDBRANCH   1   2
BRANCH   1  23
ATOM     23  C   UNL A   1      31.945  29.580  25.645  1.00  0.00     0.002 C 
BRANCH  23  24
ATOM     24  C   UNL A   1      32.334  30.685  26.627  1.00  0.00     0.021 C 
BRANCH  24  25
ATOM     25  C   UNL A   1      33.317  30.261  27.707  1.00  0.00     0.116 C 
BRANCH  25  26
ATOM     26  N   UNL A   1      34.039  31.368  28.311  1.00  0.00    -0.352 N 
ATOM     27  C   UNL A   1      35.289  31.401  28.903  1.00  0.00     0.251 C 
ATOM     28  H   UNL A   1      33.564  32.231  28.295  1.00  0.00     0.163 HD
ATOM     29  O   UNL A   1      35.669  32.415  29.460  1.00  0.00    -0.269 OA
BRANCH  27  30
ATOM     30  C   UNL A   1      36.227  30.262  28.717  1.00  0.00     0.039 A 
ATOM     31  C   UNL A   1      36.525  29.490  29.849  1.00  0.00     0.014 A 
ATOM     32  C   UNL A   1      36.954  30.082  27.545  1.00  0.00     0.014 A 
ATOM     33  C   UNL A   1      37.705  28.753  29.886  1.00  0.00     0.010 A 
ATOM     34  C   UNL A   1      38.169  29.434  27.606  1.00  0.00     0.010 A 
ATOM     35  C   UNL A   1      38.576  28.843  28.804  1.00  0.00    -0.014 A 
BRANCH  35  36
ATOM     36  C   UNL A   1      39.973  28.447  28.863  1.00  0.00     0.031 A 
ATOM     37  C   UNL A   1      40.370  27.077  28.498  1.00  0.00     0.074 A 
ATOM     38  C   UNL A   1      40.896  29.392  29.150  1.00  0.00     0.049 A 
ATOM     39  N   UNL A   1      41.510  26.553  28.790  1.00  0.00    -0.248 NA
ATOM     40  C   UNL A   1      39.463  26.146  27.838  1.00  0.00     0.031 C 
ATOM     41  C   UNL A   1      42.343  29.312  28.976  1.00  0.00     0.029 A 
ATOM     42  N   UNL A   1      40.697  30.580  29.875  1.00  0.00    -0.354 N 
ATOM     43  C   UNL A   1      41.599  25.343  28.141  1.00  0.00     0.074 A 
ATOM     44  C   UNL A   1      40.259  25.086  27.675  1.00  0.00     0.031 C 
ATOM     45  C   UNL A   1      42.925  30.199  29.798  1.00  0.00     0.029 A 
ATOM     46  C   UNL A   1      41.877  30.754  30.636  1.00  0.00     0.049 A 
ATOM     47  H   UNL A   1      39.906  31.166  29.858  1.00  0.00     0.167 HD
ATOM     48  C   UNL A   1      42.834  24.787  27.981  1.00  0.00     0.037 A 
ATOM     49  C   UNL A   1      41.855  30.686  31.999  1.00  0.00     0.037 A 
ATOM     50  C   UNL A   1      43.812  25.480  28.829  1.00  0.00     0.049 A 
ATOM     51  C   UNL A   1      42.745  29.606  32.567  1.00  0.00     0.074 A 
ATOM     52  C   UNL A   1      44.791  26.425  28.575  1.00  0.00     0.029 A 
ATOM     53  N   UNL A   1      43.651  25.442  30.213  1.00  0.00    -0.354 N 
ATOM     54  N   UNL A   1      43.147  28.563  31.895  1.00  0.00    -0.248 NA
ATOM     55  C   UNL A   1      43.229  29.607  33.945  1.00  0.00     0.031 C 
ATOM     56  C   UNL A   1      45.158  27.016  29.814  1.00  0.00     0.029 A 
ATOM     57  C   UNL A   1      44.433  26.403  30.822  1.00  0.00     0.049 A 
ATOM     58  H   UNL A   1      43.059  24.816  30.690  1.00  0.00     0.167 HD
ATOM     59  C   UNL A   1      43.903  27.759  32.708  1.00  0.00     0.074 A 
ATOM     60  C   UNL A   1      43.942  28.467  33.975  1.00  0.00     0.031 C 
ATOM     61  C   UNL A   1      44.419  26.572  32.270  1.00  0.00     0.037 A 
BRANCH  48  62
ATOM     62  C   UNL A   1      43.237  23.783  26.907  1.00  0.00     0.064 A 
ATOM     63  C   UNL A   1      42.843  22.428  27.022  1.00  0.00     0.173 A 
ATOM     64  C   UNL A   1      44.091  24.036  25.813  1.00  0.00     0.173 A 
ATOM     65  F   UNL A   1      42.001  22.025  27.983  1.00  0.00    -0.203 F 
ATOM     66  C   UNL A   1      43.313  21.422  26.166  1.00  0.00     0.198 A 
ATOM     67  C   UNL A   1      44.548  23.035  24.948  1.00  0.00     0.198 A 
ATOM     68  F   UNL A   1      44.542  25.253  25.517  1.00  0.00    -0.203 F 
ATOM     69  F   UNL A   1      42.936  20.151  26.361  1.00  0.00    -0.200 F 
ATOM     70  C   UNL A   1      44.172  21.725  25.132  1.00  0.00     0.200 A 
ATOM     71  F   UNL A   1      45.374  23.359  23.943  1.00  0.00    -0.200 F 
ATOM     72  F   UNL A   1      44.636  20.766  24.321  1.00  0.00    -0.200 F 
ENDBRANCH  48  62
BRANCH  49  73
ATOM     73  C   UNL A   1      40.560  31.123  32.587  1.00  0.00     0.064 A 
ATOM     74  C   UNL A   1      40.233  32.492  32.543  1.00  0.00     0.173 A 
ATOM     75  C   UNL A   1      39.519  30.218  32.829  1.00  0.00     0.173 A 
ATOM     76  F   UNL A   1      41.193  33.403  32.316  1.00  0.00    -0.203 F 
ATOM     77  C   UNL A   1      38.910  32.926  32.610  1.00  0.00     0.198 A 
ATOM     78  C   UNL A   1      38.196  30.658  32.915  1.00  0.00     0.198 A 
ATOM     79  F   UNL A   1      39.760  28.900  32.869  1.00  0.00    -0.203 F 
ATOM     80  F   UNL A   1      38.623  34.225  32.447  1.00  0.00    -0.200 F 
ATOM     81  C   UNL A   1      37.889  32.005  32.769  1.00  0.00     0.200 A 
ATOM     82  F   UNL A   1      37.204  29.765  33.042  1.00  0.00    -0.200 F 
ATOM     83  F   UNL A   1      36.612  32.407  32.742  1.00  0.00    -0.200 F 
ENDBRANCH  49  73
BRANCH  61  84
ATOM     84  C   UNL A   1      45.030  25.494  33.137  1.00  0.00     0.064 A 
ATOM     85  C   UNL A   1      46.405  25.205  33.186  1.00  0.00     0.173 A 
ATOM     86  C   UNL A   1      44.235  24.801  34.084  1.00  0.00     0.173 A 
ATOM     87  F   UNL A   1      47.288  25.879  32.438  1.00  0.00    -0.203 F 
ATOM     88  C   UNL A   1      46.933  24.250  34.060  1.00  0.00     0.198 A 
ATOM     89  C   UNL A   1      44.775  23.896  34.998  1.00  0.00     0.198 A 
ATOM     90  F   UNL A   1      42.912  25.004  34.173  1.00  0.00    -0.203 F 
ATOM     91  F   UNL A   1      48.247  23.982  34.033  1.00  0.00    -0.200 F 
ATOM     92  C   UNL A   1      46.122  23.606  34.974  1.00  0.00     0.200 A 
ATOM     93  F   UNL A   1      43.982  23.326  35.917  1.00  0.00    -0.200 F 
ATOM     94  F   UNL A   1      46.640  22.730  35.845  1.00  0.00    -0.200 F 
ENDBRANCH  61  84
ENDBRANCH  35  36
ENDBRANCH  27  30
ENDBRANCH  25  26
ENDBRANCH  24  25
ENDBRANCH  23  24
ENDBRANCH   1  23
TORSDOF 16
ENDMDL
MODEL 2
REMARK VINA RESULT:     -12.6      2.524      4.858
REMARK SMILES Cc1cccc(-c2cc(OCC(=O)NCCCCCCNC(=O)c3ccc(-c4c5nc(c(-c6c(F)c(F)c(F)c(F)c6F)c6ccc([nH]6)c(-c6c(F)c(F)c(F)c(F)c6F)c6nc(c(-c7c(F)c(F)c(F)c(F)c7F)c7ccc4[nH]7)C=C6)C=C5)cc3)ncn2)c1
REMARK SMILES IDX 17 1 16 2 15 3 14 4 12 5 13 6 11 8 10 9 9 10 7 11 8 12 89 13
REMARK SMILES IDX 88 14 87 15 6 16 1 17 2 18 3 19 90 20 4 21 5 22 18 23 19 24
REMARK SMILES IDX 20 25 21 26 22 27 23 29 24 30 25 31 86 32 26 33 85 34 27 35
REMARK SMILES IDX 28 36 29 37 79 38 30 39 84 40 78 41 80 42 31 43 83 44 77 45
REMARK SMILES IDX 76 46 32 48 64 49 44 50 63 51 45 52 48 53 62 54 81 55 46 56
REMARK SMILES IDX 47 57 61 59 82 60 49 61 33 62 34 63 42 64 35 65 36 66 40 67
REMARK SMILES IDX 43 68 37 69 38 70 41 71 39 72 65 73 66 74 74 75 67 76 68 77
REMARK SMILES IDX 72 78 75 79 69 80 70 81 73 82 71 83 50 84 51 85 59 86 52 87
REMARK SMILES IDX 53 88 57 89 60 90 54 91 55 92 58 93 56 94
REMARK H PARENT 14 7 21 28 80 47 48 58
REMARK Flexibility Score: inf
ROOT
ATOM      1  C   UNL A   1      32.184  28.509  25.963  1.00  0.00     0.002 C 
ENDROOT
BRANCH   1   2
ATOM      2  C   UNL A   1      31.165  27.586  26.646  1.00  0.00     0.021 C 
BRANCH   2   3
ATOM      3  C   UNL A   1      30.635  26.429  25.801  1.00  0.00     0.116 C 
BRANCH   3   4
ATOM      4  N   UNL A   1      30.554  25.192  26.547  1.00  0.00    -0.353 N 
ATOM      5  C   UNL A   1      31.538  24.279  26.779  1.00  0.00     0.258 C 
ATOM      6  O   UNL A   1      31.291  23.311  27.500  1.00  0.00    -0.271 OA
ATOM      7  H   UNL A   1      29.674  24.983  26.938  1.00  0.00     0.163 HD
BRANCH   5   8
ATOM      8  C   UNL A   1      32.925  24.476  26.153  1.00  0.00     0.331 C 
BRANCH   8   9
ATOM      9  O   UNL A   1      34.024  23.859  26.801  1.00  0.00    -0.467 OA
BRANCH   9  10
ATOM     10  C   UNL A   1      34.616  22.793  26.189  1.00  0.00     0.217 A 
ATOM     11  C   UNL A   1      34.727  20.705  25.124  1.00  0.00     0.077 A 
ATOM     12  C   UNL A   1      33.967  21.654  25.779  1.00  0.00     0.097 A 
ATOM     13  N   UNL A   1      36.055  20.838  24.942  1.00  0.00    -0.236 NA
ATOM     14  C   UNL A   1      36.591  21.974  25.401  1.00  0.00     0.226 A 
ATOM     15  N   UNL A   1      35.935  22.971  26.008  1.00  0.00    -0.202 NA
BRANCH  11  16
ATOM     16  C   UNL A   1      34.097  19.505  24.568  1.00  0.00     0.001 A 
ATOM     17  C   UNL A   1      34.745  15.740  24.449  1.00  0.00     0.044 C 
ATOM     18  C   UNL A   1      34.121  17.082  24.211  1.00  0.00    -0.050 A 
ATOM     19  C   UNL A   1      32.996  17.203  23.391  1.00  0.00     0.003 A 
ATOM     20  C   UNL A   1      34.664  18.236  24.789  1.00  0.00     0.013 A 
ATOM     21  C   UNL A   1      32.411  18.451  23.172  1.00  0.00     0.001 A 
ATOM     22  C   UNL A   1      32.953  19.594  23.764  1.00  0.00     0.010 A 
ENDBRANCH  11  16
ENDBRANCH   9  10
ENDBRANCH   8   9
ENDBRANCH   5   8
ENDBRANCH   3   4
ENDBRANCH   2   3
ENDBRANCH   1   2
BRANCH   1  23
ATOM     23  C   UNL A   1      31.783  29.980  25.777  1.00  0.00     0.002 C 
BRANCH  23  24
ATOM     24  C   UNL A   1      32.376  30.979  26.771  1.00  0.00     0.021 C 
BRANCH  24  25
ATOM     25  C   UNL A   1      33.544  30.448  27.587  1.00  0.00     0.116 C 
BRANCH  25  26
ATOM     26  N   UNL A   1      34.228  31.469  28.363  1.00  0.00    -0.352 N 
ATOM     27  C   UNL A   1      35.420  31.407  29.064  1.00  0.00     0.251 C 
ATOM     28  H   UNL A   1      33.772  32.341  28.396  1.00  0.00     0.163 HD
ATOM     29  O   UNL A   1      35.766  32.348  29.754  1.00  0.00    -0.269 OA
BRANCH  27  30
ATOM     30  C   UNL A   1      36.350  30.268  28.844  1.00  0.00     0.039 A 
ATOM     31  C   UNL A   1      36.643  29.461  29.953  1.00  0.00     0.014 A 
ATOM     32  C   UNL A   1      37.076  30.118  27.667  1.00  0.00     0.014 A 
ATOM     33  C   UNL A   1      37.818  28.715  29.967  1.00  0.00     0.010 A 
ATOM     34  C   UNL A   1      38.287  29.460  27.709  1.00  0.00     0.010 A 
ATOM     35  C   UNL A   1      38.689  28.831  28.888  1.00  0.00    -0.014 A 
BRANCH  35  36
ATOM     36  C   UNL A   1      40.084  28.424  28.935  1.00  0.00     0.031 A 
ATOM     37  C   UNL A   1      40.469  27.056  28.552  1.00  0.00     0.074 A 
ATOM     38  C   UNL A   1      41.015  29.360  29.228  1.00  0.00     0.049 A 
ATOM     39  N   UNL A   1      41.606  26.520  28.832  1.00  0.00    -0.248 NA
ATOM     40  C   UNL A   1      39.551  26.139  27.887  1.00  0.00     0.031 C 
ATOM     41  C   UNL A   1      42.460  29.270  29.045  1.00  0.00     0.029 A 
ATOM     42  N   UNL A   1      40.829  30.540  29.968  1.00  0.00    -0.354 N 
ATOM     43  C   UNL A   1      41.683  25.317  28.169  1.00  0.00     0.074 A 
ATOM     44  C   UNL A   1      40.339  25.075  27.707  1.00  0.00     0.031 C 
ATOM     45  C   UNL A   1      43.054  30.143  29.875  1.00  0.00     0.029 A 
ATOM     46  C   UNL A   1      42.014  30.696  30.724  1.00  0.00     0.049 A 
ATOM     47  H   UNL A   1      40.042  31.132  29.962  1.00  0.00     0.167 HD
ATOM     48  C   UNL A   1      42.913  24.754  27.996  1.00  0.00     0.037 A 
ATOM     49  C   UNL A   1      41.999  30.613  32.086  1.00  0.00     0.037 A 
ATOM     50  C   UNL A   1      43.900  25.429  28.846  1.00  0.00     0.049 A 
ATOM     51  C   UNL A   1      42.884  29.520  32.638  1.00  0.00     0.074 A 
ATOM     52  C   UNL A   1      44.885  26.370  28.598  1.00  0.00     0.029 A 
ATOM     53  N   UNL A   1      43.746  25.377  30.231  1.00  0.00    -0.354 N 
ATOM     54  N   UNL A   1      43.274  28.482  31.951  1.00  0.00    -0.248 NA
ATOM     55  C   UNL A   1      43.375  29.501  34.012  1.00  0.00     0.031 C 
ATOM     56  C   UNL A   1      45.263  26.944  29.842  1.00  0.00     0.029 A 
ATOM     57  C   UNL A   1      44.539  26.325  30.846  1.00  0.00     0.049 A 
ATOM     58  H   UNL A   1      43.153  24.750  30.704  1.00  0.00     0.167 HD
ATOM     59  C   UNL A   1      44.029  27.663  32.750  1.00  0.00     0.074 A 
ATOM     60  C   UNL A   1      44.080  28.356  34.026  1.00  0.00     0.031 C 
ATOM     61  C   UNL A   1      44.534  26.478  32.297  1.00  0.00     0.037 A 
BRANCH  48  62
ATOM     62  C   UNL A   1      43.303  23.759  26.908  1.00  0.00     0.064 A 
ATOM     63  C   UNL A   1      42.922  22.401  27.022  1.00  0.00     0.173 A 
ATOM     64  C   UNL A   1      44.134  24.025  25.799  1.00  0.00     0.173 A 
ATOM     65  F   UNL A   1      42.101  21.985  27.997  1.00  0.00    -0.203 F 
ATOM     66  C   UNL A   1      43.382  21.404  26.151  1.00  0.00     0.198 A 
ATOM     67  C   UNL A   1      44.581  23.033  24.920  1.00  0.00     0.198 A 
ATOM     68  F   UNL A   1      44.570  25.248  25.502  1.00  0.00    -0.203 F 
ATOM     69  F   UNL A   1      43.019  20.128  26.346  1.00  0.00    -0.200 F 
ATOM     70  C   UNL A   1      44.219  21.719  25.103  1.00  0.00     0.200 A 
ATOM     71  F   UNL A   1      45.386  23.370  23.901  1.00  0.00    -0.200 F 
ATOM     72  F   UNL A   1      44.675  20.769  24.278  1.00  0.00    -0.200 F 
ENDBRANCH  48  62
BRANCH  49  73
ATOM     73  C   UNL A   1      40.711  31.052  32.687  1.00  0.00     0.064 A 
ATOM     74  C   UNL A   1      40.390  32.423  32.653  1.00  0.00     0.173 A 
ATOM     75  C   UNL A   1      39.667  30.151  32.931  1.00  0.00     0.173 A 
ATOM     76  F   UNL A   1      41.353  33.331  32.425  1.00  0.00    -0.203 F 
ATOM     77  C   UNL A   1      39.070  32.863  32.733  1.00  0.00     0.198 A 
ATOM     78  C   UNL A   1      38.347  30.597  33.029  1.00  0.00     0.198 A 
ATOM     79  F   UNL A   1      39.902  28.832  32.961  1.00  0.00    -0.203 F 
ATOM     80  F   UNL A   1      38.788  34.165  32.579  1.00  0.00    -0.200 F 
ATOM     81  C   UNL A   1      38.046  31.946  32.893  1.00  0.00     0.200 A 
ATOM     82  F   UNL A   1      37.351  29.709  33.158  1.00  0.00    -0.200 F 
ATOM     83  F   UNL A   1      36.770  32.355  32.878  1.00  0.00    -0.200 F 
ENDBRANCH  49  73
BRANCH  61  84
ATOM     84  C   UNL A   1      45.142  25.385  33.148  1.00  0.00     0.064 A 
ATOM     85  C   UNL A   1      46.519  25.113  33.218  1.00  0.00     0.173 A 
ATOM     86  C   UNL A   1      44.337  24.656  34.059  1.00  0.00     0.173 A 
ATOM     87  F   UNL A   1      47.408  25.819  32.508  1.00  0.00    -0.203 F 
ATOM     88  C   UNL A   1      47.042  24.143  34.078  1.00  0.00     0.198 A 
ATOM     89  C   UNL A   1      44.869  23.735  34.960  1.00  0.00     0.198 A 
ATOM     90  F   UNL A   1      43.009  24.839  34.124  1.00  0.00    -0.203 F 
ATOM     91  F   UNL A   1      48.359  23.893  34.072  1.00  0.00    -0.200 F 
ATOM     92  C   UNL A   1      46.220  23.464  34.958  1.00  0.00     0.200 A 
ATOM     93  F   UNL A   1      44.066  23.129  35.846  1.00  0.00    -0.200 F 
ATOM     94  F   UNL A   1      46.733  22.572  35.816  1.00  0.00    -0.200 F 
ENDBRANCH  61  84
ENDBRANCH  35  36
ENDBRANCH  27  30
ENDBRANCH  25  26
ENDBRANCH  24  25
ENDBRANCH  23  24
ENDBRANCH   1  23
TORSDOF 16
ENDMDL
MODEL 3
REMARK VINA RESULT:     -12.5      1.456      3.850
REMARK SMILES Cc1cccc(-c2cc(OCC(=O)NCCCCCCNC(=O)c3ccc(-c4c5nc(c(-c6c(F)c(F)c(F)c(F)c6F)c6ccc([nH]6)c(-c6c(F)c(F)c(F)c(F)c6F)c6nc(c(-c7c(F)c(F)c(F)c(F)c7F)c7ccc4[nH]7)C=C6)C=C5)cc3)ncn2)c1
REMARK SMILES IDX 17 1 16 2 15 3 14 4 12 5 13 6 11 8 10 9 9 10 7 11 8 12 89 13
REMARK SMILES IDX 88 14 87 15 6 16 1 17 2 18 3 19 90 20 4 21 5 22 18 23 19 24
REMARK SMILES IDX 20 25 21 26 22 27 23 29 24 30 25 31 86 32 26 33 85 34 27 35
REMARK SMILES IDX 28 36 29 37 79 38 30 39 84 40 78 41 80 42 31 43 83 44 77 45
REMARK SMILES IDX 76 46 32 48 64 49 44 50 63 51 45 52 48 53 62 54 81 55 46 56
REMARK SMILES IDX 47 57 61 59 82 60 49 61 33 62 34 63 42 64 35 65 36 66 40 67
REMARK SMILES IDX 43 68 37 69 38 70 41 71 39 72 65 73 66 74 74 75 67 76 68 77
REMARK SMILES IDX 72 78 75 79 69 80 70 81 73 82 71 83 50 84 51 85 59 86 52 87
REMARK SMILES IDX 53 88 57 89 60 90 54 91 55 92 58 93 56 94
REMARK H PARENT 14 7 21 28 80 47 48 58
REMARK Flexibility Score: inf
ROOT
ATOM      1  C   UNL A   1      33.964  27.712  24.827  1.00  0.00     0.002 C 
ENDROOT
BRANCH   1   2
ATOM      2  C   UNL A   1      33.240  28.649  23.849  1.00  0.00     0.021 C 
BRANCH   2   3
ATOM      3  C   UNL A   1      31.943  29.276  24.357  1.00  0.00     0.116 C 
BRANCH   3   4
ATOM      4  N   UNL A   1      30.947  29.405  23.316  1.00  0.00    -0.353 N 
ATOM      5  C   UNL A   1      29.893  28.585  23.049  1.00  0.00     0.258 C 
ATOM      6  O   UNL A   1      29.108  28.900  22.153  1.00  0.00    -0.271 OA
ATOM      7  H   UNL A   1      31.042  30.187  22.724  1.00  0.00     0.163 HD
BRANCH   5   8
ATOM      8  C   UNL A   1      29.698  27.301  23.867  1.00  0.00     0.331 C 
BRANCH   8   9
ATOM      9  O   UNL A   1      29.899  26.068  23.199  1.00  0.00    -0.467 OA
BRANCH   9  10
ATOM     10  C   UNL A   1      31.179  25.691  22.913  1.00  0.00     0.217 A 
ATOM     11  C   UNL A   1      33.225  24.587  23.231  1.00  0.00     0.077 A 
ATOM     12  C   UNL A   1      31.973  24.911  23.717  1.00  0.00     0.097 A 
ATOM     13  N   UNL A   1      33.690  25.054  22.057  1.00  0.00    -0.236 NA
ATOM     14  C   UNL A   1      32.845  25.825  21.365  1.00  0.00     0.226 A 
ATOM     15  N   UNL A   1      31.600  26.161  21.727  1.00  0.00    -0.202 NA
BRANCH  11  16
ATOM     16  C   UNL A   1      34.098  23.680  23.979  1.00  0.00     0.001 A 
ATOM     17  C   UNL A   1      37.355  23.859  25.972  1.00  0.00     0.044 C 
ATOM     18  C   UNL A   1      36.133  23.317  25.294  1.00  0.00    -0.050 A 
ATOM     19  C   UNL A   1      35.873  21.944  25.297  1.00  0.00     0.003 A 
ATOM     20  C   UNL A   1      35.245  24.173  24.631  1.00  0.00     0.013 A 
ATOM     21  C   UNL A   1      34.733  21.439  24.670  1.00  0.00     0.001 A 
ATOM     22  C   UNL A   1      33.846  22.302  24.023  1.00  0.00     0.010 A 
ENDBRANCH  11  16
ENDBRANCH   9  10
ENDBRANCH   8   9
ENDBRANCH   5   8
ENDBRANCH   3   4
ENDBRANCH   2   3
ENDBRANCH   1   2
BRANCH   1  23
ATOM     23  C   UNL A   1      33.951  28.105  26.313  1.00  0.00     0.002 C 
BRANCH  23  24
ATOM     24  C   UNL A   1      34.300  29.557  26.637  1.00  0.00     0.021 C 
BRANCH  24  25
ATOM     25  C   UNL A   1      33.642  30.105  27.893  1.00  0.00     0.116 C 
BRANCH  25  26
ATOM     26  N   UNL A   1      34.371  31.203  28.506  1.00  0.00    -0.352 N 
ATOM     27  C   UNL A   1      35.621  31.222  29.098  1.00  0.00     0.251 C 
ATOM     28  H   UNL A   1      33.902  32.069  28.498  1.00  0.00     0.163 HD
ATOM     29  O   UNL A   1      36.008  32.229  29.664  1.00  0.00    -0.269 OA
BRANCH  27  30
ATOM     30  C   UNL A   1      36.552  30.079  28.902  1.00  0.00     0.039 A 
ATOM     31  C   UNL A   1      36.807  29.267  30.017  1.00  0.00     0.014 A 
ATOM     32  C   UNL A   1      37.311  29.928  27.747  1.00  0.00     0.014 A 
ATOM     33  C   UNL A   1      37.977  28.515  30.064  1.00  0.00     0.010 A 
ATOM     34  C   UNL A   1      38.517  29.264  27.823  1.00  0.00     0.010 A 
ATOM     35  C   UNL A   1      38.881  28.629  29.012  1.00  0.00    -0.014 A 
BRANCH  35  36
ATOM     36  C   UNL A   1      40.271  28.215  29.099  1.00  0.00     0.031 A 
ATOM     37  C   UNL A   1      40.676  26.879  28.630  1.00  0.00     0.074 A 
ATOM     38  C   UNL A   1      41.186  29.120  29.512  1.00  0.00     0.049 A 
ATOM     39  N   UNL A   1      41.797  26.318  28.925  1.00  0.00    -0.248 NA
ATOM     40  C   UNL A   1      39.794  26.021  27.848  1.00  0.00     0.031 C 
ATOM     41  C   UNL A   1      42.639  29.040  29.397  1.00  0.00     0.029 A 
ATOM     42  N   UNL A   1      40.961  30.240  30.332  1.00  0.00    -0.354 N 
ATOM     43  C   UNL A   1      41.908  25.171  28.174  1.00  0.00     0.074 A 
ATOM     44  C   UNL A   1      40.590  24.971  27.626  1.00  0.00     0.031 C 
ATOM     45  C   UNL A   1      43.188  29.843  30.322  1.00  0.00     0.029 A 
ATOM     46  C   UNL A   1      42.105  30.332  31.158  1.00  0.00     0.049 A 
ATOM     47  H   UNL A   1      40.175  30.833  30.331  1.00  0.00     0.167 HD
ATOM     48  C   UNL A   1      43.146  24.618  28.022  1.00  0.00     0.037 A 
ATOM     49  C   UNL A   1      42.020  30.142  32.506  1.00  0.00     0.037 A 
ATOM     50  C   UNL A   1      44.088  25.221  28.972  1.00  0.00     0.049 A 
ATOM     51  C   UNL A   1      42.875  29.006  33.016  1.00  0.00     0.074 A 
ATOM     52  C   UNL A   1      45.084  26.175  28.850  1.00  0.00     0.029 A 
ATOM     53  N   UNL A   1      43.862  25.061  30.338  1.00  0.00    -0.354 N 
ATOM     54  N   UNL A   1      43.301  28.024  32.271  1.00  0.00    -0.248 NA
ATOM     55  C   UNL A   1      43.294  28.877  34.408  1.00  0.00     0.031 C 
ATOM     56  C   UNL A   1      45.396  26.648  30.153  1.00  0.00     0.029 A 
ATOM     57  C   UNL A   1      44.621  25.954  31.067  1.00  0.00     0.049 A 
ATOM     58  H   UNL A   1      43.245  24.401  30.729  1.00  0.00     0.167 HD
ATOM     59  C   UNL A   1      44.013  27.142  33.041  1.00  0.00     0.074 A 
ATOM     60  C   UNL A   1      43.998  27.733  34.368  1.00  0.00     0.031 C 
ATOM     61  C   UNL A   1      44.541  25.993  32.522  1.00  0.00     0.037 A 
BRANCH  48  62
ATOM     62  C   UNL A   1      43.592  23.710  26.880  1.00  0.00     0.064 A 
ATOM     63  C   UNL A   1      43.207  22.348  26.869  1.00  0.00     0.173 A 
ATOM     64  C   UNL A   1      44.478  24.060  25.839  1.00  0.00     0.173 A 
ATOM     65  F   UNL A   1      42.338  21.860  27.765  1.00  0.00    -0.203 F 
ATOM     66  C   UNL A   1      43.712  21.421  25.947  1.00  0.00     0.198 A 
ATOM     67  C   UNL A   1      44.971  23.138  24.909  1.00  0.00     0.198 A 
ATOM     68  F   UNL A   1      44.927  25.301  25.661  1.00  0.00    -0.203 F 
ATOM     69  F   UNL A   1      43.341  20.135  26.023  1.00  0.00    -0.200 F 
ATOM     70  C   UNL A   1      44.602  21.815  24.971  1.00  0.00     0.200 A 
ATOM     71  F   UNL A   1      45.826  23.551  23.962  1.00  0.00    -0.200 F 
ATOM     72  F   UNL A   1      45.100  20.930  24.098  1.00  0.00    -0.200 F 
ENDBRANCH  48  62
BRANCH  49  73
ATOM     73  C   UNL A   1      40.702  30.538  33.072  1.00  0.00     0.064 A 
ATOM     74  C   UNL A   1      40.373  31.907  33.107  1.00  0.00     0.173 A 
ATOM     75  C   UNL A   1      39.655  29.619  33.212  1.00  0.00     0.173 A 
ATOM     76  F   UNL A   1      41.339  32.831  32.979  1.00  0.00    -0.203 F 
ATOM     77  C   UNL A   1      39.047  32.335  33.152  1.00  0.00     0.198 A 
ATOM     78  C   UNL A   1      38.329  30.052  33.276  1.00  0.00     0.198 A 
ATOM     79  F   UNL A   1      39.898  28.301  33.173  1.00  0.00    -0.203 F 
ATOM     80  F   UNL A   1      38.763  33.642  33.065  1.00  0.00    -0.200 F 
ATOM     81  C   UNL A   1      38.024  31.405  33.209  1.00  0.00     0.200 A 
ATOM     82  F   UNL A   1      37.335  29.152  33.304  1.00  0.00    -0.200 F 
ATOM     83  F   UNL A   1      36.747  31.808  33.159  1.00  0.00    -0.200 F 
ENDBRANCH  49  73
BRANCH  61  84
ATOM     84  C   UNL A   1      45.105  24.835  33.316  1.00  0.00     0.064 A 
ATOM     85  C   UNL A   1      44.353  23.722  33.731  1.00  0.00     0.173 A 
ATOM     86  C   UNL A   1      46.498  24.745  33.558  1.00  0.00     0.173 A 
ATOM     87  F   UNL A   1      43.048  23.616  33.450  1.00  0.00    -0.203 F 
ATOM     88  C   UNL A   1      44.934  22.639  34.397  1.00  0.00     0.198 A 
ATOM     89  C   UNL A   1      47.084  23.635  34.166  1.00  0.00     0.198 A 
ATOM     90  F   UNL A   1      47.340  25.720  33.185  1.00  0.00    -0.203 F 
ATOM     91  F   UNL A   1      44.163  21.624  34.810  1.00  0.00    -0.200 F 
ATOM     92  C   UNL A   1      46.300  22.589  34.602  1.00  0.00     0.200 A 
ATOM     93  F   UNL A   1      48.416  23.576  34.303  1.00  0.00    -0.200 F 
ATOM     94  F   UNL A   1      46.860  21.525  35.194  1.00  0.00    -0.200 F 
ENDBRANCH  61  84
ENDBRANCH  35  36
ENDBRANCH  27  30
ENDBRANCH  25  26
ENDBRANCH  24  25
ENDBRANCH  23  24
ENDBRANCH   1  23
TORSDOF 16
ENDMDL
