MODEL 1
REMARK VINA RESULT:     -13.2      0.000      0.000
REMARK SMILES CC(=O)n1cc2c3c(cccc31)C(=O)C[C@@H]2C(=O)NCCCCCCNC(=O)c1ccc(-c2c3nc(c(-c4c(F)c(F)c(F)c(F)c4F)c4ccc([nH]4)c(-c4c(F)c(F)c(F)c(F)c4F)c4nc(c(-c5c(F)c(F)c(F)c(F)c5F)c5ccc2[nH]5)C=C4)C=C3)cc1
REMARK SMILES IDX 23 1 22 2 21 3 20 4 19 5 17 6 18 7 16 9 4 10 5 11 12 12 6 13
REMARK SMILES IDX 7 14 11 15 8 16 10 17 15 18 9 19 13 20 14 21 2 22 1 23 3 24
REMARK SMILES IDX 24 25 25 26 26 27 27 28 28 30 29 31 30 32 91 33 31 34 90 35
REMARK SMILES IDX 32 36 33 37 34 38 84 39 35 40 89 41 83 42 85 43 36 44 88 45
REMARK SMILES IDX 82 46 81 47 37 49 69 50 49 51 68 52 50 53 53 54 67 55 86 56
REMARK SMILES IDX 51 57 52 58 66 60 87 61 54 62 38 63 39 64 47 65 40 66 41 67
REMARK SMILES IDX 45 68 48 69 42 70 43 71 46 72 44 73 70 74 71 75 79 76 72 77
REMARK SMILES IDX 73 78 77 79 80 80 74 81 75 82 78 83 76 84 55 85 56 86 64 87
REMARK SMILES IDX 57 88 58 89 62 90 65 91 59 92 60 93 63 94 61 95
REMARK H PARENT 19 8 26 29 85 48 53 59
REMARK Flexibility Score: inf
ROOT
ATOM      1  C   UNL A   1      34.741  29.711  27.385  1.00  0.00     0.002 C 
ENDROOT
BRANCH   1   2
ATOM      2  C   UNL A   1      33.887  28.671  26.647  1.00  0.00     0.002 C 
BRANCH   2   3
ATOM      3  C   UNL A   1      32.385  28.967  26.608  1.00  0.00     0.021 C 
BRANCH   3   4
ATOM      4  C   UNL A   1      31.910  29.623  25.314  1.00  0.00     0.116 C 
BRANCH   4   5
ATOM      5  N   UNL A   1      32.935  29.572  24.287  1.00  0.00    -0.356 N 
ATOM      6  C   UNL A   1      32.973  28.886  23.108  1.00  0.00     0.228 C 
ATOM      7  O   UNL A   1      33.978  29.014  22.404  1.00  0.00    -0.274 OA
ATOM      8  H   UNL A   1      33.732  30.121  24.471  1.00  0.00     0.163 HD
BRANCH   6   9
ATOM      9  C   UNL A   1      31.819  27.986  22.666  1.00  0.00     0.118 C 
ATOM     10  N   UNL A   1      28.890  30.280  22.239  1.00  0.00    -0.287 N 
ATOM     11  C   UNL A   1      30.238  29.997  22.006  1.00  0.00     0.100 A 
ATOM     12  C   UNL A   1      28.324  29.153  22.849  1.00  0.00     0.057 A 
ATOM     13  C   UNL A   1      30.542  28.762  22.533  1.00  0.00    -0.008 A 
ATOM     14  C   UNL A   1      29.341  28.224  23.008  1.00  0.00     0.015 A 
ATOM     15  C   UNL A   1      27.017  28.838  23.261  1.00  0.00     0.027 A 
ATOM     16  C   UNL A   1      29.109  26.979  23.590  1.00  0.00     0.027 A 
ATOM     17  C   UNL A   1      26.786  27.566  23.817  1.00  0.00     0.003 A 
ATOM     18  C   UNL A   1      31.692  26.754  23.603  1.00  0.00     0.099 C 
ATOM     19  C   UNL A   1      27.817  26.637  23.981  1.00  0.00     0.012 A 
ATOM     20  C   UNL A   1      30.302  26.117  23.756  1.00  0.00     0.164 C 
ATOM     21  O   UNL A   1      30.161  24.949  24.108  1.00  0.00    -0.294 OA
BRANCH  10  22
ATOM     22  C   UNL A   1      28.212  31.480  21.937  1.00  0.00     0.227 C 
ATOM     23  C   UNL A   1      28.070  31.793  20.478  1.00  0.00     0.115 C 
ATOM     24  O   UNL A   1      27.754  32.174  22.837  1.00  0.00    -0.274 OA
ENDBRANCH  10  22
ENDBRANCH   6   9
ENDBRANCH   4   5
ENDBRANCH   3   4
ENDBRANCH   2   3
ENDBRANCH   1   2
BRANCH   1  25
ATOM     25  C   UNL A   1      34.092  31.089  27.584  1.00  0.00     0.021 C 
BRANCH  25  26
ATOM     26  C   UNL A   1      35.070  32.149  28.059  1.00  0.00     0.116 C 
BRANCH  26  27
ATOM     27  N   UNL A   1      34.776  32.581  29.420  1.00  0.00    -0.352 N 
ATOM     28  C   UNL A   1      35.287  32.097  30.603  1.00  0.00     0.251 C 
ATOM     29  H   UNL A   1      34.125  33.315  29.504  1.00  0.00     0.163 HD
ATOM     30  O   UNL A   1      34.716  32.293  31.663  1.00  0.00    -0.269 OA
BRANCH  28  31
ATOM     31  C   UNL A   1      36.556  31.351  30.575  1.00  0.00     0.039 A 
ATOM     32  C   UNL A   1      36.558  29.953  30.619  1.00  0.00     0.014 A 
ATOM     33  C   UNL A   1      37.751  32.072  30.552  1.00  0.00     0.014 A 
ATOM     34  C   UNL A   1      37.775  29.279  30.602  1.00  0.00     0.010 A 
ATOM     35  C   UNL A   1      38.943  31.410  30.421  1.00  0.00     0.010 A 
ATOM     36  C   UNL A   1      38.958  30.021  30.506  1.00  0.00    -0.014 A 
BRANCH  36  37
ATOM     37  C   UNL A   1      40.251  29.361  30.421  1.00  0.00     0.031 A 
ATOM     38  C   UNL A   1      40.939  29.156  31.726  1.00  0.00     0.074 A 
ATOM     39  C   UNL A   1      40.627  28.744  29.281  1.00  0.00     0.049 A 
ATOM     40  N   UNL A   1      42.119  29.553  32.079  1.00  0.00    -0.248 NA
ATOM     41  C   UNL A   1      40.181  28.514  32.814  1.00  0.00     0.031 C 
ATOM     42  C   UNL A   1      39.864  28.599  28.035  1.00  0.00     0.029 A 
ATOM     43  N   UNL A   1      41.732  27.992  29.039  1.00  0.00    -0.354 N 
ATOM     44  C   UNL A   1      42.322  29.062  33.368  1.00  0.00     0.074 A 
ATOM     45  C   UNL A   1      41.047  28.579  33.826  1.00  0.00     0.031 C 
ATOM     46  C   UNL A   1      40.415  27.627  27.278  1.00  0.00     0.029 A 
ATOM     47  C   UNL A   1      41.644  27.187  27.910  1.00  0.00     0.049 A 
ATOM     48  H   UNL A   1      42.530  28.016  29.615  1.00  0.00     0.167 HD
ATOM     49  C   UNL A   1      43.574  28.881  33.871  1.00  0.00     0.037 A 
ATOM     50  C   UNL A   1      42.495  26.187  27.571  1.00  0.00     0.037 A 
ATOM     51  C   UNL A   1      44.552  29.616  33.115  1.00  0.00     0.049 A 
ATOM     52  C   UNL A   1      43.748  26.402  28.343  1.00  0.00     0.074 A 
ATOM     53  C   UNL A   1      44.748  30.954  32.838  1.00  0.00     0.029 A 
ATOM     54  N   UNL A   1      45.302  28.932  32.189  1.00  0.00    -0.354 N 
ATOM     55  N   UNL A   1      44.546  27.419  28.155  1.00  0.00    -0.248 NA
ATOM     56  C   UNL A   1      43.851  25.756  29.643  1.00  0.00     0.031 C 
ATOM     57  C   UNL A   1      45.173  30.988  31.478  1.00  0.00     0.029 A 
ATOM     58  C   UNL A   1      45.281  29.670  31.033  1.00  0.00     0.049 A 
ATOM     59  H   UNL A   1      45.767  28.075  32.329  1.00  0.00     0.167 HD
ATOM     60  C   UNL A   1      44.940  27.798  29.431  1.00  0.00     0.074 A 
ATOM     61  C   UNL A   1      44.532  26.697  30.302  1.00  0.00     0.031 C 
ATOM     62  C   UNL A   1      45.287  29.089  29.710  1.00  0.00     0.037 A 
BRANCH  49  63
ATOM     63  C   UNL A   1      43.959  27.778  34.824  1.00  0.00     0.064 A 
ATOM     64  C   UNL A   1      43.782  26.435  34.435  1.00  0.00     0.173 A 
ATOM     65  C   UNL A   1      44.215  27.987  36.196  1.00  0.00     0.173 A 
ATOM     66  F   UNL A   1      43.505  26.123  33.161  1.00  0.00    -0.203 F 
ATOM     67  C   UNL A   1      43.795  25.390  35.365  1.00  0.00     0.198 A 
ATOM     68  C   UNL A   1      44.284  26.936  37.109  1.00  0.00     0.198 A 
ATOM     69  F   UNL A   1      44.293  29.212  36.727  1.00  0.00    -0.203 F 
ATOM     70  F   UNL A   1      43.499  24.145  34.969  1.00  0.00    -0.200 F 
ATOM     71  C   UNL A   1      44.043  25.643  36.701  1.00  0.00     0.200 A 
ATOM     72  F   UNL A   1      44.506  27.204  38.404  1.00  0.00    -0.200 F 
ATOM     73  F   UNL A   1      44.002  24.652  37.602  1.00  0.00    -0.200 F 
ENDBRANCH  49  63
BRANCH  50  74
ATOM     74  C   UNL A   1      42.166  24.901  26.906  1.00  0.00     0.064 A 
ATOM     75  C   UNL A   1      42.925  24.424  25.826  1.00  0.00     0.173 A 
ATOM     76  C   UNL A   1      41.262  23.985  27.482  1.00  0.00     0.173 A 
ATOM     77  F   UNL A   1      43.846  25.211  25.251  1.00  0.00    -0.203 F 
ATOM     78  C   UNL A   1      42.796  23.110  25.358  1.00  0.00     0.198 A 
ATOM     79  C   UNL A   1      41.128  22.678  27.011  1.00  0.00     0.198 A 
ATOM     80  F   UNL A   1      40.554  24.310  28.575  1.00  0.00    -0.203 F 
ATOM     81  F   UNL A   1      43.578  22.674  24.360  1.00  0.00    -0.200 F 
ATOM     82  C   UNL A   1      41.903  22.236  25.957  1.00  0.00     0.200 A 
ATOM     83  F   UNL A   1      40.287  21.834  27.626  1.00  0.00    -0.200 F 
ATOM     84  F   UNL A   1      41.819  20.962  25.548  1.00  0.00    -0.200 F 
ENDBRANCH  50  74
BRANCH  62  85
ATOM     85  C   UNL A   1      45.440  30.055  28.567  1.00  0.00     0.064 A 
ATOM     86  C   UNL A   1      44.403  30.880  28.099  1.00  0.00     0.173 A 
ATOM     87  C   UNL A   1      46.729  30.304  28.077  1.00  0.00     0.173 A 
ATOM     88  F   UNL A   1      43.162  30.772  28.584  1.00  0.00    -0.203 F 
ATOM     89  C   UNL A   1      44.643  31.893  27.171  1.00  0.00     0.198 A 
ATOM     90  C   UNL A   1      46.973  31.340  27.179  1.00  0.00     0.198 A 
ATOM     91  F   UNL A   1      47.768  29.586  28.529  1.00  0.00    -0.203 F 
ATOM     92  F   UNL A   1      43.635  32.673  26.750  1.00  0.00    -0.200 F 
ATOM     93  C   UNL A   1      45.931  32.132  26.723  1.00  0.00     0.200 A 
ATOM     94  F   UNL A   1      48.228  31.599  26.789  1.00  0.00    -0.200 F 
ATOM     95  F   UNL A   1      46.174  33.144  25.879  1.00  0.00    -0.200 F 
ENDBRANCH  62  85
ENDBRANCH  36  37
ENDBRANCH  28  31
ENDBRANCH  26  27
ENDBRANCH  25  26
ENDBRANCH   1  25
TORSDOF 14
ENDMDL
MODEL 2
REMARK VINA RESULT:     -13.1      2.985      4.872
REMARK SMILES CC(=O)n1cc2c3c(cccc31)C(=O)C[C@@H]2C(=O)NCCCCCCNC(=O)c1ccc(-c2c3nc(c(-c4c(F)c(F)c(F)c(F)c4F)c4ccc([nH]4)c(-c4c(F)c(F)c(F)c(F)c4F)c4nc(c(-c5c(F)c(F)c(F)c(F)c5F)c5ccc2[nH]5)C=C4)C=C3)cc1
REMARK SMILES IDX 23 1 22 2 21 3 20 4 19 5 17 6 18 7 16 9 4 10 5 11 12 12 6 13
REMARK SMILES IDX 7 14 11 15 8 16 10 17 15 18 9 19 13 20 14 21 2 22 1 23 3 24
REMARK SMILES IDX 24 25 25 26 26 27 27 28 28 30 29 31 30 32 91 33 31 34 90 35
REMARK SMILES IDX 32 36 33 37 34 38 84 39 35 40 89 41 83 42 85 43 36 44 88 45
REMARK SMILES IDX 82 46 81 47 37 49 69 50 49 51 68 52 50 53 53 54 67 55 86 56
REMARK SMILES IDX 51 57 52 58 66 60 87 61 54 62 38 63 39 64 47 65 40 66 41 67
REMARK SMILES IDX 45 68 48 69 42 70 43 71 46 72 44 73 70 74 71 75 79 76 72 77
REMARK SMILES IDX 73 78 77 79 80 80 74 81 75 82 78 83 76 84 55 85 56 86 64 87
REMARK SMILES IDX 57 88 58 89 62 90 65 91 59 92 60 93 63 94 61 95
REMARK H PARENT 19 8 26 29 85 48 53 59
REMARK Flexibility Score: inf
ROOT
ATOM      1  C   UNL A   1      32.322  29.496  25.837  1.00  0.00     0.002 C 
ENDROOT
BRANCH   1   2
ATOM      2  C   UNL A   1      31.632  28.199  25.390  1.00  0.00     0.002 C 
BRANCH   2   3
ATOM      3  C   UNL A   1      31.863  26.989  26.299  1.00  0.00     0.021 C 
BRANCH   3   4
ATOM      4  C   UNL A   1      31.310  25.678  25.748  1.00  0.00     0.116 C 
BRANCH   4   5
ATOM      5  N   UNL A   1      31.418  24.607  26.723  1.00  0.00    -0.356 N 
ATOM      6  C   UNL A   1      32.302  23.571  26.805  1.00  0.00     0.228 C 
ATOM      7  O   UNL A   1      32.174  22.782  27.745  1.00  0.00    -0.274 OA
ATOM      8  H   UNL A   1      30.744  24.633  27.441  1.00  0.00     0.163 HD
BRANCH   6   9
ATOM      9  C   UNL A   1      33.412  23.380  25.772  1.00  0.00     0.118 C 
ATOM     10  N   UNL A   1      33.198  19.783  24.752  1.00  0.00    -0.287 N 
ATOM     11  C   UNL A   1      32.560  21.001  25.001  1.00  0.00     0.100 A 
ATOM     12  C   UNL A   1      34.578  20.006  24.840  1.00  0.00     0.057 A 
ATOM     13  C   UNL A   1      33.503  21.950  25.327  1.00  0.00    -0.008 A 
ATOM     14  C   UNL A   1      34.753  21.340  25.175  1.00  0.00     0.015 A 
ATOM     15  C   UNL A   1      35.699  19.182  24.640  1.00  0.00     0.027 A 
ATOM     16  C   UNL A   1      36.021  21.892  25.342  1.00  0.00     0.027 A 
ATOM     17  C   UNL A   1      36.977  19.756  24.778  1.00  0.00     0.003 A 
ATOM     18  C   UNL A   1      34.759  23.943  26.300  1.00  0.00     0.099 C 
ATOM     19  C   UNL A   1      37.146  21.099  25.124  1.00  0.00     0.012 A 
ATOM     20  C   UNL A   1      36.054  23.310  25.767  1.00  0.00     0.164 C 
ATOM     21  O   UNL A   1      37.122  23.915  25.779  1.00  0.00    -0.294 OA
BRANCH  10  22
ATOM     22  C   UNL A   1      32.580  18.544  24.477  1.00  0.00     0.227 C 
ATOM     23  C   UNL A   1      32.538  18.150  23.031  1.00  0.00     0.115 C 
ATOM     24  O   UNL A   1      32.150  17.852  25.392  1.00  0.00    -0.274 OA
ENDBRANCH  10  22
ENDBRANCH   6   9
ENDBRANCH   4   5
ENDBRANCH   3   4
ENDBRANCH   2   3
ENDBRANCH   1   2
BRANCH   1  25
ATOM     25  C   UNL A   1      32.975  29.461  27.226  1.00  0.00     0.021 C 
BRANCH  25  26
ATOM     26  C   UNL A   1      34.301  30.201  27.284  1.00  0.00     0.116 C 
BRANCH  26  27
ATOM     27  N   UNL A   1      34.236  31.349  28.181  1.00  0.00    -0.352 N 
ATOM     28  C   UNL A   1      34.997  31.608  29.299  1.00  0.00     0.251 C 
ATOM     29  H   UNL A   1      33.559  32.027  27.959  1.00  0.00     0.163 HD
ATOM     30  O   UNL A   1      34.623  32.402  30.146  1.00  0.00    -0.269 OA
BRANCH  28  31
ATOM     31  C   UNL A   1      36.291  30.922  29.450  1.00  0.00     0.039 A 
ATOM     32  C   UNL A   1      36.340  29.561  29.770  1.00  0.00     0.014 A 
ATOM     33  C   UNL A   1      37.460  31.672  29.317  1.00  0.00     0.014 A 
ATOM     34  C   UNL A   1      37.579  28.947  29.917  1.00  0.00     0.010 A 
ATOM     35  C   UNL A   1      38.678  31.046  29.349  1.00  0.00     0.010 A 
ATOM     36  C   UNL A   1      38.738  29.702  29.707  1.00  0.00    -0.014 A 
BRANCH  36  37
ATOM     37  C   UNL A   1      40.055  29.090  29.787  1.00  0.00     0.031 A 
ATOM     38  C   UNL A   1      40.604  28.958  31.165  1.00  0.00     0.074 A 
ATOM     39  C   UNL A   1      40.575  28.450  28.718  1.00  0.00     0.049 A 
ATOM     40  N   UNL A   1      41.723  29.412  31.627  1.00  0.00    -0.248 NA
ATOM     41  C   UNL A   1      39.755  28.324  32.189  1.00  0.00     0.031 C 
ATOM     42  C   UNL A   1      39.957  28.233  27.404  1.00  0.00     0.029 A 
ATOM     43  N   UNL A   1      41.725  27.734  28.625  1.00  0.00    -0.354 N 
ATOM     44  C   UNL A   1      41.802  28.974  32.948  1.00  0.00     0.074 A 
ATOM     45  C   UNL A   1      40.503  28.458  33.285  1.00  0.00     0.031 C 
ATOM     46  C   UNL A   1      40.622  27.257  26.748  1.00  0.00     0.029 A 
ATOM     47  C   UNL A   1      41.789  26.888  27.525  1.00  0.00     0.049 A 
ATOM     48  H   UNL A   1      42.454  27.809  29.283  1.00  0.00     0.167 HD
ATOM     49  C   UNL A   1      42.998  28.860  33.589  1.00  0.00     0.037 A 
ATOM     50  C   UNL A   1      42.706  25.911  27.318  1.00  0.00     0.037 A 
ATOM     51  C   UNL A   1      44.026  29.606  32.916  1.00  0.00     0.049 A 
ATOM     52  C   UNL A   1      43.860  26.201  28.211  1.00  0.00     0.074 A 
ATOM     53  C   UNL A   1      44.203  30.941  32.610  1.00  0.00     0.029 A 
ATOM     54  N   UNL A   1      44.896  28.921  32.103  1.00  0.00    -0.354 N 
ATOM     55  N   UNL A   1      44.638  27.242  28.072  1.00  0.00    -0.248 NA
ATOM     56  C   UNL A   1      43.843  25.604  29.539  1.00  0.00     0.031 C 
ATOM     57  C   UNL A   1      44.772  30.944  31.304  1.00  0.00     0.029 A 
ATOM     58  C   UNL A   1      44.975  29.617  30.924  1.00  0.00     0.049 A 
ATOM     59  H   UNL A   1      45.372  28.088  32.324  1.00  0.00     0.167 HD
ATOM     60  C   UNL A   1      44.876  27.680  29.367  1.00  0.00     0.074 A 
ATOM     61  C   UNL A   1      44.415  26.594  30.230  1.00  0.00     0.031 C 
ATOM     62  C   UNL A   1      45.145  28.991  29.632  1.00  0.00     0.037 A 
BRANCH  49  63
ATOM     63  C   UNL A   1      43.316  27.806  34.620  1.00  0.00     0.064 A 
ATOM     64  C   UNL A   1      43.580  28.196  35.949  1.00  0.00     0.173 A 
ATOM     65  C   UNL A   1      43.657  26.475  34.296  1.00  0.00     0.173 A 
ATOM     66  F   UNL A   1      43.323  29.446  36.359  1.00  0.00    -0.203 F 
ATOM     67  C   UNL A   1      44.200  27.335  36.860  1.00  0.00     0.198 A 
ATOM     68  C   UNL A   1      44.222  25.603  35.225  1.00  0.00     0.198 A 
ATOM     69  F   UNL A   1      43.567  26.002  33.048  1.00  0.00    -0.203 F 
ATOM     70  F   UNL A   1      44.544  27.788  38.073  1.00  0.00    -0.200 F 
ATOM     71  C   UNL A   1      44.522  26.041  36.496  1.00  0.00     0.200 A 
ATOM     72  F   UNL A   1      44.546  24.359  34.846  1.00  0.00    -0.200 F 
ATOM     73  F   UNL A   1      45.166  25.233  37.349  1.00  0.00    -0.200 F 
ENDBRANCH  49  63
BRANCH  50  74
ATOM     74  C   UNL A   1      42.497  24.591  26.672  1.00  0.00     0.064 A 
ATOM     75  C   UNL A   1      43.302  24.168  25.602  1.00  0.00     0.173 A 
ATOM     76  C   UNL A   1      41.675  23.607  27.258  1.00  0.00     0.173 A 
ATOM     77  F   UNL A   1      44.153  25.025  25.019  1.00  0.00    -0.203 F 
ATOM     78  C   UNL A   1      43.294  22.840  25.154  1.00  0.00     0.198 A 
ATOM     79  C   UNL A   1      41.661  22.286  26.806  1.00  0.00     0.198 A 
ATOM     80  F   UNL A   1      40.935  23.883  28.342  1.00  0.00    -0.203 F 
ATOM     81  F   UNL A   1      44.117  22.461  24.167  1.00  0.00    -0.200 F 
ATOM     82  C   UNL A   1      42.478  21.899  25.762  1.00  0.00     0.200 A 
ATOM     83  F   UNL A   1      40.895  21.379  27.430  1.00  0.00    -0.200 F 
ATOM     84  F   UNL A   1      42.511  20.617  25.372  1.00  0.00    -0.200 F 
ENDBRANCH  50  74
BRANCH  62  85
ATOM     85  C   UNL A   1      45.388  29.923  28.476  1.00  0.00     0.064 A 
ATOM     86  C   UNL A   1      44.363  30.594  27.786  1.00  0.00     0.173 A 
ATOM     87  C   UNL A   1      46.706  30.312  28.202  1.00  0.00     0.173 A 
ATOM     88  F   UNL A   1      43.076  30.351  28.054  1.00  0.00    -0.203 F 
ATOM     89  C   UNL A   1      44.646  31.591  26.854  1.00  0.00     0.198 A 
ATOM     90  C   UNL A   1      46.985  31.334  27.299  1.00  0.00     0.198 A 
ATOM     91  F   UNL A   1      47.723  29.747  28.870  1.00  0.00    -0.203 F 
ATOM     92  F   UNL A   1      43.647  32.222  26.217  1.00  0.00    -0.200 F 
ATOM     93  C   UNL A   1      45.957  31.970  26.622  1.00  0.00     0.200 A 
ATOM     94  F   UNL A   1      48.252  31.732  27.116  1.00  0.00    -0.200 F 
ATOM     95  F   UNL A   1      46.228  32.971  25.772  1.00  0.00    -0.200 F 
ENDBRANCH  62  85
ENDBRANCH  36  37
ENDBRANCH  28  31
ENDBRANCH  26  27
ENDBRANCH  25  26
ENDBRANCH   1  25
TORSDOF 14
ENDMDL
MODEL 3
REMARK VINA RESULT:     -13.1      3.488      8.712
REMARK SMILES CC(=O)n1cc2c3c(cccc31)C(=O)C[C@@H]2C(=O)NCCCCCCNC(=O)c1ccc(-c2c3nc(c(-c4c(F)c(F)c(F)c(F)c4F)c4ccc([nH]4)c(-c4c(F)c(F)c(F)c(F)c4F)c4nc(c(-c5c(F)c(F)c(F)c(F)c5F)c5ccc2[nH]5)C=C4)C=C3)cc1
REMARK SMILES IDX 23 1 22 2 21 3 20 4 19 5 17 6 18 7 16 9 4 10 5 11 12 12 6 13
REMARK SMILES IDX 7 14 11 15 8 16 10 17 15 18 9 19 13 20 14 21 2 22 1 23 3 24
REMARK SMILES IDX 24 25 25 26 26 27 27 28 28 30 29 31 30 32 91 33 31 34 90 35
REMARK SMILES IDX 32 36 33 37 34 38 84 39 35 40 89 41 83 42 85 43 36 44 88 45
REMARK SMILES IDX 82 46 81 47 37 49 69 50 49 51 68 52 50 53 53 54 67 55 86 56
REMARK SMILES IDX 51 57 52 58 66 60 87 61 54 62 38 63 39 64 47 65 40 66 41 67
REMARK SMILES IDX 45 68 48 69 42 70 43 71 46 72 44 73 70 74 71 75 79 76 72 77
REMARK SMILES IDX 73 78 77 79 80 80 74 81 75 82 78 83 76 84 55 85 56 86 64 87
REMARK SMILES IDX 57 88 58 89 62 90 65 91 59 92 60 93 63 94 61 95
REMARK H PARENT 19 8 26 29 85 48 53 59
REMARK Flexibility Score: inf
ROOT
ATOM      1  C   UNL A   1      36.268  21.296  25.627  1.00  0.00     0.002 C 
ENDROOT
BRANCH   1   2
ATOM      2  C   UNL A   1      35.128  20.857  24.697  1.00  0.00     0.002 C 
BRANCH   2   3
ATOM      3  C   UNL A   1      33.819  20.482  25.398  1.00  0.00     0.021 C 
BRANCH   3   4
ATOM      4  C   UNL A   1      33.440  21.407  26.551  1.00  0.00     0.116 C 
BRANCH   4   5
ATOM      5  N   UNL A   1      32.181  22.084  26.295  1.00  0.00    -0.356 N 
ATOM      6  C   UNL A   1      31.890  23.127  25.465  1.00  0.00     0.228 C 
ATOM      7  O   UNL A   1      30.723  23.524  25.432  1.00  0.00    -0.274 OA
ATOM      8  H   UNL A   1      31.413  21.732  26.801  1.00  0.00     0.163 HD
BRANCH   6   9
ATOM      9  C   UNL A   1      32.965  23.793  24.606  1.00  0.00     0.118 C 
ATOM     10  N   UNL A   1      33.370  27.233  26.030  1.00  0.00    -0.287 N 
ATOM     11  C   UNL A   1      33.270  25.854  26.232  1.00  0.00     0.100 A 
ATOM     12  C   UNL A   1      33.431  27.452  24.648  1.00  0.00     0.057 A 
ATOM     13  C   UNL A   1      33.180  25.222  25.011  1.00  0.00    -0.008 A 
ATOM     14  C   UNL A   1      33.331  26.213  24.035  1.00  0.00     0.015 A 
ATOM     15  C   UNL A   1      33.585  28.610  23.865  1.00  0.00     0.027 A 
ATOM     16  C   UNL A   1      33.358  26.078  22.649  1.00  0.00     0.027 A 
ATOM     17  C   UNL A   1      33.645  28.462  22.467  1.00  0.00     0.003 A 
ATOM     18  C   UNL A   1      32.646  23.626  23.096  1.00  0.00     0.099 C 
ATOM     19  C   UNL A   1      33.536  27.209  21.856  1.00  0.00     0.012 A 
ATOM     20  C   UNL A   1      33.173  24.703  22.134  1.00  0.00     0.164 C 
ATOM     21  O   UNL A   1      33.345  24.474  20.940  1.00  0.00    -0.294 OA
BRANCH  10  22
ATOM     22  C   UNL A   1      33.391  28.234  27.025  1.00  0.00     0.227 C 
ATOM     23  C   UNL A   1      34.696  28.952  27.193  1.00  0.00     0.115 C 
ATOM     24  O   UNL A   1      32.376  28.492  27.662  1.00  0.00    -0.274 OA
ENDBRANCH  10  22
ENDBRANCH   6   9
ENDBRANCH   4   5
ENDBRANCH   3   4
ENDBRANCH   2   3
ENDBRANCH   1   2
BRANCH   1  25
ATOM     25  C   UNL A   1      37.300  22.254  25.014  1.00  0.00     0.021 C 
BRANCH  25  26
ATOM     26  C   UNL A   1      38.241  22.859  26.042  1.00  0.00     0.116 C 
BRANCH  26  27
ATOM     27  N   UNL A   1      39.545  22.205  26.028  1.00  0.00    -0.352 N 
ATOM     28  C   UNL A   1      40.790  22.772  26.174  1.00  0.00     0.251 C 
ATOM     29  H   UNL A   1      39.532  21.230  25.895  1.00  0.00     0.163 HD
ATOM     30  O   UNL A   1      41.795  22.190  25.800  1.00  0.00    -0.269 OA
BRANCH  28  31
ATOM     31  C   UNL A   1      40.897  24.094  26.813  1.00  0.00     0.039 A 
ATOM     32  C   UNL A   1      40.327  25.221  26.211  1.00  0.00     0.014 A 
ATOM     33  C   UNL A   1      41.620  24.202  28.002  1.00  0.00     0.014 A 
ATOM     34  C   UNL A   1      40.456  26.457  26.836  1.00  0.00     0.010 A 
ATOM     35  C   UNL A   1      41.650  25.394  28.674  1.00  0.00     0.010 A 
ATOM     36  C   UNL A   1      41.122  26.529  28.065  1.00  0.00    -0.014 A 
BRANCH  36  37
ATOM     37  C   UNL A   1      41.228  27.786  28.787  1.00  0.00     0.031 A 
ATOM     38  C   UNL A   1      42.380  28.643  28.391  1.00  0.00     0.074 A 
ATOM     39  C   UNL A   1      40.196  28.232  29.533  1.00  0.00     0.049 A 
ATOM     40  N   UNL A   1      43.323  29.113  29.142  1.00  0.00    -0.248 NA
ATOM     41  C   UNL A   1      42.564  28.935  26.958  1.00  0.00     0.031 C 
ATOM     42  C   UNL A   1      38.876  27.614  29.715  1.00  0.00     0.029 A 
ATOM     43  N   UNL A   1      40.060  29.414  30.188  1.00  0.00    -0.354 N 
ATOM     44  C   UNL A   1      44.120  29.901  28.314  1.00  0.00     0.074 A 
ATOM     45  C   UNL A   1      43.706  29.623  26.964  1.00  0.00     0.031 C 
ATOM     46  C   UNL A   1      38.017  28.524  30.222  1.00  0.00     0.029 A 
ATOM     47  C   UNL A   1      38.753  29.733  30.535  1.00  0.00     0.049 A 
ATOM     48  H   UNL A   1      40.825  29.996  30.401  1.00  0.00     0.167 HD
ATOM     49  C   UNL A   1      44.903  30.895  28.816  1.00  0.00     0.037 A 
ATOM     50  C   UNL A   1      38.314  30.935  30.983  1.00  0.00     0.037 A 
ATOM     51  C   UNL A   1      45.105  30.736  30.231  1.00  0.00     0.049 A 
ATOM     52  C   UNL A   1      39.507  31.683  31.462  1.00  0.00     0.074 A 
ATOM     53  C   UNL A   1      45.673  29.753  31.018  1.00  0.00     0.029 A 
ATOM     54  N   UNL A   1      44.348  31.502  31.084  1.00  0.00    -0.354 N 
ATOM     55  N   UNL A   1      40.215  31.326  32.501  1.00  0.00    -0.248 NA
ATOM     56  C   UNL A   1      40.193  32.535  30.501  1.00  0.00     0.031 C 
ATOM     57  C   UNL A   1      44.833  29.675  32.167  1.00  0.00     0.029 A 
ATOM     58  C   UNL A   1      43.853  30.660  32.046  1.00  0.00     0.049 A 
ATOM     59  H   UNL A   1      44.192  32.472  31.016  1.00  0.00     0.167 HD
ATOM     60  C   UNL A   1      41.532  31.550  32.126  1.00  0.00     0.074 A 
ATOM     61  C   UNL A   1      41.452  32.356  30.909  1.00  0.00     0.031 C 
ATOM     62  C   UNL A   1      42.553  30.819  32.659  1.00  0.00     0.037 A 
BRANCH  49  63
ATOM     63  C   UNL A   1      45.200  32.190  28.104  1.00  0.00     0.064 A 
ATOM     64  C   UNL A   1      44.146  33.083  27.823  1.00  0.00     0.173 A 
ATOM     65  C   UNL A   1      46.415  32.451  27.434  1.00  0.00     0.173 A 
ATOM     66  F   UNL A   1      42.939  32.912  28.382  1.00  0.00    -0.203 F 
ATOM     67  C   UNL A   1      44.283  34.116  26.891  1.00  0.00     0.198 A 
ATOM     68  C   UNL A   1      46.563  33.518  26.549  1.00  0.00     0.198 A 
ATOM     69  F   UNL A   1      47.464  31.626  27.516  1.00  0.00    -0.203 F 
ATOM     70  F   UNL A   1      43.219  34.861  26.564  1.00  0.00    -0.200 F 
ATOM     71  C   UNL A   1      45.490  34.330  26.253  1.00  0.00     0.200 A 
ATOM     72  F   UNL A   1      47.736  33.696  25.925  1.00  0.00    -0.200 F 
ATOM     73  F   UNL A   1      45.609  35.283  25.319  1.00  0.00    -0.200 F 
ENDBRANCH  49  63
BRANCH  50  74
ATOM     74  C   UNL A   1      37.010  31.588  30.703  1.00  0.00     0.064 A 
ATOM     75  C   UNL A   1      36.081  31.829  31.727  1.00  0.00     0.173 A 
ATOM     76  C   UNL A   1      36.758  32.226  29.471  1.00  0.00     0.173 A 
ATOM     77  F   UNL A   1      36.271  31.304  32.946  1.00  0.00    -0.203 F 
ATOM     78  C   UNL A   1      34.973  32.665  31.535  1.00  0.00     0.198 A 
ATOM     79  C   UNL A   1      35.649  33.053  29.277  1.00  0.00     0.198 A 
ATOM     80  F   UNL A   1      37.629  32.135  28.456  1.00  0.00    -0.203 F 
ATOM     81  F   UNL A   1      34.138  32.915  32.552  1.00  0.00    -0.200 F 
ATOM     82  C   UNL A   1      34.763  33.282  30.311  1.00  0.00     0.200 A 
ATOM     83  F   UNL A   1      35.481  33.673  28.100  1.00  0.00    -0.200 F 
ATOM     84  F   UNL A   1      33.736  34.126  30.143  1.00  0.00    -0.200 F 
ENDBRANCH  50  74
BRANCH  62  85
ATOM     85  C   UNL A   1      42.256  29.906  33.817  1.00  0.00     0.064 A 
ATOM     86  C   UNL A   1      41.837  28.571  33.671  1.00  0.00     0.173 A 
ATOM     87  C   UNL A   1      42.613  30.329  35.105  1.00  0.00     0.173 A 
ATOM     88  F   UNL A   1      41.568  28.060  32.466  1.00  0.00    -0.203 F 
ATOM     89  C   UNL A   1      41.762  27.710  34.765  1.00  0.00     0.198 A 
ATOM     90  C   UNL A   1      42.573  29.456  36.189  1.00  0.00     0.198 A 
ATOM     91  F   UNL A   1      43.073  31.574  35.297  1.00  0.00    -0.203 F 
ATOM     92  F   UNL A   1      41.369  26.438  34.595  1.00  0.00    -0.200 F 
ATOM     93  C   UNL A   1      42.144  28.149  36.021  1.00  0.00     0.200 A 
ATOM     94  F   UNL A   1      42.992  29.872  37.392  1.00  0.00    -0.200 F 
ATOM     95  F   UNL A   1      42.131  27.306  37.062  1.00  0.00    -0.200 F 
ENDBRANCH  62  85
ENDBRANCH  36  37
ENDBRANCH  28  31
ENDBRANCH  26  27
ENDBRANCH  25  26
ENDBRANCH   1  25
TORSDOF 14
ENDMDL
