MODEL 1
REMARK VINA RESULT:     -12.3      0.000      0.000
REMARK SMILES Cc1cscc1C(=O)Nc1cc(Br)ccc1C(=O)NCCCCCCNC(=O)c1ccc(-c2c3nc(c(-c4c(F)c(F)c(F)c(F)c4F)c4ccc([nH]4)c(-c4c(F)c(F)c(F)c(F)c4F)c4nc(c(-c5c(F)c(F)c(F)c(F)c5F)c5ccc2[nH]5)C=C4)C=C3)cc1
REMARK SMILES IDX 22 1 21 2 20 3 19 4 17 5 18 6 16 8 10 9 11 10 12 11 15 12
REMARK SMILES IDX 13 13 14 14 9 15 7 16 8 17 6 19 1 20 2 21 3 22 4 23 5 24
REMARK SMILES IDX 23 25 24 26 25 27 26 28 27 29 28 31 29 32 30 33 91 34 31 35
REMARK SMILES IDX 90 36 32 37 33 38 34 39 84 40 35 41 89 42 83 43 85 44 36 45
REMARK SMILES IDX 88 46 82 47 81 48 37 50 69 51 49 52 68 53 50 54 53 55 67 56
REMARK SMILES IDX 86 57 51 58 52 59 66 61 87 62 54 63 38 64 39 65 47 66 40 67
REMARK SMILES IDX 41 68 45 69 48 70 42 71 43 72 46 73 44 74 70 75 71 76 79 77
REMARK SMILES IDX 72 78 73 79 77 80 80 81 74 82 75 83 78 84 76 85 55 86 56 87
REMARK SMILES IDX 64 88 57 89 58 90 62 91 65 92 59 93 60 94 63 95 61 96
REMARK H PARENT 19 7 9 18 26 30 85 49 53 60
REMARK Flexibility Score: inf
ROOT
ATOM      1  C   UNL A   1      32.164  29.922  27.227  1.00  0.00     0.002 C 
ENDROOT
BRANCH   1   2
ATOM      2  C   UNL A   1      31.683  28.486  27.446  1.00  0.00     0.021 C 
BRANCH   2   3
ATOM      3  C   UNL A   1      32.352  27.395  26.619  1.00  0.00     0.116 C 
BRANCH   3   4
ATOM      4  N   UNL A   1      33.053  27.828  25.438  1.00  0.00    -0.352 N 
ATOM      5  C   UNL A   1      33.790  27.156  24.493  1.00  0.00     0.253 C 
ATOM      6  O   UNL A   1      34.258  27.870  23.599  1.00  0.00    -0.269 OA
ATOM      7  H   UNL A   1      32.993  28.797  25.275  1.00  0.00     0.163 HD
BRANCH   5   8
ATOM      8  C   UNL A   1      34.105  25.678  24.435  1.00  0.00     0.063 A 
ATOM      9  C   UNL A   1      33.970  24.755  23.375  1.00  0.00     0.055 A 
ATOM     10  C   UNL A   1      34.470  23.442  23.492  1.00  0.00     0.042 A 
ATOM     11  C   UNL A   1      35.022  23.000  24.690  1.00  0.00     0.020 A 
ATOM     12  C   UNL A   1      34.624  25.169  25.650  1.00  0.00     0.017 A 
ATOM     13  Br  UNL A   1      35.673  21.232  24.829  1.00  0.00    -0.051 Br
ATOM     14  C   UNL A   1      35.067  23.848  25.784  1.00  0.00     0.016 A 
BRANCH   9  15
ATOM     15  N   UNL A   1      33.493  25.102  22.123  1.00  0.00    -0.321 N 
ATOM     16  C   UNL A   1      32.273  25.578  21.694  1.00  0.00     0.256 C 
ATOM     17  O   UNL A   1      32.175  25.643  20.460  1.00  0.00    -0.269 OA
ATOM     18  H   UNL A   1      34.152  24.987  21.400  1.00  0.00     0.170 HD
BRANCH  16  19
ATOM     19  C   UNL A   1      31.180  26.126  22.544  1.00  0.00     0.053 A 
ATOM     20  C   UNL A   1      30.526  24.457  24.550  1.00  0.00     0.046 C 
ATOM     21  C   UNL A   1      30.418  25.691  23.720  1.00  0.00    -0.028 A 
ATOM     22  C   UNL A   1      29.453  26.626  24.077  1.00  0.00     0.069 A 
ATOM     23  S   UNL A   1      29.524  28.057  23.180  1.00  0.00    -0.151 S 
ATOM     24  C   UNL A   1      30.794  27.436  22.245  1.00  0.00     0.079 A 
ENDBRANCH  16  19
ENDBRANCH   9  15
ENDBRANCH   5   8
ENDBRANCH   3   4
ENDBRANCH   2   3
ENDBRANCH   1   2
BRANCH   1  25
ATOM     25  C   UNL A   1      31.383  30.800  26.243  1.00  0.00     0.002 C 
BRANCH  25  26
ATOM     26  C   UNL A   1      31.341  32.305  26.514  1.00  0.00     0.021 C 
BRANCH  26  27
ATOM     27  C   UNL A   1      32.537  32.903  27.245  1.00  0.00     0.116 C 
BRANCH  27  28
ATOM     28  N   UNL A   1      32.329  34.279  27.662  1.00  0.00    -0.352 N 
ATOM     29  C   UNL A   1      32.991  35.023  28.604  1.00  0.00     0.251 C 
ATOM     30  H   UNL A   1      31.601  34.750  27.196  1.00  0.00     0.163 HD
ATOM     31  O   UNL A   1      32.583  36.149  28.890  1.00  0.00    -0.269 OA
BRANCH  29  32
ATOM     32  C   UNL A   1      34.173  34.479  29.308  1.00  0.00     0.039 A 
ATOM     33  C   UNL A   1      33.981  33.823  30.528  1.00  0.00     0.014 A 
ATOM     34  C   UNL A   1      35.464  34.626  28.793  1.00  0.00     0.014 A 
ATOM     35  C   UNL A   1      35.072  33.261  31.197  1.00  0.00     0.010 A 
ATOM     36  C   UNL A   1      36.540  34.003  29.423  1.00  0.00     0.010 A 
ATOM     37  C   UNL A   1      36.356  33.316  30.633  1.00  0.00    -0.014 A 
BRANCH  37  38
ATOM     38  C   UNL A   1      37.513  32.653  31.292  1.00  0.00     0.031 A 
ATOM     39  C   UNL A   1      38.226  31.517  30.613  1.00  0.00     0.074 A 
ATOM     40  C   UNL A   1      37.885  33.038  32.528  1.00  0.00     0.049 A 
ATOM     41  N   UNL A   1      39.214  30.777  31.050  1.00  0.00    -0.248 NA
ATOM     42  C   UNL A   1      37.750  31.147  29.271  1.00  0.00     0.031 C 
ATOM     43  C   UNL A   1      37.246  34.097  33.311  1.00  0.00     0.029 A 
ATOM     44  N   UNL A   1      38.883  32.575  33.350  1.00  0.00    -0.354 N 
ATOM     45  C   UNL A   1      39.468  29.852  30.048  1.00  0.00     0.074 A 
ATOM     46  C   UNL A   1      38.496  30.086  29.001  1.00  0.00     0.031 C 
ATOM     47  C   UNL A   1      37.880  34.218  34.488  1.00  0.00     0.029 A 
ATOM     48  C   UNL A   1      38.942  33.219  34.561  1.00  0.00     0.049 A 
ATOM     49  H   UNL A   1      39.499  31.851  33.094  1.00  0.00     0.167 HD
ATOM     50  C   UNL A   1      40.436  28.906  29.996  1.00  0.00     0.037 A 
ATOM     51  C   UNL A   1      39.753  33.019  35.618  1.00  0.00     0.037 A 
ATOM     52  C   UNL A   1      41.412  28.687  31.032  1.00  0.00     0.049 A 
ATOM     53  C   UNL A   1      40.810  31.950  35.541  1.00  0.00     0.074 A 
ATOM     54  C   UNL A   1      42.468  27.792  31.048  1.00  0.00     0.029 A 
ATOM     55  N   UNL A   1      41.445  29.365  32.242  1.00  0.00    -0.354 N 
ATOM     56  N   UNL A   1      41.085  31.127  34.559  1.00  0.00    -0.248 NA
ATOM     57  C   UNL A   1      41.672  31.786  36.719  1.00  0.00     0.031 C 
ATOM     58  C   UNL A   1      43.107  27.891  32.289  1.00  0.00     0.029 A 
ATOM     59  C   UNL A   1      42.488  28.891  33.022  1.00  0.00     0.049 A 
ATOM     60  H   UNL A   1      40.821  30.079  32.507  1.00  0.00     0.167 HD
ATOM     61  C   UNL A   1      42.169  30.371  34.986  1.00  0.00     0.074 A 
ATOM     62  C   UNL A   1      42.511  30.845  36.311  1.00  0.00     0.031 C 
ATOM     63  C   UNL A   1      42.822  29.375  34.338  1.00  0.00     0.037 A 
BRANCH  50  64
ATOM     64  C   UNL A   1      40.490  28.031  28.774  1.00  0.00     0.064 A 
ATOM     65  C   UNL A   1      41.253  28.381  27.650  1.00  0.00     0.173 A 
ATOM     66  C   UNL A   1      39.801  26.809  28.742  1.00  0.00     0.173 A 
ATOM     67  F   UNL A   1      41.925  29.543  27.624  1.00  0.00    -0.203 F 
ATOM     68  C   UNL A   1      41.299  27.557  26.528  1.00  0.00     0.198 A 
ATOM     69  C   UNL A   1      39.876  25.972  27.632  1.00  0.00     0.198 A 
ATOM     70  F   UNL A   1      39.063  26.420  29.793  1.00  0.00    -0.203 F 
ATOM     71  F   UNL A   1      41.992  27.939  25.446  1.00  0.00    -0.200 F 
ATOM     72  C   UNL A   1      40.617  26.350  26.523  1.00  0.00     0.200 A 
ATOM     73  F   UNL A   1      39.228  24.798  27.635  1.00  0.00    -0.200 F 
ATOM     74  F   UNL A   1      40.668  25.554  25.446  1.00  0.00    -0.200 F 
ENDBRANCH  50  64
BRANCH  51  75
ATOM     75  C   UNL A   1      39.612  33.864  36.833  1.00  0.00     0.064 A 
ATOM     76  C   UNL A   1      38.834  33.439  37.919  1.00  0.00     0.173 A 
ATOM     77  C   UNL A   1      40.242  35.113  36.933  1.00  0.00     0.173 A 
ATOM     78  F   UNL A   1      38.194  32.262  37.864  1.00  0.00    -0.203 F 
ATOM     79  C   UNL A   1      38.673  34.240  39.049  1.00  0.00     0.198 A 
ATOM     80  C   UNL A   1      40.107  35.900  38.075  1.00  0.00     0.198 A 
ATOM     81  F   UNL A   1      41.000  35.565  35.923  1.00  0.00    -0.203 F 
ATOM     82  F   UNL A   1      37.885  33.831  40.051  1.00  0.00    -0.200 F 
ATOM     83  C   UNL A   1      39.315  35.467  39.128  1.00  0.00     0.200 A 
ATOM     84  F   UNL A   1      40.740  37.078  38.154  1.00  0.00    -0.200 F 
ATOM     85  F   UNL A   1      39.164  36.235  40.216  1.00  0.00    -0.200 F 
ENDBRANCH  51  75
BRANCH  63  86
ATOM     86  C   UNL A   1      43.999  28.754  35.035  1.00  0.00     0.064 A 
ATOM     87  C   UNL A   1      45.297  29.268  34.893  1.00  0.00     0.173 A 
ATOM     88  C   UNL A   1      43.818  27.654  35.888  1.00  0.00     0.173 A 
ATOM     89  F   UNL A   1      45.526  30.309  34.079  1.00  0.00    -0.203 F 
ATOM     90  C   UNL A   1      46.374  28.684  35.557  1.00  0.00     0.198 A 
ATOM     91  C   UNL A   1      44.891  27.095  36.576  1.00  0.00     0.198 A 
ATOM     92  F   UNL A   1      42.596  27.129  36.064  1.00  0.00    -0.203 F 
ATOM     93  F   UNL A   1      47.612  29.159  35.365  1.00  0.00    -0.200 F 
ATOM     94  C   UNL A   1      46.168  27.605  36.404  1.00  0.00     0.200 A 
ATOM     95  F   UNL A   1      44.688  26.062  37.406  1.00  0.00    -0.200 F 
ATOM     96  F   UNL A   1      47.204  27.052  37.048  1.00  0.00    -0.200 F 
ENDBRANCH  63  86
ENDBRANCH  37  38
ENDBRANCH  29  32
ENDBRANCH  27  28
ENDBRANCH  26  27
ENDBRANCH  25  26
ENDBRANCH   1  25
TORSDOF 15
ENDMDL
MODEL 2
REMARK VINA RESULT:     -12.3      0.152      1.582
REMARK SMILES Cc1cscc1C(=O)Nc1cc(Br)ccc1C(=O)NCCCCCCNC(=O)c1ccc(-c2c3nc(c(-c4c(F)c(F)c(F)c(F)c4F)c4ccc([nH]4)c(-c4c(F)c(F)c(F)c(F)c4F)c4nc(c(-c5c(F)c(F)c(F)c(F)c5F)c5ccc2[nH]5)C=C4)C=C3)cc1
REMARK SMILES IDX 22 1 21 2 20 3 19 4 17 5 18 6 16 8 10 9 11 10 12 11 15 12
REMARK SMILES IDX 13 13 14 14 9 15 7 16 8 17 6 19 1 20 2 21 3 22 4 23 5 24
REMARK SMILES IDX 23 25 24 26 25 27 26 28 27 29 28 31 29 32 30 33 91 34 31 35
REMARK SMILES IDX 90 36 32 37 33 38 34 39 84 40 35 41 89 42 83 43 85 44 36 45
REMARK SMILES IDX 88 46 82 47 81 48 37 50 69 51 49 52 68 53 50 54 53 55 67 56
REMARK SMILES IDX 86 57 51 58 52 59 66 61 87 62 54 63 38 64 39 65 47 66 40 67
REMARK SMILES IDX 41 68 45 69 48 70 42 71 43 72 46 73 44 74 70 75 71 76 79 77
REMARK SMILES IDX 72 78 73 79 77 80 80 81 74 82 75 83 78 84 76 85 55 86 56 87
REMARK SMILES IDX 64 88 57 89 58 90 62 91 65 92 59 93 60 94 63 95 61 96
REMARK H PARENT 19 7 9 18 26 30 85 49 53 60
REMARK Flexibility Score: inf
ROOT
ATOM      1  C   UNL A   1      32.227  29.956  27.179  1.00  0.00     0.002 C 
ENDROOT
BRANCH   1   2
ATOM      2  C   UNL A   1      31.766  28.521  27.446  1.00  0.00     0.021 C 
BRANCH   2   3
ATOM      3  C   UNL A   1      32.400  27.418  26.607  1.00  0.00     0.116 C 
BRANCH   3   4
ATOM      4  N   UNL A   1      33.089  27.839  25.415  1.00  0.00    -0.352 N 
ATOM      5  C   UNL A   1      33.810  27.157  24.466  1.00  0.00     0.253 C 
ATOM      6  O   UNL A   1      34.272  27.862  23.562  1.00  0.00    -0.269 OA
ATOM      7  H   UNL A   1      33.033  28.808  25.247  1.00  0.00     0.163 HD
BRANCH   5   8
ATOM      8  C   UNL A   1      34.115  25.676  24.414  1.00  0.00     0.063 A 
ATOM      9  C   UNL A   1      33.972  24.750  23.358  1.00  0.00     0.055 A 
ATOM     10  C   UNL A   1      34.463  23.435  23.478  1.00  0.00     0.042 A 
ATOM     11  C   UNL A   1      35.014  22.993  24.677  1.00  0.00     0.020 A 
ATOM     12  C   UNL A   1      34.633  25.169  25.630  1.00  0.00     0.017 A 
ATOM     13  Br  UNL A   1      35.653  21.222  24.823  1.00  0.00    -0.051 Br
ATOM     14  C   UNL A   1      35.068  23.845  25.768  1.00  0.00     0.016 A 
BRANCH   9  15
ATOM     15  N   UNL A   1      33.494  25.095  22.105  1.00  0.00    -0.321 N 
ATOM     16  C   UNL A   1      32.270  25.560  21.674  1.00  0.00     0.256 C 
ATOM     17  O   UNL A   1      32.175  25.627  20.440  1.00  0.00    -0.269 OA
ATOM     18  H   UNL A   1      34.155  24.988  21.384  1.00  0.00     0.170 HD
BRANCH  16  19
ATOM     19  C   UNL A   1      31.170  26.096  22.523  1.00  0.00     0.053 A 
ATOM     20  C   UNL A   1      30.549  24.431  24.543  1.00  0.00     0.046 C 
ATOM     21  C   UNL A   1      30.418  25.657  23.704  1.00  0.00    -0.028 A 
ATOM     22  C   UNL A   1      29.438  26.577  24.056  1.00  0.00     0.069 A 
ATOM     23  S   UNL A   1      29.483  28.003  23.148  1.00  0.00    -0.151 S 
ATOM     24  C   UNL A   1      30.761  27.396  22.215  1.00  0.00     0.079 A 
ENDBRANCH  16  19
ENDBRANCH   9  15
ENDBRANCH   5   8
ENDBRANCH   3   4
ENDBRANCH   2   3
ENDBRANCH   1   2
BRANCH   1  25
ATOM     25  C   UNL A   1      31.376  30.822  26.245  1.00  0.00     0.002 C 
BRANCH  25  26
ATOM     26  C   UNL A   1      31.348  32.329  26.504  1.00  0.00     0.021 C 
BRANCH  26  27
ATOM     27  C   UNL A   1      32.521  32.911  27.285  1.00  0.00     0.116 C 
BRANCH  27  28
ATOM     28  N   UNL A   1      32.319  34.295  27.682  1.00  0.00    -0.352 N 
ATOM     29  C   UNL A   1      32.980  35.046  28.619  1.00  0.00     0.251 C 
ATOM     30  H   UNL A   1      31.597  34.764  27.205  1.00  0.00     0.163 HD
ATOM     31  O   UNL A   1      32.578  36.179  28.887  1.00  0.00    -0.269 OA
BRANCH  29  32
ATOM     32  C   UNL A   1      34.153  34.504  29.337  1.00  0.00     0.039 A 
ATOM     33  C   UNL A   1      33.955  33.903  30.584  1.00  0.00     0.014 A 
ATOM     34  C   UNL A   1      35.444  34.600  28.809  1.00  0.00     0.014 A 
ATOM     35  C   UNL A   1      35.037  33.343  31.269  1.00  0.00     0.010 A 
ATOM     36  C   UNL A   1      36.510  33.978  29.458  1.00  0.00     0.010 A 
ATOM     37  C   UNL A   1      36.319  33.345  30.696  1.00  0.00    -0.014 A 
BRANCH  37  38
ATOM     38  C   UNL A   1      37.464  32.683  31.375  1.00  0.00     0.031 A 
ATOM     39  C   UNL A   1      38.175  31.533  30.717  1.00  0.00     0.074 A 
ATOM     40  C   UNL A   1      37.827  33.082  32.609  1.00  0.00     0.049 A 
ATOM     41  N   UNL A   1      39.154  30.792  31.174  1.00  0.00    -0.248 NA
ATOM     42  C   UNL A   1      37.709  31.149  29.376  1.00  0.00     0.031 C 
ATOM     43  C   UNL A   1      37.189  34.156  33.371  1.00  0.00     0.029 A 
ATOM     44  N   UNL A   1      38.814  32.623  33.446  1.00  0.00    -0.354 N 
ATOM     45  C   UNL A   1      39.410  29.852  30.187  1.00  0.00     0.074 A 
ATOM     46  C   UNL A   1      38.450  30.079  29.128  1.00  0.00     0.031 C 
ATOM     47  C   UNL A   1      37.813  34.288  34.553  1.00  0.00     0.029 A 
ATOM     48  C   UNL A   1      38.867  33.283  34.649  1.00  0.00     0.049 A 
ATOM     49  H   UNL A   1      39.427  31.891  33.205  1.00  0.00     0.167 HD
ATOM     50  C   UNL A   1      40.372  28.898  30.156  1.00  0.00     0.037 A 
ATOM     51  C   UNL A   1      39.666  33.091  35.716  1.00  0.00     0.037 A 
ATOM     52  C   UNL A   1      41.336  28.686  31.204  1.00  0.00     0.049 A 
ATOM     53  C   UNL A   1      40.716  32.013  35.664  1.00  0.00     0.074 A 
ATOM     54  C   UNL A   1      42.386  27.784  31.242  1.00  0.00     0.029 A 
ATOM     55  N   UNL A   1      41.364  29.380  32.405  1.00  0.00    -0.354 N 
ATOM     56  N   UNL A   1      40.995  31.175  34.695  1.00  0.00    -0.248 NA
ATOM     57  C   UNL A   1      41.566  31.858  36.852  1.00  0.00     0.031 C 
ATOM     58  C   UNL A   1      43.014  27.895  32.488  1.00  0.00     0.029 A 
ATOM     59  C   UNL A   1      42.396  28.909  33.201  1.00  0.00     0.049 A 
ATOM     60  H   UNL A   1      40.742  30.102  32.655  1.00  0.00     0.167 HD
ATOM     61  C   UNL A   1      42.069  30.417  35.143  1.00  0.00     0.074 A 
ATOM     62  C   UNL A   1      42.401  30.906  36.464  1.00  0.00     0.031 C 
ATOM     63  C   UNL A   1      42.720  29.408  34.514  1.00  0.00     0.037 A 
BRANCH  50  64
ATOM     64  C   UNL A   1      40.431  28.007  28.947  1.00  0.00     0.064 A 
ATOM     65  C   UNL A   1      39.710  26.804  28.882  1.00  0.00     0.173 A 
ATOM     66  C   UNL A   1      41.185  28.378  27.824  1.00  0.00     0.173 A 
ATOM     67  F   UNL A   1      38.980  26.396  29.932  1.00  0.00    -0.203 F 
ATOM     68  C   UNL A   1      39.769  25.991  27.753  1.00  0.00     0.198 A 
ATOM     69  C   UNL A   1      41.215  27.579  26.683  1.00  0.00     0.198 A 
ATOM     70  F   UNL A   1      41.886  29.522  27.827  1.00  0.00    -0.203 F 
ATOM     71  F   UNL A   1      39.114  24.822  27.736  1.00  0.00    -0.200 F 
ATOM     72  C   UNL A   1      40.515  26.383  26.651  1.00  0.00     0.200 A 
ATOM     73  F   UNL A   1      41.924  27.968  25.614  1.00  0.00    -0.200 F 
ATOM     74  F   UNL A   1      40.563  25.605  25.562  1.00  0.00    -0.200 F 
ENDBRANCH  50  64
BRANCH  51  75
ATOM     75  C   UNL A   1      39.519  33.953  36.919  1.00  0.00     0.064 A 
ATOM     76  C   UNL A   1      40.145  35.205  36.989  1.00  0.00     0.173 A 
ATOM     77  C   UNL A   1      38.759  33.542  38.024  1.00  0.00     0.173 A 
ATOM     78  F   UNL A   1      40.901  35.634  35.967  1.00  0.00    -0.203 F 
ATOM     79  C   UNL A   1      40.036  36.003  38.127  1.00  0.00     0.198 A 
ATOM     80  C   UNL A   1      38.624  34.355  39.148  1.00  0.00     0.198 A 
ATOM     81  F   UNL A   1      38.137  32.353  38.007  1.00  0.00    -0.203 F 
ATOM     82  F   UNL A   1      40.685  37.174  38.185  1.00  0.00    -0.200 F 
ATOM     83  C   UNL A   1      39.270  35.580  39.203  1.00  0.00     0.200 A 
ATOM     84  F   UNL A   1      37.871  33.948  40.180  1.00  0.00    -0.200 F 
ATOM     85  F   UNL A   1      39.162  36.350  40.294  1.00  0.00    -0.200 F 
ENDBRANCH  51  75
BRANCH  63  86
ATOM     86  C   UNL A   1      43.886  28.788  35.231  1.00  0.00     0.064 A 
ATOM     87  C   UNL A   1      45.197  29.256  35.052  1.00  0.00     0.173 A 
ATOM     88  C   UNL A   1      43.682  27.738  36.139  1.00  0.00     0.173 A 
ATOM     89  F   UNL A   1      45.447  30.249  34.185  1.00  0.00    -0.203 F 
ATOM     90  C   UNL A   1      46.263  28.675  35.734  1.00  0.00     0.198 A 
ATOM     91  C   UNL A   1      44.746  27.181  36.844  1.00  0.00     0.198 A 
ATOM     92  F   UNL A   1      42.448  27.257  36.352  1.00  0.00    -0.203 F 
ATOM     93  F   UNL A   1      47.512  29.103  35.508  1.00  0.00    -0.200 F 
ATOM     94  C   UNL A   1      46.036  27.645  36.635  1.00  0.00     0.200 A 
ATOM     95  F   UNL A   1      44.522  26.197  37.726  1.00  0.00    -0.200 F 
ATOM     96  F   UNL A   1      47.062  27.094  37.296  1.00  0.00    -0.200 F 
ENDBRANCH  63  86
ENDBRANCH  37  38
ENDBRANCH  29  32
ENDBRANCH  27  28
ENDBRANCH  26  27
ENDBRANCH  25  26
ENDBRANCH   1  25
TORSDOF 15
ENDMDL
MODEL 3
REMARK VINA RESULT:     -12.2      1.654      3.160
REMARK SMILES Cc1cscc1C(=O)Nc1cc(Br)ccc1C(=O)NCCCCCCNC(=O)c1ccc(-c2c3nc(c(-c4c(F)c(F)c(F)c(F)c4F)c4ccc([nH]4)c(-c4c(F)c(F)c(F)c(F)c4F)c4nc(c(-c5c(F)c(F)c(F)c(F)c5F)c5ccc2[nH]5)C=C4)C=C3)cc1
REMARK SMILES IDX 22 1 21 2 20 3 19 4 17 5 18 6 16 8 10 9 11 10 12 11 15 12
REMARK SMILES IDX 13 13 14 14 9 15 7 16 8 17 6 19 1 20 2 21 3 22 4 23 5 24
REMARK SMILES IDX 23 25 24 26 25 27 26 28 27 29 28 31 29 32 30 33 91 34 31 35
REMARK SMILES IDX 90 36 32 37 33 38 34 39 84 40 35 41 89 42 83 43 85 44 36 45
REMARK SMILES IDX 88 46 82 47 81 48 37 50 69 51 49 52 68 53 50 54 53 55 67 56
REMARK SMILES IDX 86 57 51 58 52 59 66 61 87 62 54 63 38 64 39 65 47 66 40 67
REMARK SMILES IDX 41 68 45 69 48 70 42 71 43 72 46 73 44 74 70 75 71 76 79 77
REMARK SMILES IDX 72 78 73 79 77 80 80 81 74 82 75 83 78 84 76 85 55 86 56 87
REMARK SMILES IDX 64 88 57 89 58 90 62 91 65 92 59 93 60 94 63 95 61 96
REMARK H PARENT 19 7 9 18 26 30 85 49 53 60
REMARK Flexibility Score: inf
ROOT
ATOM      1  C   UNL A   1      32.085  29.751  26.885  1.00  0.00     0.002 C 
ENDROOT
BRANCH   1   2
ATOM      2  C   UNL A   1      33.506  29.268  26.585  1.00  0.00     0.021 C 
BRANCH   2   3
ATOM      3  C   UNL A   1      33.773  27.773  26.709  1.00  0.00     0.116 C 
BRANCH   3   4
ATOM      4  N   UNL A   1      34.114  27.082  25.492  1.00  0.00    -0.352 N 
ATOM      5  C   UNL A   1      33.405  26.807  24.348  1.00  0.00     0.253 C 
ATOM      6  O   UNL A   1      34.033  26.175  23.491  1.00  0.00    -0.269 OA
ATOM      7  H   UNL A   1      35.037  26.739  25.477  1.00  0.00     0.163 HD
BRANCH   5   8
ATOM      8  C   UNL A   1      31.970  27.163  24.033  1.00  0.00     0.063 A 
ATOM      9  C   UNL A   1      30.773  26.797  24.686  1.00  0.00     0.055 A 
ATOM     10  C   UNL A   1      29.540  27.369  24.311  1.00  0.00     0.042 A 
ATOM     11  C   UNL A   1      29.464  28.235  23.225  1.00  0.00     0.020 A 
ATOM     12  C   UNL A   1      31.837  28.005  22.903  1.00  0.00     0.017 A 
ATOM     13  Br  UNL A   1      27.801  28.980  22.730  1.00  0.00    -0.051 Br
ATOM     14  C   UNL A   1      30.604  28.528  22.495  1.00  0.00     0.016 A 
BRANCH   9  15
ATOM     15  N   UNL A   1      30.738  25.992  25.813  1.00  0.00    -0.321 N 
ATOM     16  C   UNL A   1      31.093  24.677  26.025  1.00  0.00     0.256 C 
ATOM     17  O   UNL A   1      30.786  24.260  27.151  1.00  0.00    -0.269 OA
ATOM     18  H   UNL A   1      30.395  26.446  26.616  1.00  0.00     0.170 HD
BRANCH  16  19
ATOM     19  C   UNL A   1      31.899  23.814  25.119  1.00  0.00     0.053 A 
ATOM     20  C   UNL A   1      34.353  23.325  26.106  1.00  0.00     0.046 C 
ATOM     21  C   UNL A   1      33.252  23.247  25.103  1.00  0.00    -0.028 A 
ATOM     22  C   UNL A   1      33.488  22.522  23.941  1.00  0.00     0.069 A 
ATOM     23  S   UNL A   1      32.128  22.355  22.951  1.00  0.00    -0.151 S 
ATOM     24  C   UNL A   1      31.211  23.307  24.012  1.00  0.00     0.079 A 
ENDBRANCH  16  19
ENDBRANCH   9  15
ENDBRANCH   5   8
ENDBRANCH   3   4
ENDBRANCH   2   3
ENDBRANCH   1   2
BRANCH   1  25
ATOM     25  C   UNL A   1      31.472  30.802  25.953  1.00  0.00     0.002 C 
BRANCH  25  26
ATOM     26  C   UNL A   1      31.296  32.219  26.502  1.00  0.00     0.021 C 
BRANCH  26  27
ATOM     27  C   UNL A   1      32.479  32.813  27.257  1.00  0.00     0.116 C 
BRANCH  27  28
ATOM     28  N   UNL A   1      32.284  34.204  27.631  1.00  0.00    -0.352 N 
ATOM     29  C   UNL A   1      32.956  34.970  28.548  1.00  0.00     0.251 C 
ATOM     30  H   UNL A   1      31.559  34.666  27.153  1.00  0.00     0.163 HD
ATOM     31  O   UNL A   1      32.559  36.109  28.800  1.00  0.00    -0.269 OA
BRANCH  29  32
ATOM     32  C   UNL A   1      34.135  34.438  29.265  1.00  0.00     0.039 A 
ATOM     33  C   UNL A   1      33.938  33.792  30.490  1.00  0.00     0.014 A 
ATOM     34  C   UNL A   1      35.429  34.586  28.758  1.00  0.00     0.014 A 
ATOM     35  C   UNL A   1      35.026  33.241  31.172  1.00  0.00     0.010 A 
ATOM     36  C   UNL A   1      36.504  33.973  29.401  1.00  0.00     0.010 A 
ATOM     37  C   UNL A   1      36.314  33.296  30.616  1.00  0.00    -0.014 A 
BRANCH  37  38
ATOM     38  C   UNL A   1      37.469  32.645  31.289  1.00  0.00     0.031 A 
ATOM     39  C   UNL A   1      38.194  31.508  30.623  1.00  0.00     0.074 A 
ATOM     40  C   UNL A   1      37.829  33.041  32.525  1.00  0.00     0.049 A 
ATOM     41  N   UNL A   1      39.182  30.776  31.074  1.00  0.00    -0.248 NA
ATOM     42  C   UNL A   1      37.730  31.126  29.281  1.00  0.00     0.031 C 
ATOM     43  C   UNL A   1      37.178  34.102  33.295  1.00  0.00     0.029 A 
ATOM     44  N   UNL A   1      38.823  32.589  33.358  1.00  0.00    -0.354 N 
ATOM     45  C   UNL A   1      39.449  29.845  30.081  1.00  0.00     0.074 A 
ATOM     46  C   UNL A   1      38.485  30.067  29.025  1.00  0.00     0.031 C 
ATOM     47  C   UNL A   1      37.802  34.235  34.476  1.00  0.00     0.029 A 
ATOM     48  C   UNL A   1      38.869  33.242  34.565  1.00  0.00     0.049 A 
ATOM     49  H   UNL A   1      39.444  31.866  33.112  1.00  0.00     0.167 HD
ATOM     50  C   UNL A   1      40.423  28.904  30.043  1.00  0.00     0.037 A 
ATOM     51  C   UNL A   1      39.672  33.054  35.630  1.00  0.00     0.037 A 
ATOM     52  C   UNL A   1      41.391  28.698  31.088  1.00  0.00     0.049 A 
ATOM     53  C   UNL A   1      40.735  31.990  35.569  1.00  0.00     0.074 A 
ATOM     54  C   UNL A   1      42.452  27.809  31.120  1.00  0.00     0.029 A 
ATOM     55  N   UNL A   1      41.411  29.385  32.294  1.00  0.00    -0.354 N 
ATOM     56  N   UNL A   1      41.023  31.161  34.595  1.00  0.00    -0.248 NA
ATOM     57  C   UNL A   1      41.589  31.838  36.755  1.00  0.00     0.031 C 
ATOM     58  C   UNL A   1      43.080  27.920  32.365  1.00  0.00     0.029 A 
ATOM     59  C   UNL A   1      42.450  28.922  33.085  1.00  0.00     0.049 A 
ATOM     60  H   UNL A   1      40.781  30.098  32.549  1.00  0.00     0.167 HD
ATOM     61  C   UNL A   1      42.108  30.414  35.036  1.00  0.00     0.074 A 
ATOM     62  C   UNL A   1      42.436  30.899  36.360  1.00  0.00     0.031 C 
ATOM     63  C   UNL A   1      42.771  29.417  34.401  1.00  0.00     0.037 A 
BRANCH  50  64
ATOM     64  C   UNL A   1      40.491  28.021  28.828  1.00  0.00     0.064 A 
ATOM     65  C   UNL A   1      39.796  26.804  28.762  1.00  0.00     0.173 A 
ATOM     66  C   UNL A   1      41.229  28.415  27.702  1.00  0.00     0.173 A 
ATOM     67  F   UNL A   1      39.082  26.375  29.815  1.00  0.00    -0.203 F 
ATOM     68  C   UNL A   1      39.863  25.999  27.628  1.00  0.00     0.198 A 
ATOM     69  C   UNL A   1      41.266  27.623  26.556  1.00  0.00     0.198 A 
ATOM     70  F   UNL A   1      41.905  29.573  27.706  1.00  0.00    -0.203 F 
ATOM     71  F   UNL A   1      39.233  24.816  27.609  1.00  0.00    -0.200 F 
ATOM     72  C   UNL A   1      40.591  26.413  26.523  1.00  0.00     0.200 A 
ATOM     73  F   UNL A   1      41.958  28.033  25.483  1.00  0.00    -0.200 F 
ATOM     74  F   UNL A   1      40.648  25.642  25.429  1.00  0.00    -0.200 F 
ENDBRANCH  50  64
BRANCH  51  75
ATOM     75  C   UNL A   1      39.516  33.906  36.838  1.00  0.00     0.064 A 
ATOM     76  C   UNL A   1      40.131  35.163  36.917  1.00  0.00     0.173 A 
ATOM     77  C   UNL A   1      38.759  33.481  37.940  1.00  0.00     0.173 A 
ATOM     78  F   UNL A   1      40.883  35.606  35.899  1.00  0.00    -0.203 F 
ATOM     79  C   UNL A   1      40.013  35.953  38.060  1.00  0.00     0.198 A 
ATOM     80  C   UNL A   1      38.615  34.285  39.069  1.00  0.00     0.198 A 
ATOM     81  F   UNL A   1      38.147  32.287  37.914  1.00  0.00    -0.203 F 
ATOM     82  F   UNL A   1      40.651  37.129  38.127  1.00  0.00    -0.200 F 
ATOM     83  C   UNL A   1      39.250  35.516  39.132  1.00  0.00     0.200 A 
ATOM     84  F   UNL A   1      37.865  33.865  40.097  1.00  0.00    -0.200 F 
ATOM     85  F   UNL A   1      39.133  36.278  40.229  1.00  0.00    -0.200 F 
ENDBRANCH  51  75
BRANCH  63  86
ATOM     86  C   UNL A   1      43.946  28.808  35.112  1.00  0.00     0.064 A 
ATOM     87  C   UNL A   1      43.806  27.684  35.940  1.00  0.00     0.173 A 
ATOM     88  C   UNL A   1      45.234  29.333  34.930  1.00  0.00     0.173 A 
ATOM     89  F   UNL A   1      42.594  27.152  36.158  1.00  0.00    -0.203 F 
ATOM     90  C   UNL A   1      44.909  27.127  36.582  1.00  0.00     0.198 A 
ATOM     91  C   UNL A   1      46.340  28.753  35.546  1.00  0.00     0.198 A 
ATOM     92  F   UNL A   1      45.424  30.403  34.143  1.00  0.00    -0.203 F 
ATOM     93  F   UNL A   1      44.745  26.086  37.409  1.00  0.00    -0.200 F 
ATOM     94  C   UNL A   1      46.175  27.656  36.377  1.00  0.00     0.200 A 
ATOM     95  F   UNL A   1      47.564  29.256  35.334  1.00  0.00    -0.200 F 
ATOM     96  F   UNL A   1      47.236  27.113  36.988  1.00  0.00    -0.200 F 
ENDBRANCH  63  86
ENDBRANCH  37  38
ENDBRANCH  29  32
ENDBRANCH  27  28
ENDBRANCH  26  27
ENDBRANCH  25  26
ENDBRANCH   1  25
TORSDOF 15
ENDMDL
