MODEL 1
REMARK VINA RESULT:     -11.1      0.000      0.000
REMARK SMILES COc1ccc(Cc2nc(C)c(CC(=O)NCCCCCCNC(=O)c3ccc(-c4c5nc(c(-c6c(F)c(F)c(F)c(F)c6F)c6ccc([nH]6)c(-c6c(F)c(F)c(F)c(F)c6F)c6nc(c(-c7c(F)c(F)c(F)c(F)c7F)c7ccc4[nH]7)C=C6)C=C5)cc3)c(=O)[nH]2)cc1OC
REMARK SMILES IDX 18 1 17 2 16 3 14 4 15 5 13 7 12 8 8 9 9 10 91 11 10 12
REMARK SMILES IDX 89 13 11 15 90 16 7 17 6 18 3 19 4 20 93 21 5 22 92 23 2 24
REMARK SMILES IDX 1 25 94 26 95 27 19 28 20 29 21 30 22 31 23 32 24 33 25 35
REMARK SMILES IDX 26 36 27 37 88 38 28 39 87 40 29 41 30 42 31 43 81 44 32 45
REMARK SMILES IDX 86 46 80 47 82 48 33 49 85 50 79 51 78 52 34 54 66 55 46 56
REMARK SMILES IDX 65 57 47 58 50 59 64 60 83 61 48 62 49 63 63 65 84 66 51 67
REMARK SMILES IDX 35 68 36 69 44 70 37 71 38 72 42 73 45 74 39 75 40 76 43 77
REMARK SMILES IDX 41 78 67 79 68 80 76 81 69 82 70 83 74 84 77 85 71 86 72 87
REMARK SMILES IDX 75 88 73 89 52 90 53 91 61 92 54 93 55 94 59 95 62 96 56 97
REMARK SMILES IDX 57 98 60 99 58 100
REMARK H PARENT 16 6 91 14 23 34 82 53 50 64
REMARK Flexibility Score: inf
ROOT
ATOM      1  C   UNL A   1      35.433  32.865  28.170  1.00  0.00     0.021 C 
ENDROOT
BRANCH   1   2
ATOM      2  C   UNL A   1      34.338  31.953  27.621  1.00  0.00     0.116 C 
BRANCH   2   3
ATOM      3  N   UNL A   1      34.778  30.578  27.551  1.00  0.00    -0.356 N 
ATOM      4  C   UNL A   1      34.285  29.531  26.828  1.00  0.00     0.224 C 
ATOM      5  O   UNL A   1      34.884  28.456  26.902  1.00  0.00    -0.275 OA
ATOM      6  H   UNL A   1      35.557  30.361  28.113  1.00  0.00     0.163 HD
BRANCH   4   7
ATOM      7  C   UNL A   1      33.111  29.720  25.864  1.00  0.00     0.143 C 
BRANCH   7   8
ATOM      8  C   UNL A   1      32.721  28.490  25.096  1.00  0.00     0.048 A 
ATOM      9  C   UNL A   1      32.165  26.237  23.632  1.00  0.00     0.113 A 
ATOM     10  N   UNL A   1      31.785  26.290  24.867  1.00  0.00    -0.239 NA
ATOM     11  N   UNL A   1      32.811  27.270  23.019  1.00  0.00    -0.310 N 
ATOM     12  C   UNL A   1      32.010  27.446  25.573  1.00  0.00     0.049 A 
ATOM     13  C   UNL A   1      33.139  28.414  23.677  1.00  0.00     0.254 A 
ATOM     14  H   UNL A   1      33.049  27.184  22.067  1.00  0.00     0.171 HD
ATOM     15  C   UNL A   1      31.399  27.438  26.953  1.00  0.00     0.067 C 
ATOM     16  O   UNL A   1      33.742  29.324  23.113  1.00  0.00    -0.269 OA
BRANCH   9  17
ATOM     17  C   UNL A   1      31.945  24.983  22.807  1.00  0.00     0.111 C 
BRANCH  17  18
ATOM     18  C   UNL A   1      32.786  23.814  23.266  1.00  0.00    -0.037 A 
ATOM     19  C   UNL A   1      34.333  21.648  24.183  1.00  0.00     0.160 A 
ATOM     20  C   UNL A   1      34.940  22.872  23.872  1.00  0.00     0.051 A 
ATOM     21  C   UNL A   1      32.948  21.498  24.041  1.00  0.00     0.161 A 
ATOM     22  C   UNL A   1      34.174  23.940  23.404  1.00  0.00     0.008 A 
ATOM     23  C   UNL A   1      32.190  22.587  23.585  1.00  0.00     0.054 A 
BRANCH  19  24
ATOM     24  O   UNL A   1      35.103  20.661  24.736  1.00  0.00    -0.493 OA
ATOM     25  C   UNL A   1      36.274  21.175  25.367  1.00  0.00     0.278 C 
ENDBRANCH  19  24
BRANCH  21  26
ATOM     26  O   UNL A   1      32.182  20.397  24.319  1.00  0.00    -0.493 OA
ATOM     27  C   UNL A   1      32.306  19.269  23.467  1.00  0.00     0.278 C 
ENDBRANCH  21  26
ENDBRANCH  17  18
ENDBRANCH   9  17
ENDBRANCH   7   8
ENDBRANCH   4   7
ENDBRANCH   2   3
ENDBRANCH   1   2
BRANCH   1  28
ATOM     28  C   UNL A   1      34.891  34.077  28.937  1.00  0.00     0.002 C 
BRANCH  28  29
ATOM     29  C   UNL A   1      33.376  34.290  28.821  1.00  0.00     0.002 C 
BRANCH  29  30
ATOM     30  C   UNL A   1      32.933  35.753  28.741  1.00  0.00     0.021 C 
BRANCH  30  31
ATOM     31  C   UNL A   1      33.322  36.596  29.950  1.00  0.00     0.116 C 
BRANCH  31  32
ATOM     32  N   UNL A   1      32.366  36.459  31.037  1.00  0.00    -0.352 N 
ATOM     33  C   UNL A   1      32.420  35.660  32.149  1.00  0.00     0.251 C 
ATOM     34  H   UNL A   1      31.563  37.023  30.964  1.00  0.00     0.163 HD
ATOM     35  O   UNL A   1      31.423  35.519  32.855  1.00  0.00    -0.269 OA
BRANCH  33  36
ATOM     36  C   UNL A   1      33.672  34.958  32.499  1.00  0.00     0.039 A 
ATOM     37  C   UNL A   1      33.609  33.614  32.873  1.00  0.00     0.014 A 
ATOM     38  C   UNL A   1      34.899  35.629  32.493  1.00  0.00     0.014 A 
ATOM     39  C   UNL A   1      34.781  32.932  33.202  1.00  0.00     0.010 A 
ATOM     40  C   UNL A   1      36.074  34.927  32.744  1.00  0.00     0.010 A 
ATOM     41  C   UNL A   1      36.026  33.576  33.118  1.00  0.00    -0.014 A 
BRANCH  41  42
ATOM     42  C   UNL A   1      37.282  32.859  33.449  1.00  0.00     0.031 A 
ATOM     43  C   UNL A   1      38.007  33.161  34.733  1.00  0.00     0.074 A 
ATOM     44  C   UNL A   1      37.794  31.971  32.576  1.00  0.00     0.049 A 
ATOM     45  N   UNL A   1      39.137  32.675  35.181  1.00  0.00    -0.248 NA
ATOM     46  C   UNL A   1      37.396  34.165  35.618  1.00  0.00     0.031 C 
ATOM     47  C   UNL A   1      37.209  31.628  31.279  1.00  0.00     0.029 A 
ATOM     48  N   UNL A   1      38.927  31.200  32.644  1.00  0.00    -0.354 N 
ATOM     49  C   UNL A   1      39.375  33.320  36.386  1.00  0.00     0.074 A 
ATOM     50  C   UNL A   1      38.307  34.277  36.571  1.00  0.00     0.031 C 
ATOM     51  C   UNL A   1      37.971  30.695  30.686  1.00  0.00     0.029 A 
ATOM     52  C   UNL A   1      39.116  30.402  31.542  1.00  0.00     0.049 A 
ATOM     53  H   UNL A   1      39.545  31.215  33.410  1.00  0.00     0.167 HD
ATOM     54  C   UNL A   1      40.379  33.115  37.274  1.00  0.00     0.037 A 
ATOM     55  C   UNL A   1      40.105  29.534  31.256  1.00  0.00     0.037 A 
ATOM     56  C   UNL A   1      41.426  32.144  37.095  1.00  0.00     0.049 A 
ATOM     57  C   UNL A   1      41.210  29.326  32.257  1.00  0.00     0.074 A 
ATOM     58  C   UNL A   1      42.459  31.820  37.958  1.00  0.00     0.029 A 
ATOM     59  N   UNL A   1      41.575  31.340  35.974  1.00  0.00    -0.354 N 
ATOM     60  N   UNL A   1      41.387  29.892  33.427  1.00  0.00    -0.248 NA
ATOM     61  C   UNL A   1      42.246  28.346  31.902  1.00  0.00     0.031 C 
ATOM     62  C   UNL A   1      43.262  30.858  37.337  1.00  0.00     0.029 A 
ATOM     63  C   UNL A   1      42.695  30.536  36.114  1.00  0.00     0.049 A 
ATOM     64  H   UNL A   1      40.974  31.341  35.195  1.00  0.00     0.167 HD
ATOM     65  C   UNL A   1      42.531  29.314  33.961  1.00  0.00     0.074 A 
ATOM     66  C   UNL A   1      42.998  28.343  32.994  1.00  0.00     0.031 C 
ATOM     67  C   UNL A   1      43.140  29.565  35.147  1.00  0.00     0.037 A 
BRANCH  54  68
ATOM     68  C   UNL A   1      40.389  33.956  38.518  1.00  0.00     0.064 A 
ATOM     69  C   UNL A   1      39.700  33.567  39.678  1.00  0.00     0.173 A 
ATOM     70  C   UNL A   1      41.122  35.152  38.564  1.00  0.00     0.173 A 
ATOM     71  F   UNL A   1      38.974  32.439  39.686  1.00  0.00    -0.203 F 
ATOM     72  C   UNL A   1      39.716  34.359  40.824  1.00  0.00     0.198 A 
ATOM     73  C   UNL A   1      41.163  35.925  39.722  1.00  0.00     0.198 A 
ATOM     74  F   UNL A   1      41.803  35.570  37.486  1.00  0.00    -0.203 F 
ATOM     75  F   UNL A   1      39.004  33.994  41.899  1.00  0.00    -0.200 F 
ATOM     76  C   UNL A   1      40.454  35.533  40.847  1.00  0.00     0.200 A 
ATOM     77  F   UNL A   1      41.888  37.051  39.748  1.00  0.00    -0.200 F 
ATOM     78  F   UNL A   1      40.474  36.291  41.951  1.00  0.00    -0.200 F 
ENDBRANCH  54  68
BRANCH  55  79
ATOM     79  C   UNL A   1      40.080  28.772  29.979  1.00  0.00     0.064 A 
ATOM     80  C   UNL A   1      39.482  27.507  29.906  1.00  0.00     0.173 A 
ATOM     81  C   UNL A   1      40.660  29.287  28.811  1.00  0.00     0.173 A 
ATOM     82  F   UNL A   1      38.930  26.964  31.001  1.00  0.00    -0.203 F 
ATOM     83  C   UNL A   1      39.487  26.774  28.721  1.00  0.00     0.198 A 
ATOM     84  C   UNL A   1      40.637  28.567  27.618  1.00  0.00     0.198 A 
ATOM     85  F   UNL A   1      41.240  30.497  28.824  1.00  0.00    -0.203 F 
ATOM     86  F   UNL A   1      38.953  25.545  28.693  1.00  0.00    -0.200 F 
ATOM     87  C   UNL A   1      40.060  27.308  27.576  1.00  0.00     0.200 A 
ATOM     88  F   UNL A   1      41.178  29.093  26.510  1.00  0.00    -0.200 F 
ATOM     89  F   UNL A   1      40.063  26.604  26.436  1.00  0.00    -0.200 F 
ENDBRANCH  55  79
BRANCH  67  90
ATOM     90  C   UNL A   1      44.350  28.742  35.486  1.00  0.00     0.064 A 
ATOM     91  C   UNL A   1      44.251  27.528  36.183  1.00  0.00     0.173 A 
ATOM     92  C   UNL A   1      45.627  29.162  35.081  1.00  0.00     0.173 A 
ATOM     93  F   UNL A   1      43.055  27.088  36.604  1.00  0.00    -0.203 F 
ATOM     94  C   UNL A   1      45.386  26.784  36.489  1.00  0.00     0.198 A 
ATOM     95  C   UNL A   1      46.756  28.398  35.358  1.00  0.00     0.198 A 
ATOM     96  F   UNL A   1      45.777  30.312  34.405  1.00  0.00    -0.203 F 
ATOM     97  F   UNL A   1      45.273  25.656  37.205  1.00  0.00    -0.200 F 
ATOM     98  C   UNL A   1      46.636  27.215  36.071  1.00  0.00     0.200 A 
ATOM     99  F   UNL A   1      47.961  28.808  34.939  1.00  0.00    -0.200 F 
ATOM    100  F   UNL A   1      47.727  26.493  36.362  1.00  0.00    -0.200 F 
ENDBRANCH  67  90
ENDBRANCH  41  42
ENDBRANCH  33  36
ENDBRANCH  31  32
ENDBRANCH  30  31
ENDBRANCH  29  30
ENDBRANCH  28  29
ENDBRANCH   1  28
TORSDOF 18
ENDMDL
MODEL 2
REMARK VINA RESULT:     -11.0      0.793      2.033
REMARK SMILES COc1ccc(Cc2nc(C)c(CC(=O)NCCCCCCNC(=O)c3ccc(-c4c5nc(c(-c6c(F)c(F)c(F)c(F)c6F)c6ccc([nH]6)c(-c6c(F)c(F)c(F)c(F)c6F)c6nc(c(-c7c(F)c(F)c(F)c(F)c7F)c7ccc4[nH]7)C=C6)C=C5)cc3)c(=O)[nH]2)cc1OC
REMARK SMILES IDX 18 1 17 2 16 3 14 4 15 5 13 7 12 8 8 9 9 10 91 11 10 12
REMARK SMILES IDX 89 13 11 15 90 16 7 17 6 18 3 19 4 20 93 21 5 22 92 23 2 24
REMARK SMILES IDX 1 25 94 26 95 27 19 28 20 29 21 30 22 31 23 32 24 33 25 35
REMARK SMILES IDX 26 36 27 37 88 38 28 39 87 40 29 41 30 42 31 43 81 44 32 45
REMARK SMILES IDX 86 46 80 47 82 48 33 49 85 50 79 51 78 52 34 54 66 55 46 56
REMARK SMILES IDX 65 57 47 58 50 59 64 60 83 61 48 62 49 63 63 65 84 66 51 67
REMARK SMILES IDX 35 68 36 69 44 70 37 71 38 72 42 73 45 74 39 75 40 76 43 77
REMARK SMILES IDX 41 78 67 79 68 80 76 81 69 82 70 83 74 84 77 85 71 86 72 87
REMARK SMILES IDX 75 88 73 89 52 90 53 91 61 92 54 93 55 94 59 95 62 96 56 97
REMARK SMILES IDX 57 98 60 99 58 100
REMARK H PARENT 16 6 91 14 23 34 82 53 50 64
REMARK Flexibility Score: inf
ROOT
ATOM      1  C   UNL A   1      33.971  31.572  27.973  1.00  0.00     0.021 C 
ENDROOT
BRANCH   1   2
ATOM      2  C   UNL A   1      33.875  30.337  27.079  1.00  0.00     0.116 C 
BRANCH   2   3
ATOM      3  N   UNL A   1      33.122  29.279  27.714  1.00  0.00    -0.356 N 
ATOM      4  C   UNL A   1      32.118  28.496  27.224  1.00  0.00     0.224 C 
ATOM      5  O   UNL A   1      31.673  27.613  27.961  1.00  0.00    -0.275 OA
ATOM      6  H   UNL A   1      33.372  29.093  28.649  1.00  0.00     0.163 HD
BRANCH   4   7
ATOM      7  C   UNL A   1      31.653  28.625  25.771  1.00  0.00     0.143 C 
BRANCH   7   8
ATOM      8  C   UNL A   1      32.034  27.476  24.882  1.00  0.00     0.048 A 
ATOM      9  C   UNL A   1      32.888  25.396  23.309  1.00  0.00     0.113 A 
ATOM     10  N   UNL A   1      31.821  25.243  24.025  1.00  0.00    -0.239 NA
ATOM     11  N   UNL A   1      33.593  26.563  23.287  1.00  0.00    -0.310 N 
ATOM     12  C   UNL A   1      31.365  26.310  24.759  1.00  0.00     0.049 A 
ATOM     13  C   UNL A   1      33.247  27.636  24.048  1.00  0.00     0.254 A 
ATOM     14  H   UNL A   1      34.381  26.631  22.699  1.00  0.00     0.171 HD
ATOM     15  C   UNL A   1      30.041  26.054  25.437  1.00  0.00     0.067 C 
ATOM     16  O   UNL A   1      33.909  28.671  24.031  1.00  0.00    -0.269 OA
BRANCH   9  17
ATOM     17  C   UNL A   1      33.437  24.249  22.484  1.00  0.00     0.111 C 
BRANCH  17  18
ATOM     18  C   UNL A   1      33.487  22.942  23.240  1.00  0.00    -0.037 A 
ATOM     19  C   UNL A   1      33.626  20.486  24.610  1.00  0.00     0.160 A 
ATOM     20  C   UNL A   1      32.609  20.720  23.677  1.00  0.00     0.051 A 
ATOM     21  C   UNL A   1      34.584  21.476  24.865  1.00  0.00     0.161 A 
ATOM     22  C   UNL A   1      32.531  21.943  23.009  1.00  0.00     0.008 A 
ATOM     23  C   UNL A   1      34.502  22.694  24.172  1.00  0.00     0.054 A 
BRANCH  19  24
ATOM     24  O   UNL A   1      33.727  19.240  25.166  1.00  0.00    -0.493 OA
ATOM     25  C   UNL A   1      32.483  18.542  25.162  1.00  0.00     0.278 C 
ENDBRANCH  19  24
BRANCH  21  26
ATOM     26  O   UNL A   1      35.657  21.419  25.714  1.00  0.00    -0.493 OA
ATOM     27  C   UNL A   1      36.884  21.981  25.274  1.00  0.00     0.278 C 
ENDBRANCH  21  26
ENDBRANCH  17  18
ENDBRANCH   9  17
ENDBRANCH   7   8
ENDBRANCH   4   7
ENDBRANCH   2   3
ENDBRANCH   1   2
BRANCH   1  28
ATOM     28  C   UNL A   1      32.923  32.643  27.647  1.00  0.00     0.002 C 
BRANCH  28  29
ATOM     29  C   UNL A   1      33.365  34.085  27.920  1.00  0.00     0.002 C 
BRANCH  29  30
ATOM     30  C   UNL A   1      33.390  34.487  29.398  1.00  0.00     0.021 C 
BRANCH  30  31
ATOM     31  C   UNL A   1      33.239  35.984  29.646  1.00  0.00     0.116 C 
BRANCH  31  32
ATOM     32  N   UNL A   1      32.472  36.259  30.850  1.00  0.00    -0.352 N 
ATOM     33  C   UNL A   1      32.649  35.787  32.123  1.00  0.00     0.251 C 
ATOM     34  H   UNL A   1      31.714  36.877  30.733  1.00  0.00     0.163 HD
ATOM     35  O   UNL A   1      31.777  35.962  32.973  1.00  0.00    -0.269 OA
BRANCH  33  36
ATOM     36  C   UNL A   1      33.884  35.057  32.480  1.00  0.00     0.039 A 
ATOM     37  C   UNL A   1      33.779  33.750  32.962  1.00  0.00     0.014 A 
ATOM     38  C   UNL A   1      35.136  35.668  32.373  1.00  0.00     0.014 A 
ATOM     39  C   UNL A   1      34.934  33.043  33.299  1.00  0.00     0.010 A 
ATOM     40  C   UNL A   1      36.290  34.935  32.633  1.00  0.00     0.010 A 
ATOM     41  C   UNL A   1      36.200  33.621  33.115  1.00  0.00    -0.014 A 
BRANCH  41  42
ATOM     42  C   UNL A   1      37.438  32.875  33.454  1.00  0.00     0.031 A 
ATOM     43  C   UNL A   1      38.174  33.175  34.732  1.00  0.00     0.074 A 
ATOM     44  C   UNL A   1      37.925  31.963  32.591  1.00  0.00     0.049 A 
ATOM     45  N   UNL A   1      39.291  32.664  35.184  1.00  0.00    -0.248 NA
ATOM     46  C   UNL A   1      37.590  34.206  35.605  1.00  0.00     0.031 C 
ATOM     47  C   UNL A   1      37.328  31.619  31.299  1.00  0.00     0.029 A 
ATOM     48  N   UNL A   1      39.036  31.162  32.667  1.00  0.00    -0.354 N 
ATOM     49  C   UNL A   1      39.548  33.318  36.381  1.00  0.00     0.074 A 
ATOM     50  C   UNL A   1      38.507  34.306  36.556  1.00  0.00     0.031 C 
ATOM     51  C   UNL A   1      38.064  30.659  30.717  1.00  0.00     0.029 A 
ATOM     52  C   UNL A   1      39.203  30.346  31.575  1.00  0.00     0.049 A 
ATOM     53  H   UNL A   1      39.656  31.172  33.432  1.00  0.00     0.167 HD
ATOM     54  C   UNL A   1      40.548  33.097  37.270  1.00  0.00     0.037 A 
ATOM     55  C   UNL A   1      40.167  29.448  31.299  1.00  0.00     0.037 A 
ATOM     56  C   UNL A   1      41.569  32.097  37.102  1.00  0.00     0.049 A 
ATOM     57  C   UNL A   1      41.268  29.224  32.300  1.00  0.00     0.074 A 
ATOM     58  C   UNL A   1      42.594  31.757  37.967  1.00  0.00     0.029 A 
ATOM     59  N   UNL A   1      41.694  31.275  35.991  1.00  0.00    -0.354 N 
ATOM     60  N   UNL A   1      41.463  29.800  33.463  1.00  0.00    -0.248 NA
ATOM     61  C   UNL A   1      42.278  28.212  31.957  1.00  0.00     0.031 C 
ATOM     62  C   UNL A   1      43.370  30.766  37.357  1.00  0.00     0.029 A 
ATOM     63  C   UNL A   1      42.793  30.444  36.139  1.00  0.00     0.049 A 
ATOM     64  H   UNL A   1      41.092  31.282  35.212  1.00  0.00     0.167 HD
ATOM     65  C   UNL A   1      42.592  29.199  34.002  1.00  0.00     0.074 A 
ATOM     66  C   UNL A   1      43.031  28.203  33.047  1.00  0.00     0.031 C 
ATOM     67  C   UNL A   1      43.210  29.449  35.184  1.00  0.00     0.037 A 
BRANCH  54  68
ATOM     68  C   UNL A   1      40.583  33.954  38.503  1.00  0.00     0.064 A 
ATOM     69  C   UNL A   1      41.327  35.144  38.555  1.00  0.00     0.173 A 
ATOM     70  C   UNL A   1      39.838  33.599  39.639  1.00  0.00     0.173 A 
ATOM     71  F   UNL A   1      42.066  35.524  37.502  1.00  0.00    -0.203 F 
ATOM     72  C   UNL A   1      41.352  35.926  39.707  1.00  0.00     0.198 A 
ATOM     73  C   UNL A   1      39.839  34.402  40.777  1.00  0.00     0.198 A 
ATOM     74  F   UNL A   1      39.105  32.475  39.643  1.00  0.00    -0.203 F 
ATOM     75  F   UNL A   1      42.115  37.027  39.751  1.00  0.00    -0.200 F 
ATOM     76  C   UNL A   1      40.602  35.559  40.814  1.00  0.00     0.200 A 
ATOM     77  F   UNL A   1      39.103  34.053  41.840  1.00  0.00    -0.200 F 
ATOM     78  F   UNL A   1      40.622  36.315  41.919  1.00  0.00    -0.200 F 
ENDBRANCH  54  68
BRANCH  55  79
ATOM     79  C   UNL A   1      40.120  28.672  30.031  1.00  0.00     0.064 A 
ATOM     80  C   UNL A   1      39.494  27.419  29.977  1.00  0.00     0.173 A 
ATOM     81  C   UNL A   1      40.704  29.159  28.854  1.00  0.00     0.173 A 
ATOM     82  F   UNL A   1      38.936  26.901  31.082  1.00  0.00    -0.203 F 
ATOM     83  C   UNL A   1      39.478  26.671  28.802  1.00  0.00     0.198 A 
ATOM     84  C   UNL A   1      40.660  28.425  27.671  1.00  0.00     0.198 A 
ATOM     85  F   UNL A   1      41.310  30.356  28.849  1.00  0.00    -0.203 F 
ATOM     86  F   UNL A   1      38.918  25.453  28.793  1.00  0.00    -0.200 F 
ATOM     87  C   UNL A   1      40.056  27.178  27.648  1.00  0.00     0.200 A 
ATOM     88  F   UNL A   1      41.206  28.925  26.553  1.00  0.00    -0.200 F 
ATOM     89  F   UNL A   1      40.038  26.460  26.517  1.00  0.00    -0.200 F 
ENDBRANCH  55  79
BRANCH  67  90
ATOM     90  C   UNL A   1      44.399  28.598  35.532  1.00  0.00     0.064 A 
ATOM     91  C   UNL A   1      45.704  28.968  35.177  1.00  0.00     0.173 A 
ATOM     92  C   UNL A   1      44.228  27.410  36.259  1.00  0.00     0.173 A 
ATOM     93  F   UNL A   1      45.920  30.088  34.471  1.00  0.00    -0.203 F 
ATOM     94  C   UNL A   1      46.791  28.163  35.509  1.00  0.00     0.198 A 
ATOM     95  C   UNL A   1      45.320  26.626  36.619  1.00  0.00     0.198 A 
ATOM     96  F   UNL A   1      43.001  27.014  36.631  1.00  0.00    -0.203 F 
ATOM     97  F   UNL A   1      48.024  28.508  35.109  1.00  0.00    -0.200 F 
ATOM     98  C   UNL A   1      46.599  26.997  36.234  1.00  0.00     0.200 A 
ATOM     99  F   UNL A   1      45.134  25.508  37.335  1.00  0.00    -0.200 F 
ATOM    100  F   UNL A   1      47.647  26.227  36.557  1.00  0.00    -0.200 F 
ENDBRANCH  67  90
ENDBRANCH  41  42
ENDBRANCH  33  36
ENDBRANCH  31  32
ENDBRANCH  30  31
ENDBRANCH  29  30
ENDBRANCH  28  29
ENDBRANCH   1  28
TORSDOF 18
ENDMDL
MODEL 3
REMARK VINA RESULT:     -10.9      5.165     10.630
REMARK SMILES COc1ccc(Cc2nc(C)c(CC(=O)NCCCCCCNC(=O)c3ccc(-c4c5nc(c(-c6c(F)c(F)c(F)c(F)c6F)c6ccc([nH]6)c(-c6c(F)c(F)c(F)c(F)c6F)c6nc(c(-c7c(F)c(F)c(F)c(F)c7F)c7ccc4[nH]7)C=C6)C=C5)cc3)c(=O)[nH]2)cc1OC
REMARK SMILES IDX 18 1 17 2 16 3 14 4 15 5 13 7 12 8 8 9 9 10 91 11 10 12
REMARK SMILES IDX 89 13 11 15 90 16 7 17 6 18 3 19 4 20 93 21 5 22 92 23 2 24
REMARK SMILES IDX 1 25 94 26 95 27 19 28 20 29 21 30 22 31 23 32 24 33 25 35
REMARK SMILES IDX 26 36 27 37 88 38 28 39 87 40 29 41 30 42 31 43 81 44 32 45
REMARK SMILES IDX 86 46 80 47 82 48 33 49 85 50 79 51 78 52 34 54 66 55 46 56
REMARK SMILES IDX 65 57 47 58 50 59 64 60 83 61 48 62 49 63 63 65 84 66 51 67
REMARK SMILES IDX 35 68 36 69 44 70 37 71 38 72 42 73 45 74 39 75 40 76 43 77
REMARK SMILES IDX 41 78 67 79 68 80 76 81 69 82 70 83 74 84 77 85 71 86 72 87
REMARK SMILES IDX 75 88 73 89 52 90 53 91 61 92 54 93 55 94 59 95 62 96 56 97
REMARK SMILES IDX 57 98 60 99 58 100
REMARK H PARENT 16 6 91 14 23 34 82 53 50 64
REMARK Flexibility Score: inf
ROOT
ATOM      1  C   UNL A   1      47.079  27.707  31.528  1.00  0.00     0.021 C 
ENDROOT
BRANCH   1   2
ATOM      2  C   UNL A   1      47.944  27.736  30.269  1.00  0.00     0.116 C 
BRANCH   2   3
ATOM      3  N   UNL A   1      47.187  28.159  29.113  1.00  0.00    -0.356 N 
ATOM      4  C   UNL A   1      47.204  27.694  27.831  1.00  0.00     0.224 C 
ATOM      5  O   UNL A   1      46.408  28.194  27.033  1.00  0.00    -0.275 OA
ATOM      6  H   UNL A   1      46.558  28.899  29.276  1.00  0.00     0.163 HD
BRANCH   4   7
ATOM      7  C   UNL A   1      48.087  26.510  27.431  1.00  0.00     0.143 C 
BRANCH   7   8
ATOM      8  C   UNL A   1      47.455  25.548  26.467  1.00  0.00     0.048 A 
ATOM      9  C   UNL A   1      46.157  23.808  24.789  1.00  0.00     0.113 A 
ATOM     10  N   UNL A   1      46.905  24.731  24.277  1.00  0.00    -0.239 NA
ATOM     11  N   UNL A   1      46.009  23.649  26.135  1.00  0.00    -0.310 N 
ATOM     12  C   UNL A   1      47.601  25.557  25.124  1.00  0.00     0.049 A 
ATOM     13  C   UNL A   1      46.604  24.478  27.035  1.00  0.00     0.254 A 
ATOM     14  H   UNL A   1      45.450  22.909  26.468  1.00  0.00     0.171 HD
ATOM     15  C   UNL A   1      48.543  26.496  24.412  1.00  0.00     0.067 C 
ATOM     16  O   UNL A   1      46.439  24.332  28.243  1.00  0.00    -0.269 OA
BRANCH   9  17
ATOM     17  C   UNL A   1      45.363  22.872  23.898  1.00  0.00     0.111 C 
BRANCH  17  18
ATOM     18  C   UNL A   1      44.442  21.955  24.669  1.00  0.00    -0.037 A 
ATOM     19  C   UNL A   1      42.705  20.222  26.050  1.00  0.00     0.160 A 
ATOM     20  C   UNL A   1      42.363  21.567  25.863  1.00  0.00     0.051 A 
ATOM     21  C   UNL A   1      43.917  19.731  25.546  1.00  0.00     0.161 A 
ATOM     22  C   UNL A   1      43.231  22.429  25.191  1.00  0.00     0.008 A 
ATOM     23  C   UNL A   1      44.771  20.607  24.858  1.00  0.00     0.054 A 
BRANCH  19  24
ATOM     24  O   UNL A   1      41.783  19.388  26.622  1.00  0.00    -0.493 OA
ATOM     25  C   UNL A   1      40.466  19.610  26.119  1.00  0.00     0.278 C 
ENDBRANCH  19  24
BRANCH  21  26
ATOM     26  O   UNL A   1      44.404  18.453  25.608  1.00  0.00    -0.493 OA
ATOM     27  C   UNL A   1      45.809  18.272  25.511  1.00  0.00     0.278 C 
ENDBRANCH  21  26
ENDBRANCH  17  18
ENDBRANCH   9  17
ENDBRANCH   7   8
ENDBRANCH   4   7
ENDBRANCH   2   3
ENDBRANCH   1   2
BRANCH   1  28
ATOM     28  C   UNL A   1      46.976  26.317  32.165  1.00  0.00     0.002 C 
BRANCH  28  29
ATOM     29  C   UNL A   1      48.319  25.635  32.451  1.00  0.00     0.002 C 
BRANCH  29  30
ATOM     30  C   UNL A   1      48.784  25.706  33.909  1.00  0.00     0.021 C 
BRANCH  30  31
ATOM     31  C   UNL A   1      47.999  24.815  34.864  1.00  0.00     0.116 C 
BRANCH  31  32
ATOM     32  N   UNL A   1      47.977  25.354  36.215  1.00  0.00    -0.352 N 
ATOM     33  C   UNL A   1      47.226  26.374  36.734  1.00  0.00     0.251 C 
ATOM     34  H   UNL A   1      48.593  24.921  36.850  1.00  0.00     0.163 HD
ATOM     35  O   UNL A   1      47.492  26.833  37.844  1.00  0.00    -0.269 OA
BRANCH  33  36
ATOM     36  C   UNL A   1      46.099  26.935  35.961  1.00  0.00     0.039 A 
ATOM     37  C   UNL A   1      44.896  26.228  35.913  1.00  0.00     0.014 A 
ATOM     38  C   UNL A   1      46.236  28.135  35.256  1.00  0.00     0.014 A 
ATOM     39  C   UNL A   1      43.817  26.744  35.193  1.00  0.00     0.010 A 
ATOM     40  C   UNL A   1      45.137  28.687  34.605  1.00  0.00     0.010 A 
ATOM     41  C   UNL A   1      43.922  27.988  34.552  1.00  0.00    -0.014 A 
BRANCH  41  42
ATOM     42  C   UNL A   1      42.779  28.557  33.795  1.00  0.00     0.031 A 
ATOM     43  C   UNL A   1      41.788  29.453  34.486  1.00  0.00     0.074 A 
ATOM     44  C   UNL A   1      42.608  28.230  32.499  1.00  0.00     0.049 A 
ATOM     45  N   UNL A   1      40.703  30.012  34.010  1.00  0.00    -0.248 NA
ATOM     46  C   UNL A   1      42.032  29.737  35.909  1.00  0.00     0.031 C 
ATOM     47  C   UNL A   1      43.474  27.334  31.733  1.00  0.00     0.029 A 
ATOM     48  N   UNL A   1      41.643  28.610  31.601  1.00  0.00    -0.354 N 
ATOM     49  C   UNL A   1      40.134  30.699  35.074  1.00  0.00     0.074 A 
ATOM     50  C   UNL A   1      40.956  30.436  36.235  1.00  0.00     0.031 C 
ATOM     51  C   UNL A   1      43.017  27.254  30.472  1.00  0.00     0.029 A 
ATOM     52  C   UNL A   1      41.808  28.063  30.352  1.00  0.00     0.049 A 
ATOM     53  H   UNL A   1      40.902  29.217  31.829  1.00  0.00     0.167 HD
ATOM     54  C   UNL A   1      39.040  31.498  35.078  1.00  0.00     0.037 A 
ATOM     55  C   UNL A   1      41.065  28.198  29.237  1.00  0.00     0.037 A 
ATOM     56  C   UNL A   1      38.239  31.774  33.915  1.00  0.00     0.049 A 
ATOM     57  C   UNL A   1      39.852  29.089  29.269  1.00  0.00     0.074 A 
ATOM     58  C   UNL A   1      37.142  32.610  33.801  1.00  0.00     0.029 A 
ATOM     59  N   UNL A   1      38.448  31.216  32.661  1.00  0.00    -0.354 N 
ATOM     60  N   UNL A   1      39.362  29.789  30.264  1.00  0.00    -0.248 NA
ATOM     61  C   UNL A   1      39.096  29.219  28.015  1.00  0.00     0.031 C 
ATOM     62  C   UNL A   1      36.657  32.520  32.492  1.00  0.00     0.029 A 
ATOM     63  C   UNL A   1      37.488  31.674  31.774  1.00  0.00     0.049 A 
ATOM     64  H   UNL A   1      39.171  30.587  32.437  1.00  0.00     0.167 HD
ATOM     65  C   UNL A   1      38.266  30.467  29.750  1.00  0.00     0.074 A 
ATOM     66  C   UNL A   1      38.170  30.106  28.351  1.00  0.00     0.031 C 
ATOM     67  C   UNL A   1      37.414  31.314  30.380  1.00  0.00     0.037 A 
BRANCH  54  68
ATOM     68  C   UNL A   1      38.647  32.132  36.383  1.00  0.00     0.064 A 
ATOM     69  C   UNL A   1      38.987  33.459  36.691  1.00  0.00     0.173 A 
ATOM     70  C   UNL A   1      37.894  31.415  37.325  1.00  0.00     0.173 A 
ATOM     71  F   UNL A   1      39.717  34.185  35.831  1.00  0.00    -0.203 F 
ATOM     72  C   UNL A   1      38.619  34.032  37.906  1.00  0.00     0.198 A 
ATOM     73  C   UNL A   1      37.499  32.002  38.525  1.00  0.00     0.198 A 
ATOM     74  F   UNL A   1      37.537  30.144  37.081  1.00  0.00    -0.203 F 
ATOM     75  F   UNL A   1      39.005  35.281  38.199  1.00  0.00    -0.200 F 
ATOM     76  C   UNL A   1      37.869  33.306  38.818  1.00  0.00     0.200 A 
ATOM     77  F   UNL A   1      36.761  31.304  39.398  1.00  0.00    -0.200 F 
ATOM     78  F   UNL A   1      37.509  33.860  39.983  1.00  0.00    -0.200 F 
ENDBRANCH  54  68
BRANCH  55  79
ATOM     79  C   UNL A   1      41.463  27.495  27.988  1.00  0.00     0.064 A 
ATOM     80  C   UNL A   1      40.861  26.284  27.621  1.00  0.00     0.173 A 
ATOM     81  C   UNL A   1      42.454  28.013  27.143  1.00  0.00     0.173 A 
ATOM     82  F   UNL A   1      39.920  25.738  28.406  1.00  0.00    -0.203 F 
ATOM     83  C   UNL A   1      41.254  25.604  26.470  1.00  0.00     0.198 A 
ATOM     84  C   UNL A   1      42.824  27.348  25.976  1.00  0.00     0.198 A 
ATOM     85  F   UNL A   1      43.057  29.173  27.444  1.00  0.00    -0.203 F 
ATOM     86  F   UNL A   1      40.698  24.421  26.171  1.00  0.00    -0.200 F 
ATOM     87  C   UNL A   1      42.231  26.140  25.645  1.00  0.00     0.200 A 
ATOM     88  F   UNL A   1      43.758  27.877  25.173  1.00  0.00    -0.200 F 
ATOM     89  F   UNL A   1      42.608  25.487  24.538  1.00  0.00    -0.200 F 
ENDBRANCH  55  79
BRANCH  67  90
ATOM     90  C   UNL A   1      36.333  31.947  29.550  1.00  0.00     0.064 A 
ATOM     91  C   UNL A   1      35.268  31.201  29.025  1.00  0.00     0.173 A 
ATOM     92  C   UNL A   1      36.350  33.329  29.303  1.00  0.00     0.173 A 
ATOM     93  F   UNL A   1      35.212  29.875  29.221  1.00  0.00    -0.203 F 
ATOM     94  C   UNL A   1      34.279  31.808  28.256  1.00  0.00     0.198 A 
ATOM     95  C   UNL A   1      35.341  33.938  28.564  1.00  0.00     0.198 A 
ATOM     96  F   UNL A   1      37.342  34.091  29.790  1.00  0.00    -0.203 F 
ATOM     97  F   UNL A   1      33.302  31.066  27.717  1.00  0.00    -0.200 F 
ATOM     98  C   UNL A   1      34.313  33.176  28.032  1.00  0.00     0.200 A 
ATOM     99  F   UNL A   1      35.366  35.263  28.363  1.00  0.00    -0.200 F 
ATOM    100  F   UNL A   1      33.356  33.760  27.297  1.00  0.00    -0.200 F 
ENDBRANCH  67  90
ENDBRANCH  41  42
ENDBRANCH  33  36
ENDBRANCH  31  32
ENDBRANCH  30  31
ENDBRANCH  29  30
ENDBRANCH  28  29
ENDBRANCH   1  28
TORSDOF 18
ENDMDL
