MODEL 1
REMARK VINA RESULT:     -12.5      0.000      0.000
REMARK SMILES O=C(NCCCCCCNC(=O)[C@H]1CCCCN1c1ccnc2ccccc12)c1ccc(-c2c3nc(c(-c4c(F)c(F)c(F)c(F)c4F)c4ccc([nH]4)c(-c4c(F)c(F)c(F)c(F)c4F)c4nc(c(-c5c(F)c(F)c(F)c(F)c5F)c5ccc2[nH]5)C=C4)C=C3)cc1
REMARK SMILES IDX 6 1 5 2 4 3 3 4 1 5 2 6 29 8 30 9 91 10 31 11 90 12 32 13
REMARK SMILES IDX 33 14 34 15 84 16 35 17 89 18 83 19 85 20 36 21 88 22 82 23
REMARK SMILES IDX 81 24 37 26 69 27 49 28 68 29 50 30 53 31 67 32 86 33 51 34
REMARK SMILES IDX 52 35 66 37 87 38 54 39 38 40 39 41 47 42 40 43 41 44 45 45
REMARK SMILES IDX 48 46 42 47 43 48 46 49 44 50 70 51 71 52 79 53 72 54 73 55
REMARK SMILES IDX 77 56 80 57 74 58 75 59 78 60 76 61 55 62 56 63 64 64 57 65
REMARK SMILES IDX 58 66 62 67 65 68 59 69 60 70 63 71 61 72 7 73 8 74 9 75
REMARK SMILES IDX 10 76 11 77 12 79 13 80 14 81 18 82 15 83 17 84 16 85 19 86
REMARK SMILES IDX 20 87 28 88 21 89 23 90 27 91 22 92 24 93 26 94 25 95
REMARK H PARENT 3 7 85 25 53 36 10 78
REMARK Flexibility Score: inf
ROOT
ATOM      1  C   UNL A   1      31.616  30.884  26.270  1.00  0.00     0.002 C 
ENDROOT
BRANCH   1   2
ATOM      2  C   UNL A   1      31.403  32.281  26.851  1.00  0.00     0.021 C 
BRANCH   2   3
ATOM      3  C   UNL A   1      32.691  33.048  27.121  1.00  0.00     0.116 C 
BRANCH   3   4
ATOM      4  N   UNL A   1      32.433  34.348  27.718  1.00  0.00    -0.352 N 
ATOM      5  O   UNL A   1      32.528  35.935  29.320  1.00  0.00    -0.269 OA
ATOM      6  C   UNL A   1      33.009  34.920  28.819  1.00  0.00     0.251 C 
ATOM      7  H   UNL A   1      31.747  34.893  27.267  1.00  0.00     0.163 HD
BRANCH   6   8
ATOM      8  C   UNL A   1      34.209  34.303  29.418  1.00  0.00     0.039 A 
ATOM      9  C   UNL A   1      35.482  34.581  28.910  1.00  0.00     0.014 A 
ATOM     10  C   UNL A   1      34.056  33.452  30.514  1.00  0.00     0.014 A 
ATOM     11  C   UNL A   1      36.593  33.922  29.426  1.00  0.00     0.010 A 
ATOM     12  C   UNL A   1      35.179  32.850  31.079  1.00  0.00     0.010 A 
ATOM     13  C   UNL A   1      36.453  33.066  30.527  1.00  0.00    -0.014 A 
BRANCH  13  14
ATOM     14  C   UNL A   1      37.645  32.439  31.145  1.00  0.00     0.031 A 
ATOM     15  C   UNL A   1      38.333  31.285  30.481  1.00  0.00     0.074 A 
ATOM     16  C   UNL A   1      38.068  32.885  32.342  1.00  0.00     0.049 A 
ATOM     17  N   UNL A   1      39.311  30.536  30.926  1.00  0.00    -0.248 NA
ATOM     18  C   UNL A   1      37.851  30.913  29.143  1.00  0.00     0.031 C 
ATOM     19  C   UNL A   1      37.473  33.999  33.081  1.00  0.00     0.029 A 
ATOM     20  N   UNL A   1      39.080  32.445  33.156  1.00  0.00    -0.354 N 
ATOM     21  C   UNL A   1      39.543  29.589  29.937  1.00  0.00     0.074 A 
ATOM     22  C   UNL A   1      38.587  29.843  28.879  1.00  0.00     0.031 C 
ATOM     23  C   UNL A   1      38.127  34.155  34.240  1.00  0.00     0.029 A 
ATOM     24  C   UNL A   1      39.140  33.112  34.355  1.00  0.00     0.049 A 
ATOM     25  H   UNL A   1      39.701  31.723  32.907  1.00  0.00     0.167 HD
ATOM     26  C   UNL A   1      40.472  28.602  29.919  1.00  0.00     0.037 A 
ATOM     27  C   UNL A   1      39.894  32.882  35.445  1.00  0.00     0.037 A 
ATOM     28  C   UNL A   1      41.413  28.363  30.983  1.00  0.00     0.049 A 
ATOM     29  C   UNL A   1      40.885  31.753  35.425  1.00  0.00     0.074 A 
ATOM     30  C   UNL A   1      42.424  27.420  31.045  1.00  0.00     0.029 A 
ATOM     31  N   UNL A   1      41.446  29.063  32.182  1.00  0.00    -0.354 N 
ATOM     32  N   UNL A   1      41.129  30.889  34.470  1.00  0.00    -0.248 NA
ATOM     33  C   UNL A   1      41.704  31.566  36.629  1.00  0.00     0.031 C 
ATOM     34  C   UNL A   1      43.022  27.503  32.306  1.00  0.00     0.029 A 
ATOM     35  C   UNL A   1      42.437  28.549  33.004  1.00  0.00     0.049 A 
ATOM     36  H   UNL A   1      40.853  29.814  32.414  1.00  0.00     0.167 HD
ATOM     37  C   UNL A   1      42.148  30.075  34.942  1.00  0.00     0.074 A 
ATOM     38  C   UNL A   1      42.476  30.548  36.272  1.00  0.00     0.031 C 
ATOM     39  C   UNL A   1      42.761  29.037  34.323  1.00  0.00     0.037 A 
BRANCH  26  40
ATOM     40  C   UNL A   1      40.481  27.681  28.731  1.00  0.00     0.064 A 
ATOM     41  C   UNL A   1      41.271  27.934  27.599  1.00  0.00     0.173 A 
ATOM     42  C   UNL A   1      39.690  26.522  28.728  1.00  0.00     0.173 A 
ATOM     43  F   UNL A   1      42.042  29.030  27.544  1.00  0.00    -0.203 F 
ATOM     44  C   UNL A   1      41.231  27.089  26.492  1.00  0.00     0.198 A 
ATOM     45  C   UNL A   1      39.680  25.660  27.635  1.00  0.00     0.198 A 
ATOM     46  F   UNL A   1      38.923  26.223  29.787  1.00  0.00    -0.203 F 
ATOM     47  F   UNL A   1      41.942  27.389  25.396  1.00  0.00    -0.200 F 
ATOM     48  C   UNL A   1      40.440  25.950  26.512  1.00  0.00     0.200 A 
ATOM     49  F   UNL A   1      38.926  24.551  27.664  1.00  0.00    -0.200 F 
ATOM     50  F   UNL A   1      40.399  25.141  25.445  1.00  0.00    -0.200 F 
ENDBRANCH  26  40
BRANCH  27  51
ATOM     51  C   UNL A   1      39.714  33.743  36.640  1.00  0.00     0.064 A 
ATOM     52  C   UNL A   1      40.330  34.998  36.726  1.00  0.00     0.173 A 
ATOM     53  C   UNL A   1      38.867  33.356  37.691  1.00  0.00     0.173 A 
ATOM     54  F   UNL A   1      41.157  35.406  35.753  1.00  0.00    -0.203 F 
ATOM     55  C   UNL A   1      40.108  35.833  37.819  1.00  0.00     0.198 A 
ATOM     56  C   UNL A   1      38.624  34.203  38.768  1.00  0.00     0.198 A 
ATOM     57  F   UNL A   1      38.246  32.168  37.648  1.00  0.00    -0.203 F 
ATOM     58  F   UNL A   1      40.726  37.019  37.889  1.00  0.00    -0.200 F 
ATOM     59  C   UNL A   1      39.247  35.439  38.834  1.00  0.00     0.200 A 
ATOM     60  F   UNL A   1      37.774  33.828  39.735  1.00  0.00    -0.200 F 
ATOM     61  F   UNL A   1      39.017  36.253  39.873  1.00  0.00    -0.200 F 
ENDBRANCH  27  51
BRANCH  39  62
ATOM     62  C   UNL A   1      43.890  28.363  35.047  1.00  0.00     0.064 A 
ATOM     63  C   UNL A   1      43.684  27.238  35.860  1.00  0.00     0.173 A 
ATOM     64  C   UNL A   1      45.209  28.802  34.854  1.00  0.00     0.173 A 
ATOM     65  F   UNL A   1      42.441  26.789  36.090  1.00  0.00    -0.203 F 
ATOM     66  C   UNL A   1      44.758  26.583  36.456  1.00  0.00     0.198 A 
ATOM     67  C   UNL A   1      46.282  28.126  35.427  1.00  0.00     0.198 A 
ATOM     68  F   UNL A   1      45.459  29.871  34.083  1.00  0.00    -0.203 F 
ATOM     69  F   UNL A   1      44.538  25.527  37.253  1.00  0.00    -0.200 F 
ATOM     70  C   UNL A   1      46.055  27.019  36.230  1.00  0.00     0.200 A 
ATOM     71  F   UNL A   1      47.534  28.541  35.193  1.00  0.00    -0.200 F 
ATOM     72  F   UNL A   1      47.089  26.372  36.786  1.00  0.00    -0.200 F 
ENDBRANCH  39  62
ENDBRANCH  13  14
ENDBRANCH   6   8
ENDBRANCH   3   4
ENDBRANCH   2   3
ENDBRANCH   1   2
BRANCH   1  73
ATOM     73  C   UNL A   1      32.213  29.869  27.250  1.00  0.00     0.002 C 
BRANCH  73  74
ATOM     74  C   UNL A   1      33.746  29.793  27.251  1.00  0.00     0.021 C 
BRANCH  74  75
ATOM     75  C   UNL A   1      34.306  28.584  26.505  1.00  0.00     0.116 C 
BRANCH  75  76
ATOM     76  N   UNL A   1      34.286  28.822  25.077  1.00  0.00    -0.354 N 
ATOM     77  C   UNL A   1      33.490  28.271  24.114  1.00  0.00     0.242 C 
ATOM     78  H   UNL A   1      34.945  29.478  24.752  1.00  0.00     0.163 HD
ATOM     79  O   UNL A   1      33.812  28.484  22.943  1.00  0.00    -0.273 OA
BRANCH  77  80
ATOM     80  C   UNL A   1      32.213  27.503  24.543  1.00  0.00     0.171 C 
ATOM     81  C   UNL A   1      30.986  28.150  23.884  1.00  0.00     0.035 C 
ATOM     82  N   UNL A   1      32.259  26.084  24.165  1.00  0.00    -0.359 N 
ATOM     83  C   UNL A   1      30.958  27.892  22.376  1.00  0.00     0.004 C 
ATOM     84  C   UNL A   1      32.215  25.712  22.754  1.00  0.00     0.117 C 
ATOM     85  C   UNL A   1      31.028  26.396  22.073  1.00  0.00     0.022 C 
BRANCH  82  86
ATOM     86  C   UNL A   1      32.271  25.098  25.143  1.00  0.00     0.048 A 
ATOM     87  C   UNL A   1      31.066  24.725  25.741  1.00  0.00     0.046 A 
ATOM     88  C   UNL A   1      33.456  24.432  25.545  1.00  0.00     0.024 A 
ATOM     89  C   UNL A   1      31.065  23.703  26.669  1.00  0.00     0.114 A 
ATOM     90  C   UNL A   1      33.340  23.393  26.497  1.00  0.00     0.072 A 
ATOM     91  C   UNL A   1      34.744  24.772  25.065  1.00  0.00     0.012 A 
ATOM     92  N   UNL A   1      32.170  23.034  27.048  1.00  0.00    -0.256 NA
ATOM     93  C   UNL A   1      34.486  22.712  26.889  1.00  0.00     0.029 A 
ATOM     94  C   UNL A   1      35.879  24.080  25.483  1.00  0.00     0.001 A 
ATOM     95  C   UNL A   1      35.748  23.040  26.391  1.00  0.00     0.002 A 
ENDBRANCH  82  86
ENDBRANCH  77  80
ENDBRANCH  75  76
ENDBRANCH  74  75
ENDBRANCH  73  74
ENDBRANCH   1  73
TORSDOF 14
ENDMDL
MODEL 2
REMARK VINA RESULT:     -12.4      4.651      9.840
REMARK SMILES O=C(NCCCCCCNC(=O)[C@H]1CCCCN1c1ccnc2ccccc12)c1ccc(-c2c3nc(c(-c4c(F)c(F)c(F)c(F)c4F)c4ccc([nH]4)c(-c4c(F)c(F)c(F)c(F)c4F)c4nc(c(-c5c(F)c(F)c(F)c(F)c5F)c5ccc2[nH]5)C=C4)C=C3)cc1
REMARK SMILES IDX 6 1 5 2 4 3 3 4 1 5 2 6 29 8 30 9 91 10 31 11 90 12 32 13
REMARK SMILES IDX 33 14 34 15 84 16 35 17 89 18 83 19 85 20 36 21 88 22 82 23
REMARK SMILES IDX 81 24 37 26 69 27 49 28 68 29 50 30 53 31 67 32 86 33 51 34
REMARK SMILES IDX 52 35 66 37 87 38 54 39 38 40 39 41 47 42 40 43 41 44 45 45
REMARK SMILES IDX 48 46 42 47 43 48 46 49 44 50 70 51 71 52 79 53 72 54 73 55
REMARK SMILES IDX 77 56 80 57 74 58 75 59 78 60 76 61 55 62 56 63 64 64 57 65
REMARK SMILES IDX 58 66 62 67 65 68 59 69 60 70 63 71 61 72 7 73 8 74 9 75
REMARK SMILES IDX 10 76 11 77 12 79 13 80 14 81 18 82 15 83 17 84 16 85 19 86
REMARK SMILES IDX 20 87 28 88 21 89 23 90 27 91 22 92 24 93 26 94 25 95
REMARK H PARENT 3 7 85 25 53 36 10 78
REMARK Flexibility Score: inf
ROOT
ATOM      1  C   UNL A   1      42.481  22.903  26.163  1.00  0.00     0.002 C 
ENDROOT
BRANCH   1   2
ATOM      2  C   UNL A   1      41.675  21.604  26.146  1.00  0.00     0.021 C 
BRANCH   2   3
ATOM      3  C   UNL A   1      40.325  21.699  26.845  1.00  0.00     0.116 C 
BRANCH   3   4
ATOM      4  N   UNL A   1      39.271  22.115  25.934  1.00  0.00    -0.352 N 
ATOM      5  O   UNL A   1      37.576  23.412  25.200  1.00  0.00    -0.269 OA
ATOM      6  C   UNL A   1      38.585  23.298  25.894  1.00  0.00     0.251 C 
ATOM      7  H   UNL A   1      39.015  21.453  25.252  1.00  0.00     0.163 HD
BRANCH   6   8
ATOM      8  C   UNL A   1      39.052  24.440  26.704  1.00  0.00     0.039 A 
ATOM      9  C   UNL A   1      39.820  25.457  26.126  1.00  0.00     0.014 A 
ATOM     10  C   UNL A   1      38.699  24.502  28.053  1.00  0.00     0.014 A 
ATOM     11  C   UNL A   1      40.328  26.478  26.921  1.00  0.00     0.010 A 
ATOM     12  C   UNL A   1      39.147  25.567  28.833  1.00  0.00     0.010 A 
ATOM     13  C   UNL A   1      39.981  26.552  28.277  1.00  0.00    -0.014 A 
BRANCH  13  14
ATOM     14  C   UNL A   1      40.437  27.692  29.107  1.00  0.00     0.031 A 
ATOM     15  C   UNL A   1      41.764  27.650  29.802  1.00  0.00     0.074 A 
ATOM     16  C   UNL A   1      39.616  28.745  29.274  1.00  0.00     0.049 A 
ATOM     17  N   UNL A   1      42.278  28.496  30.659  1.00  0.00    -0.248 NA
ATOM     18  C   UNL A   1      42.626  26.497  29.503  1.00  0.00     0.031 C 
ATOM     19  C   UNL A   1      38.301  28.892  28.648  1.00  0.00     0.029 A 
ATOM     20  N   UNL A   1      39.754  29.878  30.033  1.00  0.00    -0.354 N 
ATOM     21  C   UNL A   1      43.508  27.965  31.024  1.00  0.00     0.074 A 
ATOM     22  C   UNL A   1      43.653  26.713  30.312  1.00  0.00     0.031 C 
ATOM     23  C   UNL A   1      37.751  30.046  29.051  1.00  0.00     0.029 A 
ATOM     24  C   UNL A   1      38.644  30.685  30.011  1.00  0.00     0.049 A 
ATOM     25  H   UNL A   1      40.568  30.092  30.544  1.00  0.00     0.167 HD
ATOM     26  C   UNL A   1      44.429  28.483  31.873  1.00  0.00     0.037 A 
ATOM     27  C   UNL A   1      38.354  31.791  30.719  1.00  0.00     0.037 A 
ATOM     28  C   UNL A   1      44.265  29.731  32.575  1.00  0.00     0.049 A 
ATOM     29  C   UNL A   1      39.367  32.323  31.693  1.00  0.00     0.074 A 
ATOM     30  C   UNL A   1      45.155  30.367  33.422  1.00  0.00     0.029 A 
ATOM     31  N   UNL A   1      43.126  30.523  32.524  1.00  0.00    -0.354 N 
ATOM     32  N   UNL A   1      40.546  31.841  32.000  1.00  0.00    -0.248 NA
ATOM     33  C   UNL A   1      39.012  33.551  32.416  1.00  0.00     0.031 C 
ATOM     34  C   UNL A   1      44.529  31.506  33.938  1.00  0.00     0.029 A 
ATOM     35  C   UNL A   1      43.277  31.624  33.353  1.00  0.00     0.049 A 
ATOM     36  H   UNL A   1      42.328  30.332  31.979  1.00  0.00     0.167 HD
ATOM     37  C   UNL A   1      41.088  32.718  32.927  1.00  0.00     0.074 A 
ATOM     38  C   UNL A   1      40.106  33.764  33.135  1.00  0.00     0.031 C 
ATOM     39  C   UNL A   1      42.295  32.664  33.542  1.00  0.00     0.037 A 
BRANCH  26  40
ATOM     40  C   UNL A   1      45.672  27.675  32.123  1.00  0.00     0.064 A 
ATOM     41  C   UNL A   1      46.912  28.026  31.566  1.00  0.00     0.173 A 
ATOM     42  C   UNL A   1      45.622  26.535  32.940  1.00  0.00     0.173 A 
ATOM     43  F   UNL A   1      47.017  29.101  30.772  1.00  0.00    -0.203 F 
ATOM     44  C   UNL A   1      48.041  27.238  31.778  1.00  0.00     0.198 A 
ATOM     45  C   UNL A   1      46.762  25.771  33.179  1.00  0.00     0.198 A 
ATOM     46  F   UNL A   1      44.467  26.159  33.509  1.00  0.00    -0.203 F 
ATOM     47  F   UNL A   1      49.198  27.554  31.178  1.00  0.00    -0.200 F 
ATOM     48  C   UNL A   1      47.967  26.114  32.587  1.00  0.00     0.200 A 
ATOM     49  F   UNL A   1      46.690  24.694  33.975  1.00  0.00    -0.200 F 
ATOM     50  F   UNL A   1      49.054  25.356  32.786  1.00  0.00    -0.200 F 
ENDBRANCH  26  40
BRANCH  27  51
ATOM     51  C   UNL A   1      37.035  32.444  30.527  1.00  0.00     0.064 A 
ATOM     52  C   UNL A   1      35.994  32.254  31.444  1.00  0.00     0.173 A 
ATOM     53  C   UNL A   1      36.812  33.325  29.457  1.00  0.00     0.173 A 
ATOM     54  F   UNL A   1      36.156  31.412  32.475  1.00  0.00    -0.203 F 
ATOM     55  C   UNL A   1      34.778  32.918  31.298  1.00  0.00     0.198 A 
ATOM     56  C   UNL A   1      35.607  34.010  29.327  1.00  0.00     0.198 A 
ATOM     57  F   UNL A   1      37.783  33.548  28.559  1.00  0.00    -0.203 F 
ATOM     58  F   UNL A   1      33.790  32.703  32.176  1.00  0.00    -0.200 F 
ATOM     59  C   UNL A   1      34.589  33.804  30.246  1.00  0.00     0.200 A 
ATOM     60  F   UNL A   1      35.438  34.881  28.323  1.00  0.00    -0.200 F 
ATOM     61  F   UNL A   1      33.427  34.459  30.120  1.00  0.00    -0.200 F 
ENDBRANCH  27  51
BRANCH  39  62
ATOM     62  C   UNL A   1      42.658  33.792  34.464  1.00  0.00     0.064 A 
ATOM     63  C   UNL A   1      43.194  34.998  33.987  1.00  0.00     0.173 A 
ATOM     64  C   UNL A   1      42.385  33.691  35.837  1.00  0.00     0.173 A 
ATOM     65  F   UNL A   1      43.489  35.138  32.687  1.00  0.00    -0.203 F 
ATOM     66  C   UNL A   1      43.448  36.057  34.854  1.00  0.00     0.198 A 
ATOM     67  C   UNL A   1      42.612  34.763  36.695  1.00  0.00     0.198 A 
ATOM     68  F   UNL A   1      41.869  32.560  36.343  1.00  0.00    -0.203 F 
ATOM     69  F   UNL A   1      43.986  37.191  34.383  1.00  0.00    -0.200 F 
ATOM     70  C   UNL A   1      43.145  35.944  36.203  1.00  0.00     0.200 A 
ATOM     71  F   UNL A   1      42.303  34.655  37.995  1.00  0.00    -0.200 F 
ATOM     72  F   UNL A   1      43.368  36.975  37.031  1.00  0.00    -0.200 F 
ENDBRANCH  39  62
ENDBRANCH  13  14
ENDBRANCH   6   8
ENDBRANCH   3   4
ENDBRANCH   2   3
ENDBRANCH   1   2
BRANCH   1  73
ATOM     73  C   UNL A   1      42.530  23.606  27.524  1.00  0.00     0.002 C 
BRANCH  73  74
ATOM     74  C   UNL A   1      43.013  22.729  28.688  1.00  0.00     0.021 C 
BRANCH  74  75
ATOM     75  C   UNL A   1      44.397  23.105  29.213  1.00  0.00     0.116 C 
BRANCH  75  76
ATOM     76  N   UNL A   1      45.388  22.953  28.169  1.00  0.00    -0.354 N 
ATOM     77  C   UNL A   1      45.983  23.903  27.389  1.00  0.00     0.242 C 
ATOM     78  H   UNL A   1      45.676  22.028  27.994  1.00  0.00     0.163 HD
ATOM     79  O   UNL A   1      46.641  23.497  26.428  1.00  0.00    -0.273 OA
BRANCH  77  80
ATOM     80  C   UNL A   1      45.869  25.394  27.801  1.00  0.00     0.171 C 
ATOM     81  C   UNL A   1      47.006  25.740  28.774  1.00  0.00     0.035 C 
ATOM     82  N   UNL A   1      45.940  26.302  26.649  1.00  0.00    -0.359 N 
ATOM     83  C   UNL A   1      48.362  25.763  28.065  1.00  0.00     0.004 C 
ATOM     84  C   UNL A   1      47.192  26.426  25.906  1.00  0.00     0.117 C 
ATOM     85  C   UNL A   1      48.342  26.716  26.871  1.00  0.00     0.022 C 
BRANCH  82  86
ATOM     86  C   UNL A   1      44.850  27.090  26.309  1.00  0.00     0.048 A 
ATOM     87  C   UNL A   1      43.988  26.653  25.300  1.00  0.00     0.046 A 
ATOM     88  C   UNL A   1      44.555  28.314  26.961  1.00  0.00     0.024 A 
ATOM     89  C   UNL A   1      42.869  27.404  25.001  1.00  0.00     0.114 A 
ATOM     90  C   UNL A   1      43.376  28.998  26.583  1.00  0.00     0.072 A 
ATOM     91  C   UNL A   1      45.391  28.895  27.945  1.00  0.00     0.012 A 
ATOM     92  N   UNL A   1      42.549  28.553  25.624  1.00  0.00    -0.256 NA
ATOM     93  C   UNL A   1      43.057  30.188  27.224  1.00  0.00     0.029 A 
ATOM     94  C   UNL A   1      45.052  30.096  28.566  1.00  0.00     0.001 A 
ATOM     95  C   UNL A   1      43.877  30.740  28.211  1.00  0.00     0.002 A 
ENDBRANCH  82  86
ENDBRANCH  77  80
ENDBRANCH  75  76
ENDBRANCH  74  75
ENDBRANCH  73  74
ENDBRANCH   1  73
TORSDOF 14
ENDMDL
MODEL 3
REMARK VINA RESULT:     -12.3      0.860      2.261
REMARK SMILES O=C(NCCCCCCNC(=O)[C@H]1CCCCN1c1ccnc2ccccc12)c1ccc(-c2c3nc(c(-c4c(F)c(F)c(F)c(F)c4F)c4ccc([nH]4)c(-c4c(F)c(F)c(F)c(F)c4F)c4nc(c(-c5c(F)c(F)c(F)c(F)c5F)c5ccc2[nH]5)C=C4)C=C3)cc1
REMARK SMILES IDX 6 1 5 2 4 3 3 4 1 5 2 6 29 8 30 9 91 10 31 11 90 12 32 13
REMARK SMILES IDX 33 14 34 15 84 16 35 17 89 18 83 19 85 20 36 21 88 22 82 23
REMARK SMILES IDX 81 24 37 26 69 27 49 28 68 29 50 30 53 31 67 32 86 33 51 34
REMARK SMILES IDX 52 35 66 37 87 38 54 39 38 40 39 41 47 42 40 43 41 44 45 45
REMARK SMILES IDX 48 46 42 47 43 48 46 49 44 50 70 51 71 52 79 53 72 54 73 55
REMARK SMILES IDX 77 56 80 57 74 58 75 59 78 60 76 61 55 62 56 63 64 64 57 65
REMARK SMILES IDX 58 66 62 67 65 68 59 69 60 70 63 71 61 72 7 73 8 74 9 75
REMARK SMILES IDX 10 76 11 77 12 79 13 80 14 81 18 82 15 83 17 84 16 85 19 86
REMARK SMILES IDX 20 87 28 88 21 89 23 90 27 91 22 92 24 93 26 94 25 95
REMARK H PARENT 3 7 85 25 53 36 10 78
REMARK Flexibility Score: inf
ROOT
ATOM      1  C   UNL A   1      31.466  30.856  26.135  1.00  0.00     0.002 C 
ENDROOT
BRANCH   1   2
ATOM      2  C   UNL A   1      31.317  32.312  26.575  1.00  0.00     0.021 C 
BRANCH   2   3
ATOM      3  C   UNL A   1      32.599  32.935  27.113  1.00  0.00     0.116 C 
BRANCH   3   4
ATOM      4  N   UNL A   1      32.376  34.278  27.624  1.00  0.00    -0.352 N 
ATOM      5  O   UNL A   1      32.522  35.966  29.115  1.00  0.00    -0.269 OA
ATOM      6  C   UNL A   1      32.976  34.909  28.680  1.00  0.00     0.251 C 
ATOM      7  H   UNL A   1      31.698  34.807  27.143  1.00  0.00     0.163 HD
BRANCH   6   8
ATOM      8  C   UNL A   1      34.166  34.306  29.309  1.00  0.00     0.039 A 
ATOM      9  C   UNL A   1      34.035  33.444  30.403  1.00  0.00     0.014 A 
ATOM     10  C   UNL A   1      35.427  34.592  28.783  1.00  0.00     0.014 A 
ATOM     11  C   UNL A   1      35.170  32.957  31.041  1.00  0.00     0.010 A 
ATOM     12  C   UNL A   1      36.561  34.042  29.378  1.00  0.00     0.010 A 
ATOM     13  C   UNL A   1      36.442  33.236  30.523  1.00  0.00    -0.014 A 
BRANCH  13  14
ATOM     14  C   UNL A   1      37.650  32.638  31.138  1.00  0.00     0.031 A 
ATOM     15  C   UNL A   1      38.371  31.509  30.466  1.00  0.00     0.074 A 
ATOM     16  C   UNL A   1      38.059  33.086  32.340  1.00  0.00     0.049 A 
ATOM     17  N   UNL A   1      39.370  30.785  30.907  1.00  0.00    -0.248 NA
ATOM     18  C   UNL A   1      37.902  31.135  29.125  1.00  0.00     0.031 C 
ATOM     19  C   UNL A   1      37.432  34.177  33.086  1.00  0.00     0.029 A 
ATOM     20  N   UNL A   1      39.081  32.668  33.152  1.00  0.00    -0.354 N 
ATOM     21  C   UNL A   1      39.629  29.853  29.911  1.00  0.00     0.074 A 
ATOM     22  C   UNL A   1      38.669  30.088  28.854  1.00  0.00     0.031 C 
ATOM     23  C   UNL A   1      38.079  34.342  34.248  1.00  0.00     0.029 A 
ATOM     24  C   UNL A   1      39.121  33.327  34.356  1.00  0.00     0.049 A 
ATOM     25  H   UNL A   1      39.723  31.966  32.898  1.00  0.00     0.167 HD
ATOM     26  C   UNL A   1      40.586  28.892  29.887  1.00  0.00     0.037 A 
ATOM     27  C   UNL A   1      39.879  33.109  35.445  1.00  0.00     0.037 A 
ATOM     28  C   UNL A   1      41.532  28.671  30.951  1.00  0.00     0.049 A 
ATOM     29  C   UNL A   1      40.901  32.009  35.418  1.00  0.00     0.074 A 
ATOM     30  C   UNL A   1      42.568  27.756  31.006  1.00  0.00     0.029 A 
ATOM     31  N   UNL A   1      41.543  29.362  32.155  1.00  0.00    -0.354 N 
ATOM     32  N   UNL A   1      41.171  31.160  34.457  1.00  0.00    -0.248 NA
ATOM     33  C   UNL A   1      41.723  31.835  36.623  1.00  0.00     0.031 C 
ATOM     34  C   UNL A   1      43.162  27.846  32.269  1.00  0.00     0.029 A 
ATOM     35  C   UNL A   1      42.547  28.869  32.975  1.00  0.00     0.049 A 
ATOM     36  H   UNL A   1      40.929  30.094  32.392  1.00  0.00     0.167 HD
ATOM     37  C   UNL A   1      42.212  30.371  34.924  1.00  0.00     0.074 A 
ATOM     38  C   UNL A   1      42.524  30.843  36.259  1.00  0.00     0.031 C 
ATOM     39  C   UNL A   1      42.855  29.355  34.298  1.00  0.00     0.037 A 
BRANCH  26  40
ATOM     40  C   UNL A   1      40.622  27.982  28.691  1.00  0.00     0.064 A 
ATOM     41  C   UNL A   1      39.904  26.776  28.651  1.00  0.00     0.173 A 
ATOM     42  C   UNL A   1      41.383  28.325  27.563  1.00  0.00     0.173 A 
ATOM     43  F   UNL A   1      39.166  26.394  29.703  1.00  0.00    -0.203 F 
ATOM     44  C   UNL A   1      39.987  25.928  27.549  1.00  0.00     0.198 A 
ATOM     45  C   UNL A   1      41.434  27.492  26.448  1.00  0.00     0.198 A 
ATOM     46  F   UNL A   1      42.081  29.471  27.539  1.00  0.00    -0.203 F 
ATOM     47  F   UNL A   1      39.348  24.750  27.564  1.00  0.00    -0.200 F 
ATOM     48  C   UNL A   1      40.748  26.288  26.447  1.00  0.00     0.200 A 
ATOM     49  F   UNL A   1      42.158  27.851  25.377  1.00  0.00    -0.200 F 
ATOM     50  F   UNL A   1      40.829  25.469  25.390  1.00  0.00    -0.200 F 
ENDBRANCH  26  40
BRANCH  27  51
ATOM     51  C   UNL A   1      39.673  33.956  36.647  1.00  0.00     0.064 A 
ATOM     52  C   UNL A   1      38.839  33.537  37.691  1.00  0.00     0.173 A 
ATOM     53  C   UNL A   1      40.359  35.171  36.803  1.00  0.00     0.173 A 
ATOM     54  F   UNL A   1      38.154  32.390  37.581  1.00  0.00    -0.203 F 
ATOM     55  C   UNL A   1      38.697  34.302  38.847  1.00  0.00     0.198 A 
ATOM     56  C   UNL A   1      40.237  35.920  37.970  1.00  0.00     0.198 A 
ATOM     57  F   UNL A   1      41.177  35.608  35.835  1.00  0.00    -0.203 F 
ATOM     58  F   UNL A   1      37.876  33.891  39.823  1.00  0.00    -0.200 F 
ATOM     59  C   UNL A   1      39.404  35.487  38.990  1.00  0.00     0.200 A 
ATOM     60  F   UNL A   1      40.940  37.053  38.114  1.00  0.00    -0.200 F 
ATOM     61  F   UNL A   1      39.284  36.210  40.112  1.00  0.00    -0.200 F 
ENDBRANCH  27  51
BRANCH  39  62
ATOM     62  C   UNL A   1      44.001  28.707  35.018  1.00  0.00     0.064 A 
ATOM     63  C   UNL A   1      45.308  29.211  34.938  1.00  0.00     0.173 A 
ATOM     64  C   UNL A   1      43.768  27.615  35.868  1.00  0.00     0.173 A 
ATOM     65  F   UNL A   1      45.586  30.241  34.127  1.00  0.00    -0.203 F 
ATOM     66  C   UNL A   1      46.340  28.639  35.679  1.00  0.00     0.198 A 
ATOM     67  C   UNL A   1      44.796  27.067  36.630  1.00  0.00     0.198 A 
ATOM     68  F   UNL A   1      42.535  27.098  35.983  1.00  0.00    -0.203 F 
ATOM     69  F   UNL A   1      47.587  29.117  35.566  1.00  0.00    -0.200 F 
ATOM     70  C   UNL A   1      46.080  27.577  36.533  1.00  0.00     0.200 A 
ATOM     71  F   UNL A   1      44.538  26.051  37.466  1.00  0.00    -0.200 F 
ATOM     72  F   UNL A   1      47.070  27.045  37.263  1.00  0.00    -0.200 F 
ENDBRANCH  39  62
ENDBRANCH  13  14
ENDBRANCH   6   8
ENDBRANCH   3   4
ENDBRANCH   2   3
ENDBRANCH   1   2
BRANCH   1  73
ATOM     73  C   UNL A   1      32.219  29.963  27.126  1.00  0.00     0.002 C 
BRANCH  73  74
ATOM     74  C   UNL A   1      33.723  29.819  26.854  1.00  0.00     0.021 C 
BRANCH  74  75
ATOM     75  C   UNL A   1      34.155  28.395  26.508  1.00  0.00     0.116 C 
BRANCH  75  76
ATOM     76  N   UNL A   1      33.885  28.113  25.115  1.00  0.00    -0.354 N 
ATOM     77  C   UNL A   1      33.353  26.993  24.542  1.00  0.00     0.242 C 
ATOM     78  H   UNL A   1      34.120  28.833  24.487  1.00  0.00     0.163 HD
ATOM     79  O   UNL A   1      33.418  26.918  23.313  1.00  0.00    -0.273 OA
BRANCH  77  80
ATOM     80  C   UNL A   1      32.640  25.953  25.444  1.00  0.00     0.171 C 
ATOM     81  C   UNL A   1      31.165  26.350  25.609  1.00  0.00     0.035 C 
ATOM     82  N   UNL A   1      32.704  24.593  24.891  1.00  0.00    -0.359 N 
ATOM     83  C   UNL A   1      30.383  26.155  24.308  1.00  0.00     0.004 C 
ATOM     84  C   UNL A   1      31.978  24.280  23.664  1.00  0.00     0.117 C 
ATOM     85  C   UNL A   1      30.519  24.722  23.795  1.00  0.00     0.022 C 
BRANCH  82  86
ATOM     86  C   UNL A   1      33.390  23.594  25.567  1.00  0.00     0.048 A 
ATOM     87  C   UNL A   1      32.846  23.078  26.745  1.00  0.00     0.046 A 
ATOM     88  C   UNL A   1      34.613  23.051  25.098  1.00  0.00     0.024 A 
ATOM     89  C   UNL A   1      33.494  22.043  27.388  1.00  0.00     0.114 A 
ATOM     90  C   UNL A   1      35.186  21.984  25.828  1.00  0.00     0.072 A 
ATOM     91  C   UNL A   1      35.297  23.539  23.958  1.00  0.00     0.012 A 
ATOM     92  N   UNL A   1      34.639  21.489  26.949  1.00  0.00    -0.256 NA
ATOM     93  C   UNL A   1      36.373  21.424  25.374  1.00  0.00     0.029 A 
ATOM     94  C   UNL A   1      36.493  22.965  23.530  1.00  0.00     0.001 A 
ATOM     95  C   UNL A   1      37.028  21.897  24.235  1.00  0.00     0.002 A 
ENDBRANCH  82  86
ENDBRANCH  77  80
ENDBRANCH  75  76
ENDBRANCH  74  75
ENDBRANCH  73  74
ENDBRANCH   1  73
TORSDOF 14
ENDMDL
