MODEL 1
REMARK VINA RESULT:     -11.1      0.000      0.000
REMARK SMILES C[C@H](NC(=O)N(CC(=O)NCCCCCCNC(=O)c1ccc(-c2c3nc(c(-c4c(F)c(F)c(F)c(F)c4F)c4ccc([nH]4)c(-c4c(F)c(F)c(F)c(F)c4F)c4nc(c(-c5c(F)c(F)c(F)c(F)c5F)c5ccc2[nH]5)C=C4)C=C3)cc1)CC(F)(F)F)[C@@H]1CCCO1
REMARK SMILES IDX 12 1 11 2 10 3 8 4 9 5 7 7 6 8 4 9 3 10 5 12 2 13 1 14 88 15
REMARK SMILES IDX 89 16 92 17 90 18 91 19 83 20 84 21 85 22 86 23 87 24 13 25
REMARK SMILES IDX 14 26 15 27 16 28 17 29 18 30 19 32 20 33 21 34 82 35 22 36
REMARK SMILES IDX 81 37 23 38 24 39 25 40 75 41 26 42 80 43 74 44 76 45 27 46
REMARK SMILES IDX 79 47 73 48 72 49 28 51 60 52 40 53 59 54 41 55 44 56 58 57
REMARK SMILES IDX 77 58 42 59 43 60 57 62 78 63 45 64 29 65 30 66 38 67 31 68
REMARK SMILES IDX 32 69 36 70 39 71 33 72 34 73 37 74 35 75 61 76 62 77 70 78
REMARK SMILES IDX 63 79 64 80 68 81 71 82 65 83 66 84 69 85 67 86 46 87 47 88
REMARK SMILES IDX 55 89 48 90 49 91 53 92 56 93 50 94 51 95 54 96 52 97
REMARK H PARENT 10 6 3 11 17 31 76 50 44 61
REMARK Flexibility Score: inf
ROOT
ATOM      1  C   UNL A   1      35.437  21.623  25.965  1.00  0.00     0.021 C 
ENDROOT
BRANCH   1   2
ATOM      2  C   UNL A   1      33.919  21.590  26.095  1.00  0.00     0.116 C 
BRANCH   2   3
ATOM      3  N   UNL A   1      33.296  21.380  24.805  1.00  0.00    -0.355 N 
ATOM      4  C   UNL A   1      32.877  22.267  23.867  1.00  0.00     0.239 C 
ATOM      5  O   UNL A   1      32.316  21.809  22.865  1.00  0.00    -0.273 OA
ATOM      6  H   UNL A   1      33.153  20.436  24.569  1.00  0.00     0.163 HD
BRANCH   4   7
ATOM      7  C   UNL A   1      33.280  23.745  23.909  1.00  0.00     0.221 C 
BRANCH   7   8
ATOM      8  N   UNL A   1      32.503  24.760  23.189  1.00  0.00    -0.306 N 
BRANCH   8   9
ATOM      9  C   UNL A   1      32.787  25.420  22.022  1.00  0.00     0.318 C 
ATOM     10  N   UNL A   1      32.913  26.759  21.925  1.00  0.00    -0.333 N 
ATOM     11  H   UNL A   1      33.071  27.048  20.997  1.00  0.00     0.165 HD
ATOM     12  O   UNL A   1      32.959  24.791  20.974  1.00  0.00    -0.249 OA
BRANCH  10  13
ATOM     13  C   UNL A   1      32.875  27.892  22.853  1.00  0.00     0.109 C 
ATOM     14  C   UNL A   1      34.149  28.744  22.738  1.00  0.00     0.034 C 
BRANCH  13  15
ATOM     15  C   UNL A   1      31.635  28.793  22.651  1.00  0.00     0.140 C 
ATOM     16  C   UNL A   1      31.108  29.349  23.966  1.00  0.00     0.036 C 
ATOM     17  O   UNL A   1      30.516  28.069  22.107  1.00  0.00    -0.376 OA
ATOM     18  C   UNL A   1      29.712  29.765  23.585  1.00  0.00     0.031 C 
ATOM     19  C   UNL A   1      29.313  28.722  22.557  1.00  0.00     0.160 C 
ENDBRANCH  13  15
ENDBRANCH  10  13
ENDBRANCH   8   9
BRANCH   8  20
ATOM     20  C   UNL A   1      31.201  25.101  23.819  1.00  0.00     0.237 C 
BRANCH  20  21
ATOM     21  C   UNL A   1      31.217  25.611  25.261  1.00  0.00     0.406 C 
ATOM     22  F   UNL A   1      31.128  24.631  26.181  1.00  0.00    -0.169 F 
ATOM     23  F   UNL A   1      32.371  26.285  25.501  1.00  0.00    -0.169 F 
ATOM     24  F   UNL A   1      30.208  26.484  25.481  1.00  0.00    -0.169 F 
ENDBRANCH  20  21
ENDBRANCH   8  20
ENDBRANCH   7   8
ENDBRANCH   4   7
ENDBRANCH   2   3
ENDBRANCH   1   2
BRANCH   1  25
ATOM     25  C   UNL A   1      35.988  20.581  24.989  1.00  0.00     0.002 C 
BRANCH  25  26
ATOM     26  C   UNL A   1      37.480  20.737  24.690  1.00  0.00     0.002 C 
BRANCH  26  27
ATOM     27  C   UNL A   1      38.347  19.588  25.210  1.00  0.00     0.021 C 
BRANCH  27  28
ATOM     28  C   UNL A   1      39.560  20.043  26.011  1.00  0.00     0.116 C 
BRANCH  28  29
ATOM     29  N   UNL A   1      40.598  19.024  26.038  1.00  0.00    -0.352 N 
ATOM     30  C   UNL A   1      41.959  19.183  26.081  1.00  0.00     0.251 C 
ATOM     31  H   UNL A   1      40.280  18.092  26.024  1.00  0.00     0.163 HD
ATOM     32  O   UNL A   1      42.709  18.241  25.866  1.00  0.00    -0.269 OA
BRANCH  30  33
ATOM     33  C   UNL A   1      42.511  20.519  26.377  1.00  0.00     0.039 A 
ATOM     34  C   UNL A   1      42.985  21.304  25.325  1.00  0.00     0.014 A 
ATOM     35  C   UNL A   1      42.542  20.996  27.691  1.00  0.00     0.014 A 
ATOM     36  C   UNL A   1      43.449  22.592  25.587  1.00  0.00     0.010 A 
ATOM     37  C   UNL A   1      42.928  22.307  27.938  1.00  0.00     0.010 A 
ATOM     38  C   UNL A   1      43.396  23.114  26.890  1.00  0.00    -0.014 A 
BRANCH  38  39
ATOM     39  C   UNL A   1      43.832  24.502  27.174  1.00  0.00     0.031 A 
ATOM     40  C   UNL A   1      42.837  25.524  27.644  1.00  0.00     0.074 A 
ATOM     41  C   UNL A   1      45.111  24.856  26.946  1.00  0.00     0.049 A 
ATOM     42  N   UNL A   1      43.014  26.796  27.900  1.00  0.00    -0.248 NA
ATOM     43  C   UNL A   1      41.452  25.062  27.822  1.00  0.00     0.031 C 
ATOM     44  C   UNL A   1      46.152  23.967  26.430  1.00  0.00     0.029 A 
ATOM     45  N   UNL A   1      45.748  26.060  27.105  1.00  0.00    -0.354 N 
ATOM     46  C   UNL A   1      41.763  27.286  28.254  1.00  0.00     0.074 A 
ATOM     47  C   UNL A   1      40.827  26.191  28.119  1.00  0.00     0.031 C 
ATOM     48  C   UNL A   1      47.303  24.651  26.330  1.00  0.00     0.029 A 
ATOM     49  C   UNL A   1      47.070  26.034  26.735  1.00  0.00     0.049 A 
ATOM     50  H   UNL A   1      45.301  26.866  27.451  1.00  0.00     0.167 HD
ATOM     51  C   UNL A   1      41.432  28.529  28.677  1.00  0.00     0.037 A 
ATOM     52  C   UNL A   1      47.989  27.018  26.713  1.00  0.00     0.037 A 
ATOM     53  C   UNL A   1      42.374  29.609  28.817  1.00  0.00     0.049 A 
ATOM     54  C   UNL A   1      47.600  28.393  27.184  1.00  0.00     0.074 A 
ATOM     55  C   UNL A   1      42.157  30.886  29.301  1.00  0.00     0.029 A 
ATOM     56  N   UNL A   1      43.712  29.540  28.455  1.00  0.00    -0.354 N 
ATOM     57  N   UNL A   1      46.435  28.823  27.605  1.00  0.00    -0.248 NA
ATOM     58  C   UNL A   1      48.656  29.413  27.190  1.00  0.00     0.031 C 
ATOM     59  C   UNL A   1      43.348  31.610  29.173  1.00  0.00     0.029 A 
ATOM     60  C   UNL A   1      44.326  30.764  28.674  1.00  0.00     0.049 A 
ATOM     61  H   UNL A   1      44.161  28.740  28.097  1.00  0.00     0.167 HD
ATOM     62  C   UNL A   1      46.621  30.157  27.945  1.00  0.00     0.074 A 
ATOM     63  C   UNL A   1      48.016  30.458  27.699  1.00  0.00     0.031 C 
ATOM     64  C   UNL A   1      45.716  31.051  28.418  1.00  0.00     0.037 A 
BRANCH  51  65
ATOM     65  C   UNL A   1      39.987  28.785  29.006  1.00  0.00     0.064 A 
ATOM     66  C   UNL A   1      39.473  28.584  30.297  1.00  0.00     0.173 A 
ATOM     67  C   UNL A   1      39.105  29.245  28.017  1.00  0.00     0.173 A 
ATOM     68  F   UNL A   1      40.270  28.136  31.279  1.00  0.00    -0.203 F 
ATOM     69  C   UNL A   1      38.123  28.787  30.573  1.00  0.00     0.198 A 
ATOM     70  C   UNL A   1      37.763  29.485  28.306  1.00  0.00     0.198 A 
ATOM     71  F   UNL A   1      39.541  29.464  26.767  1.00  0.00    -0.203 F 
ATOM     72  F   UNL A   1      37.644  28.520  31.797  1.00  0.00    -0.200 F 
ATOM     73  C   UNL A   1      37.271  29.243  29.580  1.00  0.00     0.200 A 
ATOM     74  F   UNL A   1      36.944  29.943  27.349  1.00  0.00    -0.200 F 
ATOM     75  F   UNL A   1      35.973  29.440  29.847  1.00  0.00    -0.200 F 
ENDBRANCH  51  65
BRANCH  52  76
ATOM     76  C   UNL A   1      49.366  26.724  26.236  1.00  0.00     0.064 A 
ATOM     77  C   UNL A   1      49.734  26.946  24.902  1.00  0.00     0.173 A 
ATOM     78  C   UNL A   1      50.347  26.237  27.112  1.00  0.00     0.173 A 
ATOM     79  F   UNL A   1      48.826  27.393  24.023  1.00  0.00    -0.203 F 
ATOM     80  C   UNL A   1      51.028  26.679  24.460  1.00  0.00     0.198 A 
ATOM     81  C   UNL A   1      51.649  26.000  26.676  1.00  0.00     0.198 A 
ATOM     82  F   UNL A   1      50.048  26.016  28.400  1.00  0.00    -0.203 F 
ATOM     83  F   UNL A   1      51.345  26.864  23.171  1.00  0.00    -0.200 F 
ATOM     84  C   UNL A   1      51.987  26.215  25.348  1.00  0.00     0.200 A 
ATOM     85  F   UNL A   1      52.576  25.572  27.543  1.00  0.00    -0.200 F 
ATOM     86  F   UNL A   1      53.235  25.972  24.925  1.00  0.00    -0.200 F 
ENDBRANCH  52  76
BRANCH  64  87
ATOM     87  C   UNL A   1      46.213  32.435  28.727  1.00  0.00     0.064 A 
ATOM     88  C   UNL A   1      46.749  32.765  29.982  1.00  0.00     0.173 A 
ATOM     89  C   UNL A   1      46.189  33.434  27.741  1.00  0.00     0.173 A 
ATOM     90  F   UNL A   1      46.782  31.851  30.964  1.00  0.00    -0.203 F 
ATOM     91  C   UNL A   1      47.215  34.049  30.245  1.00  0.00     0.198 A 
ATOM     92  C   UNL A   1      46.689  34.707  27.998  1.00  0.00     0.198 A 
ATOM     93  F   UNL A   1      45.693  33.170  26.523  1.00  0.00    -0.203 F 
ATOM     94  F   UNL A   1      47.674  34.357  31.467  1.00  0.00    -0.200 F 
ATOM     95  C   UNL A   1      47.193  35.017  29.251  1.00  0.00     0.200 A 
ATOM     96  F   UNL A   1      46.682  35.635  27.031  1.00  0.00    -0.200 F 
ATOM     97  F   UNL A   1      47.651  36.251  29.505  1.00  0.00    -0.200 F 
ENDBRANCH  64  87
ENDBRANCH  38  39
ENDBRANCH  30  33
ENDBRANCH  28  29
ENDBRANCH  27  28
ENDBRANCH  26  27
ENDBRANCH  25  26
ENDBRANCH   1  25
TORSDOF 19
ENDMDL
MODEL 2
REMARK VINA RESULT:     -11.1      4.688      8.557
REMARK SMILES C[C@H](NC(=O)N(CC(=O)NCCCCCCNC(=O)c1ccc(-c2c3nc(c(-c4c(F)c(F)c(F)c(F)c4F)c4ccc([nH]4)c(-c4c(F)c(F)c(F)c(F)c4F)c4nc(c(-c5c(F)c(F)c(F)c(F)c5F)c5ccc2[nH]5)C=C4)C=C3)cc1)CC(F)(F)F)[C@@H]1CCCO1
REMARK SMILES IDX 12 1 11 2 10 3 8 4 9 5 7 7 6 8 4 9 3 10 5 12 2 13 1 14 88 15
REMARK SMILES IDX 89 16 92 17 90 18 91 19 83 20 84 21 85 22 86 23 87 24 13 25
REMARK SMILES IDX 14 26 15 27 16 28 17 29 18 30 19 32 20 33 21 34 82 35 22 36
REMARK SMILES IDX 81 37 23 38 24 39 25 40 75 41 26 42 80 43 74 44 76 45 27 46
REMARK SMILES IDX 79 47 73 48 72 49 28 51 60 52 40 53 59 54 41 55 44 56 58 57
REMARK SMILES IDX 77 58 42 59 43 60 57 62 78 63 45 64 29 65 30 66 38 67 31 68
REMARK SMILES IDX 32 69 36 70 39 71 33 72 34 73 37 74 35 75 61 76 62 77 70 78
REMARK SMILES IDX 63 79 64 80 68 81 71 82 65 83 66 84 69 85 67 86 46 87 47 88
REMARK SMILES IDX 55 89 48 90 49 91 53 92 56 93 50 94 51 95 54 96 52 97
REMARK H PARENT 10 6 3 11 17 31 76 50 44 61
REMARK Flexibility Score: inf
ROOT
ATOM      1  C   UNL A   1      31.234  26.398  25.791  1.00  0.00     0.021 C 
ENDROOT
BRANCH   1   2
ATOM      2  C   UNL A   1      29.947  25.602  25.615  1.00  0.00     0.116 C 
BRANCH   2   3
ATOM      3  N   UNL A   1      29.831  24.580  26.635  1.00  0.00    -0.355 N 
ATOM      4  C   UNL A   1      30.174  23.266  26.618  1.00  0.00     0.239 C 
ATOM      5  O   UNL A   1      29.904  22.598  27.622  1.00  0.00    -0.273 OA
ATOM      6  H   UNL A   1      29.436  24.890  27.481  1.00  0.00     0.163 HD
BRANCH   4   7
ATOM      7  C   UNL A   1      31.064  22.673  25.521  1.00  0.00     0.221 C 
BRANCH   7   8
ATOM      8  N   UNL A   1      32.518  22.584  25.694  1.00  0.00    -0.306 N 
BRANCH   8   9
ATOM      9  C   UNL A   1      33.254  21.847  26.585  1.00  0.00     0.318 C 
ATOM     10  N   UNL A   1      34.072  20.836  26.231  1.00  0.00    -0.333 N 
ATOM     11  H   UNL A   1      34.477  20.398  27.014  1.00  0.00     0.165 HD
ATOM     12  O   UNL A   1      33.208  22.098  27.792  1.00  0.00    -0.249 OA
BRANCH  10  13
ATOM     13  C   UNL A   1      34.510  20.224  24.973  1.00  0.00     0.109 C 
ATOM     14  C   UNL A   1      36.032  20.015  24.961  1.00  0.00     0.034 C 
BRANCH  13  15
ATOM     15  C   UNL A   1      33.805  18.878  24.682  1.00  0.00     0.140 C 
ATOM     16  C   UNL A   1      34.784  17.802  24.236  1.00  0.00     0.036 C 
ATOM     17  O   UNL A   1      32.874  18.975  23.588  1.00  0.00    -0.376 OA
ATOM     18  C   UNL A   1      33.864  16.801  23.589  1.00  0.00     0.031 C 
ATOM     19  C   UNL A   1      32.787  17.675  22.974  1.00  0.00     0.160 C 
ENDBRANCH  13  15
ENDBRANCH  10  13
ENDBRANCH   8   9
BRANCH   8  20
ATOM     20  C   UNL A   1      33.304  23.405  24.736  1.00  0.00     0.237 C 
BRANCH  20  21
ATOM     21  C   UNL A   1      34.287  24.427  25.310  1.00  0.00     0.406 C 
ATOM     22  F   UNL A   1      33.938  24.886  26.527  1.00  0.00    -0.169 F 
ATOM     23  F   UNL A   1      35.519  23.868  25.428  1.00  0.00    -0.169 F 
ATOM     24  F   UNL A   1      34.424  25.490  24.485  1.00  0.00    -0.169 F 
ENDBRANCH  20  21
ENDBRANCH   8  20
ENDBRANCH   7   8
ENDBRANCH   4   7
ENDBRANCH   2   3
ENDBRANCH   1   2
BRANCH   1  25
ATOM     25  C   UNL A   1      31.089  27.589  26.742  1.00  0.00     0.002 C 
BRANCH  25  26
ATOM     26  C   UNL A   1      32.421  28.211  27.168  1.00  0.00     0.002 C 
BRANCH  26  27
ATOM     27  C   UNL A   1      33.483  28.229  26.067  1.00  0.00     0.021 C 
BRANCH  27  28
ATOM     28  C   UNL A   1      34.650  29.167  26.351  1.00  0.00     0.116 C 
BRANCH  28  29
ATOM     29  N   UNL A   1      34.196  30.445  26.876  1.00  0.00    -0.352 N 
ATOM     30  C   UNL A   1      34.652  31.138  27.968  1.00  0.00     0.251 C 
ATOM     31  H   UNL A   1      33.460  30.871  26.380  1.00  0.00     0.163 HD
ATOM     32  O   UNL A   1      34.021  32.083  28.420  1.00  0.00    -0.269 OA
BRANCH  30  33
ATOM     33  C   UNL A   1      35.915  30.716  28.602  1.00  0.00     0.039 A 
ATOM     34  C   UNL A   1      35.880  29.736  29.594  1.00  0.00     0.014 A 
ATOM     35  C   UNL A   1      37.131  31.280  28.202  1.00  0.00     0.014 A 
ATOM     36  C   UNL A   1      37.074  29.285  30.154  1.00  0.00     0.010 A 
ATOM     37  C   UNL A   1      38.323  30.773  28.702  1.00  0.00     0.010 A 
ATOM     38  C   UNL A   1      38.306  29.778  29.692  1.00  0.00    -0.014 A 
BRANCH  38  39
ATOM     39  C   UNL A   1      39.586  29.266  30.236  1.00  0.00     0.031 A 
ATOM     40  C   UNL A   1      40.224  29.935  31.419  1.00  0.00     0.074 A 
ATOM     41  C   UNL A   1      40.204  28.240  29.623  1.00  0.00     0.049 A 
ATOM     42  N   UNL A   1      41.361  29.666  32.010  1.00  0.00    -0.248 NA
ATOM     43  C   UNL A   1      39.503  31.079  31.999  1.00  0.00     0.031 C 
ATOM     44  C   UNL A   1      39.712  27.551  28.430  1.00  0.00     0.029 A 
ATOM     45  N   UNL A   1      41.386  27.606  29.911  1.00  0.00    -0.354 N 
ATOM     46  C   UNL A   1      41.495  30.613  33.018  1.00  0.00     0.074 A 
ATOM     47  C   UNL A   1      40.357  31.500  32.918  1.00  0.00     0.031 C 
ATOM     48  C   UNL A   1      40.577  26.580  28.095  1.00  0.00     0.029 A 
ATOM     49  C   UNL A   1      41.702  26.605  29.026  1.00  0.00     0.049 A 
ATOM     50  H   UNL A   1      41.954  27.845  30.679  1.00  0.00     0.167 HD
ATOM     51  C   UNL A   1      42.467  30.716  33.956  1.00  0.00     0.037 A 
ATOM     52  C   UNL A   1      42.783  25.805  28.965  1.00  0.00     0.037 A 
ATOM     53  C   UNL A   1      43.591  29.820  34.052  1.00  0.00     0.049 A 
ATOM     54  C   UNL A   1      43.852  25.937  30.014  1.00  0.00     0.074 A 
ATOM     55  C   UNL A   1      44.594  29.794  35.004  1.00  0.00     0.029 A 
ATOM     56  N   UNL A   1      43.866  28.801  33.151  1.00  0.00    -0.354 N 
ATOM     57  N   UNL A   1      43.925  26.777  31.018  1.00  0.00    -0.248 NA
ATOM     58  C   UNL A   1      44.982  25.003  29.929  1.00  0.00     0.031 C 
ATOM     59  C   UNL A   1      45.512  28.801  34.644  1.00  0.00     0.029 A 
ATOM     60  C   UNL A   1      45.044  28.161  33.506  1.00  0.00     0.049 A 
ATOM     61  H   UNL A   1      43.308  28.566  32.375  1.00  0.00     0.167 HD
ATOM     62  C   UNL A   1      45.094  26.461  31.697  1.00  0.00     0.074 A 
ATOM     63  C   UNL A   1      45.689  25.339  31.000  1.00  0.00     0.031 C 
ATOM     64  C   UNL A   1      45.627  27.048  32.798  1.00  0.00     0.037 A 
BRANCH  51  65
ATOM     65  C   UNL A   1      42.358  31.846  34.941  1.00  0.00     0.064 A 
ATOM     66  C   UNL A   1      43.039  33.060  34.757  1.00  0.00     0.173 A 
ATOM     67  C   UNL A   1      41.556  31.716  36.085  1.00  0.00     0.173 A 
ATOM     68  F   UNL A   1      43.827  33.236  33.685  1.00  0.00    -0.203 F 
ATOM     69  C   UNL A   1      42.959  34.080  35.701  1.00  0.00     0.198 A 
ATOM     70  C   UNL A   1      41.447  32.754  37.008  1.00  0.00     0.198 A 
ATOM     71  F   UNL A   1      40.874  30.582  36.310  1.00  0.00    -0.203 F 
ATOM     72  F   UNL A   1      43.674  35.202  35.534  1.00  0.00    -0.200 F 
ATOM     73  C   UNL A   1      42.159  33.929  36.822  1.00  0.00     0.200 A 
ATOM     74  F   UNL A   1      40.659  32.612  38.083  1.00  0.00    -0.200 F 
ATOM     75  F   UNL A   1      42.081  34.912  37.730  1.00  0.00    -0.200 F 
ENDBRANCH  51  65
BRANCH  52  76
ATOM     76  C   UNL A   1      42.892  24.803  27.871  1.00  0.00     0.064 A 
ATOM     77  C   UNL A   1      43.470  25.135  26.638  1.00  0.00     0.173 A 
ATOM     78  C   UNL A   1      42.440  23.487  28.047  1.00  0.00     0.173 A 
ATOM     79  F   UNL A   1      43.900  26.386  26.416  1.00  0.00    -0.203 F 
ATOM     80  C   UNL A   1      43.579  24.192  25.618  1.00  0.00     0.198 A 
ATOM     81  C   UNL A   1      42.578  22.536  27.038  1.00  0.00     0.198 A 
ATOM     82  F   UNL A   1      41.887  23.116  29.211  1.00  0.00    -0.203 F 
ATOM     83  F   UNL A   1      44.101  24.545  24.436  1.00  0.00    -0.200 F 
ATOM     84  C   UNL A   1      43.142  22.892  25.822  1.00  0.00     0.200 A 
ATOM     85  F   UNL A   1      42.173  21.277  27.247  1.00  0.00    -0.200 F 
ATOM     86  F   UNL A   1      43.260  21.981  24.845  1.00  0.00    -0.200 F 
ENDBRANCH  52  76
BRANCH  64  87
ATOM     87  C   UNL A   1      46.906  26.470  33.336  1.00  0.00     0.064 A 
ATOM     88  C   UNL A   1      48.161  26.964  32.949  1.00  0.00     0.173 A 
ATOM     89  C   UNL A   1      46.873  25.433  34.282  1.00  0.00     0.173 A 
ATOM     90  F   UNL A   1      48.250  27.944  32.037  1.00  0.00    -0.203 F 
ATOM     91  C   UNL A   1      49.334  26.422  33.467  1.00  0.00     0.198 A 
ATOM     92  C   UNL A   1      48.047  24.918  34.824  1.00  0.00     0.198 A 
ATOM     93  F   UNL A   1      45.700  24.928  34.691  1.00  0.00    -0.203 F 
ATOM     94  F   UNL A   1      50.523  26.874  33.044  1.00  0.00    -0.200 F 
ATOM     95  C   UNL A   1      49.276  25.407  34.410  1.00  0.00     0.200 A 
ATOM     96  F   UNL A   1      47.988  23.949  35.747  1.00  0.00    -0.200 F 
ATOM     97  F   UNL A   1      50.407  24.894  34.915  1.00  0.00    -0.200 F 
ENDBRANCH  64  87
ENDBRANCH  38  39
ENDBRANCH  30  33
ENDBRANCH  28  29
ENDBRANCH  27  28
ENDBRANCH  26  27
ENDBRANCH  25  26
ENDBRANCH   1  25
TORSDOF 19
ENDMDL
MODEL 3
REMARK VINA RESULT:     -11.0      1.480      2.409
REMARK SMILES C[C@H](NC(=O)N(CC(=O)NCCCCCCNC(=O)c1ccc(-c2c3nc(c(-c4c(F)c(F)c(F)c(F)c4F)c4ccc([nH]4)c(-c4c(F)c(F)c(F)c(F)c4F)c4nc(c(-c5c(F)c(F)c(F)c(F)c5F)c5ccc2[nH]5)C=C4)C=C3)cc1)CC(F)(F)F)[C@@H]1CCCO1
REMARK SMILES IDX 12 1 11 2 10 3 8 4 9 5 7 7 6 8 4 9 3 10 5 12 2 13 1 14 88 15
REMARK SMILES IDX 89 16 92 17 90 18 91 19 83 20 84 21 85 22 86 23 87 24 13 25
REMARK SMILES IDX 14 26 15 27 16 28 17 29 18 30 19 32 20 33 21 34 82 35 22 36
REMARK SMILES IDX 81 37 23 38 24 39 25 40 75 41 26 42 80 43 74 44 76 45 27 46
REMARK SMILES IDX 79 47 73 48 72 49 28 51 60 52 40 53 59 54 41 55 44 56 58 57
REMARK SMILES IDX 77 58 42 59 43 60 57 62 78 63 45 64 29 65 30 66 38 67 31 68
REMARK SMILES IDX 32 69 36 70 39 71 33 72 34 73 37 74 35 75 61 76 62 77 70 78
REMARK SMILES IDX 63 79 64 80 68 81 71 82 65 83 66 84 69 85 67 86 46 87 47 88
REMARK SMILES IDX 55 89 48 90 49 91 53 92 56 93 50 94 51 95 54 96 52 97
REMARK H PARENT 10 6 3 11 17 31 76 50 44 61
REMARK Flexibility Score: inf
ROOT
ATOM      1  C   UNL A   1      35.278  21.494  26.121  1.00  0.00     0.021 C 
ENDROOT
BRANCH   1   2
ATOM      2  C   UNL A   1      34.951  22.976  26.262  1.00  0.00     0.116 C 
BRANCH   2   3
ATOM      3  N   UNL A   1      33.751  23.165  27.051  1.00  0.00    -0.355 N 
ATOM      4  C   UNL A   1      32.477  23.446  26.675  1.00  0.00     0.239 C 
ATOM      5  O   UNL A   1      31.647  23.618  27.574  1.00  0.00    -0.273 OA
ATOM      6  H   UNL A   1      33.882  23.077  28.022  1.00  0.00     0.163 HD
BRANCH   4   7
ATOM      7  C   UNL A   1      32.014  23.325  25.219  1.00  0.00     0.221 C 
BRANCH   7   8
ATOM      8  N   UNL A   1      31.520  24.495  24.485  1.00  0.00    -0.306 N 
BRANCH   8   9
ATOM      9  C   UNL A   1      30.907  25.630  24.948  1.00  0.00     0.318 C 
ATOM     10  N   UNL A   1      31.404  26.873  24.787  1.00  0.00    -0.333 N 
ATOM     11  H   UNL A   1      30.846  27.553  25.229  1.00  0.00     0.165 HD
ATOM     12  O   UNL A   1      29.827  25.560  25.542  1.00  0.00    -0.249 OA
BRANCH  10  13
ATOM     13  C   UNL A   1      32.565  27.467  24.119  1.00  0.00     0.109 C 
ATOM     14  C   UNL A   1      32.136  28.309  22.908  1.00  0.00     0.034 C 
BRANCH  13  15
ATOM     15  C   UNL A   1      33.425  28.334  25.068  1.00  0.00     0.140 C 
ATOM     16  C   UNL A   1      33.447  27.783  26.487  1.00  0.00     0.036 C 
ATOM     17  O   UNL A   1      32.898  29.665  25.222  1.00  0.00    -0.376 OA
ATOM     18  C   UNL A   1      33.913  28.980  27.273  1.00  0.00     0.031 C 
ATOM     19  C   UNL A   1      33.294  30.144  26.521  1.00  0.00     0.160 C 
ENDBRANCH  13  15
ENDBRANCH  10  13
ENDBRANCH   8   9
BRANCH   8  20
ATOM     20  C   UNL A   1      31.744  24.440  23.016  1.00  0.00     0.237 C 
BRANCH  20  21
ATOM     21  C   UNL A   1      33.190  24.431  22.515  1.00  0.00     0.406 C 
ATOM     22  F   UNL A   1      34.090  24.756  23.462  1.00  0.00    -0.169 F 
ATOM     23  F   UNL A   1      33.514  23.195  22.057  1.00  0.00    -0.169 F 
ATOM     24  F   UNL A   1      33.350  25.281  21.475  1.00  0.00    -0.169 F 
ENDBRANCH  20  21
ENDBRANCH   8  20
ENDBRANCH   7   8
ENDBRANCH   4   7
ENDBRANCH   2   3
ENDBRANCH   1   2
BRANCH   1  25
ATOM     25  C   UNL A   1      35.844  21.123  24.748  1.00  0.00     0.002 C 
BRANCH  25  26
ATOM     26  C   UNL A   1      37.364  21.273  24.643  1.00  0.00     0.002 C 
BRANCH  26  27
ATOM     27  C   UNL A   1      38.144  20.006  25.002  1.00  0.00     0.021 C 
BRANCH  27  28
ATOM     28  C   UNL A   1      39.177  20.209  26.104  1.00  0.00     0.116 C 
BRANCH  28  29
ATOM     29  N   UNL A   1      40.204  19.179  26.072  1.00  0.00    -0.352 N 
ATOM     30  C   UNL A   1      41.567  19.325  26.047  1.00  0.00     0.251 C 
ATOM     31  H   UNL A   1      39.876  18.251  26.069  1.00  0.00     0.163 HD
ATOM     32  O   UNL A   1      42.295  18.376  25.789  1.00  0.00    -0.269 OA
BRANCH  30  33
ATOM     33  C   UNL A   1      42.147  20.653  26.322  1.00  0.00     0.039 A 
ATOM     34  C   UNL A   1      42.478  21.482  25.250  1.00  0.00     0.014 A 
ATOM     35  C   UNL A   1      42.347  21.079  27.638  1.00  0.00     0.014 A 
ATOM     36  C   UNL A   1      42.967  22.764  25.500  1.00  0.00     0.010 A 
ATOM     37  C   UNL A   1      42.757  22.383  27.886  1.00  0.00     0.010 A 
ATOM     38  C   UNL A   1      43.081  23.234  26.819  1.00  0.00    -0.014 A 
BRANCH  38  39
ATOM     39  C   UNL A   1      43.544  24.614  27.099  1.00  0.00     0.031 A 
ATOM     40  C   UNL A   1      42.578  25.647  27.604  1.00  0.00     0.074 A 
ATOM     41  C   UNL A   1      44.821  24.951  26.837  1.00  0.00     0.049 A 
ATOM     42  N   UNL A   1      42.780  26.914  27.863  1.00  0.00    -0.248 NA
ATOM     43  C   UNL A   1      41.192  25.203  27.820  1.00  0.00     0.031 C 
ATOM     44  C   UNL A   1      45.834  24.052  26.285  1.00  0.00     0.029 A 
ATOM     45  N   UNL A   1      45.480  26.145  26.984  1.00  0.00    -0.354 N 
ATOM     46  C   UNL A   1      41.546  27.419  28.257  1.00  0.00     0.074 A 
ATOM     47  C   UNL A   1      40.592  26.338  28.142  1.00  0.00     0.031 C 
ATOM     48  C   UNL A   1      46.991  24.720  26.155  1.00  0.00     0.029 A 
ATOM     49  C   UNL A   1      46.790  26.104  26.576  1.00  0.00     0.049 A 
ATOM     50  H   UNL A   1      45.054  26.955  27.349  1.00  0.00     0.167 HD
ATOM     51  C   UNL A   1      41.245  28.663  28.697  1.00  0.00     0.037 A 
ATOM     52  C   UNL A   1      47.721  27.075  26.534  1.00  0.00     0.037 A 
ATOM     53  C   UNL A   1      42.207  29.729  28.817  1.00  0.00     0.049 A 
ATOM     54  C   UNL A   1      47.365  28.452  27.025  1.00  0.00     0.074 A 
ATOM     55  C   UNL A   1      42.021  31.006  29.316  1.00  0.00     0.029 A 
ATOM     56  N   UNL A   1      43.533  29.644  28.416  1.00  0.00    -0.354 N 
ATOM     57  N   UNL A   1      46.220  28.896  27.482  1.00  0.00    -0.248 NA
ATOM     58  C   UNL A   1      48.435  29.458  27.007  1.00  0.00     0.031 C 
ATOM     59  C   UNL A   1      43.218  31.714  29.157  1.00  0.00     0.029 A 
ATOM     60  C   UNL A   1      44.170  30.858  28.624  1.00  0.00     0.049 A 
ATOM     61  H   UNL A   1      43.959  28.841  28.039  1.00  0.00     0.167 HD
ATOM     62  C   UNL A   1      46.433  30.224  27.825  1.00  0.00     0.074 A 
ATOM     63  C   UNL A   1      47.825  30.507  27.541  1.00  0.00     0.031 C 
ATOM     64  C   UNL A   1      45.555  31.127  28.330  1.00  0.00     0.037 A 
BRANCH  51  65
ATOM     65  C   UNL A   1      39.815  28.937  29.069  1.00  0.00     0.064 A 
ATOM     66  C   UNL A   1      38.889  29.438  28.140  1.00  0.00     0.173 A 
ATOM     67  C   UNL A   1      39.360  28.687  30.373  1.00  0.00     0.173 A 
ATOM     68  F   UNL A   1      39.272  29.704  26.882  1.00  0.00    -0.203 F 
ATOM     69  C   UNL A   1      37.578  29.724  28.513  1.00  0.00     0.198 A 
ATOM     70  C   UNL A   1      38.037  28.937  30.733  1.00  0.00     0.198 A 
ATOM     71  F   UNL A   1      40.196  28.199  31.302  1.00  0.00    -0.203 F 
ATOM     72  F   UNL A   1      36.734  30.268  27.625  1.00  0.00    -0.200 F 
ATOM     73  C   UNL A   1      37.152  29.468  29.806  1.00  0.00     0.200 A 
ATOM     74  F   UNL A   1      37.622  28.673  31.980  1.00  0.00    -0.200 F 
ATOM     75  F   UNL A   1      35.890  29.742  30.165  1.00  0.00    -0.200 F 
ENDBRANCH  51  65
BRANCH  52  76
ATOM     76  C   UNL A   1      49.079  26.766  26.015  1.00  0.00     0.064 A 
ATOM     77  C   UNL A   1      49.409  26.983  24.671  1.00  0.00     0.173 A 
ATOM     78  C   UNL A   1      50.082  26.268  26.861  1.00  0.00     0.173 A 
ATOM     79  F   UNL A   1      48.479  27.439  23.819  1.00  0.00    -0.203 F 
ATOM     80  C   UNL A   1      50.686  26.700  24.189  1.00  0.00     0.198 A 
ATOM     81  C   UNL A   1      51.367  26.017  26.385  1.00  0.00     0.198 A 
ATOM     82  F   UNL A   1      49.820  26.052  28.158  1.00  0.00    -0.203 F 
ATOM     83  F   UNL A   1      50.965  26.881  22.891  1.00  0.00    -0.200 F 
ATOM     84  C   UNL A   1      51.666  26.227  25.048  1.00  0.00     0.200 A 
ATOM     85  F   UNL A   1      52.315  25.579  27.224  1.00  0.00    -0.200 F 
ATOM     86  F   UNL A   1      52.898  25.969  24.587  1.00  0.00    -0.200 F 
ENDBRANCH  52  76
BRANCH  64  87
ATOM     87  C   UNL A   1      46.081  32.502  28.634  1.00  0.00     0.064 A 
ATOM     88  C   UNL A   1      46.025  33.540  27.692  1.00  0.00     0.173 A 
ATOM     89  C   UNL A   1      46.611  32.794  29.901  1.00  0.00     0.173 A 
ATOM     90  F   UNL A   1      45.541  33.311  26.462  1.00  0.00    -0.203 F 
ATOM     91  C   UNL A   1      46.506  34.810  27.997  1.00  0.00     0.198 A 
ATOM     92  C   UNL A   1      47.059  34.075  30.213  1.00  0.00     0.198 A 
ATOM     93  F   UNL A   1      46.683  31.840  30.841  1.00  0.00    -0.203 F 
ATOM     94  F   UNL A   1      46.492  35.773  27.064  1.00  0.00    -0.200 F 
ATOM     95  C   UNL A   1      47.015  35.079  29.259  1.00  0.00     0.200 A 
ATOM     96  F   UNL A   1      47.534  34.336  31.439  1.00  0.00    -0.200 F 
ATOM     97  F   UNL A   1      47.469  36.305  29.553  1.00  0.00    -0.200 F 
ENDBRANCH  64  87
ENDBRANCH  38  39
ENDBRANCH  30  33
ENDBRANCH  28  29
ENDBRANCH  27  28
ENDBRANCH  26  27
ENDBRANCH  25  26
ENDBRANCH   1  25
TORSDOF 19
ENDMDL
