MODEL 1
REMARK VINA RESULT:     -11.2      0.000      0.000
REMARK SMILES CC[C@@H]1CCc2c(sc(NC(=O)COCC(=O)NCCCCCCNC(=O)c3ccc(-c4c5nc(c(-c6c(F)c(F)c(F)c(F)c6F)c6ccc([nH]6)c(-c6c(F)c(F)c(F)c(F)c6F)c6nc(c(-c7c(F)c(F)c(F)c(F)c7F)c7ccc4[nH]7)C=C6)C=C5)cc3)c2C(N)=O)C1
REMARK SMILES IDX 20 1 19 2 18 3 16 4 17 5 15 7 14 8 13 9 11 10 10 11 12 13
REMARK SMILES IDX 9 14 3 15 4 16 95 17 5 18 7 19 6 20 8 21 91 22 2 23 1 24
REMARK SMILES IDX 92 25 93 26 94 27 21 30 22 31 23 32 24 33 25 34 26 35 27 37
REMARK SMILES IDX 28 38 29 39 90 40 30 41 89 42 31 43 32 44 33 45 83 46 34 47
REMARK SMILES IDX 88 48 82 49 84 50 35 51 87 52 81 53 80 54 36 56 68 57 48 58
REMARK SMILES IDX 67 59 49 60 52 61 66 62 85 63 50 64 51 65 65 67 86 68 53 69
REMARK SMILES IDX 37 70 38 71 46 72 39 73 40 74 44 75 47 76 41 77 42 78 45 79
REMARK SMILES IDX 43 80 69 81 70 82 78 83 71 84 72 85 76 86 79 87 73 88 74 89
REMARK SMILES IDX 77 90 75 91 54 92 55 93 63 94 56 95 57 96 61 97 64 98 58 99
REMARK SMILES IDX 59 100 62 101 60 102
REMARK H PARENT 18 6 10 12 93 28 93 29 25 36 84 55 52 66
REMARK Flexibility Score: inf
ROOT
ATOM      1  C   UNL A   1      34.651  31.317  28.081  1.00  0.00     0.021 C 
ENDROOT
BRANCH   1   2
ATOM      2  C   UNL A   1      33.553  30.814  27.143  1.00  0.00     0.116 C 
BRANCH   2   3
ATOM      3  N   UNL A   1      34.043  29.806  26.220  1.00  0.00    -0.354 N 
ATOM      4  C   UNL A   1      33.334  29.065  25.316  1.00  0.00     0.246 C 
ATOM      5  O   UNL A   1      33.924  28.235  24.626  1.00  0.00    -0.272 OA
ATOM      6  H   UNL A   1      35.012  29.635  26.247  1.00  0.00     0.163 HD
BRANCH   4   7
ATOM      7  C   UNL A   1      31.828  29.288  25.196  1.00  0.00     0.260 C 
BRANCH   7   8
ATOM      8  O   UNL A   1      31.227  28.310  24.362  1.00  0.00    -0.362 OA
BRANCH   8   9
ATOM      9  C   UNL A   1      30.415  27.397  25.070  1.00  0.00     0.261 C 
BRANCH   9  10
ATOM     10  C   UNL A   1      29.675  26.422  24.179  1.00  0.00     0.251 C 
ATOM     11  N   UNL A   1      30.232  25.334  23.600  1.00  0.00    -0.315 N 
ATOM     12  H   UNL A   1      29.563  24.816  23.096  1.00  0.00     0.170 HD
ATOM     13  O   UNL A   1      28.473  26.615  23.944  1.00  0.00    -0.272 OA
BRANCH  11  14
ATOM     14  C   UNL A   1      31.476  24.752  23.518  1.00  0.00     0.108 A 
ATOM     15  C   UNL A   1      35.373  22.362  25.149  1.00  0.00    -0.006 C 
ATOM     16  C   UNL A   1      35.761  22.460  23.658  1.00  0.00     0.009 C 
ATOM     17  C   UNL A   1      33.848  22.167  25.289  1.00  0.00     0.050 C 
ATOM     18  C   UNL A   1      35.009  23.534  22.844  1.00  0.00     0.038 C 
ATOM     19  C   UNL A   1      33.108  23.149  24.445  1.00  0.00     0.011 A 
ATOM     20  C   UNL A   1      33.616  23.813  23.354  1.00  0.00    -0.019 A 
ATOM     21  S   UNL A   1      31.493  23.524  24.729  1.00  0.00    -0.122 S 
ATOM     22  C   UNL A   1      32.685  24.818  22.837  1.00  0.00     0.077 A 
BRANCH  15  23
ATOM     23  C   UNL A   1      35.937  23.474  26.070  1.00  0.00     0.000 C 
ATOM     24  C   UNL A   1      37.393  23.882  25.909  1.00  0.00     0.004 C 
ENDBRANCH  15  23
BRANCH  22  25
ATOM     25  C   UNL A   1      33.095  25.704  21.753  1.00  0.00     0.251 C 
ATOM     26  N   UNL A   1      33.128  27.035  22.050  1.00  0.00    -0.365 N 
ATOM     27  O   UNL A   1      33.280  25.325  20.606  1.00  0.00    -0.269 OA
ATOM     28  H   UNL A   1      32.980  27.337  22.974  1.00  0.00     0.159 HD
ATOM     29  H   UNL A   1      33.302  27.693  21.338  1.00  0.00     0.159 HD
ENDBRANCH  22  25
ENDBRANCH  11  14
ENDBRANCH   9  10
ENDBRANCH   8   9
ENDBRANCH   7   8
ENDBRANCH   4   7
ENDBRANCH   2   3
ENDBRANCH   1   2
BRANCH   1  30
ATOM     30  C   UNL A   1      34.942  32.820  27.992  1.00  0.00     0.002 C 
BRANCH  30  31
ATOM     31  C   UNL A   1      34.499  33.651  29.199  1.00  0.00     0.002 C 
BRANCH  31  32
ATOM     32  C   UNL A   1      33.273  34.536  28.971  1.00  0.00     0.021 C 
BRANCH  32  33
ATOM     33  C   UNL A   1      33.383  35.950  29.531  1.00  0.00     0.116 C 
BRANCH  33  34
ATOM     34  N   UNL A   1      32.503  36.171  30.668  1.00  0.00    -0.352 N 
ATOM     35  C   UNL A   1      32.608  35.715  31.959  1.00  0.00     0.251 C 
ATOM     36  H   UNL A   1      31.714  36.732  30.486  1.00  0.00     0.163 HD
ATOM     37  O   UNL A   1      31.684  35.878  32.750  1.00  0.00    -0.269 OA
BRANCH  35  38
ATOM     38  C   UNL A   1      33.830  35.005  32.396  1.00  0.00     0.039 A 
ATOM     39  C   UNL A   1      33.715  33.694  32.866  1.00  0.00     0.014 A 
ATOM     40  C   UNL A   1      35.078  35.629  32.355  1.00  0.00     0.014 A 
ATOM     41  C   UNL A   1      34.861  32.988  33.240  1.00  0.00     0.010 A 
ATOM     42  C   UNL A   1      36.227  34.902  32.659  1.00  0.00     0.010 A 
ATOM     43  C   UNL A   1      36.129  33.578  33.111  1.00  0.00    -0.014 A 
BRANCH  43  44
ATOM     44  C   UNL A   1      37.364  32.831  33.458  1.00  0.00     0.031 A 
ATOM     45  C   UNL A   1      38.093  33.132  34.738  1.00  0.00     0.074 A 
ATOM     46  C   UNL A   1      37.865  31.927  32.595  1.00  0.00     0.049 A 
ATOM     47  N   UNL A   1      39.219  32.639  35.188  1.00  0.00    -0.248 NA
ATOM     48  C   UNL A   1      37.487  34.144  35.616  1.00  0.00     0.031 C 
ATOM     49  C   UNL A   1      37.273  31.574  31.304  1.00  0.00     0.029 A 
ATOM     50  N   UNL A   1      38.990  31.145  32.671  1.00  0.00    -0.354 N 
ATOM     51  C   UNL A   1      39.461  33.289  36.391  1.00  0.00     0.074 A 
ATOM     52  C   UNL A   1      38.397  34.254  36.571  1.00  0.00     0.031 C 
ATOM     53  C   UNL A   1      38.025  30.625  30.722  1.00  0.00     0.029 A 
ATOM     54  C   UNL A   1      39.169  30.331  31.580  1.00  0.00     0.049 A 
ATOM     55  H   UNL A   1      39.610  31.166  33.435  1.00  0.00     0.167 HD
ATOM     56  C   UNL A   1      40.464  33.083  37.279  1.00  0.00     0.037 A 
ATOM     57  C   UNL A   1      40.147  29.449  31.303  1.00  0.00     0.037 A 
ATOM     58  C   UNL A   1      41.510  32.109  37.105  1.00  0.00     0.049 A 
ATOM     59  C   UNL A   1      41.262  29.250  32.294  1.00  0.00     0.074 A 
ATOM     60  C   UNL A   1      42.547  31.792  37.965  1.00  0.00     0.029 A 
ATOM     61  N   UNL A   1      41.655  31.298  35.988  1.00  0.00    -0.354 N 
ATOM     62  N   UNL A   1      41.449  29.827  33.456  1.00  0.00    -0.248 NA
ATOM     63  C   UNL A   1      42.296  28.271  31.937  1.00  0.00     0.031 C 
ATOM     64  C   UNL A   1      43.343  30.818  37.350  1.00  0.00     0.029 A 
ATOM     65  C   UNL A   1      42.774  30.492  36.129  1.00  0.00     0.049 A 
ATOM     66  H   UNL A   1      41.050  31.294  35.211  1.00  0.00     0.167 HD
ATOM     67  C   UNL A   1      42.601  29.258  33.984  1.00  0.00     0.074 A 
ATOM     68  C   UNL A   1      43.064  28.284  33.017  1.00  0.00     0.031 C 
ATOM     69  C   UNL A   1      43.216  29.518  35.164  1.00  0.00     0.037 A 
BRANCH  56  70
ATOM     70  C   UNL A   1      40.471  33.933  38.517  1.00  0.00     0.064 A 
ATOM     71  C   UNL A   1      41.203  35.129  38.585  1.00  0.00     0.173 A 
ATOM     72  C   UNL A   1      39.732  33.553  39.648  1.00  0.00     0.173 A 
ATOM     73  F   UNL A   1      41.936  35.532  37.536  1.00  0.00    -0.203 F 
ATOM     74  C   UNL A   1      41.230  35.889  39.751  1.00  0.00     0.198 A 
ATOM     75  C   UNL A   1      39.735  34.333  40.801  1.00  0.00     0.198 A 
ATOM     76  F   UNL A   1      39.008  32.423  39.637  1.00  0.00    -0.203 F 
ATOM     77  F   UNL A   1      41.989  36.992  39.812  1.00  0.00    -0.200 F 
ATOM     78  C   UNL A   1      40.492  35.494  40.857  1.00  0.00     0.200 A 
ATOM     79  F   UNL A   1      39.011  33.958  41.864  1.00  0.00    -0.200 F 
ATOM     80  F   UNL A   1      40.521  36.225  41.979  1.00  0.00    -0.200 F 
ENDBRANCH  56  70
BRANCH  57  81
ATOM     81  C   UNL A   1      40.092  28.653  30.050  1.00  0.00     0.064 A 
ATOM     82  C   UNL A   1      40.687  29.130  28.873  1.00  0.00     0.173 A 
ATOM     83  C   UNL A   1      39.458  27.403  30.001  1.00  0.00     0.173 A 
ATOM     84  F   UNL A   1      41.287  30.330  28.866  1.00  0.00    -0.203 F 
ATOM     85  C   UNL A   1      40.636  28.395  27.691  1.00  0.00     0.198 A 
ATOM     86  C   UNL A   1      39.430  26.657  28.825  1.00  0.00     0.198 A 
ATOM     87  F   UNL A   1      38.878  26.902  31.101  1.00  0.00    -0.203 F 
ATOM     88  F   UNL A   1      41.178  28.892  26.571  1.00  0.00    -0.200 F 
ATOM     89  C   UNL A   1      40.014  27.156  27.670  1.00  0.00     0.200 A 
ATOM     90  F   UNL A   1      38.840  25.454  28.811  1.00  0.00    -0.200 F 
ATOM     91  F   UNL A   1      39.971  26.445  26.534  1.00  0.00    -0.200 F 
ENDBRANCH  57  81
BRANCH  69  92
ATOM     92  C   UNL A   1      44.433  28.704  35.498  1.00  0.00     0.064 A 
ATOM     93  C   UNL A   1      45.723  29.126  35.149  1.00  0.00     0.173 A 
ATOM     94  C   UNL A   1      44.305  27.503  36.213  1.00  0.00     0.173 A 
ATOM     95  F   UNL A   1      45.898  30.259  34.452  1.00  0.00    -0.203 F 
ATOM     96  C   UNL A   1      46.839  28.360  35.479  1.00  0.00     0.198 A 
ATOM     97  C   UNL A   1      45.425  26.757  36.567  1.00  0.00     0.198 A 
ATOM     98  F   UNL A   1      43.093  27.058  36.577  1.00  0.00    -0.203 F 
ATOM     99  F   UNL A   1      48.059  28.758  35.092  1.00  0.00    -0.200 F 
ATOM    100  C   UNL A   1      46.689  27.182  36.194  1.00  0.00     0.200 A 
ATOM    101  F   UNL A   1      45.278  25.625  37.271  1.00  0.00    -0.200 F 
ATOM    102  F   UNL A   1      47.766  26.451  36.516  1.00  0.00    -0.200 F 
ENDBRANCH  69  92
ENDBRANCH  43  44
ENDBRANCH  35  38
ENDBRANCH  33  34
ENDBRANCH  32  33
ENDBRANCH  31  32
ENDBRANCH  30  31
ENDBRANCH   1  30
TORSDOF 19
ENDMDL
MODEL 2
REMARK VINA RESULT:     -10.9      0.948      2.225
REMARK SMILES CC[C@@H]1CCc2c(sc(NC(=O)COCC(=O)NCCCCCCNC(=O)c3ccc(-c4c5nc(c(-c6c(F)c(F)c(F)c(F)c6F)c6ccc([nH]6)c(-c6c(F)c(F)c(F)c(F)c6F)c6nc(c(-c7c(F)c(F)c(F)c(F)c7F)c7ccc4[nH]7)C=C6)C=C5)cc3)c2C(N)=O)C1
REMARK SMILES IDX 20 1 19 2 18 3 16 4 17 5 15 7 14 8 13 9 11 10 10 11 12 13
REMARK SMILES IDX 9 14 3 15 4 16 95 17 5 18 7 19 6 20 8 21 91 22 2 23 1 24
REMARK SMILES IDX 92 25 93 26 94 27 21 30 22 31 23 32 24 33 25 34 26 35 27 37
REMARK SMILES IDX 28 38 29 39 90 40 30 41 89 42 31 43 32 44 33 45 83 46 34 47
REMARK SMILES IDX 88 48 82 49 84 50 35 51 87 52 81 53 80 54 36 56 68 57 48 58
REMARK SMILES IDX 67 59 49 60 52 61 66 62 85 63 50 64 51 65 65 67 86 68 53 69
REMARK SMILES IDX 37 70 38 71 46 72 39 73 40 74 44 75 47 76 41 77 42 78 45 79
REMARK SMILES IDX 43 80 69 81 70 82 78 83 71 84 72 85 76 86 79 87 73 88 74 89
REMARK SMILES IDX 77 90 75 91 54 92 55 93 63 94 56 95 57 96 61 97 64 98 58 99
REMARK SMILES IDX 59 100 62 101 60 102
REMARK H PARENT 18 6 10 12 93 28 93 29 25 36 84 55 52 66
REMARK Flexibility Score: inf
ROOT
ATOM      1  C   UNL A   1      34.374  31.948  28.018  1.00  0.00     0.021 C 
ENDROOT
BRANCH   1   2
ATOM      2  C   UNL A   1      35.155  30.649  27.824  1.00  0.00     0.116 C 
BRANCH   2   3
ATOM      3  N   UNL A   1      34.320  29.476  28.015  1.00  0.00    -0.354 N 
ATOM      4  C   UNL A   1      33.384  28.951  27.168  1.00  0.00     0.246 C 
ATOM      5  O   UNL A   1      32.754  27.953  27.513  1.00  0.00    -0.272 OA
ATOM      6  H   UNL A   1      34.445  28.995  28.865  1.00  0.00     0.163 HD
BRANCH   4   7
ATOM      7  C   UNL A   1      33.148  29.626  25.818  1.00  0.00     0.260 C 
BRANCH   7   8
ATOM      8  O   UNL A   1      31.842  29.359  25.330  1.00  0.00    -0.362 OA
BRANCH   8   9
ATOM      9  C   UNL A   1      31.797  29.182  23.930  1.00  0.00     0.261 C 
BRANCH   9  10
ATOM     10  C   UNL A   1      30.448  28.722  23.418  1.00  0.00     0.251 C 
ATOM     11  N   UNL A   1      30.136  27.441  23.117  1.00  0.00    -0.315 N 
ATOM     12  H   UNL A   1      29.194  27.358  22.842  1.00  0.00     0.170 HD
ATOM     13  O   UNL A   1      29.551  29.560  23.249  1.00  0.00    -0.272 OA
BRANCH  11  14
ATOM     14  C   UNL A   1      30.772  26.221  23.089  1.00  0.00     0.108 A 
ATOM     15  C   UNL A   1      32.517  22.082  24.928  1.00  0.00    -0.006 C 
ATOM     16  C   UNL A   1      32.809  21.821  23.434  1.00  0.00     0.009 C 
ATOM     17  C   UNL A   1      31.192  22.860  25.081  1.00  0.00     0.050 C 
ATOM     18  C   UNL A   1      32.816  23.070  22.529  1.00  0.00     0.038 C 
ATOM     19  C   UNL A   1      31.152  24.027  24.154  1.00  0.00     0.011 A 
ATOM     20  C   UNL A   1      31.901  24.170  23.010  1.00  0.00    -0.019 A 
ATOM     21  S   UNL A   1      30.106  25.322  24.402  1.00  0.00    -0.122 S 
ATOM     22  C   UNL A   1      31.738  25.494  22.406  1.00  0.00     0.077 A 
BRANCH  15  23
ATOM     23  C   UNL A   1      33.684  22.687  25.749  1.00  0.00     0.000 C 
ATOM     24  C   UNL A   1      35.109  22.423  25.290  1.00  0.00     0.004 C 
ENDBRANCH  15  23
BRANCH  22  25
ATOM     25  C   UNL A   1      32.543  25.872  21.250  1.00  0.00     0.251 C 
ATOM     26  N   UNL A   1      31.977  25.650  20.029  1.00  0.00    -0.365 N 
ATOM     27  O   UNL A   1      33.703  26.248  21.331  1.00  0.00    -0.269 OA
ATOM     28  H   UNL A   1      31.043  25.348  19.967  1.00  0.00     0.159 HD
ATOM     29  H   UNL A   1      32.505  25.792  19.209  1.00  0.00     0.159 HD
ENDBRANCH  22  25
ENDBRANCH  11  14
ENDBRANCH   9  10
ENDBRANCH   8   9
ENDBRANCH   7   8
ENDBRANCH   4   7
ENDBRANCH   2   3
ENDBRANCH   1   2
BRANCH   1  30
ATOM     30  C   UNL A   1      34.727  32.734  29.287  1.00  0.00     0.002 C 
BRANCH  30  31
ATOM     31  C   UNL A   1      35.277  34.144  29.059  1.00  0.00     0.002 C 
BRANCH  31  32
ATOM     32  C   UNL A   1      34.244  35.270  29.125  1.00  0.00     0.021 C 
BRANCH  32  33
ATOM     33  C   UNL A   1      32.870  34.857  29.642  1.00  0.00     0.116 C 
BRANCH  33  34
ATOM     34  N   UNL A   1      32.396  35.713  30.718  1.00  0.00    -0.352 N 
ATOM     35  C   UNL A   1      32.826  35.804  32.019  1.00  0.00     0.251 C 
ATOM     36  H   UNL A   1      31.658  36.319  30.479  1.00  0.00     0.163 HD
ATOM     37  O   UNL A   1      32.202  36.481  32.830  1.00  0.00    -0.269 OA
BRANCH  35  38
ATOM     38  C   UNL A   1      34.035  35.069  32.452  1.00  0.00     0.039 A 
ATOM     39  C   UNL A   1      33.902  33.743  32.871  1.00  0.00     0.014 A 
ATOM     40  C   UNL A   1      35.288  35.685  32.458  1.00  0.00     0.014 A 
ATOM     41  C   UNL A   1      35.035  33.015  33.240  1.00  0.00     0.010 A 
ATOM     42  C   UNL A   1      36.426  34.939  32.756  1.00  0.00     0.010 A 
ATOM     43  C   UNL A   1      36.310  33.599  33.157  1.00  0.00    -0.014 A 
BRANCH  43  44
ATOM     44  C   UNL A   1      37.533  32.830  33.499  1.00  0.00     0.031 A 
ATOM     45  C   UNL A   1      38.258  33.102  34.788  1.00  0.00     0.074 A 
ATOM     46  C   UNL A   1      38.027  31.934  32.625  1.00  0.00     0.049 A 
ATOM     47  N   UNL A   1      39.374  32.587  35.237  1.00  0.00    -0.248 NA
ATOM     48  C   UNL A   1      37.660  34.108  35.679  1.00  0.00     0.031 C 
ATOM     49  C   UNL A   1      37.438  31.609  31.325  1.00  0.00     0.029 A 
ATOM     50  N   UNL A   1      39.141  31.136  32.695  1.00  0.00    -0.354 N 
ATOM     51  C   UNL A   1      39.618  33.214  36.451  1.00  0.00     0.074 A 
ATOM     52  C   UNL A   1      38.566  34.190  36.641  1.00  0.00     0.031 C 
ATOM     53  C   UNL A   1      38.181  30.660  30.732  1.00  0.00     0.029 A 
ATOM     54  C   UNL A   1      39.315  30.337  31.593  1.00  0.00     0.049 A 
ATOM     55  H   UNL A   1      39.757  31.137  33.463  1.00  0.00     0.167 HD
ATOM     56  C   UNL A   1      40.613  32.981  37.341  1.00  0.00     0.037 A 
ATOM     57  C   UNL A   1      40.284  29.446  31.307  1.00  0.00     0.037 A 
ATOM     58  C   UNL A   1      41.648  31.997  37.158  1.00  0.00     0.049 A 
ATOM     59  C   UNL A   1      41.389  29.217  32.302  1.00  0.00     0.074 A 
ATOM     60  C   UNL A   1      42.674  31.652  38.019  1.00  0.00     0.029 A 
ATOM     61  N   UNL A   1      41.788  31.201  36.029  1.00  0.00    -0.354 N 
ATOM     62  N   UNL A   1      41.578  29.773  33.473  1.00  0.00    -0.248 NA
ATOM     63  C   UNL A   1      42.413  28.229  31.934  1.00  0.00     0.031 C 
ATOM     64  C   UNL A   1      43.462  30.678  37.393  1.00  0.00     0.029 A 
ATOM     65  C   UNL A   1      42.895  30.378  36.164  1.00  0.00     0.049 A 
ATOM     66  H   UNL A   1      41.188  31.217  35.249  1.00  0.00     0.167 HD
ATOM     67  C   UNL A   1      42.719  29.181  33.998  1.00  0.00     0.074 A 
ATOM     68  C   UNL A   1      43.175  28.215  33.020  1.00  0.00     0.031 C 
ATOM     69  C   UNL A   1      43.330  29.414  35.186  1.00  0.00     0.037 A 
BRANCH  56  70
ATOM     70  C   UNL A   1      40.624  33.812  38.593  1.00  0.00     0.064 A 
ATOM     71  C   UNL A   1      39.861  33.459  39.717  1.00  0.00     0.173 A 
ATOM     72  C   UNL A   1      41.411  34.970  38.674  1.00  0.00     0.173 A 
ATOM     73  F   UNL A   1      39.081  32.368  39.688  1.00  0.00    -0.203 F 
ATOM     74  C   UNL A   1      39.851  34.258  40.857  1.00  0.00     0.198 A 
ATOM     75  C   UNL A   1      41.426  35.748  39.829  1.00  0.00     0.198 A 
ATOM     76  F   UNL A   1      42.167  35.350  37.632  1.00  0.00    -0.203 F 
ATOM     77  F   UNL A   1      39.064  33.935  41.893  1.00  0.00    -0.200 F 
ATOM     78  C   UNL A   1      40.638  35.398  40.915  1.00  0.00     0.200 A 
ATOM     79  F   UNL A   1      42.197  36.842  39.888  1.00  0.00    -0.200 F 
ATOM     80  F   UNL A   1      40.627  36.167  42.013  1.00  0.00    -0.200 F 
ENDBRANCH  56  70
BRANCH  57  81
ATOM     81  C   UNL A   1      40.225  28.671  30.041  1.00  0.00     0.064 A 
ATOM     82  C   UNL A   1      39.551  27.442  29.987  1.00  0.00     0.173 A 
ATOM     83  C   UNL A   1      40.827  29.138  28.864  1.00  0.00     0.173 A 
ATOM     84  F   UNL A   1      38.978  26.944  31.092  1.00  0.00    -0.203 F 
ATOM     85  C   UNL A   1      39.494  26.703  28.807  1.00  0.00     0.198 A 
ATOM     86  C   UNL A   1      40.748  28.411  27.678  1.00  0.00     0.198 A 
ATOM     87  F   UNL A   1      41.480  30.310  28.865  1.00  0.00    -0.203 F 
ATOM     88  F   UNL A   1      38.878  25.514  28.793  1.00  0.00    -0.200 F 
ATOM     89  C   UNL A   1      40.087  27.192  27.653  1.00  0.00     0.200 A 
ATOM     90  F   UNL A   1      41.310  28.892  26.562  1.00  0.00    -0.200 F 
ATOM     91  F   UNL A   1      40.027  26.484  26.516  1.00  0.00    -0.200 F 
ENDBRANCH  57  81
BRANCH  69  92
ATOM     92  C   UNL A   1      44.534  28.579  35.515  1.00  0.00     0.064 A 
ATOM     93  C   UNL A   1      44.423  27.353  36.187  1.00  0.00     0.173 A 
ATOM     94  C   UNL A   1      45.814  28.996  35.116  1.00  0.00     0.173 A 
ATOM     95  F   UNL A   1      43.224  26.918  36.603  1.00  0.00    -0.203 F 
ATOM     96  C   UNL A   1      45.552  26.590  36.473  1.00  0.00     0.198 A 
ATOM     97  C   UNL A   1      46.936  28.214  35.376  1.00  0.00     0.198 A 
ATOM     98  F   UNL A   1      45.974  30.157  34.464  1.00  0.00    -0.203 F 
ATOM     99  F   UNL A   1      45.427  25.445  37.160  1.00  0.00    -0.200 F 
ATOM    100  C   UNL A   1      46.805  27.017  36.060  1.00  0.00     0.200 A 
ATOM    101  F   UNL A   1      48.144  28.623  34.964  1.00  0.00    -0.200 F 
ATOM    102  F   UNL A   1      47.889  26.276  36.331  1.00  0.00    -0.200 F 
ENDBRANCH  69  92
ENDBRANCH  43  44
ENDBRANCH  35  38
ENDBRANCH  33  34
ENDBRANCH  32  33
ENDBRANCH  31  32
ENDBRANCH  30  31
ENDBRANCH   1  30
TORSDOF 19
ENDMDL
MODEL 3
REMARK VINA RESULT:     -10.7      1.137      2.038
REMARK SMILES CC[C@@H]1CCc2c(sc(NC(=O)COCC(=O)NCCCCCCNC(=O)c3ccc(-c4c5nc(c(-c6c(F)c(F)c(F)c(F)c6F)c6ccc([nH]6)c(-c6c(F)c(F)c(F)c(F)c6F)c6nc(c(-c7c(F)c(F)c(F)c(F)c7F)c7ccc4[nH]7)C=C6)C=C5)cc3)c2C(N)=O)C1
REMARK SMILES IDX 20 1 19 2 18 3 16 4 17 5 15 7 14 8 13 9 11 10 10 11 12 13
REMARK SMILES IDX 9 14 3 15 4 16 95 17 5 18 7 19 6 20 8 21 91 22 2 23 1 24
REMARK SMILES IDX 92 25 93 26 94 27 21 30 22 31 23 32 24 33 25 34 26 35 27 37
REMARK SMILES IDX 28 38 29 39 90 40 30 41 89 42 31 43 32 44 33 45 83 46 34 47
REMARK SMILES IDX 88 48 82 49 84 50 35 51 87 52 81 53 80 54 36 56 68 57 48 58
REMARK SMILES IDX 67 59 49 60 52 61 66 62 85 63 50 64 51 65 65 67 86 68 53 69
REMARK SMILES IDX 37 70 38 71 46 72 39 73 40 74 44 75 47 76 41 77 42 78 45 79
REMARK SMILES IDX 43 80 69 81 70 82 78 83 71 84 72 85 76 86 79 87 73 88 74 89
REMARK SMILES IDX 77 90 75 91 54 92 55 93 63 94 56 95 57 96 61 97 64 98 58 99
REMARK SMILES IDX 59 100 62 101 60 102
REMARK H PARENT 18 6 10 12 93 28 93 29 25 36 84 55 52 66
REMARK Flexibility Score: inf
ROOT
ATOM      1  C   UNL A   1      34.086  32.220  27.699  1.00  0.00     0.021 C 
ENDROOT
BRANCH   1   2
ATOM      2  C   UNL A   1      34.364  30.738  27.446  1.00  0.00     0.116 C 
BRANCH   2   3
ATOM      3  N   UNL A   1      33.262  29.894  27.873  1.00  0.00    -0.354 N 
ATOM      4  C   UNL A   1      32.351  29.230  27.101  1.00  0.00     0.246 C 
ATOM      5  O   UNL A   1      31.466  28.573  27.647  1.00  0.00    -0.272 OA
ATOM      6  H   UNL A   1      33.158  29.785  28.846  1.00  0.00     0.163 HD
BRANCH   4   7
ATOM      7  C   UNL A   1      32.458  29.329  25.581  1.00  0.00     0.260 C 
BRANCH   7   8
ATOM      8  O   UNL A   1      32.313  28.056  24.970  1.00  0.00    -0.362 OA
BRANCH   8   9
ATOM      9  C   UNL A   1      32.351  28.107  23.560  1.00  0.00     0.261 C 
BRANCH   9  10
ATOM     10  C   UNL A   1      31.410  27.130  22.889  1.00  0.00     0.251 C 
ATOM     11  N   UNL A   1      31.327  25.813  23.188  1.00  0.00    -0.315 N 
ATOM     12  H   UNL A   1      30.622  25.371  22.662  1.00  0.00     0.170 HD
ATOM     13  O   UNL A   1      30.654  27.538  21.996  1.00  0.00    -0.272 OA
BRANCH  11  14
ATOM     14  C   UNL A   1      31.958  24.920  24.023  1.00  0.00     0.108 A 
ATOM     15  C   UNL A   1      34.543  20.972  25.160  1.00  0.00    -0.006 C 
ATOM     16  C   UNL A   1      34.429  21.595  26.568  1.00  0.00     0.009 C 
ATOM     17  C   UNL A   1      34.677  22.083  24.097  1.00  0.00     0.050 C 
ATOM     18  C   UNL A   1      33.308  22.640  26.744  1.00  0.00     0.038 C 
ATOM     19  C   UNL A   1      33.648  23.142  24.303  1.00  0.00     0.011 A 
ATOM     20  C   UNL A   1      32.982  23.397  25.479  1.00  0.00    -0.019 A 
ATOM     21  S   UNL A   1      33.212  24.208  23.076  1.00  0.00    -0.122 S 
ATOM     22  C   UNL A   1      31.929  24.399  25.311  1.00  0.00     0.077 A 
BRANCH  15  23
ATOM     23  C   UNL A   1      33.476  19.906  24.803  1.00  0.00     0.000 C 
ATOM     24  C   UNL A   1      32.528  20.186  23.647  1.00  0.00     0.004 C 
ENDBRANCH  15  23
BRANCH  22  25
ATOM     25  C   UNL A   1      31.038  24.715  26.422  1.00  0.00     0.251 C 
ATOM     26  N   UNL A   1      30.726  26.034  26.582  1.00  0.00    -0.365 N 
ATOM     27  O   UNL A   1      30.677  23.893  27.251  1.00  0.00    -0.269 OA
ATOM     28  H   UNL A   1      31.017  26.693  25.912  1.00  0.00     0.159 HD
ATOM     29  H   UNL A   1      30.209  26.325  27.368  1.00  0.00     0.159 HD
ENDBRANCH  22  25
ENDBRANCH  11  14
ENDBRANCH   9  10
ENDBRANCH   8   9
ENDBRANCH   7   8
ENDBRANCH   4   7
ENDBRANCH   2   3
ENDBRANCH   1   2
BRANCH   1  30
ATOM     30  C   UNL A   1      34.767  32.804  28.943  1.00  0.00     0.002 C 
BRANCH  30  31
ATOM     31  C   UNL A   1      35.274  34.241  28.804  1.00  0.00     0.002 C 
BRANCH  31  32
ATOM     32  C   UNL A   1      34.200  35.327  28.887  1.00  0.00     0.021 C 
BRANCH  32  33
ATOM     33  C   UNL A   1      32.881  34.886  29.513  1.00  0.00     0.116 C 
BRANCH  33  34
ATOM     34  N   UNL A   1      32.434  35.784  30.566  1.00  0.00    -0.352 N 
ATOM     35  C   UNL A   1      32.872  35.901  31.862  1.00  0.00     0.251 C 
ATOM     36  H   UNL A   1      31.709  36.400  30.313  1.00  0.00     0.163 HD
ATOM     37  O   UNL A   1      32.268  36.616  32.657  1.00  0.00    -0.269 OA
BRANCH  35  38
ATOM     38  C   UNL A   1      34.064  35.150  32.312  1.00  0.00     0.039 A 
ATOM     39  C   UNL A   1      33.894  33.861  32.824  1.00  0.00     0.014 A 
ATOM     40  C   UNL A   1      35.339  35.714  32.241  1.00  0.00     0.014 A 
ATOM     41  C   UNL A   1      35.010  33.116  33.211  1.00  0.00     0.010 A 
ATOM     42  C   UNL A   1      36.456  34.946  32.559  1.00  0.00     0.010 A 
ATOM     43  C   UNL A   1      36.302  33.642  33.054  1.00  0.00    -0.014 A 
BRANCH  43  44
ATOM     44  C   UNL A   1      37.505  32.850  33.414  1.00  0.00     0.031 A 
ATOM     45  C   UNL A   1      38.224  33.117  34.707  1.00  0.00     0.074 A 
ATOM     46  C   UNL A   1      37.988  31.935  32.552  1.00  0.00     0.049 A 
ATOM     47  N   UNL A   1      39.325  32.582  35.171  1.00  0.00    -0.248 NA
ATOM     48  C   UNL A   1      37.639  34.144  35.584  1.00  0.00     0.031 C 
ATOM     49  C   UNL A   1      37.405  31.612  31.249  1.00  0.00     0.029 A 
ATOM     50  N   UNL A   1      39.084  31.114  32.640  1.00  0.00    -0.354 N 
ATOM     51  C   UNL A   1      39.570  33.215  36.383  1.00  0.00     0.074 A 
ATOM     52  C   UNL A   1      38.538  34.215  36.553  1.00  0.00     0.031 C 
ATOM     53  C   UNL A   1      38.132  30.642  30.672  1.00  0.00     0.029 A 
ATOM     54  C   UNL A   1      39.251  30.302  31.546  1.00  0.00     0.049 A 
ATOM     55  H   UNL A   1      39.692  31.108  33.413  1.00  0.00     0.167 HD
ATOM     56  C   UNL A   1      40.551  32.968  37.284  1.00  0.00     0.037 A 
ATOM     57  C   UNL A   1      40.203  29.388  31.277  1.00  0.00     0.037 A 
ATOM     58  C   UNL A   1      41.566  31.960  37.119  1.00  0.00     0.049 A 
ATOM     59  C   UNL A   1      41.294  29.144  32.284  1.00  0.00     0.074 A 
ATOM     60  C   UNL A   1      42.577  31.601  37.993  1.00  0.00     0.029 A 
ATOM     61  N   UNL A   1      41.700  31.152  35.999  1.00  0.00    -0.354 N 
ATOM     62  N   UNL A   1      41.483  29.706  33.453  1.00  0.00    -0.248 NA
ATOM     63  C   UNL A   1      42.299  28.131  31.935  1.00  0.00     0.031 C 
ATOM     64  C   UNL A   1      43.349  30.604  37.383  1.00  0.00     0.029 A 
ATOM     65  C   UNL A   1      42.788  30.306  36.151  1.00  0.00     0.049 A 
ATOM     66  H   UNL A   1      41.108  31.174  35.212  1.00  0.00     0.167 HD
ATOM     67  C   UNL A   1      42.607  29.094  33.994  1.00  0.00     0.074 A 
ATOM     68  C   UNL A   1      43.051  28.110  33.028  1.00  0.00     0.031 C 
ATOM     69  C   UNL A   1      43.211  29.324  35.185  1.00  0.00     0.037 A 
BRANCH  56  70
ATOM     70  C   UNL A   1      40.569  33.809  38.528  1.00  0.00     0.064 A 
ATOM     71  C   UNL A   1      39.787  33.483  39.648  1.00  0.00     0.173 A 
ATOM     72  C   UNL A   1      41.380  34.951  38.607  1.00  0.00     0.173 A 
ATOM     73  F   UNL A   1      38.985  32.409  39.621  1.00  0.00    -0.203 F 
ATOM     74  C   UNL A   1      39.785  34.291  40.781  1.00  0.00     0.198 A 
ATOM     75  C   UNL A   1      41.401  35.738  39.755  1.00  0.00     0.198 A 
ATOM     76  F   UNL A   1      42.154  35.306  37.569  1.00  0.00    -0.203 F 
ATOM     77  F   UNL A   1      38.981  33.995  41.812  1.00  0.00    -0.200 F 
ATOM     78  C   UNL A   1      40.595  35.415  40.837  1.00  0.00     0.200 A 
ATOM     79  F   UNL A   1      42.194  36.816  39.813  1.00  0.00    -0.200 F 
ATOM     80  F   UNL A   1      40.590  36.193  41.928  1.00  0.00    -0.200 F 
ENDBRANCH  56  70
BRANCH  57  81
ATOM     81  C   UNL A   1      40.140  28.603  30.018  1.00  0.00     0.064 A 
ATOM     82  C   UNL A   1      40.741  29.084  28.846  1.00  0.00     0.173 A 
ATOM     83  C   UNL A   1      39.492  27.361  29.958  1.00  0.00     0.173 A 
ATOM     84  F   UNL A   1      41.353  30.277  28.848  1.00  0.00    -0.203 F 
ATOM     85  C   UNL A   1      40.683  28.358  27.657  1.00  0.00     0.198 A 
ATOM     86  C   UNL A   1      39.457  26.624  28.776  1.00  0.00     0.198 A 
ATOM     87  F   UNL A   1      38.906  26.857  31.054  1.00  0.00    -0.203 F 
ATOM     88  F   UNL A   1      41.231  28.859  26.542  1.00  0.00    -0.200 F 
ATOM     89  C   UNL A   1      40.047  27.127  27.625  1.00  0.00     0.200 A 
ATOM     90  F   UNL A   1      38.854  25.429  28.752  1.00  0.00    -0.200 F 
ATOM     91  F   UNL A   1      39.997  26.426  26.484  1.00  0.00    -0.200 F 
ENDBRANCH  57  81
BRANCH  69  92
ATOM     92  C   UNL A   1      44.394  28.466  35.533  1.00  0.00     0.064 A 
ATOM     93  C   UNL A   1      45.702  28.838  35.194  1.00  0.00     0.173 A 
ATOM     94  C   UNL A   1      44.214  27.273  36.249  1.00  0.00     0.173 A 
ATOM     95  F   UNL A   1      45.925  29.962  34.496  1.00  0.00    -0.203 F 
ATOM     96  C   UNL A   1      46.786  28.033  35.536  1.00  0.00     0.198 A 
ATOM     97  C   UNL A   1      45.302  26.486  36.615  1.00  0.00     0.198 A 
ATOM     98  F   UNL A   1      42.983  26.875  36.604  1.00  0.00    -0.203 F 
ATOM     99  F   UNL A   1      48.023  28.383  35.158  1.00  0.00    -0.200 F 
ATOM    100  C   UNL A   1      46.585  26.862  36.252  1.00  0.00     0.200 A 
ATOM    101  F   UNL A   1      45.108  25.362  37.320  1.00  0.00    -0.200 F 
ATOM    102  F   UNL A   1      47.631  26.092  36.585  1.00  0.00    -0.200 F 
ENDBRANCH  69  92
ENDBRANCH  43  44
ENDBRANCH  35  38
ENDBRANCH  33  34
ENDBRANCH  32  33
ENDBRANCH  31  32
ENDBRANCH  30  31
ENDBRANCH   1  30
TORSDOF 19
ENDMDL
