MODEL 1
REMARK VINA RESULT:     -13.4      0.000      0.000
REMARK SMILES Cc1ccc(-c2cc(C[C@H]3CCCC3=O)ccc2[C@@H](C)C(=O)NCCCCCCNC(=O)c2ccc(-c3c4nc(c(-c5c(F)c(F)c(F)c(F)c5F)c5ccc([nH]5)c(-c5c(F)c(F)c(F)c(F)c5F)c5nc(c(-c6c(F)c(F)c(F)c(F)c6F)c6ccc3[nH]6)C=C5)C=C4)cc2)cc1
REMARK SMILES IDX 26 1 25 2 24 3 23 4 21 5 22 6 19 8 20 9 18 10 6 11 7 12 8 13
REMARK SMILES IDX 17 14 16 15 5 16 1 17 2 18 3 19 97 20 4 21 96 22 9 23 10 24
REMARK SMILES IDX 11 25 14 26 12 27 13 28 15 29 27 30 28 31 29 32 30 33 31 34
REMARK SMILES IDX 32 36 33 37 34 38 95 39 35 40 94 41 36 42 37 43 38 44 88 45
REMARK SMILES IDX 39 46 93 47 87 48 89 49 40 50 92 51 86 52 85 53 41 55 73 56
REMARK SMILES IDX 53 57 72 58 54 59 57 60 71 61 90 62 55 63 56 64 70 66 91 67
REMARK SMILES IDX 58 68 42 69 43 70 51 71 44 72 45 73 49 74 52 75 46 76 47 77
REMARK SMILES IDX 50 78 48 79 74 80 75 81 83 82 76 83 77 84 81 85 84 86 78 87
REMARK SMILES IDX 79 88 82 89 80 90 59 91 60 92 68 93 61 94 62 95 66 96 69 97
REMARK SMILES IDX 63 98 64 99 67 100 65 101
REMARK H PARENT 23 7 30 35 89 54 57 65
REMARK Flexibility Score: inf
ROOT
ATOM      1  C   UNL A   1      33.352  28.463  25.244  1.00  0.00     0.002 C 
ENDROOT
BRANCH   1   2
ATOM      2  C   UNL A   1      32.540  27.716  24.178  1.00  0.00     0.021 C 
BRANCH   2   3
ATOM      3  C   UNL A   1      32.975  26.270  23.919  1.00  0.00     0.116 C 
BRANCH   3   4
ATOM      4  N   UNL A   1      31.853  25.376  23.748  1.00  0.00    -0.356 N 
ATOM      5  C   UNL A   1      31.758  24.107  23.268  1.00  0.00     0.227 C 
ATOM      6  O   UNL A   1      30.615  23.631  23.251  1.00  0.00    -0.274 OA
ATOM      7  H   UNL A   1      30.992  25.759  24.034  1.00  0.00     0.163 HD
BRANCH   5   8
ATOM      8  C   UNL A   1      32.953  23.270  22.770  1.00  0.00     0.106 C 
ATOM      9  C   UNL A   1      33.374  23.565  21.328  1.00  0.00     0.023 C 
BRANCH   8  10
ATOM     10  C   UNL A   1      32.847  21.792  23.153  1.00  0.00    -0.028 A 
ATOM     11  C   UNL A   1      33.574  21.244  24.242  1.00  0.00    -0.014 A 
ATOM     12  C   UNL A   1      33.315  19.914  24.647  1.00  0.00     0.012 A 
ATOM     13  C   UNL A   1      32.411  19.096  23.958  1.00  0.00    -0.047 A 
ATOM     14  C   UNL A   1      32.004  20.932  22.430  1.00  0.00     0.005 A 
ATOM     15  C   UNL A   1      31.792  19.610  22.821  1.00  0.00     0.004 A 
BRANCH  11  16
ATOM     16  C   UNL A   1      34.709  21.946  24.867  1.00  0.00    -0.018 A 
ATOM     17  C   UNL A   1      38.163  24.079  26.367  1.00  0.00     0.044 C 
ATOM     18  C   UNL A   1      36.970  23.313  25.877  1.00  0.00    -0.051 A 
ATOM     19  C   UNL A   1      35.676  23.778  26.140  1.00  0.00     0.004 A 
ATOM     20  C   UNL A   1      37.131  22.148  25.126  1.00  0.00     0.004 A 
ATOM     21  C   UNL A   1      34.556  23.095  25.649  1.00  0.00     0.009 A 
ATOM     22  C   UNL A   1      36.014  21.474  24.628  1.00  0.00     0.009 A 
ENDBRANCH  11  16
BRANCH  13  23
ATOM     23  C   UNL A   1      32.153  17.673  24.388  1.00  0.00     0.047 C 
BRANCH  23  24
ATOM     24  C   UNL A   1      33.193  16.627  23.972  1.00  0.00     0.060 C 
ATOM     25  C   UNL A   1      34.526  17.185  23.462  1.00  0.00     0.012 C 
ATOM     26  C   UNL A   1      33.634  15.727  25.106  1.00  0.00     0.136 C 
ATOM     27  C   UNL A   1      35.504  17.089  24.627  1.00  0.00     0.009 C 
ATOM     28  C   UNL A   1      35.109  15.828  25.376  1.00  0.00     0.076 C 
ATOM     29  O   UNL A   1      32.888  14.973  25.722  1.00  0.00    -0.299 OA
ENDBRANCH  23  24
ENDBRANCH  13  23
ENDBRANCH   8  10
ENDBRANCH   5   8
ENDBRANCH   3   4
ENDBRANCH   2   3
ENDBRANCH   1   2
BRANCH   1  30
ATOM     30  C   UNL A   1      32.726  29.744  25.826  1.00  0.00     0.002 C 
BRANCH  30  31
ATOM     31  C   UNL A   1      33.083  30.078  27.277  1.00  0.00     0.021 C 
BRANCH  31  32
ATOM     32  C   UNL A   1      34.571  30.307  27.513  1.00  0.00     0.116 C 
BRANCH  32  33
ATOM     33  N   UNL A   1      34.868  31.067  28.722  1.00  0.00    -0.352 N 
ATOM     34  C   UNL A   1      35.907  30.903  29.621  1.00  0.00     0.251 C 
ATOM     35  H   UNL A   1      34.243  31.801  28.926  1.00  0.00     0.163 HD
ATOM     36  O   UNL A   1      35.994  31.610  30.611  1.00  0.00    -0.269 OA
BRANCH  34  37
ATOM     37  C   UNL A   1      36.980  29.932  29.300  1.00  0.00     0.039 A 
ATOM     38  C   UNL A   1      37.275  28.944  30.246  1.00  0.00     0.014 A 
ATOM     39  C   UNL A   1      37.799  30.111  28.187  1.00  0.00     0.014 A 
ATOM     40  C   UNL A   1      38.508  28.298  30.194  1.00  0.00     0.010 A 
ATOM     41  C   UNL A   1      39.056  29.538  28.182  1.00  0.00     0.010 A 
ATOM     42  C   UNL A   1      39.433  28.680  29.219  1.00  0.00    -0.014 A 
BRANCH  42  43
ATOM     43  C   UNL A   1      40.841  28.306  29.276  1.00  0.00     0.031 A 
ATOM     44  C   UNL A   1      41.318  27.053  28.656  1.00  0.00     0.074 A 
ATOM     45  C   UNL A   1      41.726  29.142  29.863  1.00  0.00     0.049 A 
ATOM     46  N   UNL A   1      42.404  26.446  28.998  1.00  0.00    -0.248 NA
ATOM     47  C   UNL A   1      40.576  26.364  27.609  1.00  0.00     0.031 C 
ATOM     48  C   UNL A   1      43.183  29.046  29.845  1.00  0.00     0.029 A 
ATOM     49  N   UNL A   1      41.457  30.170  30.782  1.00  0.00    -0.354 N 
ATOM     50  C   UNL A   1      42.630  25.438  28.092  1.00  0.00     0.074 A 
ATOM     51  C   UNL A   1      41.443  25.407  27.265  1.00  0.00     0.031 C 
ATOM     52  C   UNL A   1      43.674  29.734  30.887  1.00  0.00     0.029 A 
ATOM     53  C   UNL A   1      42.543  30.161  31.690  1.00  0.00     0.049 A 
ATOM     54  H   UNL A   1      40.676  30.771  30.793  1.00  0.00     0.167 HD
ATOM     55  C   UNL A   1      43.837  24.802  28.080  1.00  0.00     0.037 A 
ATOM     56  C   UNL A   1      42.340  29.827  32.998  1.00  0.00     0.037 A 
ATOM     57  C   UNL A   1      44.714  25.284  29.142  1.00  0.00     0.049 A 
ATOM     58  C   UNL A   1      43.050  28.564  33.441  1.00  0.00     0.074 A 
ATOM     59  C   UNL A   1      45.734  26.221  29.203  1.00  0.00     0.029 A 
ATOM     60  N   UNL A   1      44.382  24.994  30.453  1.00  0.00    -0.354 N 
ATOM     61  N   UNL A   1      43.739  27.790  32.648  1.00  0.00    -0.248 NA
ATOM     62  C   UNL A   1      42.959  28.025  34.800  1.00  0.00     0.031 C 
ATOM     63  C   UNL A   1      45.980  26.518  30.574  1.00  0.00     0.029 A 
ATOM     64  C   UNL A   1      45.117  25.757  31.340  1.00  0.00     0.049 A 
ATOM     65  H   UNL A   1      43.708  24.328  30.720  1.00  0.00     0.167 HD
ATOM     66  C   UNL A   1      44.137  26.679  33.334  1.00  0.00     0.074 A 
ATOM     67  C   UNL A   1      43.629  26.867  34.679  1.00  0.00     0.031 C 
ATOM     68  C   UNL A   1      44.827  25.659  32.756  1.00  0.00     0.037 A 
BRANCH  55  69
ATOM     69  C   UNL A   1      44.291  23.883  26.975  1.00  0.00     0.064 A 
ATOM     70  C   UNL A   1      43.741  22.590  26.839  1.00  0.00     0.173 A 
ATOM     71  C   UNL A   1      45.285  24.207  26.034  1.00  0.00     0.173 A 
ATOM     72  F   UNL A   1      42.723  22.179  27.606  1.00  0.00    -0.203 F 
ATOM     73  C   UNL A   1      44.226  21.664  25.912  1.00  0.00     0.198 A 
ATOM     74  C   UNL A   1      45.814  23.261  25.150  1.00  0.00     0.198 A 
ATOM     75  F   UNL A   1      45.738  25.462  25.909  1.00  0.00    -0.203 F 
ATOM     76  F   UNL A   1      43.662  20.451  25.827  1.00  0.00    -0.200 F 
ATOM     77  C   UNL A   1      45.290  21.986  25.095  1.00  0.00     0.200 A 
ATOM     78  F   UNL A   1      46.835  23.599  24.348  1.00  0.00    -0.200 F 
ATOM     79  F   UNL A   1      45.791  21.080  24.244  1.00  0.00    -0.200 F 
ENDBRANCH  55  69
BRANCH  56  80
ATOM     80  C   UNL A   1      41.027  30.299  33.511  1.00  0.00     0.064 A 
ATOM     81  C   UNL A   1      40.860  31.679  33.740  1.00  0.00     0.173 A 
ATOM     82  C   UNL A   1      39.874  29.513  33.417  1.00  0.00     0.173 A 
ATOM     83  F   UNL A   1      41.935  32.477  33.840  1.00  0.00    -0.203 F 
ATOM     84  C   UNL A   1      39.597  32.264  33.746  1.00  0.00     0.198 A 
ATOM     85  C   UNL A   1      38.608  30.101  33.446  1.00  0.00     0.198 A 
ATOM     86  F   UNL A   1      39.965  28.196  33.183  1.00  0.00    -0.203 F 
ATOM     87  F   UNL A   1      39.477  33.595  33.842  1.00  0.00    -0.200 F 
ATOM     88  C   UNL A   1      38.472  31.476  33.572  1.00  0.00     0.200 A 
ATOM     89  F   UNL A   1      37.520  29.340  33.264  1.00  0.00    -0.200 F 
ATOM     90  F   UNL A   1      37.262  32.045  33.485  1.00  0.00    -0.200 F 
ENDBRANCH  56  80
BRANCH  68  91
ATOM     91  C   UNL A   1      45.299  24.475  33.531  1.00  0.00     0.064 A 
ATOM     92  C   UNL A   1      46.618  24.385  33.997  1.00  0.00     0.173 A 
ATOM     93  C   UNL A   1      44.477  23.349  33.717  1.00  0.00     0.173 A 
ATOM     94  F   UNL A   1      47.473  25.406  33.826  1.00  0.00    -0.203 F 
ATOM     95  C   UNL A   1      47.084  23.237  34.637  1.00  0.00     0.198 A 
ATOM     96  C   UNL A   1      44.957  22.188  34.319  1.00  0.00     0.198 A 
ATOM     97  F   UNL A   1      43.191  23.360  33.336  1.00  0.00    -0.203 F 
ATOM     98  F   UNL A   1      48.339  23.199  35.105  1.00  0.00    -0.200 F 
ATOM     99  C   UNL A   1      46.258  22.135  34.786  1.00  0.00     0.200 A 
ATOM    100  F   UNL A   1      44.152  21.123  34.445  1.00  0.00    -0.200 F 
ATOM    101  F   UNL A   1      46.713  21.026  35.381  1.00  0.00    -0.200 F 
ENDBRANCH  68  91
ENDBRANCH  42  43
ENDBRANCH  34  37
ENDBRANCH  32  33
ENDBRANCH  31  32
ENDBRANCH  30  31
ENDBRANCH   1  30
TORSDOF 17
ENDMDL
MODEL 2
REMARK VINA RESULT:     -13.1      4.094      9.927
REMARK SMILES Cc1ccc(-c2cc(C[C@H]3CCCC3=O)ccc2[C@@H](C)C(=O)NCCCCCCNC(=O)c2ccc(-c3c4nc(c(-c5c(F)c(F)c(F)c(F)c5F)c5ccc([nH]5)c(-c5c(F)c(F)c(F)c(F)c5F)c5nc(c(-c6c(F)c(F)c(F)c(F)c6F)c6ccc3[nH]6)C=C5)C=C4)cc2)cc1
REMARK SMILES IDX 26 1 25 2 24 3 23 4 21 5 22 6 19 8 20 9 18 10 6 11 7 12 8 13
REMARK SMILES IDX 17 14 16 15 5 16 1 17 2 18 3 19 97 20 4 21 96 22 9 23 10 24
REMARK SMILES IDX 11 25 14 26 12 27 13 28 15 29 27 30 28 31 29 32 30 33 31 34
REMARK SMILES IDX 32 36 33 37 34 38 95 39 35 40 94 41 36 42 37 43 38 44 88 45
REMARK SMILES IDX 39 46 93 47 87 48 89 49 40 50 92 51 86 52 85 53 41 55 73 56
REMARK SMILES IDX 53 57 72 58 54 59 57 60 71 61 90 62 55 63 56 64 70 66 91 67
REMARK SMILES IDX 58 68 42 69 43 70 51 71 44 72 45 73 49 74 52 75 46 76 47 77
REMARK SMILES IDX 50 78 48 79 74 80 75 81 83 82 76 83 77 84 81 85 84 86 78 87
REMARK SMILES IDX 79 88 82 89 80 90 59 91 60 92 68 93 61 94 62 95 66 96 69 97
REMARK SMILES IDX 63 98 64 99 67 100 65 101
REMARK H PARENT 23 7 30 35 89 54 57 65
REMARK Flexibility Score: inf
ROOT
ATOM      1  C   UNL A   1      40.633  20.872  26.138  1.00  0.00     0.002 C 
ENDROOT
BRANCH   1   2
ATOM      2  C   UNL A   1      39.544  21.946  26.266  1.00  0.00     0.021 C 
BRANCH   2   3
ATOM      3  C   UNL A   1      38.200  21.594  25.619  1.00  0.00     0.116 C 
BRANCH   3   4
ATOM      4  N   UNL A   1      37.102  22.343  26.184  1.00  0.00    -0.356 N 
ATOM      5  C   UNL A   1      35.930  22.789  25.655  1.00  0.00     0.227 C 
ATOM      6  O   UNL A   1      35.205  23.424  26.433  1.00  0.00    -0.274 OA
ATOM      7  H   UNL A   1      37.224  22.575  27.133  1.00  0.00     0.163 HD
BRANCH   5   8
ATOM      8  C   UNL A   1      35.482  22.550  24.199  1.00  0.00     0.106 C 
ATOM      9  C   UNL A   1      36.576  22.787  23.155  1.00  0.00     0.023 C 
BRANCH   8  10
ATOM     10  C   UNL A   1      34.111  23.157  23.890  1.00  0.00    -0.028 A 
ATOM     11  C   UNL A   1      32.905  22.441  24.112  1.00  0.00    -0.014 A 
ATOM     12  C   UNL A   1      31.668  23.107  23.959  1.00  0.00     0.012 A 
ATOM     13  C   UNL A   1      31.594  24.436  23.526  1.00  0.00    -0.047 A 
ATOM     14  C   UNL A   1      34.012  24.463  23.383  1.00  0.00     0.005 A 
ATOM     15  C   UNL A   1      32.780  25.090  23.200  1.00  0.00     0.004 A 
BRANCH  11  16
ATOM     16  C   UNL A   1      32.882  20.984  24.332  1.00  0.00    -0.018 A 
ATOM     17  C   UNL A   1      32.534  16.758  25.200  1.00  0.00     0.044 C 
ATOM     18  C   UNL A   1      32.695  18.219  24.899  1.00  0.00    -0.051 A 
ATOM     19  C   UNL A   1      32.492  18.698  23.600  1.00  0.00     0.004 A 
ATOM     20  C   UNL A   1      33.015  19.124  25.912  1.00  0.00     0.004 A 
ATOM     21  C   UNL A   1      32.595  20.066  23.317  1.00  0.00     0.009 A 
ATOM     22  C   UNL A   1      33.107  20.489  25.630  1.00  0.00     0.009 A 
ENDBRANCH  11  16
BRANCH  13  23
ATOM     23  C   UNL A   1      30.268  25.134  23.351  1.00  0.00     0.047 C 
BRANCH  23  24
ATOM     24  C   UNL A   1      29.853  26.113  24.454  1.00  0.00     0.060 C 
ATOM     25  C   UNL A   1      30.166  25.668  25.888  1.00  0.00     0.012 C 
ATOM     26  C   UNL A   1      30.556  27.451  24.373  1.00  0.00     0.136 C 
ATOM     27  C   UNL A   1      31.441  26.397  26.293  1.00  0.00     0.009 C 
ATOM     28  C   UNL A   1      31.364  27.749  25.605  1.00  0.00     0.076 C 
ATOM     29  O   UNL A   1      30.461  28.226  23.427  1.00  0.00    -0.299 OA
ENDBRANCH  23  24
ENDBRANCH  13  23
ENDBRANCH   8  10
ENDBRANCH   5   8
ENDBRANCH   3   4
ENDBRANCH   2   3
ENDBRANCH   1   2
BRANCH   1  30
ATOM     30  C   UNL A   1      42.070  21.291  26.499  1.00  0.00     0.002 C 
BRANCH  30  31
ATOM     31  C   UNL A   1      42.471  22.726  26.142  1.00  0.00     0.021 C 
BRANCH  31  32
ATOM     32  C   UNL A   1      43.128  22.865  24.775  1.00  0.00     0.116 C 
BRANCH  32  33
ATOM     33  N   UNL A   1      44.264  21.973  24.571  1.00  0.00    -0.352 N 
ATOM     34  C   UNL A   1      45.570  22.111  25.006  1.00  0.00     0.251 C 
ATOM     35  H   UNL A   1      44.074  21.158  24.051  1.00  0.00     0.163 HD
ATOM     36  O   UNL A   1      46.416  21.281  24.717  1.00  0.00    -0.269 OA
BRANCH  34  37
ATOM     37  C   UNL A   1      45.899  23.222  25.929  1.00  0.00     0.039 A 
ATOM     38  C   UNL A   1      45.857  22.967  27.305  1.00  0.00     0.014 A 
ATOM     39  C   UNL A   1      46.053  24.524  25.457  1.00  0.00     0.014 A 
ATOM     40  C   UNL A   1      45.738  24.034  28.192  1.00  0.00     0.010 A 
ATOM     41  C   UNL A   1      45.848  25.580  26.325  1.00  0.00     0.010 A 
ATOM     42  C   UNL A   1      45.629  25.330  27.683  1.00  0.00    -0.014 A 
BRANCH  42  43
ATOM     43  C   UNL A   1      45.185  26.461  28.489  1.00  0.00     0.031 A 
ATOM     44  C   UNL A   1      43.774  26.895  28.474  1.00  0.00     0.074 A 
ATOM     45  C   UNL A   1      46.071  27.089  29.295  1.00  0.00     0.049 A 
ATOM     46  N   UNL A   1      43.378  28.081  28.797  1.00  0.00    -0.248 NA
ATOM     47  C   UNL A   1      42.688  26.019  28.057  1.00  0.00     0.031 C 
ATOM     48  C   UNL A   1      45.784  28.095  30.314  1.00  0.00     0.029 A 
ATOM     49  N   UNL A   1      47.473  27.071  29.210  1.00  0.00    -0.354 N 
ATOM     50  C   UNL A   1      42.006  28.070  28.856  1.00  0.00     0.074 A 
ATOM     51  C   UNL A   1      41.621  26.769  28.353  1.00  0.00     0.031 C 
ATOM     52  C   UNL A   1      46.900  28.800  30.550  1.00  0.00     0.029 A 
ATOM     53  C   UNL A   1      47.892  28.370  29.582  1.00  0.00     0.049 A 
ATOM     54  H   UNL A   1      48.044  26.313  28.946  1.00  0.00     0.167 HD
ATOM     55  C   UNL A   1      41.348  29.128  29.412  1.00  0.00     0.037 A 
ATOM     56  C   UNL A   1      48.498  29.184  28.667  1.00  0.00     0.037 A 
ATOM     57  C   UNL A   1      42.267  30.188  29.814  1.00  0.00     0.049 A 
ATOM     58  C   UNL A   1      47.721  30.440  28.333  1.00  0.00     0.074 A 
ATOM     59  C   UNL A   1      42.876  30.536  31.009  1.00  0.00     0.029 A 
ATOM     60  N   UNL A   1      42.927  30.898  28.827  1.00  0.00    -0.354 N 
ATOM     61  N   UNL A   1      46.534  30.718  28.797  1.00  0.00    -0.248 NA
ATOM     62  C   UNL A   1      48.189  31.442  27.372  1.00  0.00     0.031 C 
ATOM     63  C   UNL A   1      43.939  31.439  30.718  1.00  0.00     0.029 A 
ATOM     64  C   UNL A   1      43.968  31.640  29.350  1.00  0.00     0.049 A 
ATOM     65  H   UNL A   1      42.684  30.877  27.873  1.00  0.00     0.167 HD
ATOM     66  C   UNL A   1      46.071  31.857  28.203  1.00  0.00     0.074 A 
ATOM     67  C   UNL A   1      47.140  32.279  27.319  1.00  0.00     0.031 C 
ATOM     68  C   UNL A   1      44.834  32.368  28.444  1.00  0.00     0.037 A 
BRANCH  55  69
ATOM     69  C   UNL A   1      39.884  29.110  29.772  1.00  0.00     0.064 A 
ATOM     70  C   UNL A   1      38.893  29.239  28.776  1.00  0.00     0.173 A 
ATOM     71  C   UNL A   1      39.394  28.998  31.086  1.00  0.00     0.173 A 
ATOM     72  F   UNL A   1      39.209  29.264  27.475  1.00  0.00    -0.203 F 
ATOM     73  C   UNL A   1      37.535  29.359  29.082  1.00  0.00     0.198 A 
ATOM     74  C   UNL A   1      38.043  29.181  31.398  1.00  0.00     0.198 A 
ATOM     75  F   UNL A   1      40.202  28.657  32.100  1.00  0.00    -0.203 F 
ATOM     76  F   UNL A   1      36.639  29.477  28.092  1.00  0.00    -0.200 F 
ATOM     77  C   UNL A   1      37.114  29.371  30.396  1.00  0.00     0.200 A 
ATOM     78  F   UNL A   1      37.649  29.169  32.680  1.00  0.00    -0.200 F 
ATOM     79  F   UNL A   1      35.818  29.539  30.692  1.00  0.00    -0.200 F 
ENDBRANCH  55  69
BRANCH  56  80
ATOM     80  C   UNL A   1      49.364  28.432  27.722  1.00  0.00     0.064 A 
ATOM     81  C   UNL A   1      50.615  27.975  28.184  1.00  0.00     0.173 A 
ATOM     82  C   UNL A   1      48.853  27.852  26.557  1.00  0.00     0.173 A 
ATOM     83  F   UNL A   1      51.150  28.501  29.298  1.00  0.00    -0.203 F 
ATOM     84  C   UNL A   1      51.260  26.899  27.582  1.00  0.00     0.198 A 
ATOM     85  C   UNL A   1      49.516  26.787  25.942  1.00  0.00     0.198 A 
ATOM     86  F   UNL A   1      47.662  28.230  26.074  1.00  0.00    -0.203 F 
ATOM     87  F   UNL A   1      52.385  26.409  28.120  1.00  0.00    -0.200 F 
ATOM     88  C   UNL A   1      50.696  26.288  26.476  1.00  0.00     0.200 A 
ATOM     89  F   UNL A   1      48.962  26.188  24.879  1.00  0.00    -0.200 F 
ATOM     90  F   UNL A   1      51.266  25.197  25.950  1.00  0.00    -0.200 F 
ENDBRANCH  56  80
BRANCH  68  91
ATOM     91  C   UNL A   1      44.362  33.640  27.826  1.00  0.00     0.064 A 
ATOM     92  C   UNL A   1      44.294  34.831  28.564  1.00  0.00     0.173 A 
ATOM     93  C   UNL A   1      43.848  33.671  26.517  1.00  0.00     0.173 A 
ATOM     94  F   UNL A   1      44.733  34.872  29.833  1.00  0.00    -0.203 F 
ATOM     95  C   UNL A   1      43.763  35.996  28.014  1.00  0.00     0.198 A 
ATOM     96  C   UNL A   1      43.280  34.825  25.984  1.00  0.00     0.198 A 
ATOM     97  F   UNL A   1      43.905  32.589  25.727  1.00  0.00    -0.203 F 
ATOM     98  F   UNL A   1      43.750  37.125  28.734  1.00  0.00    -0.200 F 
ATOM     99  C   UNL A   1      43.245  35.989  26.730  1.00  0.00     0.200 A 
ATOM    100  F   UNL A   1      42.768  34.803  24.745  1.00  0.00    -0.200 F 
ATOM    101  F   UNL A   1      42.715  37.104  26.210  1.00  0.00    -0.200 F 
ENDBRANCH  68  91
ENDBRANCH  42  43
ENDBRANCH  34  37
ENDBRANCH  32  33
ENDBRANCH  31  32
ENDBRANCH  30  31
ENDBRANCH   1  30
TORSDOF 17
ENDMDL
MODEL 3
REMARK VINA RESULT:     -12.8      3.619      9.818
REMARK SMILES Cc1ccc(-c2cc(C[C@H]3CCCC3=O)ccc2[C@@H](C)C(=O)NCCCCCCNC(=O)c2ccc(-c3c4nc(c(-c5c(F)c(F)c(F)c(F)c5F)c5ccc([nH]5)c(-c5c(F)c(F)c(F)c(F)c5F)c5nc(c(-c6c(F)c(F)c(F)c(F)c6F)c6ccc3[nH]6)C=C5)C=C4)cc2)cc1
REMARK SMILES IDX 26 1 25 2 24 3 23 4 21 5 22 6 19 8 20 9 18 10 6 11 7 12 8 13
REMARK SMILES IDX 17 14 16 15 5 16 1 17 2 18 3 19 97 20 4 21 96 22 9 23 10 24
REMARK SMILES IDX 11 25 14 26 12 27 13 28 15 29 27 30 28 31 29 32 30 33 31 34
REMARK SMILES IDX 32 36 33 37 34 38 95 39 35 40 94 41 36 42 37 43 38 44 88 45
REMARK SMILES IDX 39 46 93 47 87 48 89 49 40 50 92 51 86 52 85 53 41 55 73 56
REMARK SMILES IDX 53 57 72 58 54 59 57 60 71 61 90 62 55 63 56 64 70 66 91 67
REMARK SMILES IDX 58 68 42 69 43 70 51 71 44 72 45 73 49 74 52 75 46 76 47 77
REMARK SMILES IDX 50 78 48 79 74 80 75 81 83 82 76 83 77 84 81 85 84 86 78 87
REMARK SMILES IDX 79 88 82 89 80 90 59 91 60 92 68 93 61 94 62 95 66 96 69 97
REMARK SMILES IDX 63 98 64 99 67 100 65 101
REMARK H PARENT 23 7 30 35 89 54 57 65
REMARK Flexibility Score: inf
ROOT
ATOM      1  C   UNL A   1      40.327  21.569  27.261  1.00  0.00     0.002 C 
ENDROOT
BRANCH   1   2
ATOM      2  C   UNL A   1      39.535  22.584  26.425  1.00  0.00     0.021 C 
BRANCH   2   3
ATOM      3  C   UNL A   1      38.276  22.033  25.750  1.00  0.00     0.116 C 
BRANCH   3   4
ATOM      4  N   UNL A   1      37.062  22.538  26.347  1.00  0.00    -0.356 N 
ATOM      5  C   UNL A   1      35.816  22.760  25.845  1.00  0.00     0.227 C 
ATOM      6  O   UNL A   1      34.995  23.221  26.649  1.00  0.00    -0.274 OA
ATOM      7  H   UNL A   1      37.152  22.766  27.302  1.00  0.00     0.163 HD
BRANCH   5   8
ATOM      8  C   UNL A   1      35.399  22.474  24.389  1.00  0.00     0.106 C 
ATOM      9  C   UNL A   1      36.531  22.618  23.368  1.00  0.00     0.023 C 
BRANCH   8  10
ATOM     10  C   UNL A   1      34.065  23.124  24.013  1.00  0.00    -0.028 A 
ATOM     11  C   UNL A   1      32.829  22.441  24.164  1.00  0.00    -0.014 A 
ATOM     12  C   UNL A   1      31.621  23.144  23.952  1.00  0.00     0.012 A 
ATOM     13  C   UNL A   1      31.609  24.478  23.527  1.00  0.00    -0.047 A 
ATOM     14  C   UNL A   1      34.031  24.435  23.513  1.00  0.00     0.005 A 
ATOM     15  C   UNL A   1      32.829  25.100  23.271  1.00  0.00     0.004 A 
BRANCH  11  16
ATOM     16  C   UNL A   1      32.751  20.984  24.369  1.00  0.00    -0.018 A 
ATOM     17  C   UNL A   1      32.814  16.674  24.760  1.00  0.00     0.044 C 
ATOM     18  C   UNL A   1      32.752  18.166  24.623  1.00  0.00    -0.051 A 
ATOM     19  C   UNL A   1      32.942  18.986  25.742  1.00  0.00     0.004 A 
ATOM     20  C   UNL A   1      32.538  18.760  23.379  1.00  0.00     0.004 A 
ATOM     21  C   UNL A   1      32.931  20.381  25.618  1.00  0.00     0.009 A 
ATOM     22  C   UNL A   1      32.537  20.151  23.255  1.00  0.00     0.009 A 
ENDBRANCH  11  16
BRANCH  13  23
ATOM     23  C   UNL A   1      30.314  25.216  23.289  1.00  0.00     0.047 C 
BRANCH  23  24
ATOM     24  C   UNL A   1      29.872  26.203  24.374  1.00  0.00     0.060 C 
ATOM     25  C   UNL A   1      30.105  25.746  25.819  1.00  0.00     0.012 C 
ATOM     26  C   UNL A   1      30.612  27.522  24.332  1.00  0.00     0.136 C 
ATOM     27  C   UNL A   1      31.378  26.441  26.287  1.00  0.00     0.009 C 
ATOM     28  C   UNL A   1      31.368  27.796  25.602  1.00  0.00     0.076 C 
ATOM     29  O   UNL A   1      30.582  28.302  23.386  1.00  0.00    -0.299 OA
ENDBRANCH  23  24
ENDBRANCH  13  23
ENDBRANCH   8  10
ENDBRANCH   5   8
ENDBRANCH   3   4
ENDBRANCH   2   3
ENDBRANCH   1   2
BRANCH   1  30
ATOM     30  C   UNL A   1      40.793  20.289  26.543  1.00  0.00     0.002 C 
BRANCH  30  31
ATOM     31  C   UNL A   1      42.298  20.158  26.290  1.00  0.00     0.021 C 
BRANCH  31  32
ATOM     32  C   UNL A   1      42.909  21.346  25.557  1.00  0.00     0.116 C 
BRANCH  32  33
ATOM     33  N   UNL A   1      44.300  21.607  25.909  1.00  0.00    -0.352 N 
ATOM     34  C   UNL A   1      44.840  22.687  26.583  1.00  0.00     0.251 C 
ATOM     35  H   UNL A   1      44.944  20.917  25.627  1.00  0.00     0.163 HD
ATOM     36  O   UNL A   1      46.043  22.770  26.768  1.00  0.00    -0.269 OA
BRANCH  34  37
ATOM     37  C   UNL A   1      43.922  23.684  27.182  1.00  0.00     0.039 A 
ATOM     38  C   UNL A   1      43.700  24.876  26.482  1.00  0.00     0.014 A 
ATOM     39  C   UNL A   1      43.450  23.532  28.484  1.00  0.00     0.014 A 
ATOM     40  C   UNL A   1      43.210  25.986  27.165  1.00  0.00     0.010 A 
ATOM     41  C   UNL A   1      43.047  24.652  29.186  1.00  0.00     0.010 A 
ATOM     42  C   UNL A   1      42.987  25.891  28.542  1.00  0.00    -0.014 A 
BRANCH  42  43
ATOM     43  C   UNL A   1      42.789  27.058  29.393  1.00  0.00     0.031 A 
ATOM     44  C   UNL A   1      41.537  27.838  29.330  1.00  0.00     0.074 A 
ATOM     45  C   UNL A   1      43.748  27.400  30.282  1.00  0.00     0.049 A 
ATOM     46  N   UNL A   1      41.432  29.069  29.705  1.00  0.00    -0.248 NA
ATOM     47  C   UNL A   1      40.297  27.288  28.801  1.00  0.00     0.031 C 
ATOM     48  C   UNL A   1      43.655  28.396  31.346  1.00  0.00     0.029 A 
ATOM     49  N   UNL A   1      45.103  27.029  30.271  1.00  0.00    -0.354 N 
ATOM     50  C   UNL A   1      40.101  29.405  29.690  1.00  0.00     0.074 A 
ATOM     51  C   UNL A   1      39.436  28.271  29.086  1.00  0.00     0.031 C 
ATOM     52  C   UNL A   1      44.895  28.782  31.685  1.00  0.00     0.029 A 
ATOM     53  C   UNL A   1      45.809  28.160  30.746  1.00  0.00     0.049 A 
ATOM     54  H   UNL A   1      45.482  26.164  29.991  1.00  0.00     0.167 HD
ATOM     55  C   UNL A   1      39.694  30.568  30.276  1.00  0.00     0.037 A 
ATOM     56  C   UNL A   1      46.661  28.834  29.918  1.00  0.00     0.037 A 
ATOM     57  C   UNL A   1      40.821  31.339  30.792  1.00  0.00     0.049 A 
ATOM     58  C   UNL A   1      46.250  30.262  29.623  1.00  0.00     0.074 A 
ATOM     59  C   UNL A   1      41.416  31.463  32.038  1.00  0.00     0.029 A 
ATOM     60  N   UNL A   1      41.703  31.903  29.889  1.00  0.00    -0.354 N 
ATOM     61  N   UNL A   1      45.143  30.810  30.040  1.00  0.00    -0.248 NA
ATOM     62  C   UNL A   1      47.019  31.155  28.753  1.00  0.00     0.031 C 
ATOM     63  C   UNL A   1      42.689  32.077  31.861  1.00  0.00     0.029 A 
ATOM     64  C   UNL A   1      42.860  32.329  30.512  1.00  0.00     0.049 A 
ATOM     65  H   UNL A   1      41.528  31.990  28.924  1.00  0.00     0.167 HD
ATOM     66  C   UNL A   1      45.022  32.056  29.495  1.00  0.00     0.074 A 
ATOM     67  C   UNL A   1      46.220  32.234  28.697  1.00  0.00     0.031 C 
ATOM     68  C   UNL A   1      43.940  32.854  29.701  1.00  0.00     0.037 A 
BRANCH  55  69
ATOM     69  C   UNL A   1      38.252  30.908  30.556  1.00  0.00     0.064 A 
ATOM     70  C   UNL A   1      37.376  31.260  29.507  1.00  0.00     0.173 A 
ATOM     71  C   UNL A   1      37.680  30.933  31.840  1.00  0.00     0.173 A 
ATOM     72  F   UNL A   1      37.757  31.192  28.225  1.00  0.00    -0.203 F 
ATOM     73  C   UNL A   1      36.072  31.706  29.738  1.00  0.00     0.198 A 
ATOM     74  C   UNL A   1      36.399  31.439  32.079  1.00  0.00     0.198 A 
ATOM     75  F   UNL A   1      38.327  30.420  32.896  1.00  0.00    -0.203 F 
ATOM     76  F   UNL A   1      35.285  32.025  28.701  1.00  0.00    -0.200 F 
ATOM     77  C   UNL A   1      35.597  31.834  31.027  1.00  0.00     0.200 A 
ATOM     78  F   UNL A   1      35.945  31.537  33.337  1.00  0.00    -0.200 F 
ATOM     79  F   UNL A   1      34.366  32.313  31.252  1.00  0.00    -0.200 F 
ENDBRANCH  55  69
BRANCH  56  80
ATOM     80  C   UNL A   1      47.372  27.932  28.975  1.00  0.00     0.064 A 
ATOM     81  C   UNL A   1      48.474  27.197  29.459  1.00  0.00     0.173 A 
ATOM     82  C   UNL A   1      46.787  27.508  27.778  1.00  0.00     0.173 A 
ATOM     83  F   UNL A   1      49.072  27.563  30.603  1.00  0.00    -0.203 F 
ATOM     84  C   UNL A   1      48.885  26.020  28.842  1.00  0.00     0.198 A 
ATOM     85  C   UNL A   1      47.218  26.339  27.149  1.00  0.00     0.198 A 
ATOM     86  F   UNL A   1      45.726  28.154  27.273  1.00  0.00    -0.203 F 
ATOM     87  F   UNL A   1      49.854  25.278  29.396  1.00  0.00    -0.200 F 
ATOM     88  C   UNL A   1      48.239  25.577  27.701  1.00  0.00     0.200 A 
ATOM     89  F   UNL A   1      46.583  25.903  26.051  1.00  0.00    -0.200 F 
ATOM     90  F   UNL A   1      48.571  24.399  27.157  1.00  0.00    -0.200 F 
ENDBRANCH  56  80
BRANCH  68  91
ATOM     91  C   UNL A   1      43.847  34.233  29.141  1.00  0.00     0.064 A 
ATOM     92  C   UNL A   1      43.909  35.364  29.967  1.00  0.00     0.173 A 
ATOM     93  C   UNL A   1      43.567  34.451  27.780  1.00  0.00     0.173 A 
ATOM     94  F   UNL A   1      44.138  35.235  31.283  1.00  0.00    -0.203 F 
ATOM     95  C   UNL A   1      43.725  36.647  29.454  1.00  0.00     0.198 A 
ATOM     96  C   UNL A   1      43.342  35.730  27.277  1.00  0.00     0.198 A 
ATOM     97  F   UNL A   1      43.525  33.431  26.910  1.00  0.00    -0.203 F 
ATOM     98  F   UNL A   1      43.830  37.708  30.265  1.00  0.00    -0.200 F 
ATOM     99  C   UNL A   1      43.429  36.829  28.113  1.00  0.00     0.200 A 
ATOM    100  F   UNL A   1      43.042  35.893  25.980  1.00  0.00    -0.200 F 
ATOM    101  F   UNL A   1      43.231  38.061  27.626  1.00  0.00    -0.200 F 
ENDBRANCH  68  91
ENDBRANCH  42  43
ENDBRANCH  34  37
ENDBRANCH  32  33
ENDBRANCH  31  32
ENDBRANCH  30  31
ENDBRANCH   1  30
TORSDOF 17
ENDMDL
