MODEL 1
REMARK VINA RESULT:     -13.2      0.000      0.000
REMARK SMILES Nc1c(C(=O)NCCCCCCNC(=O)c2ccc(-c3c4nc(c(-c5c(F)c(F)c(F)c(F)c5F)c5ccc([nH]5)c(-c5c(F)c(F)c(F)c(F)c5F)c5nc(c(-c6c(F)c(F)c(F)c(F)c6F)c6ccc3[nH]6)C=C5)C=C4)cc2)cccc1-c1cc(F)c(F)c(F)c1
REMARK SMILES IDX 10 1 9 2 8 3 7 4 6 5 4 6 5 7 3 9 2 10 82 11 79 12 81 13
REMARK SMILES IDX 80 14 1 15 83 18 84 19 91 20 85 21 89 22 86 23 87 24 90 25
REMARK SMILES IDX 88 26 11 27 12 28 13 29 14 30 15 32 16 33 17 34 78 35 18 36
REMARK SMILES IDX 77 37 19 38 20 39 21 40 71 41 22 42 76 43 70 44 72 45 23 46
REMARK SMILES IDX 75 47 69 48 68 49 24 51 56 52 36 53 55 54 37 55 40 56 54 57
REMARK SMILES IDX 73 58 38 59 39 60 53 62 74 63 41 64 25 65 26 66 34 67 27 68
REMARK SMILES IDX 28 69 32 70 35 71 29 72 30 73 33 74 31 75 57 76 58 77 66 78
REMARK SMILES IDX 59 79 60 80 64 81 67 82 61 83 62 84 65 85 63 86 42 87 43 88
REMARK SMILES IDX 51 89 44 90 45 91 49 92 52 93 46 94 47 95 50 96 48 97
REMARK H PARENT 6 8 1 16 1 17 13 31 72 50 40 61
REMARK Flexibility Score: inf
ROOT
ATOM      1  C   UNL A   1      31.498  30.700  26.150  1.00  0.00     0.002 C 
ENDROOT
BRANCH   1   2
ATOM      2  C   UNL A   1      32.921  30.134  26.074  1.00  0.00     0.002 C 
BRANCH   2   3
ATOM      3  C   UNL A   1      33.260  28.950  26.985  1.00  0.00     0.021 C 
BRANCH   3   4
ATOM      4  C   UNL A   1      32.879  27.569  26.467  1.00  0.00     0.116 C 
BRANCH   4   5
ATOM      5  N   UNL A   1      33.502  27.174  25.218  1.00  0.00    -0.352 N 
ATOM      6  C   UNL A   1      32.969  27.104  23.945  1.00  0.00     0.253 C 
ATOM      7  O   UNL A   1      33.711  26.761  23.025  1.00  0.00    -0.269 OA
ATOM      8  H   UNL A   1      34.451  26.918  25.288  1.00  0.00     0.163 HD
BRANCH   6   9
ATOM      9  C   UNL A   1      31.518  27.338  23.661  1.00  0.00     0.063 A 
ATOM     10  C   UNL A   1      31.000  28.457  22.969  1.00  0.00     0.052 A 
ATOM     11  C   UNL A   1      29.593  28.689  22.977  1.00  0.00     0.006 A 
ATOM     12  C   UNL A   1      30.643  26.358  24.158  1.00  0.00     0.016 A 
ATOM     13  C   UNL A   1      28.749  27.688  23.501  1.00  0.00     0.011 A 
ATOM     14  C   UNL A   1      29.265  26.517  24.051  1.00  0.00     0.002 A 
BRANCH  10  15
ATOM     15  N   UNL A   1      31.844  29.294  22.237  1.00  0.00    -0.398 N 
ATOM     16  H   UNL A   1      31.466  29.911  21.569  1.00  0.00     0.156 HD
ATOM     17  H   UNL A   1      32.816  29.268  22.390  1.00  0.00     0.156 HD
ENDBRANCH  10  15
BRANCH  11  18
ATOM     18  C   UNL A   1      28.994  29.967  22.521  1.00  0.00    -0.010 A 
ATOM     19  C   UNL A   1      29.143  31.133  23.299  1.00  0.00     0.051 A 
ATOM     20  C   UNL A   1      28.336  30.092  21.286  1.00  0.00     0.051 A 
ATOM     21  C   UNL A   1      28.700  32.371  22.830  1.00  0.00     0.162 A 
ATOM     22  C   UNL A   1      27.931  31.342  20.815  1.00  0.00     0.162 A 
ATOM     23  F   UNL A   1      28.878  33.459  23.591  1.00  0.00    -0.204 F 
ATOM     24  C   UNL A   1      28.113  32.481  21.581  1.00  0.00     0.194 A 
ATOM     25  F   UNL A   1      27.391  31.431  19.592  1.00  0.00    -0.204 F 
ATOM     26  F   UNL A   1      27.742  33.679  21.111  1.00  0.00    -0.200 F 
ENDBRANCH  11  18
ENDBRANCH   6   9
ENDBRANCH   4   5
ENDBRANCH   3   4
ENDBRANCH   2   3
ENDBRANCH   1   2
BRANCH   1  27
ATOM     27  C   UNL A   1      31.353  32.172  26.541  1.00  0.00     0.021 C 
BRANCH  27  28
ATOM     28  C   UNL A   1      32.559  32.809  27.225  1.00  0.00     0.116 C 
BRANCH  28  29
ATOM     29  N   UNL A   1      32.338  34.192  27.605  1.00  0.00    -0.352 N 
ATOM     30  C   UNL A   1      32.981  34.962  28.540  1.00  0.00     0.251 C 
ATOM     31  H   UNL A   1      31.615  34.648  27.115  1.00  0.00     0.163 HD
ATOM     32  O   UNL A   1      32.560  36.087  28.803  1.00  0.00    -0.269 OA
BRANCH  30  33
ATOM     33  C   UNL A   1      34.161  34.439  29.264  1.00  0.00     0.039 A 
ATOM     34  C   UNL A   1      33.964  33.793  30.487  1.00  0.00     0.014 A 
ATOM     35  C   UNL A   1      35.454  34.590  28.755  1.00  0.00     0.014 A 
ATOM     36  C   UNL A   1      35.054  33.244  31.167  1.00  0.00     0.010 A 
ATOM     37  C   UNL A   1      36.529  33.975  29.395  1.00  0.00     0.010 A 
ATOM     38  C   UNL A   1      36.341  33.297  30.609  1.00  0.00    -0.014 A 
BRANCH  38  39
ATOM     39  C   UNL A   1      37.494  32.641  31.279  1.00  0.00     0.031 A 
ATOM     40  C   UNL A   1      38.213  31.499  30.614  1.00  0.00     0.074 A 
ATOM     41  C   UNL A   1      37.860  33.040  32.512  1.00  0.00     0.049 A 
ATOM     42  N   UNL A   1      39.203  30.769  31.063  1.00  0.00    -0.248 NA
ATOM     43  C   UNL A   1      37.739  31.109  29.277  1.00  0.00     0.031 C 
ATOM     44  C   UNL A   1      37.217  34.107  33.281  1.00  0.00     0.029 A 
ATOM     45  N   UNL A   1      38.858  32.589  33.342  1.00  0.00    -0.354 N 
ATOM     46  C   UNL A   1      39.463  29.832  30.071  1.00  0.00     0.074 A 
ATOM     47  C   UNL A   1      38.489  30.047  29.022  1.00  0.00     0.031 C 
ATOM     48  C   UNL A   1      37.849  34.245  34.456  1.00  0.00     0.029 A 
ATOM     49  C   UNL A   1      38.913  33.250  34.546  1.00  0.00     0.049 A 
ATOM     50  H   UNL A   1      39.475  31.862  33.098  1.00  0.00     0.167 HD
ATOM     51  C   UNL A   1      40.439  28.894  30.028  1.00  0.00     0.037 A 
ATOM     52  C   UNL A   1      39.723  33.066  35.606  1.00  0.00     0.037 A 
ATOM     53  C   UNL A   1      41.414  28.693  31.069  1.00  0.00     0.049 A 
ATOM     54  C   UNL A   1      40.783  31.998  35.544  1.00  0.00     0.074 A 
ATOM     55  C   UNL A   1      42.477  27.806  31.096  1.00  0.00     0.029 A 
ATOM     56  N   UNL A   1      41.439  29.383  32.274  1.00  0.00    -0.354 N 
ATOM     57  N   UNL A   1      41.066  31.168  34.570  1.00  0.00    -0.248 NA
ATOM     58  C   UNL A   1      41.637  31.845  36.729  1.00  0.00     0.031 C 
ATOM     59  C   UNL A   1      43.107  27.916  32.340  1.00  0.00     0.029 A 
ATOM     60  C   UNL A   1      42.480  28.918  33.063  1.00  0.00     0.049 A 
ATOM     61  H   UNL A   1      40.810  30.095  32.529  1.00  0.00     0.167 HD
ATOM     62  C   UNL A   1      42.148  30.417  35.011  1.00  0.00     0.074 A 
ATOM     63  C   UNL A   1      42.481  30.903  36.332  1.00  0.00     0.031 C 
ATOM     64  C   UNL A   1      42.805  29.414  34.377  1.00  0.00     0.037 A 
BRANCH  51  65
ATOM     65  C   UNL A   1      40.500  28.007  28.816  1.00  0.00     0.064 A 
ATOM     66  C   UNL A   1      39.800  26.793  28.754  1.00  0.00     0.173 A 
ATOM     67  C   UNL A   1      41.238  28.394  27.687  1.00  0.00     0.173 A 
ATOM     68  F   UNL A   1      39.086  26.370  29.809  1.00  0.00    -0.203 F 
ATOM     69  C   UNL A   1      39.862  25.984  27.623  1.00  0.00     0.198 A 
ATOM     70  C   UNL A   1      41.270  27.599  26.543  1.00  0.00     0.198 A 
ATOM     71  F   UNL A   1      41.921  29.548  27.687  1.00  0.00    -0.203 F 
ATOM     72  F   UNL A   1      39.229  24.803  27.609  1.00  0.00    -0.200 F 
ATOM     73  C   UNL A   1      40.590  26.392  26.516  1.00  0.00     0.200 A 
ATOM     74  F   UNL A   1      41.961  28.003  25.468  1.00  0.00    -0.200 F 
ATOM     75  F   UNL A   1      40.643  25.616  25.424  1.00  0.00    -0.200 F 
ENDBRANCH  51  65
BRANCH  52  76
ATOM     76  C   UNL A   1      39.576  33.923  36.813  1.00  0.00     0.064 A 
ATOM     77  C   UNL A   1      38.802  33.505  37.906  1.00  0.00     0.173 A 
ATOM     78  C   UNL A   1      40.194  35.179  36.896  1.00  0.00     0.173 A 
ATOM     79  F   UNL A   1      38.175  32.321  37.867  1.00  0.00    -0.203 F 
ATOM     80  C   UNL A   1      38.633  34.321  39.023  1.00  0.00     0.198 A 
ATOM     81  C   UNL A   1      40.051  35.980  38.028  1.00  0.00     0.198 A 
ATOM     82  F   UNL A   1      40.950  35.625  35.882  1.00  0.00    -0.203 F 
ATOM     83  F   UNL A   1      37.845  33.918  40.029  1.00  0.00    -0.200 F 
ATOM     84  C   UNL A   1      39.262  35.554  39.086  1.00  0.00     0.200 A 
ATOM     85  F   UNL A   1      40.675  37.164  38.093  1.00  0.00    -0.200 F 
ATOM     86  F   UNL A   1      39.101  36.336  40.162  1.00  0.00    -0.200 F 
ENDBRANCH  52  76
BRANCH  64  87
ATOM     87  C   UNL A   1      43.976  28.798  35.090  1.00  0.00     0.064 A 
ATOM     88  C   UNL A   1      43.834  27.661  35.900  1.00  0.00     0.173 A 
ATOM     89  C   UNL A   1      45.265  29.332  34.929  1.00  0.00     0.173 A 
ATOM     90  F   UNL A   1      42.624  27.120  36.099  1.00  0.00    -0.203 F 
ATOM     91  C   UNL A   1      44.934  27.101  36.545  1.00  0.00     0.198 A 
ATOM     92  C   UNL A   1      46.366  28.747  35.547  1.00  0.00     0.198 A 
ATOM     93  F   UNL A   1      45.458  30.413  34.158  1.00  0.00    -0.203 F 
ATOM     94  F   UNL A   1      44.766  26.049  37.359  1.00  0.00    -0.200 F 
ATOM     95  C   UNL A   1      46.199  27.639  36.362  1.00  0.00     0.200 A 
ATOM     96  F   UNL A   1      47.591  29.258  35.353  1.00  0.00    -0.200 F 
ATOM     97  F   UNL A   1      47.257  27.093  36.977  1.00  0.00    -0.200 F 
ENDBRANCH  64  87
ENDBRANCH  38  39
ENDBRANCH  30  33
ENDBRANCH  28  29
ENDBRANCH  27  28
ENDBRANCH   1  27
TORSDOF 15
ENDMDL
MODEL 2
REMARK VINA RESULT:     -13.2      0.087      1.117
REMARK SMILES Nc1c(C(=O)NCCCCCCNC(=O)c2ccc(-c3c4nc(c(-c5c(F)c(F)c(F)c(F)c5F)c5ccc([nH]5)c(-c5c(F)c(F)c(F)c(F)c5F)c5nc(c(-c6c(F)c(F)c(F)c(F)c6F)c6ccc3[nH]6)C=C5)C=C4)cc2)cccc1-c1cc(F)c(F)c(F)c1
REMARK SMILES IDX 10 1 9 2 8 3 7 4 6 5 4 6 5 7 3 9 2 10 82 11 79 12 81 13
REMARK SMILES IDX 80 14 1 15 83 18 84 19 91 20 85 21 89 22 86 23 87 24 90 25
REMARK SMILES IDX 88 26 11 27 12 28 13 29 14 30 15 32 16 33 17 34 78 35 18 36
REMARK SMILES IDX 77 37 19 38 20 39 21 40 71 41 22 42 76 43 70 44 72 45 23 46
REMARK SMILES IDX 75 47 69 48 68 49 24 51 56 52 36 53 55 54 37 55 40 56 54 57
REMARK SMILES IDX 73 58 38 59 39 60 53 62 74 63 41 64 25 65 26 66 34 67 27 68
REMARK SMILES IDX 28 69 32 70 35 71 29 72 30 73 33 74 31 75 57 76 58 77 66 78
REMARK SMILES IDX 59 79 60 80 64 81 67 82 61 83 62 84 65 85 63 86 42 87 43 88
REMARK SMILES IDX 51 89 44 90 45 91 49 92 52 93 46 94 47 95 50 96 48 97
REMARK H PARENT 6 8 1 16 1 17 13 31 72 50 40 61
REMARK Flexibility Score: inf
ROOT
ATOM      1  C   UNL A   1      31.503  30.699  26.080  1.00  0.00     0.002 C 
ENDROOT
BRANCH   1   2
ATOM      2  C   UNL A   1      32.888  30.063  26.241  1.00  0.00     0.002 C 
BRANCH   2   3
ATOM      3  C   UNL A   1      33.011  28.868  27.191  1.00  0.00     0.021 C 
BRANCH   3   4
ATOM      4  C   UNL A   1      32.768  27.492  26.582  1.00  0.00     0.116 C 
BRANCH   4   5
ATOM      5  N   UNL A   1      33.458  27.229  25.335  1.00  0.00    -0.352 N 
ATOM      6  C   UNL A   1      32.980  27.246  24.038  1.00  0.00     0.253 C 
ATOM      7  O   UNL A   1      33.773  27.011  23.126  1.00  0.00    -0.269 OA
ATOM      8  H   UNL A   1      34.413  27.005  25.425  1.00  0.00     0.163 HD
BRANCH   6   9
ATOM      9  C   UNL A   1      31.534  27.448  23.709  1.00  0.00     0.063 A 
ATOM     10  C   UNL A   1      31.012  28.555  23.003  1.00  0.00     0.052 A 
ATOM     11  C   UNL A   1      29.601  28.755  22.968  1.00  0.00     0.006 A 
ATOM     12  C   UNL A   1      30.667  26.447  24.179  1.00  0.00     0.016 A 
ATOM     13  C   UNL A   1      28.764  27.735  23.466  1.00  0.00     0.011 A 
ATOM     14  C   UNL A   1      29.290  26.575  24.031  1.00  0.00     0.002 A 
BRANCH  10  15
ATOM     15  N   UNL A   1      31.859  29.412  22.297  1.00  0.00    -0.398 N 
ATOM     16  H   UNL A   1      32.263  29.116  21.450  1.00  0.00     0.156 HD
ATOM     17  H   UNL A   1      32.050  30.312  22.647  1.00  0.00     0.156 HD
ENDBRANCH  10  15
BRANCH  11  18
ATOM     18  C   UNL A   1      28.987  30.020  22.495  1.00  0.00    -0.010 A 
ATOM     19  C   UNL A   1      29.129  31.200  23.254  1.00  0.00     0.051 A 
ATOM     20  C   UNL A   1      28.321  30.119  21.262  1.00  0.00     0.051 A 
ATOM     21  C   UNL A   1      28.672  32.426  22.767  1.00  0.00     0.162 A 
ATOM     22  C   UNL A   1      27.901  31.356  20.773  1.00  0.00     0.162 A 
ATOM     23  F   UNL A   1      28.843  33.528  23.509  1.00  0.00    -0.204 F 
ATOM     24  C   UNL A   1      28.077  32.510  21.519  1.00  0.00     0.194 A 
ATOM     25  F   UNL A   1      27.354  31.421  19.551  1.00  0.00    -0.204 F 
ATOM     26  F   UNL A   1      27.691  33.697  21.032  1.00  0.00    -0.200 F 
ENDBRANCH  11  18
ENDBRANCH   6   9
ENDBRANCH   4   5
ENDBRANCH   3   4
ENDBRANCH   2   3
ENDBRANCH   1   2
BRANCH   1  27
ATOM     27  C   UNL A   1      31.353  32.161  26.507  1.00  0.00     0.021 C 
BRANCH  27  28
ATOM     28  C   UNL A   1      32.544  32.773  27.238  1.00  0.00     0.116 C 
BRANCH  28  29
ATOM     29  N   UNL A   1      32.340  34.164  27.600  1.00  0.00    -0.352 N 
ATOM     30  C   UNL A   1      32.995  34.940  28.522  1.00  0.00     0.251 C 
ATOM     31  H   UNL A   1      31.621  34.622  27.107  1.00  0.00     0.163 HD
ATOM     32  O   UNL A   1      32.588  36.072  28.771  1.00  0.00    -0.269 OA
BRANCH  30  33
ATOM     33  C   UNL A   1      34.172  34.413  29.248  1.00  0.00     0.039 A 
ATOM     34  C   UNL A   1      33.968  33.742  30.457  1.00  0.00     0.014 A 
ATOM     35  C   UNL A   1      35.469  34.585  28.756  1.00  0.00     0.014 A 
ATOM     36  C   UNL A   1      35.055  33.190  31.139  1.00  0.00     0.010 A 
ATOM     37  C   UNL A   1      36.543  33.968  29.397  1.00  0.00     0.010 A 
ATOM     38  C   UNL A   1      36.347  33.264  30.595  1.00  0.00    -0.014 A 
BRANCH  38  39
ATOM     39  C   UNL A   1      37.499  32.606  31.265  1.00  0.00     0.031 A 
ATOM     40  C   UNL A   1      38.219  31.467  30.597  1.00  0.00     0.074 A 
ATOM     41  C   UNL A   1      37.863  32.999  32.501  1.00  0.00     0.049 A 
ATOM     42  N   UNL A   1      39.209  30.735  31.045  1.00  0.00    -0.248 NA
ATOM     43  C   UNL A   1      37.749  31.082  29.257  1.00  0.00     0.031 C 
ATOM     44  C   UNL A   1      37.218  34.063  33.272  1.00  0.00     0.029 A 
ATOM     45  N   UNL A   1      38.859  32.545  33.331  1.00  0.00    -0.354 N 
ATOM     46  C   UNL A   1      39.471  29.801  30.050  1.00  0.00     0.074 A 
ATOM     47  C   UNL A   1      38.499  30.021  29.000  1.00  0.00     0.031 C 
ATOM     48  C   UNL A   1      37.848  34.197  34.450  1.00  0.00     0.029 A 
ATOM     49  C   UNL A   1      38.911  33.201  34.538  1.00  0.00     0.049 A 
ATOM     50  H   UNL A   1      39.476  31.820  33.085  1.00  0.00     0.167 HD
ATOM     51  C   UNL A   1      40.447  28.864  30.006  1.00  0.00     0.037 A 
ATOM     52  C   UNL A   1      39.719  33.013  35.599  1.00  0.00     0.037 A 
ATOM     53  C   UNL A   1      41.419  28.658  31.048  1.00  0.00     0.049 A 
ATOM     54  C   UNL A   1      40.778  31.945  35.535  1.00  0.00     0.074 A 
ATOM     55  C   UNL A   1      42.483  27.772  31.074  1.00  0.00     0.029 A 
ATOM     56  N   UNL A   1      41.442  29.343  32.255  1.00  0.00    -0.354 N 
ATOM     57  N   UNL A   1      41.064  31.119  34.558  1.00  0.00    -0.248 NA
ATOM     58  C   UNL A   1      41.631  31.788  36.721  1.00  0.00     0.031 C 
ATOM     59  C   UNL A   1      43.110  27.877  32.320  1.00  0.00     0.029 A 
ATOM     60  C   UNL A   1      42.482  28.876  33.045  1.00  0.00     0.049 A 
ATOM     61  H   UNL A   1      40.813  30.055  32.512  1.00  0.00     0.167 HD
ATOM     62  C   UNL A   1      42.145  30.366  34.998  1.00  0.00     0.074 A 
ATOM     63  C   UNL A   1      42.476  30.848  36.322  1.00  0.00     0.031 C 
ATOM     64  C   UNL A   1      42.803  29.366  34.362  1.00  0.00     0.037 A 
BRANCH  51  65
ATOM     65  C   UNL A   1      40.511  27.981  28.791  1.00  0.00     0.064 A 
ATOM     66  C   UNL A   1      39.813  26.766  28.723  1.00  0.00     0.173 A 
ATOM     67  C   UNL A   1      41.249  28.374  27.663  1.00  0.00     0.173 A 
ATOM     68  F   UNL A   1      39.098  26.339  29.776  1.00  0.00    -0.203 F 
ATOM     69  C   UNL A   1      39.878  25.962  27.588  1.00  0.00     0.198 A 
ATOM     70  C   UNL A   1      41.283  27.584  26.516  1.00  0.00     0.198 A 
ATOM     71  F   UNL A   1      41.930  29.529  27.668  1.00  0.00    -0.203 F 
ATOM     72  F   UNL A   1      39.246  24.780  27.570  1.00  0.00    -0.200 F 
ATOM     73  C   UNL A   1      40.606  26.375  26.484  1.00  0.00     0.200 A 
ATOM     74  F   UNL A   1      41.975  27.993  25.444  1.00  0.00    -0.200 F 
ATOM     75  F   UNL A   1      40.661  25.604  25.389  1.00  0.00    -0.200 F 
ENDBRANCH  51  65
BRANCH  52  76
ATOM     76  C   UNL A   1      39.569  33.865  36.809  1.00  0.00     0.064 A 
ATOM     77  C   UNL A   1      38.791  33.444  37.897  1.00  0.00     0.173 A 
ATOM     78  C   UNL A   1      40.189  35.120  36.900  1.00  0.00     0.173 A 
ATOM     79  F   UNL A   1      38.161  32.261  37.850  1.00  0.00    -0.203 F 
ATOM     80  C   UNL A   1      38.619  34.256  39.017  1.00  0.00     0.198 A 
ATOM     81  C   UNL A   1      40.044  35.916  38.034  1.00  0.00     0.198 A 
ATOM     82  F   UNL A   1      40.950  35.569  35.891  1.00  0.00    -0.203 F 
ATOM     83  F   UNL A   1      37.826  33.850  40.019  1.00  0.00    -0.200 F 
ATOM     84  C   UNL A   1      39.250  35.488  39.088  1.00  0.00     0.200 A 
ATOM     85  F   UNL A   1      40.670  37.098  38.107  1.00  0.00    -0.200 F 
ATOM     86  F   UNL A   1      39.087  36.265  40.167  1.00  0.00    -0.200 F 
ENDBRANCH  52  76
BRANCH  64  87
ATOM     87  C   UNL A   1      43.973  28.747  35.075  1.00  0.00     0.064 A 
ATOM     88  C   UNL A   1      45.269  29.273  34.963  1.00  0.00     0.173 A 
ATOM     89  C   UNL A   1      43.787  27.635  35.911  1.00  0.00     0.173 A 
ATOM     90  F   UNL A   1      45.504  30.326  34.167  1.00  0.00    -0.203 F 
ATOM     91  C   UNL A   1      46.339  28.690  35.639  1.00  0.00     0.198 A 
ATOM     92  C   UNL A   1      44.852  27.077  36.612  1.00  0.00     0.198 A 
ATOM     93  F   UNL A   1      42.567  27.097  36.060  1.00  0.00    -0.203 F 
ATOM     94  F   UNL A   1      47.577  29.175  35.473  1.00  0.00    -0.200 F 
ATOM     95  C   UNL A   1      46.128  27.599  36.468  1.00  0.00     0.200 A 
ATOM     96  F   UNL A   1      44.643  26.034  37.427  1.00  0.00    -0.200 F 
ATOM     97  F   UNL A   1      47.157  27.044  37.123  1.00  0.00    -0.200 F 
ENDBRANCH  64  87
ENDBRANCH  38  39
ENDBRANCH  30  33
ENDBRANCH  28  29
ENDBRANCH  27  28
ENDBRANCH   1  27
TORSDOF 15
ENDMDL
MODEL 3
REMARK VINA RESULT:     -12.9      0.652      7.256
REMARK SMILES Nc1c(C(=O)NCCCCCCNC(=O)c2ccc(-c3c4nc(c(-c5c(F)c(F)c(F)c(F)c5F)c5ccc([nH]5)c(-c5c(F)c(F)c(F)c(F)c5F)c5nc(c(-c6c(F)c(F)c(F)c(F)c6F)c6ccc3[nH]6)C=C5)C=C4)cc2)cccc1-c1cc(F)c(F)c(F)c1
REMARK SMILES IDX 10 1 9 2 8 3 7 4 6 5 4 6 5 7 3 9 2 10 82 11 79 12 81 13
REMARK SMILES IDX 80 14 1 15 83 18 84 19 91 20 85 21 89 22 86 23 87 24 90 25
REMARK SMILES IDX 88 26 11 27 12 28 13 29 14 30 15 32 16 33 17 34 78 35 18 36
REMARK SMILES IDX 77 37 19 38 20 39 21 40 71 41 22 42 76 43 70 44 72 45 23 46
REMARK SMILES IDX 75 47 69 48 68 49 24 51 56 52 36 53 55 54 37 55 40 56 54 57
REMARK SMILES IDX 73 58 38 59 39 60 53 62 74 63 41 64 25 65 26 66 34 67 27 68
REMARK SMILES IDX 28 69 32 70 35 71 29 72 30 73 33 74 31 75 57 76 58 77 66 78
REMARK SMILES IDX 59 79 60 80 64 81 67 82 61 83 62 84 65 85 63 86 42 87 43 88
REMARK SMILES IDX 51 89 44 90 45 91 49 92 52 93 46 94 47 95 50 96 48 97
REMARK H PARENT 6 8 1 16 1 17 13 31 72 50 40 61
REMARK Flexibility Score: inf
ROOT
ATOM      1  C   UNL A   1      31.548  30.625  26.838  1.00  0.00     0.002 C 
ENDROOT
BRANCH   1   2
ATOM      2  C   UNL A   1      32.252  29.934  25.665  1.00  0.00     0.002 C 
BRANCH   2   3
ATOM      3  C   UNL A   1      33.478  29.074  25.985  1.00  0.00     0.021 C 
BRANCH   3   4
ATOM      4  C   UNL A   1      33.277  27.564  25.930  1.00  0.00     0.116 C 
BRANCH   4   5
ATOM      5  N   UNL A   1      33.692  26.921  24.697  1.00  0.00    -0.352 N 
ATOM      6  C   UNL A   1      32.985  26.707  23.529  1.00  0.00     0.253 C 
ATOM      7  O   UNL A   1      33.565  26.155  22.595  1.00  0.00    -0.269 OA
ATOM      8  H   UNL A   1      34.619  26.588  24.692  1.00  0.00     0.163 HD
BRANCH   6   9
ATOM      9  C   UNL A   1      31.532  27.036  23.389  1.00  0.00     0.063 A 
ATOM     10  C   UNL A   1      31.022  28.207  22.786  1.00  0.00     0.052 A 
ATOM     11  C   UNL A   1      29.638  28.520  22.934  1.00  0.00     0.006 A 
ATOM     12  C   UNL A   1      30.647  26.089  23.934  1.00  0.00     0.016 A 
ATOM     13  C   UNL A   1      28.786  27.550  23.502  1.00  0.00     0.011 A 
ATOM     14  C   UNL A   1      29.278  26.331  23.962  1.00  0.00     0.002 A 
BRANCH  10  15
ATOM     15  N   UNL A   1      31.844  29.022  22.007  1.00  0.00    -0.398 N 
ATOM     16  H   UNL A   1      32.671  28.657  21.617  1.00  0.00     0.156 HD
ATOM     17  H   UNL A   1      31.597  29.962  21.846  1.00  0.00     0.156 HD
ENDBRANCH  10  15
BRANCH  11  18
ATOM     18  C   UNL A   1      29.078  29.847  22.579  1.00  0.00    -0.010 A 
ATOM     19  C   UNL A   1      29.294  30.953  23.426  1.00  0.00     0.051 A 
ATOM     20  C   UNL A   1      28.394  30.078  21.373  1.00  0.00     0.051 A 
ATOM     21  C   UNL A   1      28.889  32.235  23.050  1.00  0.00     0.162 A 
ATOM     22  C   UNL A   1      28.027  31.370  20.995  1.00  0.00     0.162 A 
ATOM     23  F   UNL A   1      29.130  33.263  23.874  1.00  0.00    -0.204 F 
ATOM     24  C   UNL A   1      28.274  32.449  21.828  1.00  0.00     0.194 A 
ATOM     25  F   UNL A   1      27.459  31.559  19.796  1.00  0.00    -0.204 F 
ATOM     26  F   UNL A   1      27.939  33.689  21.447  1.00  0.00    -0.200 F 
ENDBRANCH  11  18
ENDBRANCH   6   9
ENDBRANCH   4   5
ENDBRANCH   3   4
ENDBRANCH   2   3
ENDBRANCH   1   2
BRANCH   1  27
ATOM     27  C   UNL A   1      31.437  32.151  26.784  1.00  0.00     0.021 C 
BRANCH  27  28
ATOM     28  C   UNL A   1      32.721  32.928  27.054  1.00  0.00     0.116 C 
BRANCH  28  29
ATOM     29  N   UNL A   1      32.486  34.242  27.626  1.00  0.00    -0.352 N 
ATOM     30  C   UNL A   1      33.097  34.863  28.686  1.00  0.00     0.251 C 
ATOM     31  H   UNL A   1      31.779  34.767  27.186  1.00  0.00     0.163 HD
ATOM     32  O   UNL A   1      32.667  35.938  29.097  1.00  0.00    -0.269 OA
BRANCH  30  33
ATOM     33  C   UNL A   1      34.254  34.234  29.362  1.00  0.00     0.039 A 
ATOM     34  C   UNL A   1      34.012  33.355  30.421  1.00  0.00     0.014 A 
ATOM     35  C   UNL A   1      35.566  34.513  28.972  1.00  0.00     0.014 A 
ATOM     36  C   UNL A   1      35.082  32.707  31.045  1.00  0.00     0.010 A 
ATOM     37  C   UNL A   1      36.626  33.810  29.544  1.00  0.00     0.010 A 
ATOM     38  C   UNL A   1      36.395  32.900  30.586  1.00  0.00    -0.014 A 
BRANCH  38  39
ATOM     39  C   UNL A   1      37.532  32.152  31.183  1.00  0.00     0.031 A 
ATOM     40  C   UNL A   1      38.021  32.485  32.566  1.00  0.00     0.074 A 
ATOM     41  C   UNL A   1      38.160  31.208  30.457  1.00  0.00     0.049 A 
ATOM     42  N   UNL A   1      39.029  31.982  33.233  1.00  0.00    -0.248 NA
ATOM     43  C   UNL A   1      37.295  33.544  33.286  1.00  0.00     0.031 C 
ATOM     44  C   UNL A   1      37.809  30.821  29.090  1.00  0.00     0.029 A 
ATOM     45  N   UNL A   1      39.233  30.405  30.763  1.00  0.00    -0.354 N 
ATOM     46  C   UNL A   1      39.064  32.666  34.441  1.00  0.00     0.074 A 
ATOM     47  C   UNL A   1      38.013  33.660  34.393  1.00  0.00     0.031 C 
ATOM     48  C   UNL A   1      38.633  29.841  28.684  1.00  0.00     0.029 A 
ATOM     49  C   UNL A   1      39.597  29.560  29.742  1.00  0.00     0.049 A 
ATOM     50  H   UNL A   1      39.696  30.432  31.631  1.00  0.00     0.167 HD
ATOM     51  C   UNL A   1      39.882  32.466  35.503  1.00  0.00     0.037 A 
ATOM     52  C   UNL A   1      40.602  28.667  29.665  1.00  0.00     0.037 A 
ATOM     53  C   UNL A   1      40.917  31.467  35.550  1.00  0.00     0.049 A 
ATOM     54  C   UNL A   1      41.515  28.484  30.849  1.00  0.00     0.074 A 
ATOM     55  C   UNL A   1      41.762  31.148  36.599  1.00  0.00     0.029 A 
ATOM     56  N   UNL A   1      41.256  30.628  34.497  1.00  0.00    -0.354 N 
ATOM     57  N   UNL A   1      41.490  29.085  32.015  1.00  0.00    -0.248 NA
ATOM     58  C   UNL A   1      42.591  27.495  30.708  1.00  0.00     0.031 C 
ATOM     59  C   UNL A   1      42.651  30.161  36.162  1.00  0.00     0.029 A 
ATOM     60  C   UNL A   1      42.318  29.815  34.863  1.00  0.00     0.049 A 
ATOM     61  H   UNL A   1      40.808  30.613  33.621  1.00  0.00     0.167 HD
ATOM     62  C   UNL A   1      42.525  28.527  32.754  1.00  0.00     0.074 A 
ATOM     63  C   UNL A   1      43.145  27.527  31.912  1.00  0.00     0.031 C 
ATOM     64  C   UNL A   1      42.926  28.819  34.016  1.00  0.00     0.037 A 
BRANCH  51  65
ATOM     65  C   UNL A   1      39.694  33.352  36.703  1.00  0.00     0.064 A 
ATOM     66  C   UNL A   1      40.376  34.571  36.834  1.00  0.00     0.173 A 
ATOM     67  C   UNL A   1      38.791  32.996  37.716  1.00  0.00     0.173 A 
ATOM     68  F   UNL A   1      41.257  34.956  35.898  1.00  0.00    -0.203 F 
ATOM     69  C   UNL A   1      40.187  35.384  37.950  1.00  0.00     0.198 A 
ATOM     70  C   UNL A   1      38.578  33.828  38.814  1.00  0.00     0.198 A 
ATOM     71  F   UNL A   1      38.106  31.846  37.640  1.00  0.00    -0.203 F 
ATOM     72  F   UNL A   1      40.892  36.516  38.078  1.00  0.00    -0.200 F 
ATOM     73  C   UNL A   1      39.283  35.015  38.934  1.00  0.00     0.200 A 
ATOM     74  F   UNL A   1      37.692  33.477  39.756  1.00  0.00    -0.200 F 
ATOM     75  F   UNL A   1      39.097  35.801  40.003  1.00  0.00    -0.200 F 
ENDBRANCH  51  65
BRANCH  52  76
ATOM     76  C   UNL A   1      40.792  27.865  28.427  1.00  0.00     0.064 A 
ATOM     77  C   UNL A   1      40.192  26.606  28.283  1.00  0.00     0.173 A 
ATOM     78  C   UNL A   1      41.586  28.332  27.369  1.00  0.00     0.173 A 
ATOM     79  F   UNL A   1      39.441  26.106  29.275  1.00  0.00    -0.203 F 
ATOM     80  C   UNL A   1      40.398  25.836  27.140  1.00  0.00     0.198 A 
ATOM     81  C   UNL A   1      41.763  27.576  26.212  1.00  0.00     0.198 A 
ATOM     82  F   UNL A   1      42.178  29.533  27.451  1.00  0.00    -0.203 F 
ATOM     83  F   UNL A   1      39.854  24.614  27.052  1.00  0.00    -0.200 F 
ATOM     84  C   UNL A   1      41.178  26.324  26.103  1.00  0.00     0.200 A 
ATOM     85  F   UNL A   1      42.503  28.058  25.204  1.00  0.00    -0.200 F 
ATOM     86  F   UNL A   1      41.371  25.584  25.003  1.00  0.00    -0.200 F 
ENDBRANCH  52  76
BRANCH  64  87
ATOM     87  C   UNL A   1      44.067  28.020  34.579  1.00  0.00     0.064 A 
ATOM     88  C   UNL A   1      43.861  26.795  35.231  1.00  0.00     0.173 A 
ATOM     89  C   UNL A   1      45.389  28.470  34.432  1.00  0.00     0.173 A 
ATOM     90  F   UNL A   1      42.618  26.326  35.411  1.00  0.00    -0.203 F 
ATOM     91  C   UNL A   1      44.934  26.065  35.739  1.00  0.00     0.198 A 
ATOM     92  C   UNL A   1      46.460  27.721  34.910  1.00  0.00     0.198 A 
ATOM     93  F   UNL A   1      45.643  29.632  33.810  1.00  0.00    -0.203 F 
ATOM     94  F   UNL A   1      44.709  24.925  36.407  1.00  0.00    -0.200 F 
ATOM     95  C   UNL A   1      46.231  26.525  35.571  1.00  0.00     0.200 A 
ATOM     96  F   UNL A   1      47.714  28.158  34.730  1.00  0.00    -0.200 F 
ATOM     97  F   UNL A   1      47.262  25.817  36.053  1.00  0.00    -0.200 F 
ENDBRANCH  64  87
ENDBRANCH  38  39
ENDBRANCH  30  33
ENDBRANCH  28  29
ENDBRANCH  27  28
ENDBRANCH   1  27
TORSDOF 15
ENDMDL
