MODEL 1
REMARK VINA RESULT:     -11.7      0.000      0.000
REMARK SMILES C[C@@H]([NH2+]C1(CO)CCCCC1)[C@@H](C)C(=O)NCCCCCCNC(=O)c1ccc(-c2c3nc(c(-c4c(F)c(F)c(F)c(F)c4F)c4ccc([nH]4)c(-c4c(F)c(F)c(F)c(F)c4F)c4nc(c(-c5c(F)c(F)c(F)c(F)c5F)c5ccc2[nH]5)C=C4)C=C3)cc1
REMARK SMILES IDX 18 1 17 2 16 3 14 4 15 5 12 7 13 8 2 9 1 10 3 11 4 14 7 15
REMARK SMILES IDX 11 16 8 17 10 18 9 19 5 20 6 21 19 23 20 24 21 25 22 26
REMARK SMILES IDX 23 27 24 28 25 30 26 31 27 32 88 33 28 34 87 35 29 36 30 37
REMARK SMILES IDX 31 38 81 39 32 40 86 41 80 42 82 43 33 44 85 45 79 46 78 47
REMARK SMILES IDX 34 49 66 50 46 51 65 52 47 53 50 54 64 55 83 56 48 57 49 58
REMARK SMILES IDX 63 60 84 61 51 62 35 63 36 64 44 65 37 66 38 67 42 68 45 69
REMARK SMILES IDX 39 70 40 71 43 72 41 73 67 74 68 75 76 76 69 77 70 78 74 79
REMARK SMILES IDX 77 80 71 81 72 82 75 83 73 84 52 85 53 86 61 87 54 88 55 89
REMARK SMILES IDX 59 90 62 91 56 92 57 93 60 94 58 95
REMARK H PARENT 16 6 3 12 3 13 6 22 23 29 82 48 50 59
REMARK Flexibility Score: inf
ROOT
ATOM      1  C   UNL A   1      33.482  28.527  26.816  1.00  0.00     0.021 C 
ENDROOT
BRANCH   1   2
ATOM      2  C   UNL A   1      32.630  27.825  25.756  1.00  0.00     0.116 C 
BRANCH   2   3
ATOM      3  N   UNL A   1      31.592  26.988  26.310  1.00  0.00    -0.356 N 
ATOM      4  C   UNL A   1      30.536  26.349  25.751  1.00  0.00     0.228 C 
ATOM      5  O   UNL A   1      29.859  25.665  26.532  1.00  0.00    -0.275 OA
ATOM      6  H   UNL A   1      31.666  26.857  27.283  1.00  0.00     0.163 HD
BRANCH   4   7
ATOM      7  C   UNL A   1      30.183  26.393  24.263  1.00  0.00     0.133 C 
ATOM      8  C   UNL A   1      30.963  25.200  23.676  1.00  0.00     0.024 C 
BRANCH   7   9
ATOM      9  C   UNL A   1      30.311  27.763  23.494  1.00  0.00     0.192 C 
ATOM     10  C   UNL A   1      31.429  27.647  22.427  1.00  0.00     0.076 C 
BRANCH   9  11
ATOM     11  N   UNL A   1      29.128  28.249  22.732  1.00  0.00    -0.337 N 
ATOM     12  H   UNL A   1      28.354  27.646  23.011  1.00  0.00     0.347 HD
ATOM     13  H   UNL A   1      29.490  28.227  21.779  1.00  0.00     0.347 HD
BRANCH  11  14
ATOM     14  C   UNL A   1      28.603  29.644  22.806  1.00  0.00     0.120 C 
ATOM     15  C   UNL A   1      29.483  30.537  23.725  1.00  0.00     0.071 C 
ATOM     16  C   UNL A   1      28.800  30.251  21.387  1.00  0.00     0.071 C 
ATOM     17  C   UNL A   1      28.989  31.989  23.773  1.00  0.00     0.007 C 
ATOM     18  C   UNL A   1      28.231  31.670  21.295  1.00  0.00     0.007 C 
ATOM     19  C   UNL A   1      28.732  32.612  22.395  1.00  0.00     0.001 C 
BRANCH  14  20
ATOM     20  C   UNL A   1      27.108  29.756  23.182  1.00  0.00     0.224 C 
BRANCH  20  21
ATOM     21  O   UNL A   1      26.456  28.498  23.065  1.00  0.00    -0.390 OA
ATOM     22  H   UNL A   1      25.540  28.578  23.376  1.00  0.00     0.210 HD
ENDBRANCH  20  21
ENDBRANCH  14  20
ENDBRANCH  11  14
ENDBRANCH   9  11
ENDBRANCH   7   9
ENDBRANCH   4   7
ENDBRANCH   2   3
ENDBRANCH   1   2
BRANCH   1  23
ATOM     23  C   UNL A   1      33.196  30.009  27.074  1.00  0.00     0.002 C 
BRANCH  23  24
ATOM     24  C   UNL A   1      31.827  30.508  26.618  1.00  0.00     0.002 C 
BRANCH  24  25
ATOM     25  C   UNL A   1      31.571  31.992  26.864  1.00  0.00     0.021 C 
BRANCH  25  26
ATOM     26  C   UNL A   1      32.805  32.779  27.280  1.00  0.00     0.116 C 
BRANCH  26  27
ATOM     27  N   UNL A   1      32.486  34.161  27.590  1.00  0.00    -0.352 N 
ATOM     28  C   UNL A   1      32.995  34.947  28.598  1.00  0.00     0.251 C 
ATOM     29  H   UNL A   1      31.822  34.591  27.003  1.00  0.00     0.163 HD
ATOM     30  O   UNL A   1      32.482  36.018  28.882  1.00  0.00    -0.269 OA
BRANCH  28  31
ATOM     31  C   UNL A   1      34.170  34.459  29.352  1.00  0.00     0.039 A 
ATOM     32  C   UNL A   1      33.978  33.803  30.569  1.00  0.00     0.014 A 
ATOM     33  C   UNL A   1      35.454  34.622  28.827  1.00  0.00     0.014 A 
ATOM     34  C   UNL A   1      35.077  33.254  31.235  1.00  0.00     0.010 A 
ATOM     35  C   UNL A   1      36.532  34.002  29.446  1.00  0.00     0.010 A 
ATOM     36  C   UNL A   1      36.358  33.321  30.662  1.00  0.00    -0.014 A 
BRANCH  36  37
ATOM     37  C   UNL A   1      37.546  32.726  31.322  1.00  0.00     0.031 A 
ATOM     38  C   UNL A   1      38.265  31.587  30.654  1.00  0.00     0.074 A 
ATOM     39  C   UNL A   1      37.924  33.140  32.546  1.00  0.00     0.049 A 
ATOM     40  N   UNL A   1      39.224  30.824  31.115  1.00  0.00    -0.248 NA
ATOM     41  C   UNL A   1      37.823  31.238  29.294  1.00  0.00     0.031 C 
ATOM     42  C   UNL A   1      37.295  34.220  33.307  1.00  0.00     0.029 A 
ATOM     43  N   UNL A   1      38.920  32.687  33.375  1.00  0.00    -0.354 N 
ATOM     44  C   UNL A   1      39.479  29.896  30.114  1.00  0.00     0.074 A 
ATOM     45  C   UNL A   1      38.538  30.153  29.046  1.00  0.00     0.031 C 
ATOM     46  C   UNL A   1      37.927  34.356  34.484  1.00  0.00     0.029 A 
ATOM     47  C   UNL A   1      38.973  33.340  34.583  1.00  0.00     0.049 A 
ATOM     48  H   UNL A   1      39.539  31.962  33.128  1.00  0.00     0.167 HD
ATOM     49  C   UNL A   1      40.429  28.932  30.078  1.00  0.00     0.037 A 
ATOM     50  C   UNL A   1      39.763  33.131  35.654  1.00  0.00     0.037 A 
ATOM     51  C   UNL A   1      41.377  28.696  31.133  1.00  0.00     0.049 A 
ATOM     52  C   UNL A   1      40.788  32.027  35.604  1.00  0.00     0.074 A 
ATOM     53  C   UNL A   1      42.406  27.774  31.179  1.00  0.00     0.029 A 
ATOM     54  N   UNL A   1      41.408  29.391  32.335  1.00  0.00    -0.354 N 
ATOM     55  N   UNL A   1      41.053  31.186  34.635  1.00  0.00    -0.248 NA
ATOM     56  C   UNL A   1      41.626  31.846  36.799  1.00  0.00     0.031 C 
ATOM     57  C   UNL A   1      43.025  27.872  32.429  1.00  0.00     0.029 A 
ATOM     58  C   UNL A   1      42.426  28.902  33.136  1.00  0.00     0.049 A 
ATOM     59  H   UNL A   1      40.797  30.124  32.580  1.00  0.00     0.167 HD
ATOM     60  C   UNL A   1      42.114  30.408  35.083  1.00  0.00     0.074 A 
ATOM     61  C   UNL A   1      42.444  30.878  36.411  1.00  0.00     0.031 C 
ATOM     62  C   UNL A   1      42.759  29.400  34.446  1.00  0.00     0.037 A 
BRANCH  49  63
ATOM     63  C   UNL A   1      40.485  28.057  28.858  1.00  0.00     0.064 A 
ATOM     64  C   UNL A   1      39.771  26.850  28.782  1.00  0.00     0.173 A 
ATOM     65  C   UNL A   1      41.242  28.439  27.741  1.00  0.00     0.173 A 
ATOM     66  F   UNL A   1      39.042  26.430  29.826  1.00  0.00    -0.203 F 
ATOM     67  C   UNL A   1      39.844  26.043  27.649  1.00  0.00     0.198 A 
ATOM     68  C   UNL A   1      41.282  27.649  26.595  1.00  0.00     0.198 A 
ATOM     69  F   UNL A   1      41.938  29.586  27.755  1.00  0.00    -0.203 F 
ATOM     70  F   UNL A   1      39.203  24.867  27.625  1.00  0.00    -0.200 F 
ATOM     71  C   UNL A   1      40.592  26.447  26.555  1.00  0.00     0.200 A 
ATOM     72  F   UNL A   1      41.994  28.049  25.532  1.00  0.00    -0.200 F 
ATOM     73  F   UNL A   1      40.656  25.673  25.462  1.00  0.00    -0.200 F 
ENDBRANCH  49  63
BRANCH  50  74
ATOM     74  C   UNL A   1      39.630  33.991  36.859  1.00  0.00     0.064 A 
ATOM     75  C   UNL A   1      40.303  35.219  36.943  1.00  0.00     0.173 A 
ATOM     76  C   UNL A   1      38.844  33.604  37.955  1.00  0.00     0.173 A 
ATOM     77  F   UNL A   1      41.084  35.624  35.931  1.00  0.00    -0.203 F 
ATOM     78  C   UNL A   1      40.214  36.014  38.084  1.00  0.00     0.198 A 
ATOM     79  C   UNL A   1      38.731  34.415  39.083  1.00  0.00     0.198 A 
ATOM     80  F   UNL A   1      38.175  32.442  37.925  1.00  0.00    -0.203 F 
ATOM     81  F   UNL A   1      40.910  37.157  38.158  1.00  0.00    -0.200 F 
ATOM     82  C   UNL A   1      39.424  35.613  39.151  1.00  0.00     0.200 A 
ATOM     83  F   UNL A   1      37.953  34.032  40.105  1.00  0.00    -0.200 F 
ATOM     84  F   UNL A   1      39.337  36.378  40.248  1.00  0.00    -0.200 F 
ENDBRANCH  50  74
BRANCH  62  85
ATOM     85  C   UNL A   1      43.935  28.775  35.142  1.00  0.00     0.064 A 
ATOM     86  C   UNL A   1      45.240  29.259  34.978  1.00  0.00     0.173 A 
ATOM     87  C   UNL A   1      43.735  27.719  36.045  1.00  0.00     0.173 A 
ATOM     88  F   UNL A   1      45.487  30.257  34.117  1.00  0.00    -0.203 F 
ATOM     89  C   UNL A   1      46.304  28.698  35.680  1.00  0.00     0.198 A 
ATOM     90  C   UNL A   1      44.796  27.183  36.769  1.00  0.00     0.198 A 
ATOM     91  F   UNL A   1      42.504  27.223  36.244  1.00  0.00    -0.203 F 
ATOM     92  F   UNL A   1      47.549  29.151  35.478  1.00  0.00    -0.200 F 
ATOM     93  C   UNL A   1      46.079  27.669  36.582  1.00  0.00     0.200 A 
ATOM     94  F   UNL A   1      44.572  26.201  37.654  1.00  0.00    -0.200 F 
ATOM     95  F   UNL A   1      47.102  27.144  37.270  1.00  0.00    -0.200 F 
ENDBRANCH  62  85
ENDBRANCH  36  37
ENDBRANCH  28  31
ENDBRANCH  26  27
ENDBRANCH  25  26
ENDBRANCH  24  25
ENDBRANCH  23  24
ENDBRANCH   1  23
TORSDOF 18
ENDMDL
MODEL 2
REMARK VINA RESULT:     -11.3      1.871      8.045
REMARK SMILES C[C@@H]([NH2+]C1(CO)CCCCC1)[C@@H](C)C(=O)NCCCCCCNC(=O)c1ccc(-c2c3nc(c(-c4c(F)c(F)c(F)c(F)c4F)c4ccc([nH]4)c(-c4c(F)c(F)c(F)c(F)c4F)c4nc(c(-c5c(F)c(F)c(F)c(F)c5F)c5ccc2[nH]5)C=C4)C=C3)cc1
REMARK SMILES IDX 18 1 17 2 16 3 14 4 15 5 12 7 13 8 2 9 1 10 3 11 4 14 7 15
REMARK SMILES IDX 11 16 8 17 10 18 9 19 5 20 6 21 19 23 20 24 21 25 22 26
REMARK SMILES IDX 23 27 24 28 25 30 26 31 27 32 88 33 28 34 87 35 29 36 30 37
REMARK SMILES IDX 31 38 81 39 32 40 86 41 80 42 82 43 33 44 85 45 79 46 78 47
REMARK SMILES IDX 34 49 66 50 46 51 65 52 47 53 50 54 64 55 83 56 48 57 49 58
REMARK SMILES IDX 63 60 84 61 51 62 35 63 36 64 44 65 37 66 38 67 42 68 45 69
REMARK SMILES IDX 39 70 40 71 43 72 41 73 67 74 68 75 76 76 69 77 70 78 74 79
REMARK SMILES IDX 77 80 71 81 72 82 75 83 73 84 52 85 53 86 61 87 54 88 55 89
REMARK SMILES IDX 59 90 62 91 56 92 57 93 60 94 58 95
REMARK H PARENT 16 6 3 12 3 13 6 22 23 29 82 48 50 59
REMARK Flexibility Score: inf
ROOT
ATOM      1  C   UNL A   1      35.130  31.260  28.010  1.00  0.00     0.021 C 
ENDROOT
BRANCH   1   2
ATOM      2  C   UNL A   1      34.858  29.946  27.273  1.00  0.00     0.116 C 
BRANCH   2   3
ATOM      3  N   UNL A   1      33.626  29.306  27.667  1.00  0.00    -0.356 N 
ATOM      4  C   UNL A   1      32.414  29.205  27.069  1.00  0.00     0.228 C 
ATOM      5  O   UNL A   1      31.576  28.530  27.682  1.00  0.00    -0.275 OA
ATOM      6  H   UNL A   1      33.675  28.856  28.542  1.00  0.00     0.163 HD
BRANCH   4   7
ATOM      7  C   UNL A   1      32.063  29.820  25.712  1.00  0.00     0.133 C 
ATOM      8  C   UNL A   1      31.318  31.116  26.089  1.00  0.00     0.024 C 
BRANCH   7   9
ATOM      9  C   UNL A   1      31.382  28.910  24.621  1.00  0.00     0.192 C 
ATOM     10  C   UNL A   1      30.230  29.698  23.946  1.00  0.00     0.076 C 
BRANCH   9  11
ATOM     11  N   UNL A   1      32.217  28.439  23.483  1.00  0.00    -0.337 N 
ATOM     12  H   UNL A   1      33.044  29.036  23.482  1.00  0.00     0.347 HD
ATOM     13  H   UNL A   1      31.543  28.479  22.719  1.00  0.00     0.347 HD
BRANCH  11  14
ATOM     14  C   UNL A   1      32.726  27.043  23.342  1.00  0.00     0.120 C 
ATOM     15  C   UNL A   1      33.521  26.595  24.601  1.00  0.00     0.071 C 
ATOM     16  C   UNL A   1      31.469  26.127  23.343  1.00  0.00     0.071 C 
ATOM     17  C   UNL A   1      34.009  25.144  24.496  1.00  0.00     0.007 C 
ATOM     18  C   UNL A   1      31.840  24.656  23.128  1.00  0.00     0.007 C 
ATOM     19  C   UNL A   1      32.922  24.143  24.084  1.00  0.00     0.001 C 
BRANCH  14  20
ATOM     20  C   UNL A   1      33.527  26.771  22.048  1.00  0.00     0.224 C 
BRANCH  20  21
ATOM     21  O   UNL A   1      33.920  27.987  21.425  1.00  0.00    -0.390 OA
ATOM     22  H   UNL A   1      33.580  28.738  21.937  1.00  0.00     0.210 HD
ENDBRANCH  20  21
ENDBRANCH  14  20
ENDBRANCH  11  14
ENDBRANCH   9  11
ENDBRANCH   7   9
ENDBRANCH   4   7
ENDBRANCH   2   3
ENDBRANCH   1   2
BRANCH   1  23
ATOM     23  C   UNL A   1      33.964  32.246  28.136  1.00  0.00     0.002 C 
BRANCH  23  24
ATOM     24  C   UNL A   1      34.268  33.535  28.895  1.00  0.00     0.002 C 
BRANCH  24  25
ATOM     25  C   UNL A   1      33.156  34.579  28.855  1.00  0.00     0.021 C 
BRANCH  25  26
ATOM     26  C   UNL A   1      33.533  35.919  29.469  1.00  0.00     0.116 C 
BRANCH  26  27
ATOM     27  N   UNL A   1      32.612  36.311  30.520  1.00  0.00    -0.352 N 
ATOM     28  C   UNL A   1      32.589  35.894  31.831  1.00  0.00     0.251 C 
ATOM     29  H   UNL A   1      31.915  36.958  30.262  1.00  0.00     0.163 HD
ATOM     30  O   UNL A   1      31.631  36.132  32.551  1.00  0.00    -0.269 OA
BRANCH  28  31
ATOM     31  C   UNL A   1      33.743  35.131  32.352  1.00  0.00     0.039 A 
ATOM     32  C   UNL A   1      33.549  33.830  32.818  1.00  0.00     0.014 A 
ATOM     33  C   UNL A   1      35.020  35.698  32.338  1.00  0.00     0.014 A 
ATOM     34  C   UNL A   1      34.652  33.071  33.219  1.00  0.00     0.010 A 
ATOM     35  C   UNL A   1      36.122  34.914  32.654  1.00  0.00     0.010 A 
ATOM     36  C   UNL A   1      35.950  33.596  33.109  1.00  0.00    -0.014 A 
BRANCH  36  37
ATOM     37  C   UNL A   1      37.150  32.813  33.494  1.00  0.00     0.031 A 
ATOM     38  C   UNL A   1      37.838  33.113  34.797  1.00  0.00     0.074 A 
ATOM     39  C   UNL A   1      37.670  31.903  32.648  1.00  0.00     0.049 A 
ATOM     40  N   UNL A   1      38.976  32.663  35.260  1.00  0.00    -0.248 NA
ATOM     41  C   UNL A   1      37.169  34.077  35.685  1.00  0.00     0.031 C 
ATOM     42  C   UNL A   1      37.108  31.538  31.347  1.00  0.00     0.029 A 
ATOM     43  N   UNL A   1      38.802  31.133  32.748  1.00  0.00    -0.354 N 
ATOM     44  C   UNL A   1      39.167  33.304  36.476  1.00  0.00     0.074 A 
ATOM     45  C   UNL A   1      38.060  34.218  36.653  1.00  0.00     0.031 C 
ATOM     46  C   UNL A   1      37.889  30.606  30.777  1.00  0.00     0.029 A 
ATOM     47  C   UNL A   1      39.033  30.344  31.648  1.00  0.00     0.049 A 
ATOM     48  H   UNL A   1      39.394  31.146  33.535  1.00  0.00     0.167 HD
ATOM     49  C   UNL A   1      40.164  33.131  37.375  1.00  0.00     0.037 A 
ATOM     50  C   UNL A   1      40.060  29.519  31.366  1.00  0.00     0.037 A 
ATOM     51  C   UNL A   1      41.251  32.204  37.204  1.00  0.00     0.049 A 
ATOM     52  C   UNL A   1      41.176  29.370  32.366  1.00  0.00     0.074 A 
ATOM     53  C   UNL A   1      42.288  31.920  38.073  1.00  0.00     0.029 A 
ATOM     54  N   UNL A   1      41.440  31.410  36.080  1.00  0.00    -0.354 N 
ATOM     55  N   UNL A   1      41.325  29.946  33.535  1.00  0.00    -0.248 NA
ATOM     56  C   UNL A   1      42.270  28.453  32.010  1.00  0.00     0.031 C 
ATOM     57  C   UNL A   1      43.136  30.996  37.453  1.00  0.00     0.029 A 
ATOM     58  C   UNL A   1      42.590  30.653  36.227  1.00  0.00     0.049 A 
ATOM     59  H   UNL A   1      40.844  31.388  35.297  1.00  0.00     0.167 HD
ATOM     60  C   UNL A   1      42.499  29.430  34.070  1.00  0.00     0.074 A 
ATOM     61  C   UNL A   1      43.024  28.494  33.099  1.00  0.00     0.031 C 
ATOM     62  C   UNL A   1      43.084  29.704  35.262  1.00  0.00     0.037 A 
BRANCH  49  63
ATOM     63  C   UNL A   1      40.127  33.965  38.624  1.00  0.00     0.064 A 
ATOM     64  C   UNL A   1      40.789  35.200  38.706  1.00  0.00     0.173 A 
ATOM     65  C   UNL A   1      39.401  33.537  39.745  1.00  0.00     0.173 A 
ATOM     66  F   UNL A   1      41.508  35.652  37.668  1.00  0.00    -0.203 F 
ATOM     67  C   UNL A   1      40.756  35.956  39.876  1.00  0.00     0.198 A 
ATOM     68  C   UNL A   1      39.338  34.313  40.900  1.00  0.00     0.198 A 
ATOM     69  F   UNL A   1      38.744  32.368  39.720  1.00  0.00    -0.203 F 
ATOM     70  F   UNL A   1      41.445  37.102  39.950  1.00  0.00    -0.200 F 
ATOM     71  C   UNL A   1      40.024  35.516  40.968  1.00  0.00     0.200 A 
ATOM     72  F   UNL A   1      38.618  33.892  41.949  1.00  0.00    -0.200 F 
ATOM     73  F   UNL A   1      39.987  36.247  42.091  1.00  0.00    -0.200 F 
ENDBRANCH  49  63
BRANCH  50  74
ATOM     74  C   UNL A   1      40.076  28.756  30.090  1.00  0.00     0.064 A 
ATOM     75  C   UNL A   1      40.678  29.290  28.940  1.00  0.00     0.173 A 
ATOM     76  C   UNL A   1      39.484  27.489  29.985  1.00  0.00     0.173 A 
ATOM     77  F   UNL A   1      41.240  30.507  28.984  1.00  0.00    -0.203 F 
ATOM     78  C   UNL A   1      40.664  28.598  27.731  1.00  0.00     0.198 A 
ATOM     79  C   UNL A   1      39.498  26.784  28.783  1.00  0.00     0.198 A 
ATOM     80  F   UNL A   1      38.899  26.929  31.055  1.00  0.00    -0.203 F 
ATOM     81  F   UNL A   1      41.200  29.155  26.637  1.00  0.00    -0.200 F 
ATOM     82  C   UNL A   1      40.079  27.343  27.655  1.00  0.00     0.200 A 
ATOM     83  F   UNL A   1      38.946  25.564  28.718  1.00  0.00    -0.200 F 
ATOM     84  F   UNL A   1      40.068  26.676  26.493  1.00  0.00    -0.200 F 
ENDBRANCH  50  74
BRANCH  62  85
ATOM     85  C   UNL A   1      44.323  28.935  35.624  1.00  0.00     0.064 A 
ATOM     86  C   UNL A   1      44.267  27.716  36.313  1.00  0.00     0.173 A 
ATOM     87  C   UNL A   1      45.581  29.397  35.205  1.00  0.00     0.173 A 
ATOM     88  F   UNL A   1      43.092  27.238  36.746  1.00  0.00    -0.203 F 
ATOM     89  C   UNL A   1      45.428  26.996  36.584  1.00  0.00     0.198 A 
ATOM     90  C   UNL A   1      46.735  28.658  35.450  1.00  0.00     0.198 A 
ATOM     91  F   UNL A   1      45.688  30.555  34.536  1.00  0.00    -0.203 F 
ATOM     92  F   UNL A   1      45.356  25.852  37.279  1.00  0.00    -0.200 F 
ATOM     93  C   UNL A   1      46.658  27.461  36.143  1.00  0.00     0.200 A 
ATOM     94  F   UNL A   1      47.919  29.101  35.006  1.00  0.00    -0.200 F 
ATOM     95  F   UNL A   1      47.770  26.756  36.390  1.00  0.00    -0.200 F 
ENDBRANCH  62  85
ENDBRANCH  36  37
ENDBRANCH  28  31
ENDBRANCH  26  27
ENDBRANCH  25  26
ENDBRANCH  24  25
ENDBRANCH  23  24
ENDBRANCH   1  23
TORSDOF 18
ENDMDL
MODEL 3
REMARK VINA RESULT:     -11.3      1.984      8.035
REMARK SMILES C[C@@H]([NH2+]C1(CO)CCCCC1)[C@@H](C)C(=O)NCCCCCCNC(=O)c1ccc(-c2c3nc(c(-c4c(F)c(F)c(F)c(F)c4F)c4ccc([nH]4)c(-c4c(F)c(F)c(F)c(F)c4F)c4nc(c(-c5c(F)c(F)c(F)c(F)c5F)c5ccc2[nH]5)C=C4)C=C3)cc1
REMARK SMILES IDX 18 1 17 2 16 3 14 4 15 5 12 7 13 8 2 9 1 10 3 11 4 14 7 15
REMARK SMILES IDX 11 16 8 17 10 18 9 19 5 20 6 21 19 23 20 24 21 25 22 26
REMARK SMILES IDX 23 27 24 28 25 30 26 31 27 32 88 33 28 34 87 35 29 36 30 37
REMARK SMILES IDX 31 38 81 39 32 40 86 41 80 42 82 43 33 44 85 45 79 46 78 47
REMARK SMILES IDX 34 49 66 50 46 51 65 52 47 53 50 54 64 55 83 56 48 57 49 58
REMARK SMILES IDX 63 60 84 61 51 62 35 63 36 64 44 65 37 66 38 67 42 68 45 69
REMARK SMILES IDX 39 70 40 71 43 72 41 73 67 74 68 75 76 76 69 77 70 78 74 79
REMARK SMILES IDX 77 80 71 81 72 82 75 83 73 84 52 85 53 86 61 87 54 88 55 89
REMARK SMILES IDX 59 90 62 91 56 92 57 93 60 94 58 95
REMARK H PARENT 16 6 3 12 3 13 6 22 23 29 82 48 50 59
REMARK Flexibility Score: inf
ROOT
ATOM      1  C   UNL A   1      35.301  31.749  28.006  1.00  0.00     0.021 C 
ENDROOT
BRANCH   1   2
ATOM      2  C   UNL A   1      34.042  31.045  27.495  1.00  0.00     0.116 C 
BRANCH   2   3
ATOM      3  N   UNL A   1      34.306  30.055  26.478  1.00  0.00    -0.356 N 
ATOM      4  C   UNL A   1      33.528  29.109  25.897  1.00  0.00     0.228 C 
ATOM      5  O   UNL A   1      34.079  28.445  25.008  1.00  0.00    -0.275 OA
ATOM      6  H   UNL A   1      35.232  30.069  26.142  1.00  0.00     0.163 HD
BRANCH   4   7
ATOM      7  C   UNL A   1      32.058  28.865  26.241  1.00  0.00     0.133 C 
ATOM      8  C   UNL A   1      32.122  28.189  27.625  1.00  0.00     0.024 C 
BRANCH   7   9
ATOM      9  C   UNL A   1      31.133  28.177  25.166  1.00  0.00     0.192 C 
ATOM     10  C   UNL A   1      30.660  29.243  24.144  1.00  0.00     0.076 C 
BRANCH   9  11
ATOM     11  N   UNL A   1      31.721  27.101  24.323  1.00  0.00    -0.337 N 
ATOM     12  H   UNL A   1      32.681  27.390  24.137  1.00  0.00     0.347 HD
ATOM     13  H   UNL A   1      31.035  27.048  23.570  1.00  0.00     0.347 HD
BRANCH  11  14
ATOM     14  C   UNL A   1      31.802  25.669  24.735  1.00  0.00     0.120 C 
ATOM     15  C   UNL A   1      31.057  25.417  26.076  1.00  0.00     0.071 C 
ATOM     16  C   UNL A   1      30.973  24.874  23.687  1.00  0.00     0.071 C 
ATOM     17  C   UNL A   1      31.086  23.940  26.491  1.00  0.00     0.007 C 
ATOM     18  C   UNL A   1      31.032  23.365  23.945  1.00  0.00     0.007 C 
ATOM     19  C   UNL A   1      30.671  22.967  25.380  1.00  0.00     0.001 C 
BRANCH  14  20
ATOM     20  C   UNL A   1      33.233  25.084  24.771  1.00  0.00     0.224 C 
BRANCH  20  21
ATOM     21  O   UNL A   1      34.001  25.674  25.813  1.00  0.00    -0.390 OA
ATOM     22  H   UNL A   1      34.817  25.166  25.941  1.00  0.00     0.210 HD
ENDBRANCH  20  21
ENDBRANCH  14  20
ENDBRANCH  11  14
ENDBRANCH   9  11
ENDBRANCH   7   9
ENDBRANCH   4   7
ENDBRANCH   2   3
ENDBRANCH   1   2
BRANCH   1  23
ATOM     23  C   UNL A   1      35.182  33.240  28.340  1.00  0.00     0.002 C 
BRANCH  23  24
ATOM     24  C   UNL A   1      34.087  33.607  29.339  1.00  0.00     0.002 C 
BRANCH  24  25
ATOM     25  C   UNL A   1      33.183  34.757  28.902  1.00  0.00     0.021 C 
BRANCH  25  26
ATOM     26  C   UNL A   1      33.504  36.090  29.560  1.00  0.00     0.116 C 
BRANCH  26  27
ATOM     27  N   UNL A   1      32.556  36.418  30.609  1.00  0.00    -0.352 N 
ATOM     28  C   UNL A   1      32.512  35.938  31.898  1.00  0.00     0.251 C 
ATOM     29  H   UNL A   1      31.855  37.067  30.368  1.00  0.00     0.163 HD
ATOM     30  O   UNL A   1      31.537  36.127  32.609  1.00  0.00    -0.269 OA
BRANCH  28  31
ATOM     31  C   UNL A   1      33.667  35.166  32.406  1.00  0.00     0.039 A 
ATOM     32  C   UNL A   1      33.468  33.864  32.870  1.00  0.00     0.014 A 
ATOM     33  C   UNL A   1      34.947  35.724  32.381  1.00  0.00     0.014 A 
ATOM     34  C   UNL A   1      34.570  33.098  33.258  1.00  0.00     0.010 A 
ATOM     35  C   UNL A   1      36.047  34.932  32.685  1.00  0.00     0.010 A 
ATOM     36  C   UNL A   1      35.870  33.614  33.137  1.00  0.00    -0.014 A 
BRANCH  36  37
ATOM     37  C   UNL A   1      37.069  32.823  33.509  1.00  0.00     0.031 A 
ATOM     38  C   UNL A   1      37.768  33.112  34.808  1.00  0.00     0.074 A 
ATOM     39  C   UNL A   1      37.577  31.915  32.654  1.00  0.00     0.049 A 
ATOM     40  N   UNL A   1      38.908  32.652  35.260  1.00  0.00    -0.248 NA
ATOM     41  C   UNL A   1      37.111  34.074  35.707  1.00  0.00     0.031 C 
ATOM     42  C   UNL A   1      37.004  31.560  31.355  1.00  0.00     0.029 A 
ATOM     43  N   UNL A   1      38.706  31.138  32.741  1.00  0.00    -0.354 N 
ATOM     44  C   UNL A   1      39.112  33.286  36.478  1.00  0.00     0.074 A 
ATOM     45  C   UNL A   1      38.011  34.205  36.669  1.00  0.00     0.031 C 
ATOM     46  C   UNL A   1      37.776  30.627  30.774  1.00  0.00     0.029 A 
ATOM     47  C   UNL A   1      38.925  30.355  31.634  1.00  0.00     0.049 A 
ATOM     48  H   UNL A   1      39.304  31.143  33.523  1.00  0.00     0.167 HD
ATOM     49  C   UNL A   1      40.114  33.102  37.369  1.00  0.00     0.037 A 
ATOM     50  C   UNL A   1      39.945  29.526  31.340  1.00  0.00     0.037 A 
ATOM     51  C   UNL A   1      41.195  32.170  37.184  1.00  0.00     0.049 A 
ATOM     52  C   UNL A   1      41.068  29.365  32.331  1.00  0.00     0.074 A 
ATOM     53  C   UNL A   1      42.237  31.876  38.043  1.00  0.00     0.029 A 
ATOM     54  N   UNL A   1      41.371  31.382  36.054  1.00  0.00    -0.354 N 
ATOM     55  N   UNL A   1      41.228  29.933  33.501  1.00  0.00    -0.248 NA
ATOM     56  C   UNL A   1      42.154  28.444  31.961  1.00  0.00     0.031 C 
ATOM     57  C   UNL A   1      43.075  30.951  37.412  1.00  0.00     0.029 A 
ATOM     58  C   UNL A   1      42.518  30.617  36.188  1.00  0.00     0.049 A 
ATOM     59  H   UNL A   1      40.769  31.368  35.275  1.00  0.00     0.167 HD
ATOM     60  C   UNL A   1      42.403  29.407  34.025  1.00  0.00     0.074 A 
ATOM     61  C   UNL A   1      42.916  28.474  33.045  1.00  0.00     0.031 C 
ATOM     62  C   UNL A   1      42.999  29.671  35.214  1.00  0.00     0.037 A 
BRANCH  49  63
ATOM     63  C   UNL A   1      40.091  33.929  38.623  1.00  0.00     0.064 A 
ATOM     64  C   UNL A   1      39.408  33.506  39.774  1.00  0.00     0.173 A 
ATOM     65  C   UNL A   1      40.780  35.149  38.683  1.00  0.00     0.173 A 
ATOM     66  F   UNL A   1      38.722  32.354  39.767  1.00  0.00    -0.203 F 
ATOM     67  C   UNL A   1      39.385  34.291  40.924  1.00  0.00     0.198 A 
ATOM     68  C   UNL A   1      40.788  35.913  39.847  1.00  0.00     0.198 A 
ATOM     69  F   UNL A   1      41.456  35.599  37.615  1.00  0.00    -0.203 F 
ATOM     70  F   UNL A   1      38.676  33.895  41.990  1.00  0.00    -0.200 F 
ATOM     71  C   UNL A   1      40.081  35.489  40.963  1.00  0.00     0.200 A 
ATOM     72  F   UNL A   1      41.474  37.064  39.887  1.00  0.00    -0.200 F 
ATOM     73  F   UNL A   1      40.065  36.240  42.072  1.00  0.00    -0.200 F 
ENDBRANCH  49  63
BRANCH  50  74
ATOM     74  C   UNL A   1      39.947  28.770  30.059  1.00  0.00     0.064 A 
ATOM     75  C   UNL A   1      39.377  27.491  29.978  1.00  0.00     0.173 A 
ATOM     76  C   UNL A   1      40.527  29.299  28.896  1.00  0.00     0.173 A 
ATOM     77  F   UNL A   1      38.829  26.934  31.068  1.00  0.00    -0.203 F 
ATOM     78  C   UNL A   1      39.409  26.761  28.792  1.00  0.00     0.198 A 
ATOM     79  C   UNL A   1      40.531  28.580  27.702  1.00  0.00     0.198 A 
ATOM     80  F   UNL A   1      41.082  30.519  28.917  1.00  0.00    -0.203 F 
ATOM     81  F   UNL A   1      38.903  25.520  28.758  1.00  0.00    -0.200 F 
ATOM     82  C   UNL A   1      39.981  27.308  27.653  1.00  0.00     0.200 A 
ATOM     83  F   UNL A   1      41.069  29.120  26.600  1.00  0.00    -0.200 F 
ATOM     84  F   UNL A   1      40.009  26.607  26.512  1.00  0.00    -0.200 F 
ENDBRANCH  50  74
BRANCH  62  85
ATOM     85  C   UNL A   1      44.237  28.894  35.562  1.00  0.00     0.064 A 
ATOM     86  C   UNL A   1      45.521  29.366  35.255  1.00  0.00     0.173 A 
ATOM     87  C   UNL A   1      44.132  27.693  36.280  1.00  0.00     0.173 A 
ATOM     88  F   UNL A   1      45.676  30.501  34.558  1.00  0.00    -0.203 F 
ATOM     89  C   UNL A   1      46.654  28.653  35.640  1.00  0.00     0.198 A 
ATOM     90  C   UNL A   1      45.267  27.001  36.692  1.00  0.00     0.198 A 
ATOM     91  F   UNL A   1      42.926  27.202  36.604  1.00  0.00    -0.203 F 
ATOM     92  F   UNL A   1      47.871  29.102  35.302  1.00  0.00    -0.200 F 
ATOM     93  C   UNL A   1      46.526  27.479  36.367  1.00  0.00     0.200 A 
ATOM     94  F   UNL A   1      45.141  25.877  37.410  1.00  0.00    -0.200 F 
ATOM     95  F   UNL A   1      47.620  26.806  36.753  1.00  0.00    -0.200 F 
ENDBRANCH  62  85
ENDBRANCH  36  37
ENDBRANCH  28  31
ENDBRANCH  26  27
ENDBRANCH  25  26
ENDBRANCH  24  25
ENDBRANCH  23  24
ENDBRANCH   1  23
TORSDOF 18
ENDMDL
