MODEL 1
REMARK VINA RESULT:     -12.1      0.000      0.000
REMARK SMILES O=C(NCCCCCCNC(=O)C1(CCc2ccccn2)CCCCC1)c1ccc(-c2c3nc(c(-c4c(F)c(F)c(F)c(F)c4F)c4ccc([nH]4)c(-c4c(F)c(F)c(F)c(F)c4F)c4nc(c(-c5c(F)c(F)c(F)c(F)c5F)c5ccc2[nH]5)C=C4)C=C3)cc1
REMARK SMILES IDX 7 1 6 2 5 3 4 4 3 5 1 6 2 7 27 9 28 10 89 11 29 12 88 13
REMARK SMILES IDX 30 14 31 15 32 16 82 17 33 18 87 19 81 20 83 21 34 22 86 23
REMARK SMILES IDX 80 24 79 25 35 27 67 28 47 29 66 30 48 31 51 32 65 33 84 34
REMARK SMILES IDX 49 35 50 36 64 38 85 39 52 40 36 41 37 42 45 43 38 44 39 45
REMARK SMILES IDX 43 46 46 47 40 48 41 49 44 50 42 51 68 52 69 53 77 54 70 55
REMARK SMILES IDX 71 56 75 57 78 58 72 59 73 60 76 61 74 62 53 63 54 64 62 65
REMARK SMILES IDX 55 66 56 67 60 68 63 69 57 70 58 71 61 72 59 73 8 74 9 75
REMARK SMILES IDX 10 76 11 77 12 79 13 80 22 81 26 82 23 83 25 84 24 85 14 86
REMARK SMILES IDX 15 87 16 88 17 89 21 90 18 91 20 92 19 93
REMARK H PARENT 3 8 83 26 51 37 10 78
REMARK Flexibility Score: inf
ROOT
ATOM      1  C   UNL A   1      32.223  30.022  27.250  1.00  0.00     0.002 C 
ENDROOT
BRANCH   1   2
ATOM      2  C   UNL A   1      31.506  30.847  26.183  1.00  0.00     0.002 C 
BRANCH   2   3
ATOM      3  C   UNL A   1      31.400  32.336  26.502  1.00  0.00     0.021 C 
BRANCH   3   4
ATOM      4  C   UNL A   1      32.608  32.894  27.244  1.00  0.00     0.116 C 
BRANCH   4   5
ATOM      5  N   UNL A   1      32.397  34.276  27.647  1.00  0.00    -0.352 N 
ATOM      6  O   UNL A   1      32.553  36.033  29.067  1.00  0.00    -0.269 OA
ATOM      7  C   UNL A   1      32.985  34.959  28.683  1.00  0.00     0.251 C 
ATOM      8  H   UNL A   1      31.751  34.787  27.107  1.00  0.00     0.163 HD
BRANCH   7   9
ATOM      9  C   UNL A   1      34.163  34.352  29.333  1.00  0.00     0.039 A 
ATOM     10  C   UNL A   1      35.436  34.576  28.801  1.00  0.00     0.014 A 
ATOM     11  C   UNL A   1      33.985  33.539  30.452  1.00  0.00     0.014 A 
ATOM     12  C   UNL A   1      36.526  33.892  29.321  1.00  0.00     0.010 A 
ATOM     13  C   UNL A   1      35.093  32.917  31.024  1.00  0.00     0.010 A 
ATOM     14  C   UNL A   1      36.367  33.076  30.451  1.00  0.00    -0.014 A 
BRANCH  14  15
ATOM     15  C   UNL A   1      37.555  32.460  31.085  1.00  0.00     0.031 A 
ATOM     16  C   UNL A   1      38.270  31.317  30.433  1.00  0.00     0.074 A 
ATOM     17  C   UNL A   1      37.948  32.922  32.285  1.00  0.00     0.049 A 
ATOM     18  N   UNL A   1      39.256  30.590  30.895  1.00  0.00    -0.248 NA
ATOM     19  C   UNL A   1      37.814  30.932  29.090  1.00  0.00     0.031 C 
ATOM     20  C   UNL A   1      37.315  34.028  33.008  1.00  0.00     0.029 A 
ATOM     21  N   UNL A   1      38.958  32.515  33.117  1.00  0.00    -0.354 N 
ATOM     22  C   UNL A   1      39.519  29.644  29.914  1.00  0.00     0.074 A 
ATOM     23  C   UNL A   1      38.577  29.877  28.840  1.00  0.00     0.031 C 
ATOM     24  C   UNL A   1      37.948  34.212  34.173  1.00  0.00     0.029 A 
ATOM     25  C   UNL A   1      38.983  33.194  34.310  1.00  0.00     0.049 A 
ATOM     26  H   UNL A   1      39.599  31.806  32.884  1.00  0.00     0.167 HD
ATOM     27  C   UNL A   1      40.463  28.671  29.920  1.00  0.00     0.037 A 
ATOM     28  C   UNL A   1      39.724  32.990  35.414  1.00  0.00     0.037 A 
ATOM     29  C   UNL A   1      41.392  28.459  31.001  1.00  0.00     0.049 A 
ATOM     30  C   UNL A   1      40.736  31.884  35.414  1.00  0.00     0.074 A 
ATOM     31  C   UNL A   1      42.420  27.538  31.089  1.00  0.00     0.029 A 
ATOM     32  N   UNL A   1      41.391  29.170  32.195  1.00  0.00    -0.354 N 
ATOM     33  N   UNL A   1      41.010  31.019  34.467  1.00  0.00    -0.248 NA
ATOM     34  C   UNL A   1      41.541  31.721  36.630  1.00  0.00     0.031 C 
ATOM     35  C   UNL A   1      42.999  27.648  32.357  1.00  0.00     0.029 A 
ATOM     36  C   UNL A   1      42.379  28.685  33.037  1.00  0.00     0.049 A 
ATOM     37  H   UNL A   1      40.780  29.912  32.411  1.00  0.00     0.167 HD
ATOM     38  C   UNL A   1      42.032  30.224  34.959  1.00  0.00     0.074 A 
ATOM     39  C   UNL A   1      42.334  30.713  36.291  1.00  0.00     0.031 C 
ATOM     40  C   UNL A   1      42.666  29.187  34.359  1.00  0.00     0.037 A 
BRANCH  27  41
ATOM     41  C   UNL A   1      40.507  27.738  28.742  1.00  0.00     0.064 A 
ATOM     42  C   UNL A   1      41.310  27.993  27.619  1.00  0.00     0.173 A 
ATOM     43  C   UNL A   1      39.741  26.562  28.743  1.00  0.00     0.173 A 
ATOM     44  F   UNL A   1      42.057  29.105  27.561  1.00  0.00    -0.203 F 
ATOM     45  C   UNL A   1      41.310  27.129  26.526  1.00  0.00     0.198 A 
ATOM     46  C   UNL A   1      39.769  25.684  27.663  1.00  0.00     0.198 A 
ATOM     47  F   UNL A   1      38.963  26.262  29.793  1.00  0.00    -0.203 F 
ATOM     48  F   UNL A   1      42.035  27.427  25.439  1.00  0.00    -0.200 F 
ATOM     49  C   UNL A   1      40.542  25.974  26.550  1.00  0.00     0.200 A 
ATOM     50  F   UNL A   1      39.039  24.560  27.695  1.00  0.00    -0.200 F 
ATOM     51  F   UNL A   1      40.541  25.146  25.496  1.00  0.00    -0.200 F 
ENDBRANCH  27  41
BRANCH  28  52
ATOM     52  C   UNL A   1      39.498  33.853  36.599  1.00  0.00     0.064 A 
ATOM     53  C   UNL A   1      38.694  33.425  37.662  1.00  0.00     0.173 A 
ATOM     54  C   UNL A   1      40.146  35.093  36.725  1.00  0.00     0.173 A 
ATOM     55  F   UNL A   1      38.047  32.253  37.582  1.00  0.00    -0.203 F 
ATOM     56  C   UNL A   1      38.545  34.204  38.808  1.00  0.00     0.198 A 
ATOM     57  C   UNL A   1      40.020  35.856  37.883  1.00  0.00     0.198 A 
ATOM     58  F   UNL A   1      40.938  35.538  35.739  1.00  0.00    -0.203 F 
ATOM     59  F   UNL A   1      37.755  33.782  39.803  1.00  0.00    -0.200 F 
ATOM     60  C   UNL A   1      39.216  35.412  38.922  1.00  0.00     0.200 A 
ATOM     61  F   UNL A   1      40.689  37.011  37.997  1.00  0.00    -0.200 F 
ATOM     62  F   UNL A   1      39.092  36.148  40.034  1.00  0.00    -0.200 F 
ENDBRANCH  28  52
BRANCH  40  63
ATOM     63  C   UNL A   1      43.782  28.529  35.118  1.00  0.00     0.064 A 
ATOM     64  C   UNL A   1      43.559  27.415  35.939  1.00  0.00     0.173 A 
ATOM     65  C   UNL A   1      45.102  28.979  34.959  1.00  0.00     0.173 A 
ATOM     66  F   UNL A   1      42.314  26.960  36.137  1.00  0.00    -0.203 F 
ATOM     67  C   UNL A   1      44.619  26.779  36.580  1.00  0.00     0.198 A 
ATOM     68  C   UNL A   1      46.161  28.323  35.577  1.00  0.00     0.198 A 
ATOM     69  F   UNL A   1      45.365  30.040  34.181  1.00  0.00    -0.203 F 
ATOM     70  F   UNL A   1      44.383  25.734  37.385  1.00  0.00    -0.200 F 
ATOM     71  C   UNL A   1      45.919  27.225  36.389  1.00  0.00     0.200 A 
ATOM     72  F   UNL A   1      47.417  28.748  35.380  1.00  0.00    -0.200 F 
ATOM     73  F   UNL A   1      46.939  26.599  36.990  1.00  0.00    -0.200 F 
ENDBRANCH  40  63
ENDBRANCH  14  15
ENDBRANCH   7   9
ENDBRANCH   4   5
ENDBRANCH   3   4
ENDBRANCH   2   3
ENDBRANCH   1   2
BRANCH   1  74
ATOM     74  C   UNL A   1      32.566  28.593  26.833  1.00  0.00     0.021 C 
BRANCH  74  75
ATOM     75  C   UNL A   1      33.953  28.422  26.203  1.00  0.00     0.116 C 
BRANCH  75  76
ATOM     76  N   UNL A   1      34.033  28.847  24.816  1.00  0.00    -0.356 N 
ATOM     77  C   UNL A   1      33.706  28.258  23.626  1.00  0.00     0.226 C 
ATOM     78  H   UNL A   1      34.401  29.754  24.710  1.00  0.00     0.163 HD
ATOM     79  O   UNL A   1      33.900  28.947  22.617  1.00  0.00    -0.274 OA
BRANCH  77  80
ATOM     80  C   UNL A   1      32.999  26.878  23.530  1.00  0.00     0.050 C 
ATOM     81  C   UNL A   1      33.222  26.453  22.043  1.00  0.00     0.017 C 
ATOM     82  C   UNL A   1      33.742  25.833  24.417  1.00  0.00     0.017 C 
ATOM     83  C   UNL A   1      32.898  25.000  21.716  1.00  0.00     0.001 C 
ATOM     84  C   UNL A   1      33.329  24.387  24.118  1.00  0.00     0.001 C 
ATOM     85  C   UNL A   1      33.590  24.031  22.660  1.00  0.00     0.000 C 
BRANCH  80  86
ATOM     86  C   UNL A   1      31.492  26.906  23.932  1.00  0.00     0.023 C 
BRANCH  86  87
ATOM     87  C   UNL A   1      30.404  27.267  22.878  1.00  0.00     0.057 C 
BRANCH  87  88
ATOM     88  C   UNL A   1      29.451  28.429  23.057  1.00  0.00     0.040 A 
ATOM     89  C   UNL A   1      29.947  29.719  23.242  1.00  0.00     0.024 A 
ATOM     90  N   UNL A   1      28.129  28.204  23.032  1.00  0.00    -0.261 NA
ATOM     91  C   UNL A   1      29.055  30.787  23.378  1.00  0.00     0.003 A 
ATOM     92  C   UNL A   1      27.280  29.252  23.125  1.00  0.00     0.111 A 
ATOM     93  C   UNL A   1      27.690  30.553  23.312  1.00  0.00     0.020 A 
ENDBRANCH  87  88
ENDBRANCH  86  87
ENDBRANCH  80  86
ENDBRANCH  77  80
ENDBRANCH  75  76
ENDBRANCH  74  75
ENDBRANCH   1  74
TORSDOF 16
ENDMDL
MODEL 2
REMARK VINA RESULT:     -12.1      0.253      1.611
REMARK SMILES O=C(NCCCCCCNC(=O)C1(CCc2ccccn2)CCCCC1)c1ccc(-c2c3nc(c(-c4c(F)c(F)c(F)c(F)c4F)c4ccc([nH]4)c(-c4c(F)c(F)c(F)c(F)c4F)c4nc(c(-c5c(F)c(F)c(F)c(F)c5F)c5ccc2[nH]5)C=C4)C=C3)cc1
REMARK SMILES IDX 7 1 6 2 5 3 4 4 3 5 1 6 2 7 27 9 28 10 89 11 29 12 88 13
REMARK SMILES IDX 30 14 31 15 32 16 82 17 33 18 87 19 81 20 83 21 34 22 86 23
REMARK SMILES IDX 80 24 79 25 35 27 67 28 47 29 66 30 48 31 51 32 65 33 84 34
REMARK SMILES IDX 49 35 50 36 64 38 85 39 52 40 36 41 37 42 45 43 38 44 39 45
REMARK SMILES IDX 43 46 46 47 40 48 41 49 44 50 42 51 68 52 69 53 77 54 70 55
REMARK SMILES IDX 71 56 75 57 78 58 72 59 73 60 76 61 74 62 53 63 54 64 62 65
REMARK SMILES IDX 55 66 56 67 60 68 63 69 57 70 58 71 61 72 59 73 8 74 9 75
REMARK SMILES IDX 10 76 11 77 12 79 13 80 22 81 26 82 23 83 25 84 24 85 14 86
REMARK SMILES IDX 15 87 16 88 17 89 21 90 18 91 20 92 19 93
REMARK H PARENT 3 8 83 26 51 37 10 78
REMARK Flexibility Score: inf
ROOT
ATOM      1  C   UNL A   1      32.460  30.184  27.263  1.00  0.00     0.002 C 
ENDROOT
BRANCH   1   2
ATOM      2  C   UNL A   1      31.425  30.898  26.396  1.00  0.00     0.002 C 
BRANCH   2   3
ATOM      3  C   UNL A   1      31.458  32.421  26.497  1.00  0.00     0.021 C 
BRANCH   3   4
ATOM      4  C   UNL A   1      32.654  32.960  27.273  1.00  0.00     0.116 C 
BRANCH   4   5
ATOM      5  N   UNL A   1      32.435  34.330  27.708  1.00  0.00    -0.352 N 
ATOM      6  O   UNL A   1      32.596  36.058  29.163  1.00  0.00    -0.269 OA
ATOM      7  C   UNL A   1      33.033  34.998  28.750  1.00  0.00     0.251 C 
ATOM      8  H   UNL A   1      31.774  34.846  27.191  1.00  0.00     0.163 HD
BRANCH   7   9
ATOM      9  C   UNL A   1      34.228  34.390  29.366  1.00  0.00     0.039 A 
ATOM     10  C   UNL A   1      35.490  34.645  28.823  1.00  0.00     0.014 A 
ATOM     11  C   UNL A   1      34.077  33.545  30.467  1.00  0.00     0.014 A 
ATOM     12  C   UNL A   1      36.596  33.962  29.310  1.00  0.00     0.010 A 
ATOM     13  C   UNL A   1      35.201  32.923  31.005  1.00  0.00     0.010 A 
ATOM     14  C   UNL A   1      36.465  33.115  30.420  1.00  0.00    -0.014 A 
BRANCH  14  15
ATOM     15  C   UNL A   1      37.669  32.498  31.021  1.00  0.00     0.031 A 
ATOM     16  C   UNL A   1      38.395  31.388  30.325  1.00  0.00     0.074 A 
ATOM     17  C   UNL A   1      38.070  32.930  32.230  1.00  0.00     0.049 A 
ATOM     18  N   UNL A   1      39.397  30.663  30.752  1.00  0.00    -0.248 NA
ATOM     19  C   UNL A   1      37.928  31.038  28.976  1.00  0.00     0.031 C 
ATOM     20  C   UNL A   1      37.427  34.002  32.994  1.00  0.00     0.029 A 
ATOM     21  N   UNL A   1      39.095  32.513  33.037  1.00  0.00    -0.354 N 
ATOM     22  C   UNL A   1      39.663  29.752  29.740  1.00  0.00     0.074 A 
ATOM     23  C   UNL A   1      38.704  30.003  28.684  1.00  0.00     0.031 C 
ATOM     24  C   UNL A   1      38.072  34.160  34.157  1.00  0.00     0.029 A 
ATOM     25  C   UNL A   1      39.124  33.155  34.250  1.00  0.00     0.049 A 
ATOM     26  H   UNL A   1      39.745  31.822  32.774  1.00  0.00     0.167 HD
ATOM     27  C   UNL A   1      40.622  28.794  29.705  1.00  0.00     0.037 A 
ATOM     28  C   UNL A   1      39.882  32.929  35.339  1.00  0.00     0.037 A 
ATOM     29  C   UNL A   1      41.567  28.564  30.768  1.00  0.00     0.049 A 
ATOM     30  C   UNL A   1      40.910  31.840  35.292  1.00  0.00     0.074 A 
ATOM     31  C   UNL A   1      42.610  27.657  30.815  1.00  0.00     0.029 A 
ATOM     32  N   UNL A   1      41.570  29.238  31.983  1.00  0.00    -0.354 N 
ATOM     33  N   UNL A   1      41.186  31.009  34.316  1.00  0.00    -0.248 NA
ATOM     34  C   UNL A   1      41.732  31.651  36.494  1.00  0.00     0.031 C 
ATOM     35  C   UNL A   1      43.203  27.738  32.080  1.00  0.00     0.029 A 
ATOM     36  C   UNL A   1      42.575  28.742  32.799  1.00  0.00     0.049 A 
ATOM     37  H   UNL A   1      40.949  29.962  32.229  1.00  0.00     0.167 HD
ATOM     38  C   UNL A   1      42.227  30.215  34.772  1.00  0.00     0.074 A 
ATOM     39  C   UNL A   1      42.537  30.668  36.114  1.00  0.00     0.031 C 
ATOM     40  C   UNL A   1      42.870  29.208  34.132  1.00  0.00     0.037 A 
BRANCH  27  41
ATOM     41  C   UNL A   1      40.667  27.899  28.497  1.00  0.00     0.064 A 
ATOM     42  C   UNL A   1      41.436  28.212  27.366  1.00  0.00     0.173 A 
ATOM     43  C   UNL A   1      39.936  26.701  28.479  1.00  0.00     0.173 A 
ATOM     44  F   UNL A   1      42.148  29.348  27.325  1.00  0.00    -0.203 F 
ATOM     45  C   UNL A   1      41.436  27.382  26.246  1.00  0.00     0.198 A 
ATOM     46  C   UNL A   1      39.965  25.857  27.372  1.00  0.00     0.198 A 
ATOM     47  F   UNL A   1      39.192  26.345  29.537  1.00  0.00    -0.203 F 
ATOM     48  F   UNL A   1      42.127  27.735  25.153  1.00  0.00    -0.200 F 
ATOM     49  C   UNL A   1      40.704  26.204  26.252  1.00  0.00     0.200 A 
ATOM     50  F   UNL A   1      39.270  24.711  27.386  1.00  0.00    -0.200 F 
ATOM     51  F   UNL A   1      40.703  25.409  25.173  1.00  0.00    -0.200 F 
ENDBRANCH  27  41
BRANCH  28  52
ATOM     52  C   UNL A   1      39.656  33.751  36.553  1.00  0.00     0.064 A 
ATOM     53  C   UNL A   1      40.199  35.035  36.668  1.00  0.00     0.173 A 
ATOM     54  C   UNL A   1      38.825  33.295  37.590  1.00  0.00     0.173 A 
ATOM     55  F   UNL A   1      41.006  35.509  35.707  1.00  0.00    -0.203 F 
ATOM     56  C   UNL A   1      39.922  35.835  37.774  1.00  0.00     0.198 A 
ATOM     57  C   UNL A   1      38.525  34.107  38.681  1.00  0.00     0.198 A 
ATOM     58  F   UNL A   1      38.269  32.077  37.517  1.00  0.00    -0.203 F 
ATOM     59  F   UNL A   1      40.470  37.054  37.871  1.00  0.00    -0.200 F 
ATOM     60  C   UNL A   1      39.077  35.375  38.774  1.00  0.00     0.200 A 
ATOM     61  F   UNL A   1      37.690  33.666  39.631  1.00  0.00    -0.200 F 
ATOM     62  F   UNL A   1      38.792  36.155  39.825  1.00  0.00    -0.200 F 
ENDBRANCH  28  52
BRANCH  40  63
ATOM     63  C   UNL A   1      44.005  28.545  34.857  1.00  0.00     0.064 A 
ATOM     64  C   UNL A   1      45.307  29.063  34.819  1.00  0.00     0.173 A 
ATOM     65  C   UNL A   1      43.765  27.419  35.660  1.00  0.00     0.173 A 
ATOM     66  F   UNL A   1      45.589  30.126  34.051  1.00  0.00    -0.203 F 
ATOM     67  C   UNL A   1      46.331  28.471  35.553  1.00  0.00     0.198 A 
ATOM     68  C   UNL A   1      44.785  26.849  36.416  1.00  0.00     0.198 A 
ATOM     69  F   UNL A   1      42.535  26.889  35.731  1.00  0.00    -0.203 F 
ATOM     70  F   UNL A   1      47.576  28.962  35.480  1.00  0.00    -0.200 F 
ATOM     71  C   UNL A   1      46.067  27.374  36.360  1.00  0.00     0.200 A 
ATOM     72  F   UNL A   1      44.524  25.797  37.204  1.00  0.00    -0.200 F 
ATOM     73  F   UNL A   1      47.050  26.819  37.082  1.00  0.00    -0.200 F 
ENDBRANCH  40  63
ENDBRANCH  14  15
ENDBRANCH   7   9
ENDBRANCH   4   5
ENDBRANCH   3   4
ENDBRANCH   2   3
ENDBRANCH   1   2
BRANCH   1  74
ATOM     74  C   UNL A   1      32.787  28.757  26.827  1.00  0.00     0.021 C 
BRANCH  74  75
ATOM     75  C   UNL A   1      34.116  28.601  26.078  1.00  0.00     0.116 C 
BRANCH  75  76
ATOM     76  N   UNL A   1      34.048  28.946  24.668  1.00  0.00    -0.356 N 
ATOM     77  C   UNL A   1      33.660  28.267  23.546  1.00  0.00     0.226 C 
ATOM     78  H   UNL A   1      34.343  29.866  24.481  1.00  0.00     0.163 HD
ATOM     79  O   UNL A   1      33.721  28.905  22.487  1.00  0.00    -0.274 OA
BRANCH  77  80
ATOM     80  C   UNL A   1      33.042  26.843  23.589  1.00  0.00     0.050 C 
ATOM     81  C   UNL A   1      33.176  26.338  22.116  1.00  0.00     0.017 C 
ATOM     82  C   UNL A   1      33.921  25.903  24.471  1.00  0.00     0.017 C 
ATOM     83  C   UNL A   1      32.925  24.851  21.902  1.00  0.00     0.001 C 
ATOM     84  C   UNL A   1      33.583  24.418  24.292  1.00  0.00     0.001 C 
ATOM     85  C   UNL A   1      33.753  23.988  22.841  1.00  0.00     0.000 C 
BRANCH  80  86
ATOM     86  C   UNL A   1      31.573  26.802  24.112  1.00  0.00     0.023 C 
BRANCH  86  87
ATOM     87  C   UNL A   1      30.384  27.016  23.131  1.00  0.00     0.057 C 
BRANCH  87  88
ATOM     88  C   UNL A   1      29.484  28.232  23.193  1.00  0.00     0.040 A 
ATOM     89  C   UNL A   1      30.036  29.504  23.333  1.00  0.00     0.024 A 
ATOM     90  N   UNL A   1      28.155  28.070  23.110  1.00  0.00    -0.261 NA
ATOM     91  C   UNL A   1      29.195  30.620  23.362  1.00  0.00     0.003 A 
ATOM     92  C   UNL A   1      27.358  29.163  23.099  1.00  0.00     0.111 A 
ATOM     93  C   UNL A   1      27.826  30.451  23.235  1.00  0.00     0.020 A 
ENDBRANCH  87  88
ENDBRANCH  86  87
ENDBRANCH  80  86
ENDBRANCH  77  80
ENDBRANCH  75  76
ENDBRANCH  74  75
ENDBRANCH   1  74
TORSDOF 16
ENDMDL
MODEL 3
REMARK VINA RESULT:     -12.0      6.033     11.413
REMARK SMILES O=C(NCCCCCCNC(=O)C1(CCc2ccccn2)CCCCC1)c1ccc(-c2c3nc(c(-c4c(F)c(F)c(F)c(F)c4F)c4ccc([nH]4)c(-c4c(F)c(F)c(F)c(F)c4F)c4nc(c(-c5c(F)c(F)c(F)c(F)c5F)c5ccc2[nH]5)C=C4)C=C3)cc1
REMARK SMILES IDX 7 1 6 2 5 3 4 4 3 5 1 6 2 7 27 9 28 10 89 11 29 12 88 13
REMARK SMILES IDX 30 14 31 15 32 16 82 17 33 18 87 19 81 20 83 21 34 22 86 23
REMARK SMILES IDX 80 24 79 25 35 27 67 28 47 29 66 30 48 31 51 32 65 33 84 34
REMARK SMILES IDX 49 35 50 36 64 38 85 39 52 40 36 41 37 42 45 43 38 44 39 45
REMARK SMILES IDX 43 46 46 47 40 48 41 49 44 50 42 51 68 52 69 53 77 54 70 55
REMARK SMILES IDX 71 56 75 57 78 58 72 59 73 60 76 61 74 62 53 63 54 64 62 65
REMARK SMILES IDX 55 66 56 67 60 68 63 69 57 70 58 71 61 72 59 73 8 74 9 75
REMARK SMILES IDX 10 76 11 77 12 79 13 80 22 81 26 82 23 83 25 84 24 85 14 86
REMARK SMILES IDX 15 87 16 88 17 89 21 90 18 91 20 92 19 93
REMARK H PARENT 3 8 83 26 51 37 10 78
REMARK Flexibility Score: inf
ROOT
ATOM      1  C   UNL A   1      37.533  22.189  25.248  1.00  0.00     0.002 C 
ENDROOT
BRANCH   1   2
ATOM      2  C   UNL A   1      37.218  20.846  24.595  1.00  0.00     0.002 C 
BRANCH   2   3
ATOM      3  C   UNL A   1      38.150  19.709  25.007  1.00  0.00     0.021 C 
BRANCH   3   4
ATOM      4  C   UNL A   1      39.236  20.129  25.991  1.00  0.00     0.116 C 
BRANCH   4   5
ATOM      5  N   UNL A   1      40.349  19.192  25.991  1.00  0.00    -0.352 N 
ATOM      6  O   UNL A   1      42.530  18.617  25.793  1.00  0.00    -0.269 OA
ATOM      7  C   UNL A   1      41.694  19.469  26.039  1.00  0.00     0.251 C 
ATOM      8  H   UNL A   1      40.108  18.238  25.952  1.00  0.00     0.163 HD
BRANCH   7   9
ATOM      9  C   UNL A   1      42.106  20.841  26.394  1.00  0.00     0.039 A 
ATOM     10  C   UNL A   1      42.350  21.772  25.381  1.00  0.00     0.014 A 
ATOM     11  C   UNL A   1      42.273  21.180  27.737  1.00  0.00     0.014 A 
ATOM     12  C   UNL A   1      42.876  23.015  25.705  1.00  0.00     0.010 A 
ATOM     13  C   UNL A   1      42.724  22.458  28.064  1.00  0.00     0.010 A 
ATOM     14  C   UNL A   1      43.044  23.376  27.050  1.00  0.00    -0.014 A 
BRANCH  14  15
ATOM     15  C   UNL A   1      43.473  24.751  27.394  1.00  0.00     0.031 A 
ATOM     16  C   UNL A   1      42.498  25.748  27.941  1.00  0.00     0.074 A 
ATOM     17  C   UNL A   1      44.752  25.096  27.160  1.00  0.00     0.049 A 
ATOM     18  N   UNL A   1      42.674  27.020  28.193  1.00  0.00    -0.248 NA
ATOM     19  C   UNL A   1      41.144  25.257  28.232  1.00  0.00     0.031 C 
ATOM     20  C   UNL A   1      45.778  24.200  26.624  1.00  0.00     0.029 A 
ATOM     21  N   UNL A   1      45.403  26.290  27.324  1.00  0.00    -0.354 N 
ATOM     22  C   UNL A   1      41.449  27.489  28.646  1.00  0.00     0.074 A 
ATOM     23  C   UNL A   1      40.532  26.369  28.614  1.00  0.00     0.031 C 
ATOM     24  C   UNL A   1      46.930  24.873  26.503  1.00  0.00     0.029 A 
ATOM     25  C   UNL A   1      46.703  26.262  26.885  1.00  0.00     0.049 A 
ATOM     26  H   UNL A   1      44.981  27.089  27.716  1.00  0.00     0.167 HD
ATOM     27  C   UNL A   1      41.128  28.743  29.047  1.00  0.00     0.037 A 
ATOM     28  C   UNL A   1      47.602  27.254  26.756  1.00  0.00     0.037 A 
ATOM     29  C   UNL A   1      42.059  29.843  29.071  1.00  0.00     0.049 A 
ATOM     30  C   UNL A   1      47.214  28.642  27.169  1.00  0.00     0.074 A 
ATOM     31  C   UNL A   1      41.854  31.139  29.506  1.00  0.00     0.029 A 
ATOM     32  N   UNL A   1      43.373  29.776  28.622  1.00  0.00    -0.354 N 
ATOM     33  N   UNL A   1      46.066  29.071  27.637  1.00  0.00    -0.248 NA
ATOM     34  C   UNL A   1      48.238  29.684  27.038  1.00  0.00     0.031 C 
ATOM     35  C   UNL A   1      43.020  31.872  29.262  1.00  0.00     0.029 A 
ATOM     36  C   UNL A   1      43.977  31.018  28.738  1.00  0.00     0.049 A 
ATOM     37  H   UNL A   1      43.810  28.966  28.273  1.00  0.00     0.167 HD
ATOM     38  C   UNL A   1      46.234  30.425  27.878  1.00  0.00     0.074 A 
ATOM     39  C   UNL A   1      47.599  30.747  27.509  1.00  0.00     0.031 C 
ATOM     40  C   UNL A   1      45.339  31.318  28.367  1.00  0.00     0.037 A 
BRANCH  27  41
ATOM     41  C   UNL A   1      39.702  29.001  29.449  1.00  0.00     0.064 A 
ATOM     42  C   UNL A   1      39.249  28.793  30.761  1.00  0.00     0.173 A 
ATOM     43  C   UNL A   1      38.777  29.476  28.507  1.00  0.00     0.173 A 
ATOM     44  F   UNL A   1      40.087  28.333  31.701  1.00  0.00    -0.203 F 
ATOM     45  C   UNL A   1      37.915  29.008  31.103  1.00  0.00     0.198 A 
ATOM     46  C   UNL A   1      37.452  29.722  28.860  1.00  0.00     0.198 A 
ATOM     47  F   UNL A   1      39.156  29.703  27.240  1.00  0.00    -0.203 F 
ATOM     48  F   UNL A   1      37.492  28.741  32.346  1.00  0.00    -0.200 F 
ATOM     49  C   UNL A   1      37.019  29.476  30.153  1.00  0.00     0.200 A 
ATOM     50  F   UNL A   1      36.592  30.190  27.944  1.00  0.00    -0.200 F 
ATOM     51  F   UNL A   1      35.736  29.680  30.483  1.00  0.00    -0.200 F 
ENDBRANCH  27  41
BRANCH  28  52
ATOM     52  C   UNL A   1      48.937  26.944  26.189  1.00  0.00     0.064 A 
ATOM     53  C   UNL A   1      49.961  26.428  26.991  1.00  0.00     0.173 A 
ATOM     54  C   UNL A   1      49.189  27.084  24.814  1.00  0.00     0.173 A 
ATOM     55  F   UNL A   1      49.770  26.285  28.311  1.00  0.00    -0.203 F 
ATOM     56  C   UNL A   1      51.189  26.064  26.441  1.00  0.00     0.198 A 
ATOM     57  C   UNL A   1      50.405  26.693  24.261  1.00  0.00     0.198 A 
ATOM     58  F   UNL A   1      48.233  27.561  24.003  1.00  0.00    -0.203 F 
ATOM     59  F   UNL A   1      52.161  25.591  27.233  1.00  0.00    -0.200 F 
ATOM     60  C   UNL A   1      51.406  26.186  25.076  1.00  0.00     0.200 A 
ATOM     61  F   UNL A   1      50.601  26.791  22.940  1.00  0.00    -0.200 F 
ATOM     62  F   UNL A   1      52.578  25.813  24.546  1.00  0.00    -0.200 F 
ENDBRANCH  28  52
BRANCH  40  63
ATOM     63  C   UNL A   1      45.814  32.727  28.573  1.00  0.00     0.064 A 
ATOM     64  C   UNL A   1      45.663  33.708  27.584  1.00  0.00     0.173 A 
ATOM     65  C   UNL A   1      46.358  33.113  29.808  1.00  0.00     0.173 A 
ATOM     66  F   UNL A   1      45.165  33.384  26.381  1.00  0.00    -0.203 F 
ATOM     67  C   UNL A   1      46.048  35.025  27.821  1.00  0.00     0.198 A 
ATOM     68  C   UNL A   1      46.715  34.435  30.052  1.00  0.00     0.198 A 
ATOM     69  F   UNL A   1      46.520  32.210  30.787  1.00  0.00    -0.203 F 
ATOM     70  F   UNL A   1      45.925  35.943  26.852  1.00  0.00    -0.200 F 
ATOM     71  C   UNL A   1      46.562  35.389  29.057  1.00  0.00     0.200 A 
ATOM     72  F   UNL A   1      47.198  34.787  31.251  1.00  0.00    -0.200 F 
ATOM     73  F   UNL A   1      46.913  36.661  29.290  1.00  0.00    -0.200 F 
ENDBRANCH  40  63
ENDBRANCH  14  15
ENDBRANCH   7   9
ENDBRANCH   4   5
ENDBRANCH   3   4
ENDBRANCH   2   3
ENDBRANCH   1   2
BRANCH   1  74
ATOM     74  C   UNL A   1      36.385  22.796  26.054  1.00  0.00     0.021 C 
BRANCH  74  75
ATOM     75  C   UNL A   1      35.246  21.824  26.383  1.00  0.00     0.116 C 
BRANCH  75  76
ATOM     76  N   UNL A   1      34.075  22.456  26.966  1.00  0.00    -0.356 N 
ATOM     77  C   UNL A   1      32.948  23.026  26.443  1.00  0.00     0.226 C 
ATOM     78  H   UNL A   1      34.098  22.479  27.950  1.00  0.00     0.163 HD
ATOM     79  O   UNL A   1      32.134  23.459  27.268  1.00  0.00    -0.274 OA
BRANCH  77  80
ATOM     80  C   UNL A   1      32.619  23.011  24.925  1.00  0.00     0.050 C 
ATOM     81  C   UNL A   1      31.160  23.569  24.858  1.00  0.00     0.017 C 
ATOM     82  C   UNL A   1      33.527  24.029  24.169  1.00  0.00     0.017 C 
ATOM     83  C   UNL A   1      30.662  23.953  23.470  1.00  0.00     0.001 C 
ATOM     84  C   UNL A   1      33.043  24.328  22.745  1.00  0.00     0.001 C 
ATOM     85  C   UNL A   1      31.626  24.885  22.753  1.00  0.00     0.000 C 
BRANCH  80  86
ATOM     86  C   UNL A   1      32.762  21.609  24.256  1.00  0.00     0.023 C 
BRANCH  86  87
ATOM     87  C   UNL A   1      32.150  20.349  24.936  1.00  0.00     0.057 C 
BRANCH  87  88
ATOM     88  C   UNL A   1      32.803  18.985  24.861  1.00  0.00     0.040 A 
ATOM     89  C   UNL A   1      34.064  18.844  24.282  1.00  0.00     0.024 A 
ATOM     90  N   UNL A   1      32.159  17.920  25.360  1.00  0.00    -0.261 NA
ATOM     91  C   UNL A   1      34.667  17.583  24.245  1.00  0.00     0.003 A 
ATOM     92  C   UNL A   1      32.773  16.715  25.352  1.00  0.00     0.111 A 
ATOM     93  C   UNL A   1      34.013  16.493  24.798  1.00  0.00     0.020 A 
ENDBRANCH  87  88
ENDBRANCH  86  87
ENDBRANCH  80  86
ENDBRANCH  77  80
ENDBRANCH  75  76
ENDBRANCH  74  75
ENDBRANCH   1  74
TORSDOF 16
ENDMDL
