MODEL 1
REMARK VINA RESULT:     -11.2      0.000      0.000
REMARK SMILES CSc1ncccc1C(=O)N1CSC[C@H]1C(=O)NCCCCCCNC(=O)c1ccc(-c2c3nc(c(-c4c(F)c(F)c(F)c(F)c4F)c4ccc([nH]4)c(-c4c(F)c(F)c(F)c(F)c4F)c4nc(c(-c5c(F)c(F)c(F)c(F)c5F)c5ccc2[nH]5)C=C4)C=C3)cc1
REMARK SMILES IDX 21 1 20 2 19 3 18 4 16 5 17 6 15 8 11 9 12 10 13 11 14 12
REMARK SMILES IDX 9 13 10 14 8 15 3 16 4 17 5 18 7 19 6 20 2 21 1 22 22 23
REMARK SMILES IDX 23 24 24 25 25 26 26 27 27 29 28 30 29 31 90 32 30 33 89 34
REMARK SMILES IDX 31 35 32 36 33 37 83 38 34 39 88 40 82 41 84 42 35 43 87 44
REMARK SMILES IDX 81 45 80 46 36 48 68 49 48 50 67 51 49 52 52 53 66 54 85 55
REMARK SMILES IDX 50 56 51 57 65 59 86 60 53 61 37 62 38 63 46 64 39 65 40 66
REMARK SMILES IDX 44 67 47 68 41 69 42 70 45 71 43 72 69 73 70 74 78 75 71 76
REMARK SMILES IDX 72 77 76 78 79 79 73 80 74 81 77 82 75 83 54 84 55 85 63 86
REMARK SMILES IDX 56 87 57 88 61 89 64 90 58 91 59 92 62 93 60 94
REMARK H PARENT 18 7 25 28 84 47 52 58
REMARK Flexibility Score: inf
ROOT
ATOM      1  C   UNL A   1      32.176  29.938  26.992  1.00  0.00     0.002 C 
ENDROOT
BRANCH   1   2
ATOM      2  C   UNL A   1      31.815  28.451  26.918  1.00  0.00     0.021 C 
BRANCH   2   3
ATOM      3  C   UNL A   1      32.978  27.558  26.506  1.00  0.00     0.116 C 
BRANCH   3   4
ATOM      4  N   UNL A   1      33.713  28.106  25.391  1.00  0.00    -0.354 N 
ATOM      5  C   UNL A   1      33.557  27.941  24.049  1.00  0.00     0.243 C 
ATOM      6  O   UNL A   1      34.173  28.735  23.330  1.00  0.00    -0.273 OA
ATOM      7  H   UNL A   1      34.454  28.703  25.645  1.00  0.00     0.163 HD
BRANCH   5   8
ATOM      8  C   UNL A   1      32.549  26.948  23.426  1.00  0.00     0.185 C 
ATOM      9  N   UNL A   1      32.590  25.541  23.860  1.00  0.00    -0.316 N 
ATOM     10  C   UNL A   1      31.457  25.104  24.645  1.00  0.00     0.190 C 
ATOM     11  S   UNL A   1      30.069  26.131  24.132  1.00  0.00    -0.138 SA
ATOM     12  C   UNL A   1      31.117  27.481  23.508  1.00  0.00     0.106 C 
BRANCH   9  13
ATOM     13  C   UNL A   1      33.566  24.727  23.289  1.00  0.00     0.257 C 
ATOM     14  O   UNL A   1      33.711  24.656  22.071  1.00  0.00    -0.269 OA
BRANCH  13  15
ATOM     15  C   UNL A   1      34.323  23.778  24.141  1.00  0.00     0.072 A 
ATOM     16  C   UNL A   1      33.964  22.441  24.311  1.00  0.00     0.108 A 
ATOM     17  N   UNL A   1      34.623  21.619  25.176  1.00  0.00    -0.249 NA
ATOM     18  C   UNL A   1      35.625  22.137  25.915  1.00  0.00     0.112 A 
ATOM     19  C   UNL A   1      35.342  24.291  24.962  1.00  0.00     0.018 A 
ATOM     20  C   UNL A   1      36.017  23.459  25.846  1.00  0.00     0.021 A 
BRANCH  16  21
ATOM     21  S   UNL A   1      32.625  21.637  23.455  1.00  0.00    -0.109 SA
ATOM     22  C   UNL A   1      32.332  20.325  24.671  1.00  0.00     0.092 C 
ENDBRANCH  16  21
ENDBRANCH  13  15
ENDBRANCH   9  13
ENDBRANCH   5   8
ENDBRANCH   3   4
ENDBRANCH   2   3
ENDBRANCH   1   2
BRANCH   1  23
ATOM     23  C   UNL A   1      31.347  30.859  26.088  1.00  0.00     0.002 C 
BRANCH  23  24
ATOM     24  C   UNL A   1      31.315  32.335  26.501  1.00  0.00     0.021 C 
BRANCH  24  25
ATOM     25  C   UNL A   1      32.652  32.898  26.977  1.00  0.00     0.116 C 
BRANCH  25  26
ATOM     26  N   UNL A   1      32.500  34.193  27.616  1.00  0.00    -0.352 N 
ATOM     27  C   UNL A   1      33.115  34.710  28.724  1.00  0.00     0.251 C 
ATOM     28  H   UNL A   1      31.851  34.795  27.184  1.00  0.00     0.163 HD
ATOM     29  O   UNL A   1      32.687  35.751  29.224  1.00  0.00    -0.269 OA
BRANCH  27  30
ATOM     30  C   UNL A   1      34.279  34.035  29.337  1.00  0.00     0.039 A 
ATOM     31  C   UNL A   1      35.559  34.414  28.924  1.00  0.00     0.014 A 
ATOM     32  C   UNL A   1      34.124  32.995  30.260  1.00  0.00     0.014 A 
ATOM     33  C   UNL A   1      36.681  33.778  29.458  1.00  0.00     0.010 A 
ATOM     34  C   UNL A   1      35.247  32.406  30.843  1.00  0.00     0.010 A 
ATOM     35  C   UNL A   1      36.535  32.782  30.437  1.00  0.00    -0.014 A 
BRANCH  35  36
ATOM     36  C   UNL A   1      37.734  32.145  31.037  1.00  0.00     0.031 A 
ATOM     37  C   UNL A   1      38.207  32.530  32.410  1.00  0.00     0.074 A 
ATOM     38  C   UNL A   1      38.415  31.229  30.323  1.00  0.00     0.049 A 
ATOM     39  N   UNL A   1      39.202  32.042  33.109  1.00  0.00    -0.248 NA
ATOM     40  C   UNL A   1      37.488  33.625  33.077  1.00  0.00     0.031 C 
ATOM     41  C   UNL A   1      38.102  30.828  28.950  1.00  0.00     0.029 A 
ATOM     42  N   UNL A   1      39.510  30.469  30.651  1.00  0.00    -0.354 N 
ATOM     43  C   UNL A   1      39.233  32.774  34.289  1.00  0.00     0.074 A 
ATOM     44  C   UNL A   1      38.192  33.774  34.189  1.00  0.00     0.031 C 
ATOM     45  C   UNL A   1      38.964  29.875  28.564  1.00  0.00     0.029 A 
ATOM     46  C   UNL A   1      39.900  29.610  29.653  1.00  0.00     0.049 A 
ATOM     47  H   UNL A   1      39.970  30.533  31.518  1.00  0.00     0.167 HD
ATOM     48  C   UNL A   1      40.041  32.612  35.364  1.00  0.00     0.037 A 
ATOM     49  C   UNL A   1      40.893  28.702  29.625  1.00  0.00     0.037 A 
ATOM     50  C   UNL A   1      41.058  31.597  35.467  1.00  0.00     0.049 A 
ATOM     51  C   UNL A   1      41.737  28.500  30.851  1.00  0.00     0.074 A 
ATOM     52  C   UNL A   1      41.877  31.299  36.543  1.00  0.00     0.029 A 
ATOM     53  N   UNL A   1      41.400  30.716  34.451  1.00  0.00    -0.354 N 
ATOM     54  N   UNL A   1      41.694  29.132  31.999  1.00  0.00    -0.248 NA
ATOM     55  C   UNL A   1      42.754  27.443  30.786  1.00  0.00     0.031 C 
ATOM     56  C   UNL A   1      42.743  30.267  36.163  1.00  0.00     0.029 A 
ATOM     57  C   UNL A   1      42.432  29.889  34.867  1.00  0.00     0.049 A 
ATOM     58  H   UNL A   1      40.974  30.685  33.565  1.00  0.00     0.167 HD
ATOM     59  C   UNL A   1      42.660  28.539  32.799  1.00  0.00     0.074 A 
ATOM     60  C   UNL A   1      43.257  27.479  32.012  1.00  0.00     0.031 C 
ATOM     61  C   UNL A   1      43.023  28.845  34.069  1.00  0.00     0.037 A 
BRANCH  48  62
ATOM     62  C   UNL A   1      39.855  33.554  36.519  1.00  0.00     0.064 A 
ATOM     63  C   UNL A   1      38.967  33.271  37.568  1.00  0.00     0.173 A 
ATOM     64  C   UNL A   1      40.598  34.742  36.595  1.00  0.00     0.173 A 
ATOM     65  F   UNL A   1      38.225  32.153  37.540  1.00  0.00    -0.203 F 
ATOM     66  C   UNL A   1      38.806  34.156  38.631  1.00  0.00     0.198 A 
ATOM     67  C   UNL A   1      40.457  35.611  37.674  1.00  0.00     0.198 A 
ATOM     68  F   UNL A   1      41.467  35.060  35.622  1.00  0.00    -0.203 F 
ATOM     69  F   UNL A   1      37.913  33.887  39.594  1.00  0.00    -0.200 F 
ATOM     70  C   UNL A   1      39.554  35.321  38.687  1.00  0.00     0.200 A 
ATOM     71  F   UNL A   1      41.190  36.731  37.732  1.00  0.00    -0.200 F 
ATOM     72  F   UNL A   1      39.401  36.170  39.712  1.00  0.00    -0.200 F 
ENDBRANCH  48  62
BRANCH  49  73
ATOM     73  C   UNL A   1      41.102  27.883  28.405  1.00  0.00     0.064 A 
ATOM     74  C   UNL A   1      42.003  28.288  27.409  1.00  0.00     0.173 A 
ATOM     75  C   UNL A   1      40.424  26.670  28.217  1.00  0.00     0.173 A 
ATOM     76  F   UNL A   1      42.661  29.449  27.536  1.00  0.00    -0.203 F 
ATOM     77  C   UNL A   1      42.202  27.521  26.264  1.00  0.00     0.198 A 
ATOM     78  C   UNL A   1      40.645  25.890  27.085  1.00  0.00     0.198 A 
ATOM     79  F   UNL A   1      39.560  26.234  29.146  1.00  0.00    -0.203 F 
ATOM     80  F   UNL A   1      43.040  27.950  25.310  1.00  0.00    -0.200 F 
ATOM     81  C   UNL A   1      41.530  26.318  26.106  1.00  0.00     0.200 A 
ATOM     82  F   UNL A   1      40.005  24.720  26.944  1.00  0.00    -0.200 F 
ATOM     83  F   UNL A   1      41.729  25.575  25.010  1.00  0.00    -0.200 F 
ENDBRANCH  49  73
BRANCH  61  84
ATOM     84  C   UNL A   1      44.106  28.008  34.687  1.00  0.00     0.064 A 
ATOM     85  C   UNL A   1      45.457  28.384  34.613  1.00  0.00     0.173 A 
ATOM     86  C   UNL A   1      43.789  26.823  35.366  1.00  0.00     0.173 A 
ATOM     87  F   UNL A   1      45.812  29.501  33.963  1.00  0.00    -0.203 F 
ATOM     88  C   UNL A   1      46.452  27.581  35.163  1.00  0.00     0.198 A 
ATOM     89  C   UNL A   1      44.786  26.039  35.941  1.00  0.00     0.198 A 
ATOM     90  F   UNL A   1      42.513  26.423  35.471  1.00  0.00    -0.203 F 
ATOM     91  F   UNL A   1      47.740  27.928  35.027  1.00  0.00    -0.200 F 
ATOM     92  C   UNL A   1      46.116  26.412  35.829  1.00  0.00     0.200 A 
ATOM     93  F   UNL A   1      44.458  24.916  36.595  1.00  0.00    -0.200 F 
ATOM     94  F   UNL A   1      47.077  25.639  36.354  1.00  0.00    -0.200 F 
ENDBRANCH  61  84
ENDBRANCH  35  36
ENDBRANCH  27  30
ENDBRANCH  25  26
ENDBRANCH  24  25
ENDBRANCH  23  24
ENDBRANCH   1  23
TORSDOF 16
ENDMDL
MODEL 2
REMARK VINA RESULT:     -11.1      1.769      2.398
REMARK SMILES CSc1ncccc1C(=O)N1CSC[C@H]1C(=O)NCCCCCCNC(=O)c1ccc(-c2c3nc(c(-c4c(F)c(F)c(F)c(F)c4F)c4ccc([nH]4)c(-c4c(F)c(F)c(F)c(F)c4F)c4nc(c(-c5c(F)c(F)c(F)c(F)c5F)c5ccc2[nH]5)C=C4)C=C3)cc1
REMARK SMILES IDX 21 1 20 2 19 3 18 4 16 5 17 6 15 8 11 9 12 10 13 11 14 12
REMARK SMILES IDX 9 13 10 14 8 15 3 16 4 17 5 18 7 19 6 20 2 21 1 22 22 23
REMARK SMILES IDX 23 24 24 25 25 26 26 27 27 29 28 30 29 31 90 32 30 33 89 34
REMARK SMILES IDX 31 35 32 36 33 37 83 38 34 39 88 40 82 41 84 42 35 43 87 44
REMARK SMILES IDX 81 45 80 46 36 48 68 49 48 50 67 51 49 52 52 53 66 54 85 55
REMARK SMILES IDX 50 56 51 57 65 59 86 60 53 61 37 62 38 63 46 64 39 65 40 66
REMARK SMILES IDX 44 67 47 68 41 69 42 70 45 71 43 72 69 73 70 74 78 75 71 76
REMARK SMILES IDX 72 77 76 78 79 79 73 80 74 81 77 82 75 83 54 84 55 85 63 86
REMARK SMILES IDX 56 87 57 88 61 89 64 90 58 91 59 92 62 93 60 94
REMARK H PARENT 18 7 25 28 84 47 52 58
REMARK Flexibility Score: inf
ROOT
ATOM      1  C   UNL A   1      34.955  32.529  28.034  1.00  0.00     0.002 C 
ENDROOT
BRANCH   1   2
ATOM      2  C   UNL A   1      33.613  31.840  27.764  1.00  0.00     0.021 C 
BRANCH   2   3
ATOM      3  C   UNL A   1      33.750  30.419  27.232  1.00  0.00     0.116 C 
BRANCH   3   4
ATOM      4  N   UNL A   1      32.692  29.560  27.706  1.00  0.00    -0.354 N 
ATOM      5  C   UNL A   1      31.998  28.570  27.082  1.00  0.00     0.243 C 
ATOM      6  O   UNL A   1      31.325  27.835  27.814  1.00  0.00    -0.273 OA
ATOM      7  H   UNL A   1      32.428  29.716  28.641  1.00  0.00     0.163 HD
BRANCH   5   8
ATOM      8  C   UNL A   1      32.149  28.242  25.579  1.00  0.00     0.185 C 
ATOM      9  N   UNL A   1      32.009  26.841  25.148  1.00  0.00    -0.316 N 
ATOM     10  C   UNL A   1      30.826  26.547  24.371  1.00  0.00     0.190 C 
ATOM     11  S   UNL A   1      30.392  28.079  23.528  1.00  0.00    -0.138 SA
ATOM     12  C   UNL A   1      31.261  29.145  24.719  1.00  0.00     0.106 C 
BRANCH   9  13
ATOM     13  C   UNL A   1      33.115  26.009  25.320  1.00  0.00     0.257 C 
ATOM     14  O   UNL A   1      34.140  26.408  25.868  1.00  0.00    -0.269 OA
BRANCH  13  15
ATOM     15  C   UNL A   1      33.144  24.679  24.666  1.00  0.00     0.072 A 
ATOM     16  C   UNL A   1      32.683  23.512  25.274  1.00  0.00     0.108 A 
ATOM     17  N   UNL A   1      32.812  22.289  24.686  1.00  0.00    -0.249 NA
ATOM     18  C   UNL A   1      33.443  22.213  23.496  1.00  0.00     0.112 A 
ATOM     19  C   UNL A   1      33.835  24.553  23.449  1.00  0.00     0.018 A 
ATOM     20  C   UNL A   1      33.971  23.309  22.844  1.00  0.00     0.021 A 
BRANCH  16  21
ATOM     21  S   UNL A   1      31.890  23.448  26.868  1.00  0.00    -0.109 SA
ATOM     22  C   UNL A   1      33.122  22.404  27.694  1.00  0.00     0.092 C 
ENDBRANCH  16  21
ENDBRANCH  13  15
ENDBRANCH   9  13
ENDBRANCH   5   8
ENDBRANCH   3   4
ENDBRANCH   2   3
ENDBRANCH   1   2
BRANCH   1  23
ATOM     23  C   UNL A   1      34.858  33.940  28.629  1.00  0.00     0.002 C 
BRANCH  23  24
ATOM     24  C   UNL A   1      33.442  34.520  28.724  1.00  0.00     0.021 C 
BRANCH  24  25
ATOM     25  C   UNL A   1      33.364  35.936  29.288  1.00  0.00     0.116 C 
BRANCH  25  26
ATOM     26  N   UNL A   1      32.548  36.001  30.487  1.00  0.00    -0.352 N 
ATOM     27  C   UNL A   1      32.731  35.422  31.714  1.00  0.00     0.251 C 
ATOM     28  H   UNL A   1      31.732  36.547  30.404  1.00  0.00     0.163 HD
ATOM     29  O   UNL A   1      31.810  35.430  32.531  1.00  0.00    -0.269 OA
BRANCH  27  30
ATOM     30  C   UNL A   1      34.014  34.778  32.071  1.00  0.00     0.039 A 
ATOM     31  C   UNL A   1      34.022  33.400  32.303  1.00  0.00     0.014 A 
ATOM     32  C   UNL A   1      35.186  35.521  32.243  1.00  0.00     0.014 A 
ATOM     33  C   UNL A   1      35.207  32.763  32.672  1.00  0.00     0.010 A 
ATOM     34  C   UNL A   1      36.384  34.873  32.546  1.00  0.00     0.010 A 
ATOM     35  C   UNL A   1      36.404  33.491  32.777  1.00  0.00    -0.014 A 
BRANCH  35  36
ATOM     36  C   UNL A   1      37.671  32.798  33.121  1.00  0.00     0.031 A 
ATOM     37  C   UNL A   1      38.381  33.085  34.414  1.00  0.00     0.074 A 
ATOM     38  C   UNL A   1      38.195  31.919  32.246  1.00  0.00     0.049 A 
ATOM     39  N   UNL A   1      39.467  32.538  34.900  1.00  0.00    -0.248 NA
ATOM     40  C   UNL A   1      37.815  34.146  35.260  1.00  0.00     0.031 C 
ATOM     41  C   UNL A   1      37.642  31.614  30.926  1.00  0.00     0.029 A 
ATOM     42  N   UNL A   1      39.309  31.123  32.334  1.00  0.00    -0.354 N 
ATOM     43  C   UNL A   1      39.718  33.191  36.099  1.00  0.00     0.074 A 
ATOM     44  C   UNL A   1      38.703  34.212  36.242  1.00  0.00     0.031 C 
ATOM     45  C   UNL A   1      38.400  30.674  30.340  1.00  0.00     0.029 A 
ATOM     46  C   UNL A   1      39.501  30.325  31.233  1.00  0.00     0.049 A 
ATOM     47  H   UNL A   1      39.913  31.123  33.111  1.00  0.00     0.167 HD
ATOM     48  C   UNL A   1      40.693  32.947  37.008  1.00  0.00     0.037 A 
ATOM     49  C   UNL A   1      40.449  29.405  30.979  1.00  0.00     0.037 A 
ATOM     50  C   UNL A   1      41.686  31.912  36.872  1.00  0.00     0.049 A 
ATOM     51  C   UNL A   1      41.485  29.110  32.027  1.00  0.00     0.074 A 
ATOM     52  C   UNL A   1      42.668  31.532  37.771  1.00  0.00     0.029 A 
ATOM     53  N   UNL A   1      41.826  31.093  35.761  1.00  0.00    -0.354 N 
ATOM     54  N   UNL A   1      41.655  29.667  33.202  1.00  0.00    -0.248 NA
ATOM     55  C   UNL A   1      42.447  28.044  31.724  1.00  0.00     0.031 C 
ATOM     56  C   UNL A   1      43.429  30.513  37.185  1.00  0.00     0.029 A 
ATOM     57  C   UNL A   1      42.891  30.225  35.942  1.00  0.00     0.049 A 
ATOM     58  H   UNL A   1      41.254  31.126  34.960  1.00  0.00     0.167 HD
ATOM     59  C   UNL A   1      42.727  29.009  33.786  1.00  0.00     0.074 A 
ATOM     60  C   UNL A   1      43.153  27.993  32.844  1.00  0.00     0.031 C 
ATOM     61  C   UNL A   1      43.310  29.226  34.991  1.00  0.00     0.037 A 
BRANCH  48  62
ATOM     62  C   UNL A   1      40.733  33.815  38.232  1.00  0.00     0.064 A 
ATOM     63  C   UNL A   1      39.946  33.535  39.362  1.00  0.00     0.173 A 
ATOM     64  C   UNL A   1      41.591  34.924  38.292  1.00  0.00     0.173 A 
ATOM     65  F   UNL A   1      39.102  32.493  39.354  1.00  0.00    -0.203 F 
ATOM     66  C   UNL A   1      39.994  34.351  40.489  1.00  0.00     0.198 A 
ATOM     67  C   UNL A   1      41.658  35.720  39.433  1.00  0.00     0.198 A 
ATOM     68  F   UNL A   1      42.370  35.234  37.244  1.00  0.00    -0.203 F 
ATOM     69  F   UNL A   1      39.195  34.093  41.534  1.00  0.00    -0.200 F 
ATOM     70  C   UNL A   1      40.853  35.439  40.527  1.00  0.00     0.200 A 
ATOM     71  F   UNL A   1      42.498  36.764  39.471  1.00  0.00    -0.200 F 
ATOM     72  F   UNL A   1      40.900  36.221  41.614  1.00  0.00    -0.200 F 
ENDBRANCH  48  62
BRANCH  49  73
ATOM     73  C   UNL A   1      40.426  28.664  29.693  1.00  0.00     0.064 A 
ATOM     74  C   UNL A   1      41.156  29.116  28.586  1.00  0.00     0.173 A 
ATOM     75  C   UNL A   1      39.691  27.478  29.550  1.00  0.00     0.173 A 
ATOM     76  F   UNL A   1      41.860  30.254  28.669  1.00  0.00    -0.203 F 
ATOM     77  C   UNL A   1      41.137  28.422  27.378  1.00  0.00     0.198 A 
ATOM     78  C   UNL A   1      39.695  26.769  28.351  1.00  0.00     0.198 A 
ATOM     79  F   UNL A   1      38.984  26.998  30.584  1.00  0.00    -0.203 F 
ATOM     80  F   UNL A   1      41.813  28.897  26.324  1.00  0.00    -0.200 F 
ATOM     81  C   UNL A   1      40.413  27.245  27.264  1.00  0.00     0.200 A 
ATOM     82  F   UNL A   1      39.007  25.623  28.251  1.00  0.00    -0.200 F 
ATOM     83  F   UNL A   1      40.403  26.571  26.106  1.00  0.00    -0.200 F 
ENDBRANCH  49  73
BRANCH  61  84
ATOM     84  C   UNL A   1      44.459  28.334  35.361  1.00  0.00     0.064 A 
ATOM     85  C   UNL A   1      45.785  28.676  35.048  1.00  0.00     0.173 A 
ATOM     86  C   UNL A   1      44.235  27.129  36.041  1.00  0.00     0.173 A 
ATOM     87  F   UNL A   1      46.051  29.811  34.386  1.00  0.00    -0.203 F 
ATOM     88  C   UNL A   1      46.837  27.823  35.369  1.00  0.00     0.198 A 
ATOM     89  C   UNL A   1      45.294  26.293  36.388  1.00  0.00     0.198 A 
ATOM     90  F   UNL A   1      42.987  26.759  36.370  1.00  0.00    -0.203 F 
ATOM     91  F   UNL A   1      48.088  28.141  35.006  1.00  0.00    -0.200 F 
ATOM     92  C   UNL A   1      46.592  26.635  36.042  1.00  0.00     0.200 A 
ATOM     93  F   UNL A   1      45.056  25.151  37.049  1.00  0.00    -0.200 F 
ATOM     94  F   UNL A   1      47.606  25.814  36.346  1.00  0.00    -0.200 F 
ENDBRANCH  61  84
ENDBRANCH  35  36
ENDBRANCH  27  30
ENDBRANCH  25  26
ENDBRANCH  24  25
ENDBRANCH  23  24
ENDBRANCH   1  23
TORSDOF 16
ENDMDL
MODEL 3
REMARK VINA RESULT:     -11.0      0.776      2.134
REMARK SMILES CSc1ncccc1C(=O)N1CSC[C@H]1C(=O)NCCCCCCNC(=O)c1ccc(-c2c3nc(c(-c4c(F)c(F)c(F)c(F)c4F)c4ccc([nH]4)c(-c4c(F)c(F)c(F)c(F)c4F)c4nc(c(-c5c(F)c(F)c(F)c(F)c5F)c5ccc2[nH]5)C=C4)C=C3)cc1
REMARK SMILES IDX 21 1 20 2 19 3 18 4 16 5 17 6 15 8 11 9 12 10 13 11 14 12
REMARK SMILES IDX 9 13 10 14 8 15 3 16 4 17 5 18 7 19 6 20 2 21 1 22 22 23
REMARK SMILES IDX 23 24 24 25 25 26 26 27 27 29 28 30 29 31 90 32 30 33 89 34
REMARK SMILES IDX 31 35 32 36 33 37 83 38 34 39 88 40 82 41 84 42 35 43 87 44
REMARK SMILES IDX 81 45 80 46 36 48 68 49 48 50 67 51 49 52 52 53 66 54 85 55
REMARK SMILES IDX 50 56 51 57 65 59 86 60 53 61 37 62 38 63 46 64 39 65 40 66
REMARK SMILES IDX 44 67 47 68 41 69 42 70 45 71 43 72 69 73 70 74 78 75 71 76
REMARK SMILES IDX 72 77 76 78 79 79 73 80 74 81 77 82 75 83 54 84 55 85 63 86
REMARK SMILES IDX 56 87 57 88 61 89 64 90 58 91 59 92 62 93 60 94
REMARK H PARENT 18 7 25 28 84 47 52 58
REMARK Flexibility Score: inf
ROOT
ATOM      1  C   UNL A   1      32.088  29.756  26.907  1.00  0.00     0.002 C 
ENDROOT
BRANCH   1   2
ATOM      2  C   UNL A   1      31.789  28.314  26.480  1.00  0.00     0.021 C 
BRANCH   2   3
ATOM      3  C   UNL A   1      32.922  27.658  25.703  1.00  0.00     0.116 C 
BRANCH   3   4
ATOM      4  N   UNL A   1      32.641  27.591  24.289  1.00  0.00    -0.354 N 
ATOM      5  C   UNL A   1      32.178  26.570  23.517  1.00  0.00     0.243 C 
ATOM      6  O   UNL A   1      31.793  26.879  22.384  1.00  0.00    -0.273 OA
ATOM      7  H   UNL A   1      32.814  28.428  23.799  1.00  0.00     0.163 HD
BRANCH   5   8
ATOM      8  C   UNL A   1      31.967  25.133  24.045  1.00  0.00     0.185 C 
ATOM      9  N   UNL A   1      33.121  24.418  24.616  1.00  0.00    -0.316 N 
ATOM     10  C   UNL A   1      33.066  24.195  26.043  1.00  0.00     0.190 C 
ATOM     11  S   UNL A   1      31.316  24.121  26.468  1.00  0.00    -0.138 SA
ATOM     12  C   UNL A   1      30.777  25.060  25.005  1.00  0.00     0.106 C 
BRANCH   9  13
ATOM     13  C   UNL A   1      34.013  23.832  23.719  1.00  0.00     0.257 C 
ATOM     14  O   UNL A   1      33.835  23.889  22.505  1.00  0.00    -0.269 OA
BRANCH  13  15
ATOM     15  C   UNL A   1      35.098  22.958  24.227  1.00  0.00     0.072 A 
ATOM     16  C   UNL A   1      34.898  21.637  24.627  1.00  0.00     0.108 A 
ATOM     17  N   UNL A   1      35.895  20.889  25.180  1.00  0.00    -0.249 NA
ATOM     18  C   UNL A   1      37.097  21.469  25.378  1.00  0.00     0.112 A 
ATOM     19  C   UNL A   1      36.350  23.540  24.492  1.00  0.00     0.018 A 
ATOM     20  C   UNL A   1      37.370  22.783  25.056  1.00  0.00     0.021 A 
BRANCH  16  21
ATOM     21  S   UNL A   1      33.354  20.761  24.487  1.00  0.00    -0.109 SA
ATOM     22  C   UNL A   1      34.030  19.084  24.620  1.00  0.00     0.092 C 
ENDBRANCH  16  21
ENDBRANCH  13  15
ENDBRANCH   9  13
ENDBRANCH   5   8
ENDBRANCH   3   4
ENDBRANCH   2   3
ENDBRANCH   1   2
BRANCH   1  23
ATOM     23  C   UNL A   1      31.427  30.843  26.049  1.00  0.00     0.002 C 
BRANCH  23  24
ATOM     24  C   UNL A   1      31.315  32.223  26.705  1.00  0.00     0.021 C 
BRANCH  24  25
ATOM     25  C   UNL A   1      32.646  32.928  26.951  1.00  0.00     0.116 C 
BRANCH  25  26
ATOM     26  N   UNL A   1      32.471  34.202  27.625  1.00  0.00    -0.352 N 
ATOM     27  C   UNL A   1      33.060  34.691  28.760  1.00  0.00     0.251 C 
ATOM     28  H   UNL A   1      31.824  34.811  27.199  1.00  0.00     0.163 HD
ATOM     29  O   UNL A   1      32.613  35.713  29.283  1.00  0.00    -0.269 OA
BRANCH  27  30
ATOM     30  C   UNL A   1      34.218  34.007  29.375  1.00  0.00     0.039 A 
ATOM     31  C   UNL A   1      35.502  34.403  28.989  1.00  0.00     0.014 A 
ATOM     32  C   UNL A   1      34.056  32.946  30.270  1.00  0.00     0.014 A 
ATOM     33  C   UNL A   1      36.619  33.760  29.525  1.00  0.00     0.010 A 
ATOM     34  C   UNL A   1      35.173  32.349  30.855  1.00  0.00     0.010 A 
ATOM     35  C   UNL A   1      36.465  32.741  30.478  1.00  0.00    -0.014 A 
BRANCH  35  36
ATOM     36  C   UNL A   1      37.658  32.096  31.081  1.00  0.00     0.031 A 
ATOM     37  C   UNL A   1      38.126  32.472  32.459  1.00  0.00     0.074 A 
ATOM     38  C   UNL A   1      38.340  31.181  30.365  1.00  0.00     0.049 A 
ATOM     39  N   UNL A   1      39.115  31.976  33.160  1.00  0.00    -0.248 NA
ATOM     40  C   UNL A   1      37.407  33.566  33.127  1.00  0.00     0.031 C 
ATOM     41  C   UNL A   1      38.032  30.789  28.989  1.00  0.00     0.029 A 
ATOM     42  N   UNL A   1      39.430  30.416  30.695  1.00  0.00    -0.354 N 
ATOM     43  C   UNL A   1      39.142  32.702  34.344  1.00  0.00     0.074 A 
ATOM     44  C   UNL A   1      38.105  33.707  34.244  1.00  0.00     0.031 C 
ATOM     45  C   UNL A   1      38.893  29.834  28.602  1.00  0.00     0.029 A 
ATOM     46  C   UNL A   1      39.822  29.561  29.695  1.00  0.00     0.049 A 
ATOM     47  H   UNL A   1      39.886  30.473  31.565  1.00  0.00     0.167 HD
ATOM     48  C   UNL A   1      39.944  32.531  35.423  1.00  0.00     0.037 A 
ATOM     49  C   UNL A   1      40.811  28.649  29.667  1.00  0.00     0.037 A 
ATOM     50  C   UNL A   1      40.957  31.512  35.525  1.00  0.00     0.049 A 
ATOM     51  C   UNL A   1      41.649  28.437  30.897  1.00  0.00     0.074 A 
ATOM     52  C   UNL A   1      41.769  31.205  36.604  1.00  0.00     0.029 A 
ATOM     53  N   UNL A   1      41.301  30.635  34.507  1.00  0.00    -0.354 N 
ATOM     54  N   UNL A   1      41.601  29.063  32.047  1.00  0.00    -0.248 NA
ATOM     55  C   UNL A   1      42.662  27.377  30.831  1.00  0.00     0.031 C 
ATOM     56  C   UNL A   1      42.633  30.172  36.223  1.00  0.00     0.029 A 
ATOM     57  C   UNL A   1      42.327  29.802  34.924  1.00  0.00     0.049 A 
ATOM     58  H   UNL A   1      40.879  30.610  33.618  1.00  0.00     0.167 HD
ATOM     59  C   UNL A   1      42.561  28.462  32.849  1.00  0.00     0.074 A 
ATOM     60  C   UNL A   1      43.159  27.404  32.059  1.00  0.00     0.031 C 
ATOM     61  C   UNL A   1      42.919  28.760  34.123  1.00  0.00     0.037 A 
BRANCH  48  62
ATOM     62  C   UNL A   1      39.756  33.468  36.581  1.00  0.00     0.064 A 
ATOM     63  C   UNL A   1      40.438  34.693  36.658  1.00  0.00     0.173 A 
ATOM     64  C   UNL A   1      38.859  33.154  37.614  1.00  0.00     0.173 A 
ATOM     65  F   UNL A   1      41.314  35.038  35.702  1.00  0.00    -0.203 F 
ATOM     66  C   UNL A   1      40.253  35.550  37.739  1.00  0.00     0.198 A 
ATOM     67  C   UNL A   1      38.655  34.027  38.679  1.00  0.00     0.198 A 
ATOM     68  F   UNL A   1      38.176  31.999  37.588  1.00  0.00    -0.203 F 
ATOM     69  F   UNL A   1      40.955  36.690  37.815  1.00  0.00    -0.200 F 
ATOM     70  C   UNL A   1      39.358  35.221  38.745  1.00  0.00     0.200 A 
ATOM     71  F   UNL A   1      37.780  33.712  39.644  1.00  0.00    -0.200 F 
ATOM     72  F   UNL A   1      39.179  36.049  39.783  1.00  0.00    -0.200 F 
ENDBRANCH  48  62
BRANCH  49  73
ATOM     73  C   UNL A   1      41.024  27.836  28.443  1.00  0.00     0.064 A 
ATOM     74  C   UNL A   1      40.360  26.615  28.263  1.00  0.00     0.173 A 
ATOM     75  C   UNL A   1      41.879  28.271  27.421  1.00  0.00     0.173 A 
ATOM     76  F   UNL A   1      39.545  26.150  29.221  1.00  0.00    -0.203 F 
ATOM     77  C   UNL A   1      40.557  25.851  27.115  1.00  0.00     0.198 A 
ATOM     78  C   UNL A   1      42.054  27.520  26.261  1.00  0.00     0.198 A 
ATOM     79  F   UNL A   1      42.531  29.438  27.541  1.00  0.00    -0.203 F 
ATOM     80  F   UNL A   1      39.939  24.669  26.986  1.00  0.00    -0.200 F 
ATOM     81  C   UNL A   1      41.398  26.307  26.111  1.00  0.00     0.200 A 
ATOM     82  F   UNL A   1      42.855  27.973  25.286  1.00  0.00    -0.200 F 
ATOM     83  F   UNL A   1      41.580  25.577  25.003  1.00  0.00    -0.200 F 
ENDBRANCH  49  73
BRANCH  61  84
ATOM     84  C   UNL A   1      43.995  27.916  34.742  1.00  0.00     0.064 A 
ATOM     85  C   UNL A   1      43.696  26.720  35.412  1.00  0.00     0.173 A 
ATOM     86  C   UNL A   1      45.340  28.305  34.660  1.00  0.00     0.173 A 
ATOM     87  F   UNL A   1      42.423  26.312  35.531  1.00  0.00    -0.203 F 
ATOM     88  C   UNL A   1      44.700  25.964  36.010  1.00  0.00     0.198 A 
ATOM     89  C   UNL A   1      46.345  27.530  35.233  1.00  0.00     0.198 A 
ATOM     90  F   UNL A   1      45.681  29.436  34.025  1.00  0.00    -0.203 F 
ATOM     91  F   UNL A   1      44.385  24.857  36.697  1.00  0.00    -0.200 F 
ATOM     92  C   UNL A   1      46.024  26.367  35.917  1.00  0.00     0.200 A 
ATOM     93  F   UNL A   1      47.626  27.915  35.131  1.00  0.00    -0.200 F 
ATOM     94  F   UNL A   1      46.990  25.641  36.496  1.00  0.00    -0.200 F 
ENDBRANCH  61  84
ENDBRANCH  35  36
ENDBRANCH  27  30
ENDBRANCH  25  26
ENDBRANCH  24  25
ENDBRANCH  23  24
ENDBRANCH   1  23
TORSDOF 16
ENDMDL
