MODEL 1
REMARK VINA RESULT:     -12.1      0.000      0.000
REMARK SMILES CCCc1cc(OC(F)(F)F)cc2c1O[C@@H](C(F)(F)F)C(C(=O)NCCCCCCNC(=O)c1ccc(-c3c4nc(c(-c5c(F)c(F)c(F)c(F)c5F)c5ccc([nH]5)c(-c5c(F)c(F)c(F)c(F)c5F)c5nc(c(-c6c(F)c(F)c(F)c(F)c6F)c6ccc3[nH]6)C=C5)C=C4)cc1)=C2
REMARK SMILES IDX 27 1 26 2 25 3 24 4 22 5 23 6 21 8 4 9 5 10 14 11 6 12 13 13
REMARK SMILES IDX 15 14 12 15 97 16 16 17 3 18 2 19 1 20 7 21 8 22 9 23 10 24
REMARK SMILES IDX 11 25 17 26 18 27 19 28 20 29 28 30 29 31 30 32 31 33 32 34
REMARK SMILES IDX 33 36 34 37 35 38 96 39 36 40 95 41 37 42 38 43 39 44 89 45
REMARK SMILES IDX 40 46 94 47 88 48 90 49 41 50 93 51 87 52 86 53 42 55 74 56
REMARK SMILES IDX 54 57 73 58 55 59 58 60 72 61 91 62 56 63 57 64 71 66 92 67
REMARK SMILES IDX 59 68 43 69 44 70 52 71 45 72 46 73 50 74 53 75 47 76 48 77
REMARK SMILES IDX 51 78 49 79 75 80 76 81 84 82 77 83 78 84 82 85 85 86 79 87
REMARK SMILES IDX 80 88 83 89 81 90 60 91 61 92 69 93 62 94 63 95 67 96 70 97
REMARK SMILES IDX 64 98 65 99 68 100 66 101
REMARK H PARENT 24 7 31 35 90 54 58 65
REMARK Flexibility Score: inf
ROOT
ATOM      1  C   UNL A   1      31.041  27.424  23.596  1.00  0.00     0.002 C 
ENDROOT
BRANCH   1   2
ATOM      2  C   UNL A   1      31.061  26.285  22.567  1.00  0.00     0.021 C 
BRANCH   2   3
ATOM      3  C   UNL A   1      30.630  24.936  23.158  1.00  0.00     0.116 C 
BRANCH   3   4
ATOM      4  N   UNL A   1      30.319  25.107  24.569  1.00  0.00    -0.352 N 
ATOM      5  C   UNL A   1      30.619  24.375  25.675  1.00  0.00     0.251 C 
ATOM      6  O   UNL A   1      30.024  24.634  26.718  1.00  0.00    -0.270 OA
ATOM      7  H   UNL A   1      29.787  25.912  24.760  1.00  0.00     0.163 HD
BRANCH   5   8
ATOM      8  C   UNL A   1      31.701  23.356  25.688  1.00  0.00     0.067 C 
ATOM      9  C   UNL A   1      34.996  20.802  25.131  1.00  0.00    -0.002 A 
ATOM     10  C   UNL A   1      34.743  19.512  24.628  1.00  0.00     0.054 A 
ATOM     11  C   UNL A   1      33.904  21.639  25.418  1.00  0.00     0.131 A 
ATOM     12  C   UNL A   1      33.446  19.022  24.505  1.00  0.00     0.130 A 
ATOM     13  C   UNL A   1      32.600  21.165  25.265  1.00  0.00     0.021 A 
ATOM     14  O   UNL A   1      34.170  22.932  25.762  1.00  0.00    -0.475 OA
ATOM     15  C   UNL A   1      32.377  19.856  24.826  1.00  0.00     0.058 A 
ATOM     16  C   UNL A   1      31.470  22.063  25.434  1.00  0.00     0.025 C 
ATOM     17  C   UNL A   1      33.080  23.823  26.140  1.00  0.00     0.314 C 
BRANCH   9  18
ATOM     18  C   UNL A   1      36.431  21.256  25.306  1.00  0.00     0.039 C 
BRANCH  18  19
ATOM     19  C   UNL A   1      37.109  21.754  24.018  1.00  0.00     0.001 C 
ATOM     20  C   UNL A   1      36.651  23.129  23.544  1.00  0.00     0.004 C 
ENDBRANCH  18  19
ENDBRANCH   9  18
BRANCH  12  21
ATOM     21  O   UNL A   1      33.093  17.783  24.051  1.00  0.00    -0.406 OA
BRANCH  21  22
ATOM     22  C   UNL A   1      33.532  16.667  24.810  1.00  0.00     0.573 C 
ATOM     23  F   UNL A   1      34.846  16.434  24.611  1.00  0.00    -0.132 F 
ATOM     24  F   UNL A   1      33.298  16.846  26.127  1.00  0.00    -0.132 F 
ATOM     25  F   UNL A   1      32.847  15.575  24.407  1.00  0.00    -0.132 F 
ENDBRANCH  21  22
ENDBRANCH  12  21
BRANCH  17  26
ATOM     26  C   UNL A   1      33.497  25.258  25.735  1.00  0.00     0.429 C 
ATOM     27  F   UNL A   1      33.403  25.476  24.404  1.00  0.00    -0.167 F 
ATOM     28  F   UNL A   1      32.678  26.180  26.309  1.00  0.00    -0.167 F 
ATOM     29  F   UNL A   1      34.758  25.558  26.126  1.00  0.00    -0.167 F 
ENDBRANCH  17  26
ENDBRANCH   5   8
ENDBRANCH   3   4
ENDBRANCH   2   3
ENDBRANCH   1   2
BRANCH   1  30
ATOM     30  C   UNL A   1      31.858  28.660  23.197  1.00  0.00     0.002 C 
BRANCH  30  31
ATOM     31  C   UNL A   1      33.365  28.539  23.440  1.00  0.00     0.021 C 
BRANCH  31  32
ATOM     32  C   UNL A   1      33.806  28.948  24.841  1.00  0.00     0.116 C 
BRANCH  32  33
ATOM     33  N   UNL A   1      33.050  30.091  25.330  1.00  0.00    -0.352 N 
ATOM     34  C   UNL A   1      33.167  30.759  26.519  1.00  0.00     0.251 C 
ATOM     35  H   UNL A   1      32.355  30.431  24.721  1.00  0.00     0.163 HD
ATOM     36  O   UNL A   1      32.290  31.547  26.878  1.00  0.00    -0.269 OA
BRANCH  34  37
ATOM     37  C   UNL A   1      34.342  30.529  27.381  1.00  0.00     0.039 A 
ATOM     38  C   UNL A   1      34.524  29.272  27.963  1.00  0.00     0.014 A 
ATOM     39  C   UNL A   1      35.256  31.559  27.626  1.00  0.00     0.014 A 
ATOM     40  C   UNL A   1      35.652  29.034  28.749  1.00  0.00     0.010 A 
ATOM     41  C   UNL A   1      36.415  31.299  28.349  1.00  0.00     0.010 A 
ATOM     42  C   UNL A   1      36.621  30.035  28.924  1.00  0.00    -0.014 A 
BRANCH  42  43
ATOM     43  C   UNL A   1      37.855  29.781  29.711  1.00  0.00     0.031 A 
ATOM     44  C   UNL A   1      38.910  28.853  29.179  1.00  0.00     0.074 A 
ATOM     45  C   UNL A   1      37.994  30.338  30.928  1.00  0.00     0.049 A 
ATOM     46  N   UNL A   1      40.023  28.454  29.743  1.00  0.00    -0.248 NA
ATOM     47  C   UNL A   1      38.671  28.272  27.848  1.00  0.00     0.031 C 
ATOM     48  C   UNL A   1      37.017  31.220  31.571  1.00  0.00     0.029 A 
ATOM     49  N   UNL A   1      39.006  30.239  31.848  1.00  0.00    -0.354 N 
ATOM     50  C   UNL A   1      40.606  27.571  28.843  1.00  0.00     0.074 A 
ATOM     51  C   UNL A   1      39.699  27.447  27.723  1.00  0.00     0.031 C 
ATOM     52  C   UNL A   1      37.487  31.597  32.769  1.00  0.00     0.029 A 
ATOM     53  C   UNL A   1      38.778  30.955  32.998  1.00  0.00     0.049 A 
ATOM     54  H   UNL A   1      39.819  29.704  31.699  1.00  0.00     0.167 HD
ATOM     55  C   UNL A   1      41.801  26.941  28.933  1.00  0.00     0.037 A 
ATOM     56  C   UNL A   1      39.524  31.073  34.113  1.00  0.00     0.037 A 
ATOM     57  C   UNL A   1      42.710  27.086  30.040  1.00  0.00     0.049 A 
ATOM     58  C   UNL A   1      40.842  30.353  34.193  1.00  0.00     0.074 A 
ATOM     59  C   UNL A   1      43.971  26.540  30.199  1.00  0.00     0.029 A 
ATOM     60  N   UNL A   1      42.449  27.831  31.182  1.00  0.00    -0.354 N 
ATOM     61  N   UNL A   1      41.418  29.578  33.306  1.00  0.00    -0.248 NA
ATOM     62  C   UNL A   1      41.618  30.528  35.428  1.00  0.00     0.031 C 
ATOM     63  C   UNL A   1      44.453  26.911  31.458  1.00  0.00     0.029 A 
ATOM     64  C   UNL A   1      43.516  27.736  32.062  1.00  0.00     0.049 A 
ATOM     65  H   UNL A   1      41.629  28.349  31.343  1.00  0.00     0.167 HD
ATOM     66  C   UNL A   1      42.631  29.196  33.861  1.00  0.00     0.074 A 
ATOM     67  C   UNL A   1      42.717  29.839  35.156  1.00  0.00     0.031 C 
ATOM     68  C   UNL A   1      43.588  28.386  33.345  1.00  0.00     0.037 A 
BRANCH  55  69
ATOM     69  C   UNL A   1      42.198  26.037  27.801  1.00  0.00     0.064 A 
ATOM     70  C   UNL A   1      41.718  24.721  27.706  1.00  0.00     0.173 A 
ATOM     71  C   UNL A   1      43.041  26.502  26.781  1.00  0.00     0.173 A 
ATOM     72  F   UNL A   1      40.918  24.223  28.660  1.00  0.00    -0.203 F 
ATOM     73  C   UNL A   1      42.091  23.896  26.648  1.00  0.00     0.198 A 
ATOM     74  C   UNL A   1      43.386  25.684  25.707  1.00  0.00     0.198 A 
ATOM     75  F   UNL A   1      43.525  27.752  26.819  1.00  0.00    -0.203 F 
ATOM     76  F   UNL A   1      41.662  22.628  26.606  1.00  0.00    -0.200 F 
ATOM     77  C   UNL A   1      42.918  24.381  25.645  1.00  0.00     0.200 A 
ATOM     78  F   UNL A   1      44.175  26.159  24.732  1.00  0.00    -0.200 F 
ATOM     79  F   UNL A   1      43.270  23.588  24.624  1.00  0.00    -0.200 F 
ENDBRANCH  55  69
BRANCH  56  80
ATOM     80  C   UNL A   1      39.050  31.925  35.236  1.00  0.00     0.064 A 
ATOM     81  C   UNL A   1      39.328  33.299  35.265  1.00  0.00     0.173 A 
ATOM     82  C   UNL A   1      38.318  31.386  36.305  1.00  0.00     0.173 A 
ATOM     83  F   UNL A   1      40.040  33.858  34.276  1.00  0.00    -0.203 F 
ATOM     84  C   UNL A   1      38.911  34.096  36.328  1.00  0.00     0.198 A 
ATOM     85  C   UNL A   1      37.877  32.189  37.353  1.00  0.00     0.198 A 
ATOM     86  F   UNL A   1      38.021  30.078  36.323  1.00  0.00    -0.203 F 
ATOM     87  F   UNL A   1      39.232  35.397  36.353  1.00  0.00    -0.200 F 
ATOM     88  C   UNL A   1      38.182  33.542  37.369  1.00  0.00     0.200 A 
ATOM     89  F   UNL A   1      37.157  31.653  38.349  1.00  0.00    -0.200 F 
ATOM     90  F   UNL A   1      37.778  34.309  38.390  1.00  0.00    -0.200 F 
ENDBRANCH  56  80
BRANCH  68  91
ATOM     91  C   UNL A   1      44.826  28.173  34.169  1.00  0.00     0.064 A 
ATOM     92  C   UNL A   1      45.926  29.038  34.083  1.00  0.00     0.173 A 
ATOM     93  C   UNL A   1      44.893  27.112  35.085  1.00  0.00     0.173 A 
ATOM     94  F   UNL A   1      45.916  30.058  33.213  1.00  0.00    -0.203 F 
ATOM     95  C   UNL A   1      47.059  28.833  34.866  1.00  0.00     0.198 A 
ATOM     96  C   UNL A   1      46.014  26.929  35.889  1.00  0.00     0.198 A 
ATOM     97  F   UNL A   1      43.864  26.259  35.211  1.00  0.00    -0.203 F 
ATOM     98  F   UNL A   1      48.118  29.643  34.733  1.00  0.00    -0.200 F 
ATOM     99  C   UNL A   1      47.099  27.785  35.774  1.00  0.00     0.200 A 
ATOM    100  F   UNL A   1      46.046  25.925  36.775  1.00  0.00    -0.200 F 
ATOM    101  F   UNL A   1      48.187  27.595  36.532  1.00  0.00    -0.200 F 
ENDBRANCH  68  91
ENDBRANCH  42  43
ENDBRANCH  34  37
ENDBRANCH  32  33
ENDBRANCH  31  32
ENDBRANCH  30  31
ENDBRANCH   1  30
TORSDOF 18
ENDMDL
MODEL 2
REMARK VINA RESULT:     -11.8      2.123      3.654
REMARK SMILES CCCc1cc(OC(F)(F)F)cc2c1O[C@@H](C(F)(F)F)C(C(=O)NCCCCCCNC(=O)c1ccc(-c3c4nc(c(-c5c(F)c(F)c(F)c(F)c5F)c5ccc([nH]5)c(-c5c(F)c(F)c(F)c(F)c5F)c5nc(c(-c6c(F)c(F)c(F)c(F)c6F)c6ccc3[nH]6)C=C5)C=C4)cc1)=C2
REMARK SMILES IDX 27 1 26 2 25 3 24 4 22 5 23 6 21 8 4 9 5 10 14 11 6 12 13 13
REMARK SMILES IDX 15 14 12 15 97 16 16 17 3 18 2 19 1 20 7 21 8 22 9 23 10 24
REMARK SMILES IDX 11 25 17 26 18 27 19 28 20 29 28 30 29 31 30 32 31 33 32 34
REMARK SMILES IDX 33 36 34 37 35 38 96 39 36 40 95 41 37 42 38 43 39 44 89 45
REMARK SMILES IDX 40 46 94 47 88 48 90 49 41 50 93 51 87 52 86 53 42 55 74 56
REMARK SMILES IDX 54 57 73 58 55 59 58 60 72 61 91 62 56 63 57 64 71 66 92 67
REMARK SMILES IDX 59 68 43 69 44 70 52 71 45 72 46 73 50 74 53 75 47 76 48 77
REMARK SMILES IDX 51 78 49 79 75 80 76 81 84 82 77 83 78 84 82 85 85 86 79 87
REMARK SMILES IDX 80 88 83 89 81 90 60 91 61 92 69 93 62 94 63 95 67 96 70 97
REMARK SMILES IDX 64 98 65 99 68 100 66 101
REMARK H PARENT 24 7 31 35 90 54 58 65
REMARK Flexibility Score: inf
ROOT
ATOM      1  C   UNL A   1      32.324  29.992  27.240  1.00  0.00     0.002 C 
ENDROOT
BRANCH   1   2
ATOM      2  C   UNL A   1      33.844  29.979  27.028  1.00  0.00     0.021 C 
BRANCH   2   3
ATOM      3  C   UNL A   1      34.327  28.764  26.223  1.00  0.00     0.116 C 
BRANCH   3   4
ATOM      4  N   UNL A   1      33.938  28.926  24.831  1.00  0.00    -0.352 N 
ATOM      5  C   UNL A   1      33.663  28.035  23.840  1.00  0.00     0.251 C 
ATOM      6  O   UNL A   1      33.587  28.457  22.689  1.00  0.00    -0.270 OA
ATOM      7  H   UNL A   1      33.858  29.865  24.551  1.00  0.00     0.163 HD
BRANCH   5   8
ATOM      8  C   UNL A   1      33.354  26.607  24.114  1.00  0.00     0.067 C 
ATOM      9  C   UNL A   1      32.245  22.804  25.528  1.00  0.00    -0.002 A 
ATOM     10  C   UNL A   1      33.275  21.935  25.936  1.00  0.00     0.054 A 
ATOM     11  C   UNL A   1      32.594  24.042  24.961  1.00  0.00     0.131 A 
ATOM     12  C   UNL A   1      34.614  22.234  25.700  1.00  0.00     0.130 A 
ATOM     13  C   UNL A   1      33.936  24.362  24.752  1.00  0.00     0.021 A 
ATOM     14  O   UNL A   1      31.589  24.929  24.709  1.00  0.00    -0.475 OA
ATOM     15  C   UNL A   1      34.938  23.451  25.106  1.00  0.00     0.058 A 
ATOM     16  C   UNL A   1      34.310  25.688  24.289  1.00  0.00     0.025 C 
ATOM     17  C   UNL A   1      31.886  26.198  24.056  1.00  0.00     0.314 C 
BRANCH   9  18
ATOM     18  C   UNL A   1      30.804  22.393  25.751  1.00  0.00     0.039 C 
BRANCH  18  19
ATOM     19  C   UNL A   1      30.168  22.953  27.035  1.00  0.00     0.001 C 
ATOM     20  C   UNL A   1      28.797  22.379  27.373  1.00  0.00     0.004 C 
ENDBRANCH  18  19
ENDBRANCH   9  18
BRANCH  12  21
ATOM     21  O   UNL A   1      35.684  21.454  26.033  1.00  0.00    -0.406 OA
BRANCH  21  22
ATOM     22  C   UNL A   1      36.277  20.691  24.993  1.00  0.00     0.573 C 
ATOM     23  F   UNL A   1      35.486  19.656  24.641  1.00  0.00    -0.132 F 
ATOM     24  F   UNL A   1      36.535  21.454  23.911  1.00  0.00    -0.132 F 
ATOM     25  F   UNL A   1      37.448  20.188  25.442  1.00  0.00    -0.132 F 
ENDBRANCH  21  22
ENDBRANCH  12  21
BRANCH  17  26
ATOM     26  C   UNL A   1      30.853  27.231  24.568  1.00  0.00     0.429 C 
ATOM     27  F   UNL A   1      30.859  28.378  23.853  1.00  0.00    -0.167 F 
ATOM     28  F   UNL A   1      29.587  26.745  24.457  1.00  0.00    -0.167 F 
ATOM     29  F   UNL A   1      31.038  27.544  25.872  1.00  0.00    -0.167 F 
ENDBRANCH  17  26
ENDBRANCH   5   8
ENDBRANCH   3   4
ENDBRANCH   2   3
ENDBRANCH   1   2
BRANCH   1  30
ATOM     30  C   UNL A   1      31.551  30.885  26.262  1.00  0.00     0.002 C 
BRANCH  30  31
ATOM     31  C   UNL A   1      31.382  32.338  26.715  1.00  0.00     0.021 C 
BRANCH  31  32
ATOM     32  C   UNL A   1      32.695  33.086  26.920  1.00  0.00     0.116 C 
BRANCH  32  33
ATOM     33  N   UNL A   1      32.492  34.342  27.626  1.00  0.00    -0.352 N 
ATOM     34  C   UNL A   1      33.058  34.777  28.794  1.00  0.00     0.251 C 
ATOM     35  H   UNL A   1      31.858  34.967  27.205  1.00  0.00     0.163 HD
ATOM     36  O   UNL A   1      32.596  35.758  29.381  1.00  0.00    -0.269 OA
BRANCH  34  37
ATOM     37  C   UNL A   1      34.219  34.064  29.361  1.00  0.00     0.039 A 
ATOM     38  C   UNL A   1      35.507  34.517  29.065  1.00  0.00     0.014 A 
ATOM     39  C   UNL A   1      34.036  32.940  30.173  1.00  0.00     0.014 A 
ATOM     40  C   UNL A   1      36.610  33.872  29.626  1.00  0.00     0.010 A 
ATOM     41  C   UNL A   1      35.131  32.345  30.789  1.00  0.00     0.010 A 
ATOM     42  C   UNL A   1      36.430  32.800  30.516  1.00  0.00    -0.014 A 
BRANCH  42  43
ATOM     43  C   UNL A   1      37.589  32.139  31.167  1.00  0.00     0.031 A 
ATOM     44  C   UNL A   1      38.350  31.065  30.441  1.00  0.00     0.074 A 
ATOM     45  C   UNL A   1      37.916  32.464  32.431  1.00  0.00     0.049 A 
ATOM     46  N   UNL A   1      39.347  30.327  30.862  1.00  0.00    -0.248 NA
ATOM     47  C   UNL A   1      37.915  30.758  29.068  1.00  0.00     0.031 C 
ATOM     48  C   UNL A   1      37.224  33.458  33.254  1.00  0.00     0.029 A 
ATOM     49  N   UNL A   1      38.907  31.987  33.251  1.00  0.00    -0.354 N 
ATOM     50  C   UNL A   1      39.647  29.467  29.814  1.00  0.00     0.074 A 
ATOM     51  C   UNL A   1      38.693  29.732  28.760  1.00  0.00     0.031 C 
ATOM     52  C   UNL A   1      37.825  33.531  34.452  1.00  0.00     0.029 A 
ATOM     53  C   UNL A   1      38.918  32.565  34.497  1.00  0.00     0.049 A 
ATOM     54  H   UNL A   1      39.550  31.295  32.972  1.00  0.00     0.167 HD
ATOM     55  C   UNL A   1      40.645  28.554  29.731  1.00  0.00     0.037 A 
ATOM     56  C   UNL A   1      39.715  32.334  35.558  1.00  0.00     0.037 A 
ATOM     57  C   UNL A   1      41.605  28.310  30.775  1.00  0.00     0.049 A 
ATOM     58  C   UNL A   1      40.808  31.307  35.443  1.00  0.00     0.074 A 
ATOM     59  C   UNL A   1      42.691  27.453  30.766  1.00  0.00     0.029 A 
ATOM     60  N   UNL A   1      41.592  28.925  32.020  1.00  0.00    -0.354 N 
ATOM     61  N   UNL A   1      41.129  30.549  34.422  1.00  0.00    -0.248 NA
ATOM     62  C   UNL A   1      41.654  31.105  36.628  1.00  0.00     0.031 C 
ATOM     63  C   UNL A   1      43.304  27.509  32.021  1.00  0.00     0.029 A 
ATOM     64  C   UNL A   1      42.635  28.444  32.796  1.00  0.00     0.049 A 
ATOM     65  H   UNL A   1      40.938  29.601  32.308  1.00  0.00     0.167 HD
ATOM     66  C   UNL A   1      42.227  29.804  34.829  1.00  0.00     0.074 A 
ATOM     67  C   UNL A   1      42.528  30.213  36.186  1.00  0.00     0.031 C 
ATOM     68  C   UNL A   1      42.923  28.865  34.143  1.00  0.00     0.037 A 
BRANCH  55  69
ATOM     69  C   UNL A   1      40.750  27.752  28.466  1.00  0.00     0.064 A 
ATOM     70  C   UNL A   1      41.530  28.185  27.382  1.00  0.00     0.173 A 
ATOM     71  C   UNL A   1      40.094  26.518  28.348  1.00  0.00     0.173 A 
ATOM     72  F   UNL A   1      42.171  29.362  27.438  1.00  0.00    -0.203 F 
ATOM     73  C   UNL A   1      41.623  27.427  26.217  1.00  0.00     0.198 A 
ATOM     74  C   UNL A   1      40.214  25.748  27.194  1.00  0.00     0.198 A 
ATOM     75  F   UNL A   1      39.339  26.054  29.355  1.00  0.00    -0.203 F 
ATOM     76  F   UNL A   1      42.331  27.886  25.177  1.00  0.00    -0.200 F 
ATOM     77  C   UNL A   1      40.971  26.206  26.127  1.00  0.00     0.200 A 
ATOM     78  F   UNL A   1      39.595  24.562  27.114  1.00  0.00    -0.200 F 
ATOM     79  F   UNL A   1      41.068  25.475  25.008  1.00  0.00    -0.200 F 
ENDBRANCH  55  69
BRANCH  56  80
ATOM     80  C   UNL A   1      39.521  33.105  36.813  1.00  0.00     0.064 A 
ATOM     81  C   UNL A   1      40.270  34.263  37.070  1.00  0.00     0.173 A 
ATOM     82  C   UNL A   1      38.592  32.702  37.784  1.00  0.00     0.173 A 
ATOM     83  F   UNL A   1      41.184  34.678  36.182  1.00  0.00    -0.203 F 
ATOM     84  C   UNL A   1      40.113  34.974  38.258  1.00  0.00     0.198 A 
ATOM     85  C   UNL A   1      38.416  33.430  38.958  1.00  0.00     0.198 A 
ATOM     86  F   UNL A   1      37.846  31.606  37.585  1.00  0.00    -0.203 F 
ATOM     87  F   UNL A   1      40.877  36.049  38.498  1.00  0.00    -0.200 F 
ATOM     88  C   UNL A   1      39.183  34.560  39.198  1.00  0.00     0.200 A 
ATOM     89  F   UNL A   1      37.503  33.037  39.857  1.00  0.00    -0.200 F 
ATOM     90  F   UNL A   1      39.029  35.246  40.339  1.00  0.00    -0.200 F 
ENDBRANCH  56  80
BRANCH  68  91
ATOM     91  C   UNL A   1      44.099  28.237  34.835  1.00  0.00     0.064 A 
ATOM     92  C   UNL A   1      45.375  28.816  34.792  1.00  0.00     0.173 A 
ATOM     93  C   UNL A   1      43.934  27.062  35.585  1.00  0.00     0.173 A 
ATOM     94  F   UNL A   1      45.587  29.931  34.077  1.00  0.00    -0.203 F 
ATOM     95  C   UNL A   1      46.450  28.227  35.453  1.00  0.00     0.198 A 
ATOM     96  C   UNL A   1      45.004  26.494  36.271  1.00  0.00     0.198 A 
ATOM     97  F   UNL A   1      42.732  26.472  35.665  1.00  0.00    -0.203 F 
ATOM     98  F   UNL A   1      47.671  28.771  35.357  1.00  0.00    -0.200 F 
ATOM     99  C   UNL A   1      46.262  27.073  36.198  1.00  0.00     0.200 A 
ATOM    100  F   UNL A   1      44.818  25.387  37.002  1.00  0.00    -0.200 F 
ATOM    101  F   UNL A   1      47.296  26.513  36.840  1.00  0.00    -0.200 F 
ENDBRANCH  68  91
ENDBRANCH  42  43
ENDBRANCH  34  37
ENDBRANCH  32  33
ENDBRANCH  31  32
ENDBRANCH  30  31
ENDBRANCH   1  30
TORSDOF 18
ENDMDL
MODEL 3
REMARK VINA RESULT:     -11.8      4.776     10.355
REMARK SMILES CCCc1cc(OC(F)(F)F)cc2c1O[C@@H](C(F)(F)F)C(C(=O)NCCCCCCNC(=O)c1ccc(-c3c4nc(c(-c5c(F)c(F)c(F)c(F)c5F)c5ccc([nH]5)c(-c5c(F)c(F)c(F)c(F)c5F)c5nc(c(-c6c(F)c(F)c(F)c(F)c6F)c6ccc3[nH]6)C=C5)C=C4)cc1)=C2
REMARK SMILES IDX 27 1 26 2 25 3 24 4 22 5 23 6 21 8 4 9 5 10 14 11 6 12 13 13
REMARK SMILES IDX 15 14 12 15 97 16 16 17 3 18 2 19 1 20 7 21 8 22 9 23 10 24
REMARK SMILES IDX 11 25 17 26 18 27 19 28 20 29 28 30 29 31 30 32 31 33 32 34
REMARK SMILES IDX 33 36 34 37 35 38 96 39 36 40 95 41 37 42 38 43 39 44 89 45
REMARK SMILES IDX 40 46 94 47 88 48 90 49 41 50 93 51 87 52 86 53 42 55 74 56
REMARK SMILES IDX 54 57 73 58 55 59 58 60 72 61 91 62 56 63 57 64 71 66 92 67
REMARK SMILES IDX 59 68 43 69 44 70 52 71 45 72 46 73 50 74 53 75 47 76 48 77
REMARK SMILES IDX 51 78 49 79 75 80 76 81 84 82 77 83 78 84 82 85 85 86 79 87
REMARK SMILES IDX 80 88 83 89 81 90 60 91 61 92 69 93 62 94 63 95 67 96 70 97
REMARK SMILES IDX 64 98 65 99 68 100 66 101
REMARK H PARENT 24 7 31 35 90 54 58 65
REMARK Flexibility Score: inf
ROOT
ATOM      1  C   UNL A   1      37.309  21.860  24.810  1.00  0.00     0.002 C 
ENDROOT
BRANCH   1   2
ATOM      2  C   UNL A   1      36.864  22.357  23.427  1.00  0.00     0.021 C 
BRANCH   2   3
ATOM      3  C   UNL A   1      35.797  23.458  23.501  1.00  0.00     0.116 C 
BRANCH   3   4
ATOM      4  N   UNL A   1      34.547  22.952  22.958  1.00  0.00    -0.352 N 
ATOM      5  C   UNL A   1      33.258  23.376  23.059  1.00  0.00     0.251 C 
ATOM      6  O   UNL A   1      32.369  22.616  22.685  1.00  0.00    -0.270 OA
ATOM      7  H   UNL A   1      34.655  22.143  22.409  1.00  0.00     0.163 HD
BRANCH   5   8
ATOM      8  C   UNL A   1      32.902  24.748  23.505  1.00  0.00     0.067 C 
ATOM      9  C   UNL A   1      31.353  28.312  25.115  1.00  0.00    -0.002 A 
ATOM     10  C   UNL A   1      30.638  29.161  24.249  1.00  0.00     0.054 A 
ATOM     11  C   UNL A   1      31.963  27.165  24.580  1.00  0.00     0.131 A 
ATOM     12  C   UNL A   1      30.610  28.941  22.874  1.00  0.00     0.130 A 
ATOM     13  C   UNL A   1      31.911  26.919  23.207  1.00  0.00     0.021 A 
ATOM     14  O   UNL A   1      32.523  26.278  25.454  1.00  0.00    -0.475 OA
ATOM     15  C   UNL A   1      31.250  27.816  22.359  1.00  0.00     0.058 A 
ATOM     16  C   UNL A   1      32.424  25.673  22.664  1.00  0.00     0.025 C 
ATOM     17  C   UNL A   1      33.231  25.109  24.949  1.00  0.00     0.314 C 
BRANCH   9  18
ATOM     18  C   UNL A   1      31.403  28.641  26.593  1.00  0.00     0.039 C 
BRANCH  18  19
ATOM     19  C   UNL A   1      32.374  29.774  26.967  1.00  0.00     0.001 C 
ATOM     20  C   UNL A   1      33.769  29.646  26.366  1.00  0.00     0.004 C 
ENDBRANCH  18  19
ENDBRANCH   9  18
BRANCH  12  21
ATOM     21  O   UNL A   1      29.969  29.712  21.949  1.00  0.00    -0.406 OA
BRANCH  21  22
ATOM     22  C   UNL A   1      28.565  29.868  22.097  1.00  0.00     0.573 C 
ATOM     23  F   UNL A   1      27.991  28.716  22.501  1.00  0.00    -0.132 F 
ATOM     24  F   UNL A   1      28.271  30.853  22.971  1.00  0.00    -0.132 F 
ATOM     25  F   UNL A   1      28.040  30.200  20.897  1.00  0.00    -0.132 F 
ENDBRANCH  21  22
ENDBRANCH  12  21
BRANCH  17  26
ATOM     26  C   UNL A   1      33.073  23.986  26.002  1.00  0.00     0.429 C 
ATOM     27  F   UNL A   1      34.243  23.380  26.305  1.00  0.00    -0.167 F 
ATOM     28  F   UNL A   1      32.614  24.489  27.181  1.00  0.00    -0.167 F 
ATOM     29  F   UNL A   1      32.191  23.035  25.614  1.00  0.00    -0.167 F 
ENDBRANCH  17  26
ENDBRANCH   5   8
ENDBRANCH   3   4
ENDBRANCH   2   3
ENDBRANCH   1   2
BRANCH   1  30
ATOM     30  C   UNL A   1      37.099  20.360  25.048  1.00  0.00     0.002 C 
BRANCH  30  31
ATOM     31  C   UNL A   1      38.376  19.517  24.997  1.00  0.00     0.021 C 
BRANCH  31  32
ATOM     32  C   UNL A   1      39.437  19.928  26.011  1.00  0.00     0.116 C 
BRANCH  32  33
ATOM     33  N   UNL A   1      40.519  18.957  26.079  1.00  0.00    -0.352 N 
ATOM     34  C   UNL A   1      41.870  19.172  26.120  1.00  0.00     0.251 C 
ATOM     35  H   UNL A   1      40.240  18.012  26.098  1.00  0.00     0.163 HD
ATOM     36  O   UNL A   1      42.654  18.239  25.930  1.00  0.00    -0.269 OA
BRANCH  34  37
ATOM     37  C   UNL A   1      42.394  20.526  26.382  1.00  0.00     0.039 A 
ATOM     38  C   UNL A   1      42.799  21.319  25.305  1.00  0.00     0.014 A 
ATOM     39  C   UNL A   1      42.499  21.007  27.690  1.00  0.00     0.014 A 
ATOM     40  C   UNL A   1      43.261  22.616  25.540  1.00  0.00     0.010 A 
ATOM     41  C   UNL A   1      42.889  22.322  27.916  1.00  0.00     0.010 A 
ATOM     42  C   UNL A   1      43.281  23.137  26.843  1.00  0.00    -0.014 A 
BRANCH  42  43
ATOM     43  C   UNL A   1      43.716  24.533  27.104  1.00  0.00     0.031 A 
ATOM     44  C   UNL A   1      42.729  25.547  27.611  1.00  0.00     0.074 A 
ATOM     45  C   UNL A   1      44.981  24.899  26.827  1.00  0.00     0.049 A 
ATOM     46  N   UNL A   1      42.898  26.826  27.838  1.00  0.00    -0.248 NA
ATOM     47  C   UNL A   1      41.362  25.068  27.871  1.00  0.00     0.031 C 
ATOM     48  C   UNL A   1      46.017  24.015  26.289  1.00  0.00     0.029 A 
ATOM     49  N   UNL A   1      45.610  26.112  26.950  1.00  0.00    -0.354 N 
ATOM     50  C   UNL A   1      41.662  27.302  28.254  1.00  0.00     0.074 A 
ATOM     51  C   UNL A   1      40.738  26.191  28.194  1.00  0.00     0.031 C 
ATOM     52  C   UNL A   1      47.157  24.710  26.148  1.00  0.00     0.029 A 
ATOM     53  C   UNL A   1      46.923  26.094  26.548  1.00  0.00     0.049 A 
ATOM     54  H   UNL A   1      45.162  26.918  27.293  1.00  0.00     0.167 HD
ATOM     55  C   UNL A   1      41.334  28.548  28.671  1.00  0.00     0.037 A 
ATOM     56  C   UNL A   1      47.834  27.086  26.501  1.00  0.00     0.037 A 
ATOM     57  C   UNL A   1      42.263  29.644  28.751  1.00  0.00     0.049 A 
ATOM     58  C   UNL A   1      47.440  28.463  26.959  1.00  0.00     0.074 A 
ATOM     59  C   UNL A   1      42.046  30.928  29.218  1.00  0.00     0.029 A 
ATOM     60  N   UNL A   1      43.590  29.585  28.346  1.00  0.00    -0.354 N 
ATOM     61  N   UNL A   1      46.287  28.886  27.419  1.00  0.00    -0.248 NA
ATOM     62  C   UNL A   1      48.477  29.503  26.897  1.00  0.00     0.031 C 
ATOM     63  C   UNL A   1      43.225  31.661  29.049  1.00  0.00     0.029 A 
ATOM     64  C   UNL A   1      44.195  30.819  28.529  1.00  0.00     0.049 A 
ATOM     65  H   UNL A   1      44.034  28.786  27.984  1.00  0.00     0.167 HD
ATOM     66  C   UNL A   1      46.466  30.227  27.726  1.00  0.00     0.074 A 
ATOM     67  C   UNL A   1      47.845  30.545  27.416  1.00  0.00     0.031 C 
ATOM     68  C   UNL A   1      45.570  31.117  28.220  1.00  0.00     0.037 A 
BRANCH  55  69
ATOM     69  C   UNL A   1      39.909  28.793  29.078  1.00  0.00     0.064 A 
ATOM     70  C   UNL A   1      38.948  29.243  28.160  1.00  0.00     0.173 A 
ATOM     71  C   UNL A   1      39.490  28.541  30.393  1.00  0.00     0.173 A 
ATOM     72  F   UNL A   1      39.296  29.510  26.892  1.00  0.00    -0.203 F 
ATOM     73  C   UNL A   1      37.629  29.461  28.551  1.00  0.00     0.198 A 
ATOM     74  C   UNL A   1      38.163  28.729  30.773  1.00  0.00     0.198 A 
ATOM     75  F   UNL A   1      40.366  28.105  31.311  1.00  0.00    -0.203 F 
ATOM     76  F   UNL A   1      36.741  29.941  27.670  1.00  0.00    -0.200 F 
ATOM     77  C   UNL A   1      37.236  29.196  29.855  1.00  0.00     0.200 A 
ATOM     78  F   UNL A   1      37.783  28.460  32.030  1.00  0.00    -0.200 F 
ATOM     79  F   UNL A   1      35.965  29.400  30.227  1.00  0.00    -0.200 F 
ENDBRANCH  55  69
BRANCH  56  80
ATOM     80  C   UNL A   1      49.212  26.806  26.021  1.00  0.00     0.064 A 
ATOM     81  C   UNL A   1      50.212  26.382  26.908  1.00  0.00     0.173 A 
ATOM     82  C   UNL A   1      49.563  26.961  24.671  1.00  0.00     0.173 A 
ATOM     83  F   UNL A   1      49.931  26.237  28.211  1.00  0.00    -0.203 F 
ATOM     84  C   UNL A   1      51.512  26.145  26.469  1.00  0.00     0.198 A 
ATOM     85  C   UNL A   1      50.856  26.696  24.228  1.00  0.00     0.198 A 
ATOM     86  F   UNL A   1      48.643  27.359  23.780  1.00  0.00    -0.203 F 
ATOM     87  F   UNL A   1      52.459  25.788  27.347  1.00  0.00    -0.200 F 
ATOM     88  C   UNL A   1      51.832  26.298  25.129  1.00  0.00     0.200 A 
ATOM     89  F   UNL A   1      51.157  26.828  22.928  1.00  0.00    -0.200 F 
ATOM     90  F   UNL A   1      53.083  26.067  24.705  1.00  0.00    -0.200 F 
ENDBRANCH  56  80
BRANCH  68  91
ATOM     91  C   UNL A   1      46.060  32.512  28.485  1.00  0.00     0.064 A 
ATOM     92  C   UNL A   1      45.968  33.521  27.515  1.00  0.00     0.173 A 
ATOM     93  C   UNL A   1      46.589  32.851  29.739  1.00  0.00     0.173 A 
ATOM     94  F   UNL A   1      45.483  33.244  26.296  1.00  0.00    -0.203 F 
ATOM     95  C   UNL A   1      46.413  34.813  27.784  1.00  0.00     0.198 A 
ATOM     96  C   UNL A   1      47.003  34.151  30.015  1.00  0.00     0.198 A 
ATOM     97  F   UNL A   1      46.692  31.924  30.704  1.00  0.00    -0.203 F 
ATOM     98  F   UNL A   1      46.362  35.749  26.827  1.00  0.00    -0.200 F 
ATOM     99  C   UNL A   1      46.922  35.128  29.035  1.00  0.00     0.200 A 
ATOM    100  F   UNL A   1      47.481  34.458  31.228  1.00  0.00    -0.200 F 
ATOM    101  F   UNL A   1      47.342  36.374  29.293  1.00  0.00    -0.200 F 
ENDBRANCH  68  91
ENDBRANCH  42  43
ENDBRANCH  34  37
ENDBRANCH  32  33
ENDBRANCH  31  32
ENDBRANCH  30  31
ENDBRANCH   1  30
TORSDOF 18
ENDMDL
