MODEL 1
REMARK VINA RESULT:     -13.0      0.000      0.000
REMARK SMILES COc1ccc(Cl)c2c1N[C@@H](c1ccc(C(=O)NCCCCCCNC(=O)c3ccc(-c4c5nc(c(-c6c(F)c(F)c(F)c(F)c6F)c6ccc([nH]6)c(-c6c(F)c(F)c(F)c(F)c6F)c6nc(c(-c7c(F)c(F)c(F)c(F)c7F)c7ccc4[nH]7)C=C6)C=C5)cc3)cc1)[C@@H]1CC=C[C@H]21
REMARK SMILES IDX 21 1 20 2 19 3 18 4 16 5 17 6 15 8 12 9 13 10 92 11 14 12
REMARK SMILES IDX 91 13 11 14 3 15 4 16 9 17 5 18 8 19 10 20 6 21 97 22 7 24
REMARK SMILES IDX 93 25 96 26 94 27 95 28 2 29 1 30 22 31 23 32 24 33 25 34
REMARK SMILES IDX 26 35 27 37 28 38 29 39 90 40 30 41 89 42 31 43 32 44 33 45
REMARK SMILES IDX 83 46 34 47 88 48 82 49 84 50 35 51 87 52 81 53 80 54 36 56
REMARK SMILES IDX 68 57 48 58 67 59 49 60 52 61 66 62 85 63 50 64 51 65 65 67
REMARK SMILES IDX 86 68 53 69 37 70 38 71 46 72 39 73 40 74 44 75 47 76 41 77
REMARK SMILES IDX 42 78 45 79 43 80 69 81 70 82 78 83 71 84 72 85 76 86 79 87
REMARK SMILES IDX 73 88 74 89 77 90 75 91 54 92 55 93 63 94 56 95 57 96 61 97
REMARK SMILES IDX 64 98 58 99 59 100 62 101 60 102
REMARK H PARENT 18 7 10 23 25 36 84 55 52 66
REMARK Flexibility Score: inf
ROOT
ATOM      1  C   UNL A   1      34.648  33.038  28.934  1.00  0.00     0.002 C 
ENDROOT
BRANCH   1   2
ATOM      2  C   UNL A   1      35.525  32.142  28.050  1.00  0.00     0.021 C 
BRANCH   2   3
ATOM      3  C   UNL A   1      34.827  30.847  27.627  1.00  0.00     0.116 C 
BRANCH   3   4
ATOM      4  N   UNL A   1      33.499  31.148  27.137  1.00  0.00    -0.352 N 
ATOM      5  C   UNL A   1      32.571  30.393  26.469  1.00  0.00     0.251 C 
ATOM      6  O   UNL A   1      31.524  30.947  26.134  1.00  0.00    -0.269 OA
ATOM      7  H   UNL A   1      33.207  32.070  27.319  1.00  0.00     0.163 HD
BRANCH   5   8
ATOM      8  C   UNL A   1      32.739  28.936  26.207  1.00  0.00     0.039 A 
ATOM      9  C   UNL A   1      33.030  26.121  26.004  1.00  0.00    -0.025 A 
ATOM     10  C   UNL A   1      32.096  26.687  26.883  1.00  0.00     0.006 A 
ATOM     11  C   UNL A   1      33.763  26.990  25.180  1.00  0.00     0.006 A 
ATOM     12  C   UNL A   1      31.939  28.073  26.967  1.00  0.00     0.014 A 
ATOM     13  C   UNL A   1      33.614  28.380  25.274  1.00  0.00     0.014 A 
BRANCH   9  14
ATOM     14  C   UNL A   1      33.273  24.617  25.916  1.00  0.00     0.114 C 
ATOM     15  C   UNL A   1      36.498  22.755  25.672  1.00  0.00     0.142 A 
ATOM     16  C   UNL A   1      36.981  21.470  25.435  1.00  0.00     0.050 A 
ATOM     17  C   UNL A   1      35.136  23.066  25.481  1.00  0.00     0.083 A 
ATOM     18  C   UNL A   1      36.105  20.467  25.033  1.00  0.00     0.025 A 
ATOM     19  C   UNL A   1      34.245  22.052  25.071  1.00  0.00     0.005 A 
ATOM     20  N   UNL A   1      34.679  24.359  25.677  1.00  0.00    -0.375 N 
ATOM     21  C   UNL A   1      34.750  20.754  24.849  1.00  0.00     0.047 A 
ATOM     22  C   UNL A   1      32.803  22.402  24.780  1.00  0.00     0.051 C 
ATOM     23  H   UNL A   1      35.315  25.109  25.654  1.00  0.00     0.161 HD
ATOM     24  Cl  UNL A   1      33.748  19.459  24.287  1.00  0.00    -0.084 Cl
ATOM     25  C   UNL A   1      32.454  23.915  24.809  1.00  0.00     0.031 C 
ATOM     26  C   UNL A   1      31.794  21.852  25.760  1.00  0.00    -0.023 C 
ATOM     27  C   UNL A   1      30.936  23.909  25.066  1.00  0.00     0.034 C 
ATOM     28  C   UNL A   1      30.755  22.683  25.902  1.00  0.00    -0.030 C 
BRANCH  15  29
ATOM     29  O   UNL A   1      37.435  23.706  26.000  1.00  0.00    -0.495 OA
ATOM     30  C   UNL A   1      38.703  23.143  26.338  1.00  0.00     0.278 C 
ENDBRANCH  15  29
ENDBRANCH   9  14
ENDBRANCH   5   8
ENDBRANCH   3   4
ENDBRANCH   2   3
ENDBRANCH   1   2
BRANCH   1  31
ATOM     31  C   UNL A   1      34.525  34.490  28.452  1.00  0.00     0.002 C 
BRANCH  31  32
ATOM     32  C   UNL A   1      33.247  35.201  28.902  1.00  0.00     0.021 C 
BRANCH  32  33
ATOM     33  C   UNL A   1      33.506  36.417  29.783  1.00  0.00     0.116 C 
BRANCH  33  34
ATOM     34  N   UNL A   1      32.518  36.512  30.848  1.00  0.00    -0.352 N 
ATOM     35  C   UNL A   1      32.453  35.790  32.013  1.00  0.00     0.251 C 
ATOM     36  H   UNL A   1      31.808  37.179  30.715  1.00  0.00     0.163 HD
ATOM     37  O   UNL A   1      31.441  35.776  32.696  1.00  0.00    -0.269 OA
BRANCH  35  38
ATOM     38  C   UNL A   1      33.644  35.026  32.429  1.00  0.00     0.039 A 
ATOM     39  C   UNL A   1      33.490  33.731  32.928  1.00  0.00     0.014 A 
ATOM     40  C   UNL A   1      34.911  35.604  32.305  1.00  0.00     0.014 A 
ATOM     41  C   UNL A   1      34.624  32.991  33.267  1.00  0.00     0.010 A 
ATOM     42  C   UNL A   1      36.039  34.849  32.592  1.00  0.00     0.010 A 
ATOM     43  C   UNL A   1      35.903  33.542  33.086  1.00  0.00    -0.014 A 
BRANCH  43  44
ATOM     44  C   UNL A   1      37.124  32.793  33.453  1.00  0.00     0.031 A 
ATOM     45  C   UNL A   1      37.823  33.120  34.740  1.00  0.00     0.074 A 
ATOM     46  C   UNL A   1      37.631  31.879  32.607  1.00  0.00     0.049 A 
ATOM     47  N   UNL A   1      38.957  32.664  35.204  1.00  0.00    -0.248 NA
ATOM     48  C   UNL A   1      37.168  34.108  35.611  1.00  0.00     0.031 C 
ATOM     49  C   UNL A   1      37.040  31.492  31.327  1.00  0.00     0.029 A 
ATOM     50  N   UNL A   1      38.771  31.120  32.693  1.00  0.00    -0.354 N 
ATOM     51  C   UNL A   1      39.150  33.307  36.418  1.00  0.00     0.074 A 
ATOM     52  C   UNL A   1      38.047  34.227  36.595  1.00  0.00     0.031 C 
ATOM     53  C   UNL A   1      37.816  30.560  30.751  1.00  0.00     0.029 A 
ATOM     54  C   UNL A   1      38.976  30.311  31.604  1.00  0.00     0.049 A 
ATOM     55  H   UNL A   1      39.383  31.152  33.464  1.00  0.00     0.167 HD
ATOM     56  C   UNL A   1      40.146  33.125  37.316  1.00  0.00     0.037 A 
ATOM     57  C   UNL A   1      39.991  29.471  31.326  1.00  0.00     0.037 A 
ATOM     58  C   UNL A   1      41.236  32.205  37.134  1.00  0.00     0.049 A 
ATOM     59  C   UNL A   1      41.111  29.324  32.321  1.00  0.00     0.074 A 
ATOM     60  C   UNL A   1      42.288  31.936  37.990  1.00  0.00     0.029 A 
ATOM     61  N   UNL A   1      41.412  31.401  36.016  1.00  0.00    -0.354 N 
ATOM     62  N   UNL A   1      41.271  29.913  33.481  1.00  0.00    -0.248 NA
ATOM     63  C   UNL A   1      42.190  28.389  31.970  1.00  0.00     0.031 C 
ATOM     64  C   UNL A   1      43.126  31.003  37.371  1.00  0.00     0.029 A 
ATOM     65  C   UNL A   1      42.564  30.646  36.156  1.00  0.00     0.049 A 
ATOM     66  H   UNL A   1      40.807  31.372  35.240  1.00  0.00     0.167 HD
ATOM     67  C   UNL A   1      42.444  29.395  34.014  1.00  0.00     0.074 A 
ATOM     68  C   UNL A   1      42.950  28.436  33.054  1.00  0.00     0.031 C 
ATOM     69  C   UNL A   1      43.046  29.685  35.195  1.00  0.00     0.037 A 
BRANCH  56  70
ATOM     70  C   UNL A   1      40.097  33.927  38.582  1.00  0.00     0.064 A 
ATOM     71  C   UNL A   1      40.766  35.156  38.695  1.00  0.00     0.173 A 
ATOM     72  C   UNL A   1      39.325  33.498  39.673  1.00  0.00     0.173 A 
ATOM     73  F   UNL A   1      41.530  35.603  37.688  1.00  0.00    -0.203 F 
ATOM     74  C   UNL A   1      40.674  35.918  39.857  1.00  0.00     0.198 A 
ATOM     75  C   UNL A   1      39.211  34.276  40.820  1.00  0.00     0.198 A 
ATOM     76  F   UNL A   1      38.666  32.331  39.616  1.00  0.00    -0.203 F 
ATOM     77  F   UNL A   1      41.350  37.071  39.955  1.00  0.00    -0.200 F 
ATOM     78  C   UNL A   1      39.888  35.484  40.914  1.00  0.00     0.200 A 
ATOM     79  F   UNL A   1      38.441  33.862  41.836  1.00  0.00    -0.200 F 
ATOM     80  F   UNL A   1      39.784  36.227  42.023  1.00  0.00    -0.200 F 
ENDBRANCH  56  70
BRANCH  57  81
ATOM     81  C   UNL A   1      39.974  28.678  30.069  1.00  0.00     0.064 A 
ATOM     82  C   UNL A   1      40.546  29.187  28.895  1.00  0.00     0.173 A 
ATOM     83  C   UNL A   1      39.400  27.400  30.014  1.00  0.00     0.173 A 
ATOM     84  F   UNL A   1      41.090  30.412  28.893  1.00  0.00    -0.203 F 
ATOM     85  C   UNL A   1      40.533  28.454  27.710  1.00  0.00     0.198 A 
ATOM     86  C   UNL A   1      39.412  26.656  28.836  1.00  0.00     0.198 A 
ATOM     87  F   UNL A   1      38.842  26.865  31.111  1.00  0.00    -0.203 F 
ATOM     88  F   UNL A   1      41.053  28.981  26.594  1.00  0.00    -0.200 F 
ATOM     89  C   UNL A   1      39.972  27.186  27.684  1.00  0.00     0.200 A 
ATOM     90  F   UNL A   1      38.883  25.424  28.818  1.00  0.00    -0.200 F 
ATOM     91  F   UNL A   1      39.968  26.477  26.546  1.00  0.00    -0.200 F 
ENDBRANCH  57  81
BRANCH  69  92
ATOM     92  C   UNL A   1      44.296  28.929  35.542  1.00  0.00     0.064 A 
ATOM     93  C   UNL A   1      44.255  27.716  36.246  1.00  0.00     0.173 A 
ATOM     94  C   UNL A   1      45.547  29.394  35.108  1.00  0.00     0.173 A 
ATOM     95  F   UNL A   1      43.085  27.233  36.692  1.00  0.00    -0.203 F 
ATOM     96  C   UNL A   1      45.423  27.012  36.525  1.00  0.00     0.198 A 
ATOM     97  C   UNL A   1      46.708  28.670  35.359  1.00  0.00     0.198 A 
ATOM     98  F   UNL A   1      45.640  30.544  34.422  1.00  0.00    -0.203 F 
ATOM     99  F   UNL A   1      45.365  25.880  37.239  1.00  0.00    -0.200 F 
ATOM    100  C   UNL A   1      46.647  27.484  36.073  1.00  0.00     0.200 A 
ATOM    101  F   UNL A   1      47.887  29.118  34.905  1.00  0.00    -0.200 F 
ATOM    102  F   UNL A   1      47.768  26.797  36.331  1.00  0.00    -0.200 F 
ENDBRANCH  69  92
ENDBRANCH  43  44
ENDBRANCH  35  38
ENDBRANCH  33  34
ENDBRANCH  32  33
ENDBRANCH  31  32
ENDBRANCH   1  31
TORSDOF 15
ENDMDL
MODEL 2
REMARK VINA RESULT:     -12.1      1.805      7.499
REMARK SMILES COc1ccc(Cl)c2c1N[C@@H](c1ccc(C(=O)NCCCCCCNC(=O)c3ccc(-c4c5nc(c(-c6c(F)c(F)c(F)c(F)c6F)c6ccc([nH]6)c(-c6c(F)c(F)c(F)c(F)c6F)c6nc(c(-c7c(F)c(F)c(F)c(F)c7F)c7ccc4[nH]7)C=C6)C=C5)cc3)cc1)[C@@H]1CC=C[C@H]21
REMARK SMILES IDX 21 1 20 2 19 3 18 4 16 5 17 6 15 8 12 9 13 10 92 11 14 12
REMARK SMILES IDX 91 13 11 14 3 15 4 16 9 17 5 18 8 19 10 20 6 21 97 22 7 24
REMARK SMILES IDX 93 25 96 26 94 27 95 28 2 29 1 30 22 31 23 32 24 33 25 34
REMARK SMILES IDX 26 35 27 37 28 38 29 39 90 40 30 41 89 42 31 43 32 44 33 45
REMARK SMILES IDX 83 46 34 47 88 48 82 49 84 50 35 51 87 52 81 53 80 54 36 56
REMARK SMILES IDX 68 57 48 58 67 59 49 60 52 61 66 62 85 63 50 64 51 65 65 67
REMARK SMILES IDX 86 68 53 69 37 70 38 71 46 72 39 73 40 74 44 75 47 76 41 77
REMARK SMILES IDX 42 78 45 79 43 80 69 81 70 82 78 83 71 84 72 85 76 86 79 87
REMARK SMILES IDX 73 88 74 89 77 90 75 91 54 92 55 93 63 94 56 95 57 96 61 97
REMARK SMILES IDX 64 98 58 99 59 100 62 101 60 102
REMARK H PARENT 18 7 10 23 25 36 84 55 52 66
REMARK Flexibility Score: inf
ROOT
ATOM      1  C   UNL A   1      30.904  29.818  25.009  1.00  0.00     0.002 C 
ENDROOT
BRANCH   1   2
ATOM      2  C   UNL A   1      30.009  29.466  23.814  1.00  0.00     0.021 C 
BRANCH   2   3
ATOM      3  C   UNL A   1      30.768  28.779  22.676  1.00  0.00     0.116 C 
BRANCH   3   4
ATOM      4  N   UNL A   1      32.097  29.342  22.569  1.00  0.00    -0.352 N 
ATOM      5  C   UNL A   1      33.333  28.858  22.909  1.00  0.00     0.251 C 
ATOM      6  O   UNL A   1      34.300  29.600  22.738  1.00  0.00    -0.269 OA
ATOM      7  H   UNL A   1      32.116  30.245  22.176  1.00  0.00     0.163 HD
BRANCH   5   8
ATOM      8  C   UNL A   1      33.560  27.467  23.391  1.00  0.00     0.039 A 
ATOM      9  C   UNL A   1      33.810  24.729  24.092  1.00  0.00    -0.025 A 
ATOM     10  C   UNL A   1      33.780  25.128  22.749  1.00  0.00     0.006 A 
ATOM     11  C   UNL A   1      33.783  25.733  25.074  1.00  0.00     0.006 A 
ATOM     12  C   UNL A   1      33.678  26.479  22.405  1.00  0.00     0.014 A 
ATOM     13  C   UNL A   1      33.668  27.085  24.728  1.00  0.00     0.014 A 
BRANCH   9  14
ATOM     14  C   UNL A   1      33.867  23.264  24.515  1.00  0.00     0.114 C 
ATOM     15  C   UNL A   1      36.811  20.979  24.728  1.00  0.00     0.142 A 
ATOM     16  C   UNL A   1      37.114  19.633  24.921  1.00  0.00     0.050 A 
ATOM     17  C   UNL A   1      35.481  21.403  24.527  1.00  0.00     0.083 A 
ATOM     18  C   UNL A   1      36.090  18.692  24.946  1.00  0.00     0.025 A 
ATOM     19  C   UNL A   1      34.440  20.452  24.550  1.00  0.00     0.005 A 
ATOM     20  N   UNL A   1      35.200  22.739  24.293  1.00  0.00    -0.375 N 
ATOM     21  C   UNL A   1      34.765  19.095  24.760  1.00  0.00     0.047 A 
ATOM     22  C   UNL A   1      33.024  20.889  24.247  1.00  0.00     0.051 C 
ATOM     23  H   UNL A   1      35.912  23.337  23.972  1.00  0.00     0.161 HD
ATOM     24  Cl  UNL A   1      33.565  17.847  24.744  1.00  0.00    -0.084 Cl
ATOM     25  C   UNL A   1      32.857  22.359  23.773  1.00  0.00     0.031 C 
ATOM     26  C   UNL A   1      32.071  20.852  25.418  1.00  0.00    -0.023 C 
ATOM     27  C   UNL A   1      31.386  22.660  24.111  1.00  0.00     0.034 C 
ATOM     28  C   UNL A   1      31.156  21.825  25.329  1.00  0.00    -0.030 C 
BRANCH  15  29
ATOM     29  O   UNL A   1      37.881  21.838  24.648  1.00  0.00    -0.495 OA
ATOM     30  C   UNL A   1      38.690  21.829  25.824  1.00  0.00     0.278 C 
ENDBRANCH  15  29
ENDBRANCH   9  14
ENDBRANCH   5   8
ENDBRANCH   3   4
ENDBRANCH   2   3
ENDBRANCH   1   2
BRANCH   1  31
ATOM     31  C   UNL A   1      30.922  31.307  25.380  1.00  0.00     0.002 C 
BRANCH  31  32
ATOM     32  C   UNL A   1      31.363  31.598  26.816  1.00  0.00     0.021 C 
BRANCH  32  33
ATOM     33  C   UNL A   1      32.666  32.383  26.905  1.00  0.00     0.116 C 
BRANCH  33  34
ATOM     34  N   UNL A   1      32.423  33.756  27.320  1.00  0.00    -0.352 N 
ATOM     35  C   UNL A   1      32.986  34.440  28.368  1.00  0.00     0.251 C 
ATOM     36  H   UNL A   1      31.771  34.259  26.780  1.00  0.00     0.163 HD
ATOM     37  O   UNL A   1      32.511  35.490  28.771  1.00  0.00    -0.269 OA
BRANCH  35  38
ATOM     38  C   UNL A   1      34.192  33.875  29.003  1.00  0.00     0.039 A 
ATOM     39  C   UNL A   1      35.448  34.383  28.666  1.00  0.00     0.014 A 
ATOM     40  C   UNL A   1      34.058  32.848  29.942  1.00  0.00     0.014 A 
ATOM     41  C   UNL A   1      36.581  33.884  29.311  1.00  0.00     0.010 A 
ATOM     42  C   UNL A   1      35.179  32.390  30.620  1.00  0.00     0.010 A 
ATOM     43  C   UNL A   1      36.449  32.897  30.301  1.00  0.00    -0.014 A 
BRANCH  43  44
ATOM     44  C   UNL A   1      37.630  32.333  30.989  1.00  0.00     0.031 A 
ATOM     45  C   UNL A   1      38.402  31.227  30.330  1.00  0.00     0.074 A 
ATOM     46  C   UNL A   1      37.961  32.765  32.220  1.00  0.00     0.049 A 
ATOM     47  N   UNL A   1      39.399  30.522  30.797  1.00  0.00    -0.248 NA
ATOM     48  C   UNL A   1      37.982  30.852  28.970  1.00  0.00     0.031 C 
ATOM     49  C   UNL A   1      37.273  33.823  32.957  1.00  0.00     0.029 A 
ATOM     50  N   UNL A   1      38.953  32.352  33.072  1.00  0.00    -0.354 N 
ATOM     51  C   UNL A   1      39.725  29.624  29.791  1.00  0.00     0.074 A 
ATOM     52  C   UNL A   1      38.785  29.832  28.710  1.00  0.00     0.031 C 
ATOM     53  C   UNL A   1      37.870  33.986  34.148  1.00  0.00     0.029 A 
ATOM     54  C   UNL A   1      38.958  33.019  34.272  1.00  0.00     0.049 A 
ATOM     55  H   UNL A   1      39.600  31.646  32.844  1.00  0.00     0.167 HD
ATOM     56  C   UNL A   1      40.735  28.724  29.764  1.00  0.00     0.037 A 
ATOM     57  C   UNL A   1      39.749  32.857  35.349  1.00  0.00     0.037 A 
ATOM     58  C   UNL A   1      41.667  28.527  30.842  1.00  0.00     0.049 A 
ATOM     59  C   UNL A   1      40.834  31.815  35.311  1.00  0.00     0.074 A 
ATOM     60  C   UNL A   1      42.735  27.650  30.908  1.00  0.00     0.029 A 
ATOM     61  N   UNL A   1      41.641  29.219  32.044  1.00  0.00    -0.354 N 
ATOM     62  N   UNL A   1      41.156  30.990  34.345  1.00  0.00    -0.248 NA
ATOM     63  C   UNL A   1      41.672  31.686  36.512  1.00  0.00     0.031 C 
ATOM     64  C   UNL A   1      43.328  27.780  32.167  1.00  0.00     0.029 A 
ATOM     65  C   UNL A   1      42.667  28.779  32.863  1.00  0.00     0.049 A 
ATOM     66  H   UNL A   1      40.990  29.920  32.279  1.00  0.00     0.167 HD
ATOM     67  C   UNL A   1      42.252  30.271  34.804  1.00  0.00     0.074 A 
ATOM     68  C   UNL A   1      42.547  30.766  36.133  1.00  0.00     0.031 C 
ATOM     69  C   UNL A   1      42.954  29.293  34.179  1.00  0.00     0.037 A 
BRANCH  56  70
ATOM     70  C   UNL A   1      40.894  27.892  28.526  1.00  0.00     0.064 A 
ATOM     71  C   UNL A   1      40.167  26.706  28.344  1.00  0.00     0.173 A 
ATOM     72  C   UNL A   1      41.733  28.314  27.483  1.00  0.00     0.173 A 
ATOM     73  F   UNL A   1      39.363  26.251  29.318  1.00  0.00    -0.203 F 
ATOM     74  C   UNL A   1      40.283  25.966  27.170  1.00  0.00     0.198 A 
ATOM     75  C   UNL A   1      41.823  27.589  26.299  1.00  0.00     0.198 A 
ATOM     76  F   UNL A   1      42.450  29.441  27.606  1.00  0.00    -0.203 F 
ATOM     77  F   UNL A   1      39.605  24.819  27.034  1.00  0.00    -0.200 F 
ATOM     78  C   UNL A   1      41.101  26.414  26.144  1.00  0.00     0.200 A 
ATOM     79  F   UNL A   1      42.605  28.029  25.303  1.00  0.00    -0.200 F 
ATOM     80  F   UNL A   1      41.197  25.713  25.007  1.00  0.00    -0.200 F 
ENDBRANCH  56  70
BRANCH  57  81
ATOM     81  C   UNL A   1      39.566  33.729  36.540  1.00  0.00     0.064 A 
ATOM     82  C   UNL A   1      40.175  34.990  36.603  1.00  0.00     0.173 A 
ATOM     83  C   UNL A   1      38.775  33.331  37.627  1.00  0.00     0.173 A 
ATOM     84  F   UNL A   1      40.956  35.406  35.596  1.00  0.00    -0.203 F 
ATOM     85  C   UNL A   1      40.013  35.814  37.715  1.00  0.00     0.198 A 
ATOM     86  C   UNL A   1      38.591  34.167  38.726  1.00  0.00     0.198 A 
ATOM     87  F   UNL A   1      38.166  32.136  37.615  1.00  0.00    -0.203 F 
ATOM     88  F   UNL A   1      40.639  36.997  37.765  1.00  0.00    -0.200 F 
ATOM     89  C   UNL A   1      39.215  35.405  38.772  1.00  0.00     0.200 A 
ATOM     90  F   UNL A   1      37.806  33.775  39.740  1.00  0.00    -0.200 F 
ATOM     91  F   UNL A   1      39.051  36.201  39.838  1.00  0.00    -0.200 F 
ENDBRANCH  57  81
BRANCH  69  92
ATOM     92  C   UNL A   1      44.138  28.718  34.902  1.00  0.00     0.064 A 
ATOM     93  C   UNL A   1      44.027  27.583  35.717  1.00  0.00     0.173 A 
ATOM     94  C   UNL A   1      45.413  29.278  34.726  1.00  0.00     0.173 A 
ATOM     95  F   UNL A   1      42.829  27.016  35.926  1.00  0.00    -0.203 F 
ATOM     96  C   UNL A   1      45.145  27.044  36.349  1.00  0.00     0.198 A 
ATOM     97  C   UNL A   1      46.533  28.717  35.333  1.00  0.00     0.198 A 
ATOM     98  F   UNL A   1      45.576  30.360  33.949  1.00  0.00    -0.203 F 
ATOM     99  F   UNL A   1      45.008  25.986  37.160  1.00  0.00    -0.200 F 
ATOM    100  C   UNL A   1      46.397  27.605  36.149  1.00  0.00     0.200 A 
ATOM    101  F   UNL A   1      47.745  29.250  35.122  1.00  0.00    -0.200 F 
ATOM    102  F   UNL A   1      47.474  27.077  36.748  1.00  0.00    -0.200 F 
ENDBRANCH  69  92
ENDBRANCH  43  44
ENDBRANCH  35  38
ENDBRANCH  33  34
ENDBRANCH  32  33
ENDBRANCH  31  32
ENDBRANCH   1  31
TORSDOF 15
ENDMDL
MODEL 3
REMARK VINA RESULT:     -12.0      5.304     11.649
REMARK SMILES COc1ccc(Cl)c2c1N[C@@H](c1ccc(C(=O)NCCCCCCNC(=O)c3ccc(-c4c5nc(c(-c6c(F)c(F)c(F)c(F)c6F)c6ccc([nH]6)c(-c6c(F)c(F)c(F)c(F)c6F)c6nc(c(-c7c(F)c(F)c(F)c(F)c7F)c7ccc4[nH]7)C=C6)C=C5)cc3)cc1)[C@@H]1CC=C[C@H]21
REMARK SMILES IDX 21 1 20 2 19 3 18 4 16 5 17 6 15 8 12 9 13 10 92 11 14 12
REMARK SMILES IDX 91 13 11 14 3 15 4 16 9 17 5 18 8 19 10 20 6 21 97 22 7 24
REMARK SMILES IDX 93 25 96 26 94 27 95 28 2 29 1 30 22 31 23 32 24 33 25 34
REMARK SMILES IDX 26 35 27 37 28 38 29 39 90 40 30 41 89 42 31 43 32 44 33 45
REMARK SMILES IDX 83 46 34 47 88 48 82 49 84 50 35 51 87 52 81 53 80 54 36 56
REMARK SMILES IDX 68 57 48 58 67 59 49 60 52 61 66 62 85 63 50 64 51 65 65 67
REMARK SMILES IDX 86 68 53 69 37 70 38 71 46 72 39 73 40 74 44 75 47 76 41 77
REMARK SMILES IDX 42 78 45 79 43 80 69 81 70 82 78 83 71 84 72 85 76 86 79 87
REMARK SMILES IDX 73 88 74 89 77 90 75 91 54 92 55 93 63 94 56 95 57 96 61 97
REMARK SMILES IDX 64 98 58 99 59 100 62 101 60 102
REMARK H PARENT 18 7 10 23 25 36 84 55 52 66
REMARK Flexibility Score: inf
ROOT
ATOM      1  C   UNL A   1      43.027  23.014  25.009  1.00  0.00     0.002 C 
ENDROOT
BRANCH   1   2
ATOM      2  C   UNL A   1      44.054  24.095  24.649  1.00  0.00     0.021 C 
BRANCH   2   3
ATOM      3  C   UNL A   1      44.579  24.855  25.869  1.00  0.00     0.116 C 
BRANCH   3   4
ATOM      4  N   UNL A   1      45.972  24.528  26.083  1.00  0.00    -0.352 N 
ATOM      5  C   UNL A   1      46.737  24.451  27.217  1.00  0.00     0.251 C 
ATOM      6  O   UNL A   1      47.932  24.189  27.079  1.00  0.00    -0.269 OA
ATOM      7  H   UNL A   1      46.464  24.321  25.255  1.00  0.00     0.163 HD
BRANCH   5   8
ATOM      8  C   UNL A   1      46.177  24.590  28.590  1.00  0.00     0.039 A 
ATOM      9  C   UNL A   1      44.840  24.836  31.081  1.00  0.00    -0.025 A 
ATOM     10  C   UNL A   1      44.383  23.942  30.103  1.00  0.00     0.006 A 
ATOM     11  C   UNL A   1      46.019  25.551  30.813  1.00  0.00     0.006 A 
ATOM     12  C   UNL A   1      45.054  23.807  28.885  1.00  0.00     0.014 A 
ATOM     13  C   UNL A   1      46.684  25.424  29.587  1.00  0.00     0.014 A 
BRANCH   9  14
ATOM     14  C   UNL A   1      44.110  25.056  32.402  1.00  0.00     0.114 C 
ATOM     15  C   UNL A   1      42.571  28.173  33.762  1.00  0.00     0.142 A 
ATOM     16  C   UNL A   1      42.012  28.670  34.937  1.00  0.00     0.050 A 
ATOM     17  C   UNL A   1      43.232  26.927  33.743  1.00  0.00     0.083 A 
ATOM     18  C   UNL A   1      42.076  27.917  36.105  1.00  0.00     0.025 A 
ATOM     19  C   UNL A   1      43.301  26.161  34.925  1.00  0.00     0.005 A 
ATOM     20  N   UNL A   1      43.822  26.466  32.578  1.00  0.00    -0.375 N 
ATOM     21  C   UNL A   1      42.716  26.675  36.102  1.00  0.00     0.047 A 
ATOM     22  C   UNL A   1      44.084  24.868  34.929  1.00  0.00     0.051 C 
ATOM     23  H   UNL A   1      44.048  27.102  31.862  1.00  0.00     0.161 HD
ATOM     24  Cl  UNL A   1      42.803  25.838  37.614  1.00  0.00    -0.084 Cl
ATOM     25  C   UNL A   1      44.894  24.563  33.640  1.00  0.00     0.031 C 
ATOM     26  C   UNL A   1      43.257  23.611  35.056  1.00  0.00    -0.023 C 
ATOM     27  C   UNL A   1      45.066  23.034  33.699  1.00  0.00     0.034 C 
ATOM     28  C   UNL A   1      43.813  22.595  34.386  1.00  0.00    -0.030 C 
BRANCH  15  29
ATOM     29  O   UNL A   1      42.527  29.004  32.668  1.00  0.00    -0.495 OA
ATOM     30  C   UNL A   1      41.197  29.248  32.209  1.00  0.00     0.278 C 
ENDBRANCH  15  29
ENDBRANCH   9  14
ENDBRANCH   5   8
ENDBRANCH   3   4
ENDBRANCH   2   3
ENDBRANCH   1   2
BRANCH   1  31
ATOM     31  C   UNL A   1      42.732  22.885  26.509  1.00  0.00     0.002 C 
BRANCH  31  32
ATOM     32  C   UNL A   1      42.079  21.561  26.916  1.00  0.00     0.021 C 
BRANCH  32  33
ATOM     33  C   UNL A   1      40.761  21.736  27.659  1.00  0.00     0.116 C 
BRANCH  33  34
ATOM     34  N   UNL A   1      39.650  21.877  26.729  1.00  0.00    -0.352 N 
ATOM     35  C   UNL A   1      38.881  22.987  26.485  1.00  0.00     0.251 C 
ATOM     36  H   UNL A   1      39.422  21.074  26.209  1.00  0.00     0.163 HD
ATOM     37  O   UNL A   1      37.822  22.908  25.883  1.00  0.00    -0.269 OA
BRANCH  35  38
ATOM     38  C   UNL A   1      39.367  24.293  26.970  1.00  0.00     0.039 A 
ATOM     39  C   UNL A   1      40.033  25.148  26.090  1.00  0.00     0.014 A 
ATOM     40  C   UNL A   1      39.141  24.662  28.299  1.00  0.00     0.014 A 
ATOM     41  C   UNL A   1      40.441  26.405  26.537  1.00  0.00     0.010 A 
ATOM     42  C   UNL A   1      39.499  25.932  28.728  1.00  0.00     0.010 A 
ATOM     43  C   UNL A   1      40.162  26.807  27.853  1.00  0.00    -0.014 A 
BRANCH  43  44
ATOM     44  C   UNL A   1      40.596  28.125  28.366  1.00  0.00     0.031 A 
ATOM     45  C   UNL A   1      42.051  28.352  28.658  1.00  0.00     0.074 A 
ATOM     46  C   UNL A   1      39.685  29.079  28.627  1.00  0.00     0.049 A 
ATOM     47  N   UNL A   1      42.632  29.387  29.206  1.00  0.00    -0.248 NA
ATOM     48  C   UNL A   1      42.971  27.260  28.303  1.00  0.00     0.031 C 
ATOM     49  C   UNL A   1      38.247  28.960  28.392  1.00  0.00     0.029 A 
ATOM     50  N   UNL A   1      39.835  30.333  29.162  1.00  0.00    -0.354 N 
ATOM     51  C   UNL A   1      43.982  29.071  29.261  1.00  0.00     0.074 A 
ATOM     52  C   UNL A   1      44.130  27.728  28.744  1.00  0.00     0.031 C 
ATOM     53  C   UNL A   1      37.646  30.099  28.772  1.00  0.00     0.029 A 
ATOM     54  C   UNL A   1      38.652  31.013  29.309  1.00  0.00     0.049 A 
ATOM     55  H   UNL A   1      40.709  30.710  29.416  1.00  0.00     0.167 HD
ATOM     56  C   UNL A   1      45.010  29.845  29.682  1.00  0.00     0.037 A 
ATOM     57  C   UNL A   1      38.411  32.232  29.827  1.00  0.00     0.037 A 
ATOM     58  C   UNL A   1      44.854  31.182  30.190  1.00  0.00     0.049 A 
ATOM     59  C   UNL A   1      39.567  33.053  30.334  1.00  0.00     0.074 A 
ATOM     60  C   UNL A   1      45.833  32.056  30.630  1.00  0.00     0.029 A 
ATOM     61  N   UNL A   1      43.640  31.839  30.327  1.00  0.00    -0.354 N 
ATOM     62  N   UNL A   1      40.844  32.760  30.354  1.00  0.00    -0.248 NA
ATOM     63  C   UNL A   1      39.247  34.379  30.882  1.00  0.00     0.031 C 
ATOM     64  C   UNL A   1      45.206  33.224  31.074  1.00  0.00     0.029 A 
ATOM     65  C   UNL A   1      43.843  33.102  30.856  1.00  0.00     0.049 A 
ATOM     66  H   UNL A   1      42.763  31.463  30.082  1.00  0.00     0.167 HD
ATOM     67  C   UNL A   1      41.484  33.874  30.882  1.00  0.00     0.074 A 
ATOM     68  C   UNL A   1      40.453  34.853  31.159  1.00  0.00     0.031 C 
ATOM     69  C   UNL A   1      42.807  34.069  31.112  1.00  0.00     0.037 A 
BRANCH  56  70
ATOM     70  C   UNL A   1      46.393  29.273  29.599  1.00  0.00     0.064 A 
ATOM     71  C   UNL A   1      47.071  29.173  28.375  1.00  0.00     0.173 A 
ATOM     72  C   UNL A   1      47.074  28.877  30.761  1.00  0.00     0.173 A 
ATOM     73  F   UNL A   1      46.458  29.522  27.233  1.00  0.00    -0.203 F 
ATOM     74  C   UNL A   1      48.374  28.686  28.314  1.00  0.00     0.198 A 
ATOM     75  C   UNL A   1      48.387  28.420  30.700  1.00  0.00     0.198 A 
ATOM     76  F   UNL A   1      46.471  28.952  31.956  1.00  0.00    -0.203 F 
ATOM     77  F   UNL A   1      48.989  28.567  27.129  1.00  0.00    -0.200 F 
ATOM     78  C   UNL A   1      49.035  28.321  29.477  1.00  0.00     0.200 A 
ATOM     79  F   UNL A   1      49.029  28.080  31.826  1.00  0.00    -0.200 F 
ATOM     80  F   UNL A   1      50.296  27.872  29.421  1.00  0.00    -0.200 F 
ENDBRANCH  56  70
BRANCH  57  81
ATOM     81  C   UNL A   1      37.023  32.762  29.858  1.00  0.00     0.064 A 
ATOM     82  C   UNL A   1      36.476  33.402  28.736  1.00  0.00     0.173 A 
ATOM     83  C   UNL A   1      36.212  32.634  30.995  1.00  0.00     0.173 A 
ATOM     84  F   UNL A   1      37.219  33.565  27.632  1.00  0.00    -0.203 F 
ATOM     85  C   UNL A   1      35.177  33.905  28.755  1.00  0.00     0.198 A 
ATOM     86  C   UNL A   1      34.904  33.114  31.003  1.00  0.00     0.198 A 
ATOM     87  F   UNL A   1      36.685  32.027  32.094  1.00  0.00    -0.203 F 
ATOM     88  F   UNL A   1      34.695  34.546  27.682  1.00  0.00    -0.200 F 
ATOM     89  C   UNL A   1      34.390  33.754  29.886  1.00  0.00     0.200 A 
ATOM     90  F   UNL A   1      34.140  32.952  32.093  1.00  0.00    -0.200 F 
ATOM     91  F   UNL A   1      33.137  34.231  29.901  1.00  0.00    -0.200 F 
ENDBRANCH  57  81
BRANCH  69  92
ATOM     92  C   UNL A   1      43.226  35.407  31.651  1.00  0.00     0.064 A 
ATOM     93  C   UNL A   1      43.644  36.446  30.807  1.00  0.00     0.173 A 
ATOM     94  C   UNL A   1      43.151  35.669  33.028  1.00  0.00     0.173 A 
ATOM     95  F   UNL A   1      43.742  36.243  29.484  1.00  0.00    -0.203 F 
ATOM     96  C   UNL A   1      43.993  37.691  31.324  1.00  0.00     0.198 A 
ATOM     97  C   UNL A   1      43.469  36.924  33.537  1.00  0.00     0.198 A 
ATOM     98  F   UNL A   1      42.749  34.712  33.878  1.00  0.00    -0.203 F 
ATOM     99  F   UNL A   1      44.433  38.655  30.504  1.00  0.00    -0.200 F 
ATOM    100  C   UNL A   1      43.897  37.931  32.687  1.00  0.00     0.200 A 
ATOM    101  F   UNL A   1      43.357  37.160  34.852  1.00  0.00    -0.200 F 
ATOM    102  F   UNL A   1      44.222  39.134  33.181  1.00  0.00    -0.200 F 
ENDBRANCH  69  92
ENDBRANCH  43  44
ENDBRANCH  35  38
ENDBRANCH  33  34
ENDBRANCH  32  33
ENDBRANCH  31  32
ENDBRANCH   1  31
TORSDOF 15
ENDMDL
