MODEL 1
REMARK VINA RESULT:     -11.9      0.000      0.000
REMARK SMILES C[C@@](NC(=O)c1cc(Br)c[nH]1)(C(=O)NCCCCCCNC(=O)c1ccc(-c2c3nc(c(-c4c(F)c(F)c(F)c(F)c4F)c4ccc([nH]4)c(-c4c(F)c(F)c(F)c(F)c4F)c4nc(c(-c5c(F)c(F)c(F)c(F)c5F)c5ccc2[nH]5)C=C4)C=C3)cc1)C(F)(F)F
REMARK SMILES IDX 17 1 16 2 15 3 14 4 12 5 13 6 2 8 1 9 3 10 4 11 5 13 6 14
REMARK SMILES IDX 7 15 11 16 8 17 10 18 9 20 87 21 88 22 89 23 90 24 18 25
REMARK SMILES IDX 19 26 20 27 21 28 22 29 23 31 24 32 25 33 86 34 26 35 85 36
REMARK SMILES IDX 27 37 28 38 29 39 79 40 30 41 84 42 78 43 80 44 31 45 83 46
REMARK SMILES IDX 77 47 76 48 32 50 64 51 44 52 63 53 45 54 48 55 62 56 81 57
REMARK SMILES IDX 46 58 47 59 61 61 82 62 49 63 33 64 34 65 42 66 35 67 36 68
REMARK SMILES IDX 40 69 43 70 37 71 38 72 41 73 39 74 65 75 66 76 74 77 67 78
REMARK SMILES IDX 68 79 72 80 75 81 69 82 70 83 73 84 71 85 50 86 51 87 59 88
REMARK SMILES IDX 52 89 53 90 57 91 60 92 54 93 55 94 58 95 56 96
REMARK H PARENT 14 7 3 12 11 19 21 30 80 49 48 60
REMARK Flexibility Score: inf
ROOT
ATOM      1  C   UNL A   1      32.901  29.842  27.199  1.00  0.00     0.002 C 
ENDROOT
BRANCH   1   2
ATOM      2  C   UNL A   1      33.831  28.873  26.457  1.00  0.00     0.021 C 
BRANCH   2   3
ATOM      3  C   UNL A   1      33.366  27.419  26.467  1.00  0.00     0.116 C 
BRANCH   3   4
ATOM      4  N   UNL A   1      33.898  26.692  25.328  1.00  0.00    -0.354 N 
ATOM      5  C   UNL A   1      33.278  25.988  24.339  1.00  0.00     0.254 C 
ATOM      6  O   UNL A   1      34.018  25.484  23.490  1.00  0.00    -0.272 OA
ATOM      7  H   UNL A   1      34.880  26.712  25.256  1.00  0.00     0.163 HD
BRANCH   5   8
ATOM      8  C   UNL A   1      31.763  25.725  24.340  1.00  0.00     0.212 C 
ATOM      9  C   UNL A   1      31.459  24.760  23.172  1.00  0.00     0.056 C 
BRANCH   8  10
ATOM     10  N   UNL A   1      31.249  25.099  25.596  1.00  0.00    -0.329 N 
ATOM     11  C   UNL A   1      31.680  24.017  26.322  1.00  0.00     0.268 C 
ATOM     12  H   UNL A   1      30.455  25.544  25.972  1.00  0.00     0.165 HD
ATOM     13  O   UNL A   1      31.283  23.948  27.485  1.00  0.00    -0.268 OA
BRANCH  11  14
ATOM     14  C   UNL A   1      32.392  22.936  25.686  1.00  0.00     0.105 A 
ATOM     15  C   UNL A   1      31.848  21.707  25.327  1.00  0.00     0.049 A 
ATOM     16  N   UNL A   1      33.733  22.870  25.366  1.00  0.00    -0.356 N 
ATOM     17  C   UNL A   1      32.842  20.982  24.648  1.00  0.00     0.036 A 
ATOM     18  C   UNL A   1      33.996  21.716  24.669  1.00  0.00     0.098 A 
ATOM     19  H   UNL A   1      34.403  23.551  25.601  1.00  0.00     0.166 HD
ATOM     20  Br  UNL A   1      32.573  19.311  23.853  1.00  0.00    -0.049 Br
ENDBRANCH  11  14
ENDBRANCH   8  10
BRANCH   8  21
ATOM     21  C   UNL A   1      31.039  27.052  24.021  1.00  0.00     0.420 C 
ATOM     22  F   UNL A   1      31.796  27.920  23.317  1.00  0.00    -0.168 F 
ATOM     23  F   UNL A   1      29.938  26.803  23.261  1.00  0.00    -0.168 F 
ATOM     24  F   UNL A   1      30.598  27.683  25.134  1.00  0.00    -0.168 F 
ENDBRANCH   8  21
ENDBRANCH   5   8
ENDBRANCH   3   4
ENDBRANCH   2   3
ENDBRANCH   1   2
BRANCH   1  25
ATOM     25  C   UNL A   1      31.814  30.497  26.341  1.00  0.00     0.002 C 
BRANCH  25  26
ATOM     26  C   UNL A   1      31.562  31.980  26.611  1.00  0.00     0.021 C 
BRANCH  26  27
ATOM     27  C   UNL A   1      32.654  32.693  27.404  1.00  0.00     0.116 C 
BRANCH  27  28
ATOM     28  N   UNL A   1      32.340  34.086  27.682  1.00  0.00    -0.352 N 
ATOM     29  C   UNL A   1      32.947  34.944  28.565  1.00  0.00     0.251 C 
ATOM     30  H   UNL A   1      31.591  34.464  27.167  1.00  0.00     0.163 HD
ATOM     31  O   UNL A   1      32.495  36.067  28.757  1.00  0.00    -0.269 OA
BRANCH  29  32
ATOM     32  C   UNL A   1      34.135  34.491  29.318  1.00  0.00     0.039 A 
ATOM     33  C   UNL A   1      33.964  34.014  30.619  1.00  0.00     0.014 A 
ATOM     34  C   UNL A   1      35.404  34.508  28.731  1.00  0.00     0.014 A 
ATOM     35  C   UNL A   1      35.054  33.482  31.309  1.00  0.00     0.010 A 
ATOM     36  C   UNL A   1      36.478  33.925  29.396  1.00  0.00     0.010 A 
ATOM     37  C   UNL A   1      36.310  33.399  30.687  1.00  0.00    -0.014 A 
BRANCH  37  38
ATOM     38  C   UNL A   1      37.455  32.741  31.359  1.00  0.00     0.031 A 
ATOM     39  C   UNL A   1      38.131  31.562  30.723  1.00  0.00     0.074 A 
ATOM     40  C   UNL A   1      37.831  33.156  32.584  1.00  0.00     0.049 A 
ATOM     41  N   UNL A   1      39.089  30.803  31.192  1.00  0.00    -0.248 NA
ATOM     42  C   UNL A   1      37.646  31.167  29.392  1.00  0.00     0.031 C 
ATOM     43  C   UNL A   1      37.211  34.251  33.331  1.00  0.00     0.029 A 
ATOM     44  N   UNL A   1      38.808  32.689  33.426  1.00  0.00    -0.354 N 
ATOM     45  C   UNL A   1      39.313  29.837  30.223  1.00  0.00     0.074 A 
ATOM     46  C   UNL A   1      38.358  30.074  29.161  1.00  0.00     0.031 C 
ATOM     47  C   UNL A   1      37.826  34.378  34.517  1.00  0.00     0.029 A 
ATOM     48  C   UNL A   1      38.862  33.355  34.626  1.00  0.00     0.049 A 
ATOM     49  H   UNL A   1      39.414  31.949  33.193  1.00  0.00     0.167 HD
ATOM     50  C   UNL A   1      40.245  28.855  30.211  1.00  0.00     0.037 A 
ATOM     51  C   UNL A   1      39.650  33.155  35.699  1.00  0.00     0.037 A 
ATOM     52  C   UNL A   1      41.206  28.635  31.260  1.00  0.00     0.049 A 
ATOM     53  C   UNL A   1      40.682  32.064  35.660  1.00  0.00     0.074 A 
ATOM     54  C   UNL A   1      42.238  27.714  31.308  1.00  0.00     0.029 A 
ATOM     55  N   UNL A   1      41.248  29.347  32.450  1.00  0.00    -0.354 N 
ATOM     56  N   UNL A   1      40.934  31.199  34.707  1.00  0.00    -0.248 NA
ATOM     57  C   UNL A   1      41.543  31.923  36.843  1.00  0.00     0.031 C 
ATOM     58  C   UNL A   1      42.880  27.843  32.545  1.00  0.00     0.029 A 
ATOM     59  C   UNL A   1      42.273  28.869  33.252  1.00  0.00     0.049 A 
ATOM     60  H   UNL A   1      40.639  30.081  32.691  1.00  0.00     0.167 HD
ATOM     61  C   UNL A   1      41.984  30.419  35.168  1.00  0.00     0.074 A 
ATOM     62  C   UNL A   1      42.337  30.925  36.479  1.00  0.00     0.031 C 
ATOM     63  C   UNL A   1      42.599  29.376  34.560  1.00  0.00     0.037 A 
BRANCH  50  64
ATOM     64  C   UNL A   1      40.268  27.945  29.017  1.00  0.00     0.064 A 
ATOM     65  C   UNL A   1      41.008  28.264  27.868  1.00  0.00     0.173 A 
ATOM     66  C   UNL A   1      39.555  26.738  29.025  1.00  0.00     0.173 A 
ATOM     67  F   UNL A   1      41.697  29.413  27.805  1.00  0.00    -0.203 F 
ATOM     68  C   UNL A   1      41.004  27.424  26.758  1.00  0.00     0.198 A 
ATOM     69  C   UNL A   1      39.576  25.886  27.924  1.00  0.00     0.198 A 
ATOM     70  F   UNL A   1      38.835  26.385  30.101  1.00  0.00    -0.203 F 
ATOM     71  F   UNL A   1      41.674  27.775  25.651  1.00  0.00    -0.200 F 
ATOM     72  C   UNL A   1      40.293  26.235  26.788  1.00  0.00     0.200 A 
ATOM     73  F   UNL A   1      38.895  24.733  27.957  1.00  0.00    -0.200 F 
ATOM     74  F   UNL A   1      40.288  25.427  25.719  1.00  0.00    -0.200 F 
ENDBRANCH  50  64
BRANCH  51  75
ATOM     75  C   UNL A   1      39.494  34.024  36.892  1.00  0.00     0.064 A 
ATOM     76  C   UNL A   1      38.735  33.606  37.992  1.00  0.00     0.173 A 
ATOM     77  C   UNL A   1      40.127  35.273  36.968  1.00  0.00     0.173 A 
ATOM     78  F   UNL A   1      38.096  32.427  37.955  1.00  0.00    -0.203 F 
ATOM     79  C   UNL A   1      38.607  34.408  39.123  1.00  0.00     0.198 A 
ATOM     80  C   UNL A   1      40.017  36.065  38.109  1.00  0.00     0.198 A 
ATOM     81  F   UNL A   1      40.870  35.714  35.943  1.00  0.00    -0.203 F 
ATOM     82  F   UNL A   1      37.852  33.999  40.152  1.00  0.00    -0.200 F 
ATOM     83  C   UNL A   1      39.254  35.634  39.184  1.00  0.00     0.200 A 
ATOM     84  F   UNL A   1      40.655  37.242  38.169  1.00  0.00    -0.200 F 
ATOM     85  F   UNL A   1      39.140  36.401  40.277  1.00  0.00    -0.200 F 
ENDBRANCH  51  75
BRANCH  63  86
ATOM     86  C   UNL A   1      43.717  28.711  35.308  1.00  0.00     0.064 A 
ATOM     87  C   UNL A   1      45.042  29.151  35.178  1.00  0.00     0.173 A 
ATOM     88  C   UNL A   1      43.457  27.654  36.190  1.00  0.00     0.173 A 
ATOM     89  F   UNL A   1      45.342  30.149  34.332  1.00  0.00    -0.203 F 
ATOM     90  C   UNL A   1      46.070  28.544  35.894  1.00  0.00     0.198 A 
ATOM     91  C   UNL A   1      44.483  27.064  36.923  1.00  0.00     0.198 A 
ATOM     92  F   UNL A   1      42.205  27.200  36.351  1.00  0.00    -0.203 F 
ATOM     93  F   UNL A   1      47.335  28.956  35.727  1.00  0.00    -0.200 F 
ATOM     94  C   UNL A   1      45.789  27.507  36.770  1.00  0.00     0.200 A 
ATOM     95  F   UNL A   1      44.209  26.069  37.776  1.00  0.00    -0.200 F 
ATOM     96  F   UNL A   1      46.779  26.928  37.464  1.00  0.00    -0.200 F 
ENDBRANCH  63  86
ENDBRANCH  37  38
ENDBRANCH  29  32
ENDBRANCH  27  28
ENDBRANCH  26  27
ENDBRANCH  25  26
ENDBRANCH   1  25
TORSDOF 16
ENDMDL
MODEL 2
REMARK VINA RESULT:     -11.8      0.274      1.997
REMARK SMILES C[C@@](NC(=O)c1cc(Br)c[nH]1)(C(=O)NCCCCCCNC(=O)c1ccc(-c2c3nc(c(-c4c(F)c(F)c(F)c(F)c4F)c4ccc([nH]4)c(-c4c(F)c(F)c(F)c(F)c4F)c4nc(c(-c5c(F)c(F)c(F)c(F)c5F)c5ccc2[nH]5)C=C4)C=C3)cc1)C(F)(F)F
REMARK SMILES IDX 17 1 16 2 15 3 14 4 12 5 13 6 2 8 1 9 3 10 4 11 5 13 6 14
REMARK SMILES IDX 7 15 11 16 8 17 10 18 9 20 87 21 88 22 89 23 90 24 18 25
REMARK SMILES IDX 19 26 20 27 21 28 22 29 23 31 24 32 25 33 86 34 26 35 85 36
REMARK SMILES IDX 27 37 28 38 29 39 79 40 30 41 84 42 78 43 80 44 31 45 83 46
REMARK SMILES IDX 77 47 76 48 32 50 64 51 44 52 63 53 45 54 48 55 62 56 81 57
REMARK SMILES IDX 46 58 47 59 61 61 82 62 49 63 33 64 34 65 42 66 35 67 36 68
REMARK SMILES IDX 40 69 43 70 37 71 38 72 41 73 39 74 65 75 66 76 74 77 67 78
REMARK SMILES IDX 68 79 72 80 75 81 69 82 70 83 73 84 71 85 50 86 51 87 59 88
REMARK SMILES IDX 52 89 53 90 57 91 60 92 54 93 55 94 58 95 56 96
REMARK H PARENT 14 7 3 12 11 19 21 30 80 49 48 60
REMARK Flexibility Score: inf
ROOT
ATOM      1  C   UNL A   1      32.188  29.413  26.939  1.00  0.00     0.002 C 
ENDROOT
BRANCH   1   2
ATOM      2  C   UNL A   1      33.418  28.595  26.521  1.00  0.00     0.021 C 
BRANCH   2   3
ATOM      3  C   UNL A   1      33.196  27.086  26.502  1.00  0.00     0.116 C 
BRANCH   3   4
ATOM      4  N   UNL A   1      33.607  26.513  25.232  1.00  0.00    -0.354 N 
ATOM      5  C   UNL A   1      32.897  25.872  24.261  1.00  0.00     0.254 C 
ATOM      6  O   UNL A   1      33.541  25.505  23.274  1.00  0.00    -0.272 OA
ATOM      7  H   UNL A   1      34.568  26.604  25.038  1.00  0.00     0.163 HD
BRANCH   5   8
ATOM      8  C   UNL A   1      31.412  25.510  24.428  1.00  0.00     0.212 C 
ATOM      9  C   UNL A   1      31.042  24.531  23.292  1.00  0.00     0.056 C 
BRANCH   8  10
ATOM     10  N   UNL A   1      31.083  24.849  25.727  1.00  0.00    -0.329 N 
ATOM     11  C   UNL A   1      31.658  23.792  26.387  1.00  0.00     0.268 C 
ATOM     12  H   UNL A   1      30.313  25.244  26.196  1.00  0.00     0.165 HD
ATOM     13  O   UNL A   1      31.401  23.694  27.587  1.00  0.00    -0.268 OA
BRANCH  11  14
ATOM     14  C   UNL A   1      32.355  22.758  25.661  1.00  0.00     0.105 A 
ATOM     15  C   UNL A   1      31.835  21.514  25.323  1.00  0.00     0.049 A 
ATOM     16  N   UNL A   1      33.662  22.762  25.218  1.00  0.00    -0.356 N 
ATOM     17  C   UNL A   1      32.793  20.849  24.539  1.00  0.00     0.036 A 
ATOM     18  C   UNL A   1      33.910  21.636  24.472  1.00  0.00     0.098 A 
ATOM     19  H   UNL A   1      34.320  23.468  25.408  1.00  0.00     0.166 HD
ATOM     20  Br  UNL A   1      32.527  19.185  23.730  1.00  0.00    -0.049 Br
ENDBRANCH  11  14
ENDBRANCH   8  10
BRANCH   8  21
ATOM     21  C   UNL A   1      30.573  26.788  24.204  1.00  0.00     0.420 C 
ATOM     22  F   UNL A   1      30.257  27.429  25.350  1.00  0.00    -0.168 F 
ATOM     23  F   UNL A   1      31.279  27.676  23.453  1.00  0.00    -0.168 F 
ATOM     24  F   UNL A   1      29.427  26.544  23.527  1.00  0.00    -0.168 F 
ENDBRANCH   8  21
ENDBRANCH   5   8
ENDBRANCH   3   4
ENDBRANCH   2   3
ENDBRANCH   1   2
BRANCH   1  25
ATOM     25  C   UNL A   1      31.866  30.617  26.047  1.00  0.00     0.002 C 
BRANCH  25  26
ATOM     26  C   UNL A   1      31.519  31.911  26.785  1.00  0.00     0.021 C 
BRANCH  26  27
ATOM     27  C   UNL A   1      32.712  32.697  27.320  1.00  0.00     0.116 C 
BRANCH  27  28
ATOM     28  N   UNL A   1      32.392  34.082  27.625  1.00  0.00    -0.352 N 
ATOM     29  C   UNL A   1      32.985  34.921  28.537  1.00  0.00     0.251 C 
ATOM     30  H   UNL A   1      31.649  34.471  27.109  1.00  0.00     0.163 HD
ATOM     31  O   UNL A   1      32.528  36.038  28.749  1.00  0.00    -0.269 OA
BRANCH  29  32
ATOM     32  C   UNL A   1      34.163  34.451  29.296  1.00  0.00     0.039 A 
ATOM     33  C   UNL A   1      33.963  33.849  30.540  1.00  0.00     0.014 A 
ATOM     34  C   UNL A   1      35.451  34.578  28.768  1.00  0.00     0.014 A 
ATOM     35  C   UNL A   1      35.050  33.304  31.225  1.00  0.00     0.010 A 
ATOM     36  C   UNL A   1      36.525  33.984  29.423  1.00  0.00     0.010 A 
ATOM     37  C   UNL A   1      36.332  33.334  30.653  1.00  0.00    -0.014 A 
BRANCH  37  38
ATOM     38  C   UNL A   1      37.480  32.666  31.311  1.00  0.00     0.031 A 
ATOM     39  C   UNL A   1      38.163  31.506  30.648  1.00  0.00     0.074 A 
ATOM     40  C   UNL A   1      37.852  33.054  32.545  1.00  0.00     0.049 A 
ATOM     41  N   UNL A   1      39.124  30.741  31.102  1.00  0.00    -0.248 NA
ATOM     42  C   UNL A   1      37.682  31.139  29.308  1.00  0.00     0.031 C 
ATOM     43  C   UNL A   1      37.225  34.129  33.316  1.00  0.00     0.029 A 
ATOM     44  N   UNL A   1      38.831  32.574  33.378  1.00  0.00    -0.354 N 
ATOM     45  C   UNL A   1      39.354  29.799  30.110  1.00  0.00     0.074 A 
ATOM     46  C   UNL A   1      38.399  30.055  29.053  1.00  0.00     0.031 C 
ATOM     47  C   UNL A   1      37.839  34.232  34.506  1.00  0.00     0.029 A 
ATOM     48  C   UNL A   1      38.880  33.213  34.593  1.00  0.00     0.049 A 
ATOM     49  H   UNL A   1      39.441  31.843  33.128  1.00  0.00     0.167 HD
ATOM     50  C   UNL A   1      40.292  28.823  30.077  1.00  0.00     0.037 A 
ATOM     51  C   UNL A   1      39.667  32.992  35.661  1.00  0.00     0.037 A 
ATOM     52  C   UNL A   1      41.253  28.584  31.121  1.00  0.00     0.049 A 
ATOM     53  C   UNL A   1      40.705  31.908  35.599  1.00  0.00     0.074 A 
ATOM     54  C   UNL A   1      42.290  27.668  31.150  1.00  0.00     0.029 A 
ATOM     55  N   UNL A   1      41.290  29.268  32.328  1.00  0.00    -0.354 N 
ATOM     56  N   UNL A   1      40.963  31.067  34.627  1.00  0.00    -0.248 NA
ATOM     57  C   UNL A   1      41.566  31.745  36.780  1.00  0.00     0.031 C 
ATOM     58  C   UNL A   1      42.930  27.771  32.391  1.00  0.00     0.029 A 
ATOM     59  C   UNL A   1      42.317  28.777  33.120  1.00  0.00     0.049 A 
ATOM     60  H   UNL A   1      40.677  29.994  32.585  1.00  0.00     0.167 HD
ATOM     61  C   UNL A   1      42.018  30.282  35.071  1.00  0.00     0.074 A 
ATOM     62  C   UNL A   1      42.366  30.760  36.394  1.00  0.00     0.031 C 
ATOM     63  C   UNL A   1      42.638  29.256  34.440  1.00  0.00     0.037 A 
BRANCH  50  64
ATOM     64  C   UNL A   1      40.322  27.941  28.863  1.00  0.00     0.064 A 
ATOM     65  C   UNL A   1      39.610  26.732  28.817  1.00  0.00     0.173 A 
ATOM     66  C   UNL A   1      41.058  28.313  27.728  1.00  0.00     0.173 A 
ATOM     67  F   UNL A   1      38.901  26.326  29.881  1.00  0.00    -0.203 F 
ATOM     68  C   UNL A   1      39.664  25.911  27.695  1.00  0.00     0.198 A 
ATOM     69  C   UNL A   1      41.086  27.503  26.596  1.00  0.00     0.198 A 
ATOM     70  F   UNL A   1      41.753  29.460  27.719  1.00  0.00    -0.203 F 
ATOM     71  F   UNL A   1      39.020  24.735  27.695  1.00  0.00    -0.200 F 
ATOM     72  C   UNL A   1      40.397  26.298  26.584  1.00  0.00     0.200 A 
ATOM     73  F   UNL A   1      41.788  27.882  25.520  1.00  0.00    -0.200 F 
ATOM     74  F   UNL A   1      40.449  25.507  25.503  1.00  0.00    -0.200 F 
ENDBRANCH  50  64
BRANCH  51  75
ATOM     75  C   UNL A   1      39.506  33.832  36.874  1.00  0.00     0.064 A 
ATOM     76  C   UNL A   1      40.109  35.093  36.962  1.00  0.00     0.173 A 
ATOM     77  C   UNL A   1      38.720  33.405  37.954  1.00  0.00     0.173 A 
ATOM     78  F   UNL A   1      40.884  35.534  35.960  1.00  0.00    -0.203 F 
ATOM     79  C   UNL A   1      39.939  35.894  38.088  1.00  0.00     0.198 A 
ATOM     80  C   UNL A   1      38.532  34.216  39.071  1.00  0.00     0.198 A 
ATOM     81  F   UNL A   1      38.117  32.208  37.915  1.00  0.00    -0.203 F 
ATOM     82  F   UNL A   1      40.549  37.086  38.160  1.00  0.00    -0.200 F 
ATOM     83  C   UNL A   1      39.145  35.459  39.138  1.00  0.00     0.200 A 
ATOM     84  F   UNL A   1      37.754  33.797  40.078  1.00  0.00    -0.200 F 
ATOM     85  F   UNL A   1      38.973  36.235  40.217  1.00  0.00    -0.200 F 
ENDBRANCH  51  75
BRANCH  63  86
ATOM     86  C   UNL A   1      43.759  28.581  35.173  1.00  0.00     0.064 A 
ATOM     87  C   UNL A   1      43.525  27.466  35.992  1.00  0.00     0.173 A 
ATOM     88  C   UNL A   1      45.080  29.025  35.026  1.00  0.00     0.173 A 
ATOM     89  F   UNL A   1      42.276  27.015  36.177  1.00  0.00    -0.203 F 
ATOM     90  C   UNL A   1      44.575  26.831  36.650  1.00  0.00     0.198 A 
ATOM     91  C   UNL A   1      46.130  28.373  35.667  1.00  0.00     0.198 A 
ATOM     92  F   UNL A   1      45.354  30.085  34.251  1.00  0.00    -0.203 F 
ATOM     93  F   UNL A   1      44.325  25.790  37.457  1.00  0.00    -0.200 F 
ATOM     94  C   UNL A   1      45.876  27.280  36.482  1.00  0.00     0.200 A 
ATOM     95  F   UNL A   1      47.388  28.802  35.496  1.00  0.00    -0.200 F 
ATOM     96  F   UNL A   1      46.886  26.663  37.110  1.00  0.00    -0.200 F 
ENDBRANCH  63  86
ENDBRANCH  37  38
ENDBRANCH  29  32
ENDBRANCH  27  28
ENDBRANCH  26  27
ENDBRANCH  25  26
ENDBRANCH   1  25
TORSDOF 16
ENDMDL
MODEL 3
REMARK VINA RESULT:     -11.8      5.815     11.188
REMARK SMILES C[C@@](NC(=O)c1cc(Br)c[nH]1)(C(=O)NCCCCCCNC(=O)c1ccc(-c2c3nc(c(-c4c(F)c(F)c(F)c(F)c4F)c4ccc([nH]4)c(-c4c(F)c(F)c(F)c(F)c4F)c4nc(c(-c5c(F)c(F)c(F)c(F)c5F)c5ccc2[nH]5)C=C4)C=C3)cc1)C(F)(F)F
REMARK SMILES IDX 17 1 16 2 15 3 14 4 12 5 13 6 2 8 1 9 3 10 4 11 5 13 6 14
REMARK SMILES IDX 7 15 11 16 8 17 10 18 9 20 87 21 88 22 89 23 90 24 18 25
REMARK SMILES IDX 19 26 20 27 21 28 22 29 23 31 24 32 25 33 86 34 26 35 85 36
REMARK SMILES IDX 27 37 28 38 29 39 79 40 30 41 84 42 78 43 80 44 31 45 83 46
REMARK SMILES IDX 77 47 76 48 32 50 64 51 44 52 63 53 45 54 48 55 62 56 81 57
REMARK SMILES IDX 46 58 47 59 61 61 82 62 49 63 33 64 34 65 42 66 35 67 36 68
REMARK SMILES IDX 40 69 43 70 37 71 38 72 41 73 39 74 65 75 66 76 74 77 67 78
REMARK SMILES IDX 68 79 72 80 75 81 69 82 70 83 73 84 71 85 50 86 51 87 59 88
REMARK SMILES IDX 52 89 53 90 57 91 60 92 54 93 55 94 58 95 56 96
REMARK H PARENT 14 7 3 12 11 19 21 30 80 49 48 60
REMARK Flexibility Score: inf
ROOT
ATOM      1  C   UNL A   1      36.391  21.843  25.752  1.00  0.00     0.002 C 
ENDROOT
BRANCH   1   2
ATOM      2  C   UNL A   1      36.492  23.374  25.784  1.00  0.00     0.021 C 
BRANCH   2   3
ATOM      3  C   UNL A   1      35.488  24.093  24.888  1.00  0.00     0.116 C 
BRANCH   3   4
ATOM      4  N   UNL A   1      34.331  24.533  25.647  1.00  0.00    -0.354 N 
ATOM      5  C   UNL A   1      32.996  24.340  25.450  1.00  0.00     0.254 C 
ATOM      6  O   UNL A   1      32.247  24.840  26.294  1.00  0.00    -0.272 OA
ATOM      7  H   UNL A   1      34.549  25.065  26.447  1.00  0.00     0.163 HD
BRANCH   5   8
ATOM      8  C   UNL A   1      32.441  23.652  24.192  1.00  0.00     0.212 C 
ATOM      9  C   UNL A   1      30.899  23.737  24.259  1.00  0.00     0.056 C 
BRANCH   8  10
ATOM     10  N   UNL A   1      32.877  24.276  22.906  1.00  0.00    -0.329 N 
ATOM     11  C   UNL A   1      32.929  25.585  22.496  1.00  0.00     0.268 C 
ATOM     12  H   UNL A   1      33.183  23.631  22.229  1.00  0.00     0.165 HD
ATOM     13  O   UNL A   1      33.653  25.824  21.530  1.00  0.00    -0.268 OA
BRANCH  11  14
ATOM     14  C   UNL A   1      32.033  26.570  23.050  1.00  0.00     0.105 A 
ATOM     15  C   UNL A   1      30.873  27.042  22.445  1.00  0.00     0.049 A 
ATOM     16  N   UNL A   1      32.164  27.274  24.229  1.00  0.00    -0.356 N 
ATOM     17  C   UNL A   1      30.241  27.910  23.350  1.00  0.00     0.036 A 
ATOM     18  C   UNL A   1      31.042  28.035  24.452  1.00  0.00     0.098 A 
ATOM     19  H   UNL A   1      32.947  27.237  24.824  1.00  0.00     0.166 HD
ATOM     20  Br  UNL A   1      28.578  28.713  23.059  1.00  0.00    -0.049 Br
ENDBRANCH  11  14
ENDBRANCH   8  10
BRANCH   8  21
ATOM     21  C   UNL A   1      32.806  22.152  24.256  1.00  0.00     0.420 C 
ATOM     22  F   UNL A   1      33.030  21.709  25.511  1.00  0.00    -0.168 F 
ATOM     23  F   UNL A   1      31.778  21.407  23.766  1.00  0.00    -0.168 F 
ATOM     24  F   UNL A   1      33.889  21.849  23.502  1.00  0.00    -0.168 F 
ENDBRANCH   8  21
ENDBRANCH   5   8
ENDBRANCH   3   4
ENDBRANCH   2   3
ENDBRANCH   1   2
BRANCH   1  25
ATOM     25  C   UNL A   1      37.141  21.158  24.605  1.00  0.00     0.002 C 
BRANCH  25  26
ATOM     26  C   UNL A   1      38.002  19.959  25.001  1.00  0.00     0.021 C 
BRANCH  26  27
ATOM     27  C   UNL A   1      39.251  20.292  25.813  1.00  0.00     0.116 C 
BRANCH  27  28
ATOM     28  N   UNL A   1      40.194  19.188  25.888  1.00  0.00    -0.352 N 
ATOM     29  C   UNL A   1      41.545  19.226  26.126  1.00  0.00     0.251 C 
ATOM     30  H   UNL A   1      39.811  18.292  25.749  1.00  0.00     0.163 HD
ATOM     31  O   UNL A   1      42.222  18.207  26.056  1.00  0.00    -0.269 OA
BRANCH  29  32
ATOM     32  C   UNL A   1      42.192  20.519  26.431  1.00  0.00     0.039 A 
ATOM     33  C   UNL A   1      42.687  21.288  25.376  1.00  0.00     0.014 A 
ATOM     34  C   UNL A   1      42.281  20.982  27.748  1.00  0.00     0.014 A 
ATOM     35  C   UNL A   1      43.205  22.558  25.630  1.00  0.00     0.010 A 
ATOM     36  C   UNL A   1      42.744  22.271  27.994  1.00  0.00     0.010 A 
ATOM     37  C   UNL A   1      43.202  23.073  26.937  1.00  0.00    -0.014 A 
BRANCH  37  38
ATOM     38  C   UNL A   1      43.646  24.460  27.214  1.00  0.00     0.031 A 
ATOM     39  C   UNL A   1      42.666  25.485  27.703  1.00  0.00     0.074 A 
ATOM     40  C   UNL A   1      44.917  24.813  26.946  1.00  0.00     0.049 A 
ATOM     41  N   UNL A   1      42.844  26.764  27.919  1.00  0.00    -0.248 NA
ATOM     42  C   UNL A   1      41.295  25.016  27.954  1.00  0.00     0.031 C 
ATOM     43  C   UNL A   1      45.946  23.919  26.412  1.00  0.00     0.029 A 
ATOM     44  N   UNL A   1      45.554  26.022  27.064  1.00  0.00    -0.354 N 
ATOM     45  C   UNL A   1      41.610  27.253  28.320  1.00  0.00     0.074 A 
ATOM     46  C   UNL A   1      40.679  26.146  28.269  1.00  0.00     0.031 C 
ATOM     47  C   UNL A   1      47.087  24.609  26.254  1.00  0.00     0.029 A 
ATOM     48  C   UNL A   1      46.862  25.996  26.647  1.00  0.00     0.049 A 
ATOM     49  H   UNL A   1      45.116  26.831  27.415  1.00  0.00     0.167 HD
ATOM     50  C   UNL A   1      41.288  28.508  28.716  1.00  0.00     0.037 A 
ATOM     51  C   UNL A   1      47.774  26.984  26.577  1.00  0.00     0.037 A 
ATOM     52  C   UNL A   1      42.221  29.601  28.785  1.00  0.00     0.049 A 
ATOM     53  C   UNL A   1      47.396  28.366  27.028  1.00  0.00     0.074 A 
ATOM     54  C   UNL A   1      42.011  30.890  29.243  1.00  0.00     0.029 A 
ATOM     55  N   UNL A   1      43.547  29.532  28.379  1.00  0.00    -0.354 N 
ATOM     56  N   UNL A   1      46.244  28.803  27.474  1.00  0.00    -0.248 NA
ATOM     57  C   UNL A   1      48.448  29.392  26.971  1.00  0.00     0.031 C 
ATOM     58  C   UNL A   1      43.199  31.612  29.077  1.00  0.00     0.029 A 
ATOM     59  C   UNL A   1      44.160  30.763  28.552  1.00  0.00     0.049 A 
ATOM     60  H   UNL A   1      43.986  28.728  28.021  1.00  0.00     0.167 HD
ATOM     61  C   UNL A   1      46.430  30.148  27.760  1.00  0.00     0.074 A 
ATOM     62  C   UNL A   1      47.814  30.452  27.455  1.00  0.00     0.031 C 
ATOM     63  C   UNL A   1      45.534  31.050  28.229  1.00  0.00     0.037 A 
BRANCH  50  64
ATOM     64  C   UNL A   1      39.862  28.759  29.109  1.00  0.00     0.064 A 
ATOM     65  C   UNL A   1      39.428  28.601  30.435  1.00  0.00     0.173 A 
ATOM     66  C   UNL A   1      38.921  29.173  28.156  1.00  0.00     0.173 A 
ATOM     67  F   UNL A   1      40.287  28.194  31.382  1.00  0.00    -0.203 F 
ATOM     68  C   UNL A   1      38.098  28.814  30.784  1.00  0.00     0.198 A 
ATOM     69  C   UNL A   1      37.596  29.413  28.513  1.00  0.00     0.198 A 
ATOM     70  F   UNL A   1      39.284  29.343  26.875  1.00  0.00    -0.203 F 
ATOM     71  F   UNL A   1      37.695  28.604  32.045  1.00  0.00    -0.200 F 
ATOM     72  C   UNL A   1      37.184  29.224  29.825  1.00  0.00     0.200 A 
ATOM     73  F   UNL A   1      36.716  29.818  27.588  1.00  0.00    -0.200 F 
ATOM     74  F   UNL A   1      35.903  29.429  30.161  1.00  0.00    -0.200 F 
ENDBRANCH  50  64
BRANCH  51  75
ATOM     75  C   UNL A   1      49.137  26.686  26.071  1.00  0.00     0.064 A 
ATOM     76  C   UNL A   1      50.105  26.112  26.904  1.00  0.00     0.173 A 
ATOM     77  C   UNL A   1      49.487  26.940  24.737  1.00  0.00     0.173 A 
ATOM     78  F   UNL A   1      49.819  25.871  28.192  1.00  0.00    -0.203 F 
ATOM     79  C   UNL A   1      51.377  25.809  26.426  1.00  0.00     0.198 A 
ATOM     80  C   UNL A   1      50.753  26.615  24.252  1.00  0.00     0.198 A 
ATOM     81  F   UNL A   1      48.593  27.482  23.898  1.00  0.00    -0.203 F 
ATOM     82  F   UNL A   1      52.295  25.286  27.250  1.00  0.00    -0.200 F 
ATOM     83  C   UNL A   1      51.697  26.053  25.098  1.00  0.00     0.200 A 
ATOM     84  F   UNL A   1      51.054  26.840  22.966  1.00  0.00    -0.200 F 
ATOM     85  F   UNL A   1      52.918  25.750  24.635  1.00  0.00    -0.200 F 
ENDBRANCH  51  75
BRANCH  63  86
ATOM     86  C   UNL A   1      46.023  32.452  28.442  1.00  0.00     0.064 A 
ATOM     87  C   UNL A   1      46.606  32.843  29.657  1.00  0.00     0.173 A 
ATOM     88  C   UNL A   1      45.946  33.399  27.412  1.00  0.00     0.173 A 
ATOM     89  F   UNL A   1      46.686  31.975  30.677  1.00  0.00    -0.203 F 
ATOM     90  C   UNL A   1      47.079  34.140  29.837  1.00  0.00     0.198 A 
ATOM     91  C   UNL A   1      46.442  34.689  27.588  1.00  0.00     0.198 A 
ATOM     92  F   UNL A   1      45.401  33.072  26.231  1.00  0.00    -0.203 F 
ATOM     93  F   UNL A   1      47.598  34.503  31.018  1.00  0.00    -0.200 F 
ATOM     94  C   UNL A   1      47.002  35.059  28.801  1.00  0.00     0.200 A 
ATOM     95  F   UNL A   1      46.376  35.573  26.583  1.00  0.00    -0.200 F 
ATOM     96  F   UNL A   1      47.465  36.305  28.974  1.00  0.00    -0.200 F 
ENDBRANCH  63  86
ENDBRANCH  37  38
ENDBRANCH  29  32
ENDBRANCH  27  28
ENDBRANCH  26  27
ENDBRANCH  25  26
ENDBRANCH   1  25
TORSDOF 16
ENDMDL
