MODEL 1
REMARK VINA RESULT:     -11.8      0.000      0.000
REMARK SMILES CC[NH+]1CCC(CC(=O)N[C@H](C(=O)NCCCCCCNC(=O)c2ccc(-c3c4nc(c(-c5c(F)c(F)c(F)c(F)c5F)c5ccc([nH]5)c(-c5c(F)c(F)c(F)c(F)c5F)c5nc(c(-c6c(F)c(F)c(F)c(F)c6F)c6ccc3[nH]6)C=C5)C=C4)cc2)c2ccc(F)cc2F)CC1
REMARK SMILES IDX 16 1 15 2 14 3 12 4 13 5 11 7 10 8 8 9 9 10 7 12 6 13 3 14
REMARK SMILES IDX 4 15 96 16 5 18 95 19 2 20 1 21 87 22 88 23 93 24 89 25
REMARK SMILES IDX 92 26 94 27 90 28 91 29 17 30 18 31 19 32 20 33 21 34 22 35
REMARK SMILES IDX 23 37 24 38 25 39 86 40 26 41 85 42 27 43 28 44 29 45 79 46
REMARK SMILES IDX 30 47 84 48 78 49 80 50 31 51 83 52 77 53 76 54 32 56 64 57
REMARK SMILES IDX 44 58 63 59 45 60 48 61 62 62 81 63 46 64 47 65 61 67 82 68
REMARK SMILES IDX 49 69 33 70 34 71 42 72 35 73 36 74 40 75 43 76 37 77 38 78
REMARK SMILES IDX 41 79 39 80 65 81 66 82 74 83 67 84 68 85 72 86 75 87 69 88
REMARK SMILES IDX 70 89 73 90 71 91 50 92 51 93 59 94 52 95 53 96 57 97 60 98
REMARK SMILES IDX 54 99 55 100 58 101 56 102
REMARK H PARENT 14 6 10 11 3 17 21 36 80 55 48 66
REMARK Flexibility Score: inf
ROOT
ATOM      1  C   UNL A   1      36.546  22.927  24.561  1.00  0.00     0.021 C 
ENDROOT
BRANCH   1   2
ATOM      2  C   UNL A   1      35.886  24.061  25.342  1.00  0.00     0.116 C 
BRANCH   2   3
ATOM      3  N   UNL A   1      34.802  23.624  26.212  1.00  0.00    -0.354 N 
ATOM      4  C   UNL A   1      33.463  23.948  26.198  1.00  0.00     0.247 C 
ATOM      5  O   UNL A   1      32.703  23.363  26.973  1.00  0.00    -0.272 OA
ATOM      6  H   UNL A   1      35.068  22.997  26.924  1.00  0.00     0.163 HD
BRANCH   4   7
ATOM      7  C   UNL A   1      32.950  24.972  25.169  1.00  0.00     0.205 C 
BRANCH   7   8
ATOM      8  N   UNL A   1      31.701  24.531  24.547  1.00  0.00    -0.340 N 
ATOM      9  C   UNL A   1      31.488  23.540  23.633  1.00  0.00     0.221 C 
ATOM     10  O   UNL A   1      30.390  23.479  23.077  1.00  0.00    -0.275 OA
ATOM     11  H   UNL A   1      30.895  25.024  24.828  1.00  0.00     0.164 HD
BRANCH   9  12
ATOM     12  C   UNL A   1      32.561  22.495  23.346  1.00  0.00     0.104 C 
BRANCH  12  13
ATOM     13  C   UNL A   1      32.261  21.024  23.719  1.00  0.00     0.009 C 
ATOM     14  N   UNL A   1      33.437  18.339  23.654  1.00  0.00    -0.335 N 
ATOM     15  C   UNL A   1      32.230  18.606  22.864  1.00  0.00     0.262 C 
ATOM     16  C   UNL A   1      33.304  19.010  24.954  1.00  0.00     0.262 C 
ATOM     17  H   UNL A   1      34.254  18.720  23.176  1.00  0.00     0.348 HD
ATOM     18  C   UNL A   1      32.245  20.082  22.514  1.00  0.00     0.066 C 
ATOM     19  C   UNL A   1      33.298  20.534  24.754  1.00  0.00     0.066 C 
BRANCH  14  20
ATOM     20  C   UNL A   1      33.701  16.904  23.776  1.00  0.00     0.258 C 
ATOM     21  C   UNL A   1      34.781  16.641  24.826  1.00  0.00     0.071 C 
ENDBRANCH  14  20
ENDBRANCH  12  13
ENDBRANCH   9  12
ENDBRANCH   7   8
BRANCH   7  22
ATOM     22  C   UNL A   1      32.890  26.414  25.670  1.00  0.00     0.020 A 
ATOM     23  C   UNL A   1      33.963  27.316  25.522  1.00  0.00     0.012 A 
ATOM     24  C   UNL A   1      31.830  26.801  26.504  1.00  0.00     0.131 A 
ATOM     25  C   UNL A   1      33.992  28.514  26.242  1.00  0.00     0.040 A 
ATOM     26  C   UNL A   1      31.848  27.995  27.218  1.00  0.00     0.078 A 
ATOM     27  F   UNL A   1      30.794  25.976  26.690  1.00  0.00    -0.206 F 
ATOM     28  C   UNL A   1      32.943  28.833  27.095  1.00  0.00     0.126 A 
ATOM     29  F   UNL A   1      33.003  29.952  27.828  1.00  0.00    -0.207 F 
ENDBRANCH   7  22
ENDBRANCH   4   7
ENDBRANCH   2   3
ENDBRANCH   1   2
BRANCH   1  30
ATOM     30  C   UNL A   1      37.076  21.789  25.434  1.00  0.00     0.002 C 
BRANCH  30  31
ATOM     31  C   UNL A   1      36.862  20.385  24.861  1.00  0.00     0.002 C 
BRANCH  31  32
ATOM     32  C   UNL A   1      38.044  19.423  25.021  1.00  0.00     0.021 C 
BRANCH  32  33
ATOM     33  C   UNL A   1      39.216  19.974  25.828  1.00  0.00     0.116 C 
BRANCH  33  34
ATOM     34  N   UNL A   1      40.326  19.038  25.890  1.00  0.00    -0.352 N 
ATOM     35  C   UNL A   1      41.661  19.267  26.097  1.00  0.00     0.251 C 
ATOM     36  H   UNL A   1      40.080  18.093  25.764  1.00  0.00     0.163 HD
ATOM     37  O   UNL A   1      42.471  18.361  25.929  1.00  0.00    -0.269 OA
BRANCH  35  38
ATOM     38  C   UNL A   1      42.138  20.605  26.509  1.00  0.00     0.039 A 
ATOM     39  C   UNL A   1      42.537  21.507  25.518  1.00  0.00     0.014 A 
ATOM     40  C   UNL A   1      42.234  20.962  27.857  1.00  0.00     0.014 A 
ATOM     41  C   UNL A   1      42.988  22.779  25.876  1.00  0.00     0.010 A 
ATOM     42  C   UNL A   1      42.620  22.254  28.211  1.00  0.00     0.010 A 
ATOM     43  C   UNL A   1      43.007  23.172  27.224  1.00  0.00    -0.014 A 
BRANCH  43  44
ATOM     44  C   UNL A   1      43.435  24.541  27.608  1.00  0.00     0.031 A 
ATOM     45  C   UNL A   1      42.414  25.590  27.952  1.00  0.00     0.074 A 
ATOM     46  C   UNL A   1      44.746  24.850  27.608  1.00  0.00     0.049 A 
ATOM     47  N   UNL A   1      42.596  26.843  28.287  1.00  0.00    -0.248 NA
ATOM     48  C   UNL A   1      41.001  25.187  27.886  1.00  0.00     0.031 C 
ATOM     49  C   UNL A   1      45.829  23.934  27.244  1.00  0.00     0.029 A 
ATOM     50  N   UNL A   1      45.391  26.019  27.922  1.00  0.00    -0.354 N 
ATOM     51  C   UNL A   1      41.326  27.376  28.464  1.00  0.00     0.074 A 
ATOM     52  C   UNL A   1      40.380  26.327  28.146  1.00  0.00     0.031 C 
ATOM     53  C   UNL A   1      47.005  24.567  27.382  1.00  0.00     0.029 A 
ATOM     54  C   UNL A   1      46.758  25.940  27.815  1.00  0.00     0.049 A 
ATOM     55  H   UNL A   1      44.919  26.837  28.198  1.00  0.00     0.167 HD
ATOM     56  C   UNL A   1      40.979  28.619  28.878  1.00  0.00     0.037 A 
ATOM     57  C   UNL A   1      47.705  26.869  28.047  1.00  0.00     0.037 A 
ATOM     58  C   UNL A   1      41.921  29.654  29.217  1.00  0.00     0.049 A 
ATOM     59  C   UNL A   1      47.292  28.235  28.523  1.00  0.00     0.074 A 
ATOM     60  C   UNL A   1      41.671  30.932  29.684  1.00  0.00     0.029 A 
ATOM     61  N   UNL A   1      43.299  29.524  29.127  1.00  0.00    -0.354 N 
ATOM     62  N   UNL A   1      46.089  28.706  28.746  1.00  0.00    -0.248 NA
ATOM     63  C   UNL A   1      48.372  29.193  28.795  1.00  0.00     0.031 C 
ATOM     64  C   UNL A   1      42.896  31.589  29.845  1.00  0.00     0.029 A 
ATOM     65  C   UNL A   1      43.912  30.703  29.523  1.00  0.00     0.049 A 
ATOM     66  H   UNL A   1      43.773  28.715  28.828  1.00  0.00     0.167 HD
ATOM     67  C   UNL A   1      46.269  30.000  29.216  1.00  0.00     0.074 A 
ATOM     68  C   UNL A   1      47.698  30.233  29.260  1.00  0.00     0.031 C 
ATOM     69  C   UNL A   1      45.335  30.913  29.577  1.00  0.00     0.037 A 
BRANCH  56  70
ATOM     70  C   UNL A   1      39.514  28.926  29.001  1.00  0.00     0.064 A 
ATOM     71  C   UNL A   1      38.846  28.827  30.231  1.00  0.00     0.173 A 
ATOM     72  C   UNL A   1      38.779  29.366  27.889  1.00  0.00     0.173 A 
ATOM     73  F   UNL A   1      39.499  28.400  31.322  1.00  0.00    -0.203 F 
ATOM     74  C   UNL A   1      37.491  29.132  30.338  1.00  0.00     0.198 A 
ATOM     75  C   UNL A   1      37.432  29.699  28.007  1.00  0.00     0.198 A 
ATOM     76  F   UNL A   1      39.371  29.483  26.692  1.00  0.00    -0.203 F 
ATOM     77  F   UNL A   1      36.864  28.987  31.514  1.00  0.00    -0.200 F 
ATOM     78  C   UNL A   1      36.788  29.576  29.228  1.00  0.00     0.200 A 
ATOM     79  F   UNL A   1      36.757  30.138  26.936  1.00  0.00    -0.200 F 
ATOM     80  F   UNL A   1      35.487  29.878  29.335  1.00  0.00    -0.200 F 
ENDBRANCH  56  70
BRANCH  57  81
ATOM     81  C   UNL A   1      49.141  26.527  27.873  1.00  0.00     0.064 A 
ATOM     82  C   UNL A   1      49.958  26.271  28.983  1.00  0.00     0.173 A 
ATOM     83  C   UNL A   1      49.729  26.469  26.601  1.00  0.00     0.173 A 
ATOM     84  F   UNL A   1      49.445  26.334  30.220  1.00  0.00    -0.203 F 
ATOM     85  C   UNL A   1      51.316  25.996  28.829  1.00  0.00     0.198 A 
ATOM     86  C   UNL A   1      51.081  26.167  26.448  1.00  0.00     0.198 A 
ATOM     87  F   UNL A   1      48.989  26.701  25.507  1.00  0.00    -0.203 F 
ATOM     88  F   UNL A   1      52.084  25.807  29.911  1.00  0.00    -0.200 F 
ATOM     89  C   UNL A   1      51.875  25.941  27.562  1.00  0.00     0.200 A 
ATOM     90  F   UNL A   1      51.615  26.100  25.221  1.00  0.00    -0.200 F 
ATOM     91  F   UNL A   1      53.181  25.678  27.415  1.00  0.00    -0.200 F 
ENDBRANCH  57  81
BRANCH  69  92
ATOM     92  C   UNL A   1      45.832  32.230  30.099  1.00  0.00     0.064 A 
ATOM     93  C   UNL A   1      46.052  33.326  29.251  1.00  0.00     0.173 A 
ATOM     94  C   UNL A   1      46.079  32.399  31.470  1.00  0.00     0.173 A 
ATOM     95  F   UNL A   1      45.845  33.209  27.931  1.00  0.00    -0.203 F 
ATOM     96  C   UNL A   1      46.534  34.532  29.751  1.00  0.00     0.198 A 
ATOM     97  C   UNL A   1      46.532  33.616  31.971  1.00  0.00     0.198 A 
ATOM     98  F   UNL A   1      45.878  31.385  32.324  1.00  0.00    -0.203 F 
ATOM     99  F   UNL A   1      46.791  35.546  28.915  1.00  0.00    -0.200 F 
ATOM    100  C   UNL A   1      46.769  34.678  31.110  1.00  0.00     0.200 A 
ATOM    101  F   UNL A   1      46.746  33.760  33.286  1.00  0.00    -0.200 F 
ATOM    102  F   UNL A   1      47.233  35.840  31.590  1.00  0.00    -0.200 F 
ENDBRANCH  69  92
ENDBRANCH  43  44
ENDBRANCH  35  38
ENDBRANCH  33  34
ENDBRANCH  32  33
ENDBRANCH  31  32
ENDBRANCH  30  31
ENDBRANCH   1  30
TORSDOF 18
ENDMDL
MODEL 2
REMARK VINA RESULT:     -11.8      2.403      8.192
REMARK SMILES CC[NH+]1CCC(CC(=O)N[C@H](C(=O)NCCCCCCNC(=O)c2ccc(-c3c4nc(c(-c5c(F)c(F)c(F)c(F)c5F)c5ccc([nH]5)c(-c5c(F)c(F)c(F)c(F)c5F)c5nc(c(-c6c(F)c(F)c(F)c(F)c6F)c6ccc3[nH]6)C=C5)C=C4)cc2)c2ccc(F)cc2F)CC1
REMARK SMILES IDX 16 1 15 2 14 3 12 4 13 5 11 7 10 8 8 9 9 10 7 12 6 13 3 14
REMARK SMILES IDX 4 15 96 16 5 18 95 19 2 20 1 21 87 22 88 23 93 24 89 25
REMARK SMILES IDX 92 26 94 27 90 28 91 29 17 30 18 31 19 32 20 33 21 34 22 35
REMARK SMILES IDX 23 37 24 38 25 39 86 40 26 41 85 42 27 43 28 44 29 45 79 46
REMARK SMILES IDX 30 47 84 48 78 49 80 50 31 51 83 52 77 53 76 54 32 56 64 57
REMARK SMILES IDX 44 58 63 59 45 60 48 61 62 62 81 63 46 64 47 65 61 67 82 68
REMARK SMILES IDX 49 69 33 70 34 71 42 72 35 73 36 74 40 75 43 76 37 77 38 78
REMARK SMILES IDX 41 79 39 80 65 81 66 82 74 83 67 84 68 85 72 86 75 87 69 88
REMARK SMILES IDX 70 89 73 90 71 91 50 92 51 93 59 94 52 95 53 96 57 97 60 98
REMARK SMILES IDX 54 99 55 100 58 101 56 102
REMARK H PARENT 14 6 10 11 3 17 21 36 80 55 48 66
REMARK Flexibility Score: inf
ROOT
ATOM      1  C   UNL A   1      35.088  24.008  24.159  1.00  0.00     0.021 C 
ENDROOT
BRANCH   1   2
ATOM      2  C   UNL A   1      34.577  23.100  23.043  1.00  0.00     0.116 C 
BRANCH   2   3
ATOM      3  N   UNL A   1      33.155  23.256  22.762  1.00  0.00    -0.354 N 
ATOM      4  C   UNL A   1      32.056  22.829  23.474  1.00  0.00     0.247 C 
ATOM      5  O   UNL A   1      30.934  23.175  23.096  1.00  0.00    -0.272 OA
ATOM      6  H   UNL A   1      32.946  23.743  21.932  1.00  0.00     0.163 HD
BRANCH   4   7
ATOM      7  C   UNL A   1      32.265  21.999  24.754  1.00  0.00     0.205 C 
BRANCH   7   8
ATOM      8  N   UNL A   1      31.178  22.201  25.712  1.00  0.00    -0.340 N 
ATOM      9  C   UNL A   1      31.093  23.073  26.758  1.00  0.00     0.221 C 
ATOM     10  O   UNL A   1      30.179  22.928  27.571  1.00  0.00    -0.275 OA
ATOM     11  H   UNL A   1      30.392  21.620  25.583  1.00  0.00     0.164 HD
BRANCH   9  12
ATOM     12  C   UNL A   1      32.070  24.237  26.890  1.00  0.00     0.104 C 
BRANCH  12  13
ATOM     13  C   UNL A   1      32.028  25.347  25.814  1.00  0.00     0.009 C 
ATOM     14  N   UNL A   1      31.502  28.210  25.468  1.00  0.00    -0.335 N 
ATOM     15  C   UNL A   1      30.623  27.241  24.804  1.00  0.00     0.262 C 
ATOM     16  C   UNL A   1      32.889  27.738  25.358  1.00  0.00     0.262 C 
ATOM     17  H   UNL A   1      31.261  28.274  26.457  1.00  0.00     0.348 HD
ATOM     18  C   UNL A   1      30.645  25.976  25.642  1.00  0.00     0.066 C 
ATOM     19  C   UNL A   1      33.062  26.441  26.163  1.00  0.00     0.066 C 
BRANCH  14  20
ATOM     20  C   UNL A   1      31.315  29.563  24.941  1.00  0.00     0.258 C 
ATOM     21  C   UNL A   1      30.332  29.554  23.769  1.00  0.00     0.071 C 
ENDBRANCH  14  20
ENDBRANCH  12  13
ENDBRANCH   9  12
ENDBRANCH   7   8
BRANCH   7  22
ATOM     22  C   UNL A   1      32.587  20.524  24.519  1.00  0.00     0.020 A 
ATOM     23  C   UNL A   1      32.278  19.859  23.316  1.00  0.00     0.012 A 
ATOM     24  C   UNL A   1      32.997  19.736  25.606  1.00  0.00     0.131 A 
ATOM     25  C   UNL A   1      32.311  18.463  23.243  1.00  0.00     0.040 A 
ATOM     26  C   UNL A   1      33.039  18.348  25.539  1.00  0.00     0.078 A 
ATOM     27  F   UNL A   1      33.288  20.316  26.776  1.00  0.00    -0.206 F 
ATOM     28  C   UNL A   1      32.675  17.722  24.360  1.00  0.00     0.126 A 
ATOM     29  F   UNL A   1      32.647  16.384  24.303  1.00  0.00    -0.207 F 
ENDBRANCH   7  22
ENDBRANCH   4   7
ENDBRANCH   2   3
ENDBRANCH   1   2
BRANCH   1  30
ATOM     30  C   UNL A   1      36.196  23.391  25.012  1.00  0.00     0.002 C 
BRANCH  30  31
ATOM     31  C   UNL A   1      35.892  21.986  25.541  1.00  0.00     0.002 C 
BRANCH  31  32
ATOM     32  C   UNL A   1      36.939  20.917  25.205  1.00  0.00     0.021 C 
BRANCH  32  33
ATOM     33  C   UNL A   1      38.388  21.379  25.321  1.00  0.00     0.116 C 
BRANCH  33  34
ATOM     34  N   UNL A   1      39.183  20.484  26.146  1.00  0.00    -0.352 N 
ATOM     35  C   UNL A   1      40.294  20.741  26.907  1.00  0.00     0.251 C 
ATOM     36  H   UNL A   1      38.876  19.549  26.161  1.00  0.00     0.163 HD
ATOM     37  O   UNL A   1      40.936  19.812  27.386  1.00  0.00    -0.269 OA
BRANCH  35  38
ATOM     38  C   UNL A   1      40.735  22.133  27.145  1.00  0.00     0.039 A 
ATOM     39  C   UNL A   1      41.724  22.365  28.105  1.00  0.00     0.014 A 
ATOM     40  C   UNL A   1      40.157  23.207  26.463  1.00  0.00     0.014 A 
ATOM     41  C   UNL A   1      42.164  23.668  28.349  1.00  0.00     0.010 A 
ATOM     42  C   UNL A   1      40.642  24.499  26.659  1.00  0.00     0.010 A 
ATOM     43  C   UNL A   1      41.645  24.743  27.608  1.00  0.00    -0.014 A 
BRANCH  43  44
ATOM     44  C   UNL A   1      42.146  26.124  27.825  1.00  0.00     0.031 A 
ATOM     45  C   UNL A   1      43.484  26.543  27.282  1.00  0.00     0.074 A 
ATOM     46  C   UNL A   1      41.410  26.989  28.548  1.00  0.00     0.049 A 
ATOM     47  N   UNL A   1      44.097  27.696  27.390  1.00  0.00    -0.248 NA
ATOM     48  C   UNL A   1      44.247  25.527  26.541  1.00  0.00     0.031 C 
ATOM     49  C   UNL A   1      40.119  26.686  29.170  1.00  0.00     0.029 A 
ATOM     50  N   UNL A   1      41.640  28.300  28.883  1.00  0.00    -0.354 N 
ATOM     51  C   UNL A   1      45.314  27.540  26.740  1.00  0.00     0.074 A 
ATOM     52  C   UNL A   1      45.379  26.167  26.288  1.00  0.00     0.031 C 
ATOM     53  C   UNL A   1      39.660  27.786  29.788  1.00  0.00     0.029 A 
ATOM     54  C   UNL A   1      40.634  28.862  29.630  1.00  0.00     0.049 A 
ATOM     55  H   UNL A   1      42.450  28.790  28.614  1.00  0.00     0.167 HD
ATOM     56  C   UNL A   1      46.279  28.465  26.518  1.00  0.00     0.037 A 
ATOM     57  C   UNL A   1      40.511  30.108  30.127  1.00  0.00     0.037 A 
ATOM     58  C   UNL A   1      46.203  29.837  26.948  1.00  0.00     0.049 A 
ATOM     59  C   UNL A   1      41.590  31.119  29.850  1.00  0.00     0.074 A 
ATOM     60  C   UNL A   1      47.111  30.861  26.737  1.00  0.00     0.029 A 
ATOM     61  N   UNL A   1      45.153  30.378  27.674  1.00  0.00    -0.354 N 
ATOM     62  N   UNL A   1      42.708  30.975  29.180  1.00  0.00    -0.248 NA
ATOM     63  C   UNL A   1      41.381  32.471  30.385  1.00  0.00     0.031 C 
ATOM     64  C   UNL A   1      46.625  32.013  27.366  1.00  0.00     0.029 A 
ATOM     65  C   UNL A   1      45.394  31.719  27.927  1.00  0.00     0.049 A 
ATOM     66  H   UNL A   1      44.353  29.883  27.966  1.00  0.00     0.167 HD
ATOM     67  C   UNL A   1      43.317  32.223  29.184  1.00  0.00     0.074 A 
ATOM     68  C   UNL A   1      42.436  33.115  29.910  1.00  0.00     0.031 C 
ATOM     69  C   UNL A   1      44.499  32.596  28.636  1.00  0.00     0.037 A 
BRANCH  56  70
ATOM     70  C   UNL A   1      47.501  28.026  25.763  1.00  0.00     0.064 A 
ATOM     71  C   UNL A   1      48.697  27.710  26.425  1.00  0.00     0.173 A 
ATOM     72  C   UNL A   1      47.464  27.876  24.368  1.00  0.00     0.173 A 
ATOM     73  F   UNL A   1      48.789  27.848  27.756  1.00  0.00    -0.203 F 
ATOM     74  C   UNL A   1      49.819  27.286  25.716  1.00  0.00     0.198 A 
ATOM     75  C   UNL A   1      48.579  27.423  23.666  1.00  0.00     0.198 A 
ATOM     76  F   UNL A   1      46.344  28.159  23.687  1.00  0.00    -0.203 F 
ATOM     77  F   UNL A   1      50.964  27.034  26.366  1.00  0.00    -0.200 F 
ATOM     78  C   UNL A   1      49.756  27.135  24.339  1.00  0.00     0.200 A 
ATOM     79  F   UNL A   1      48.513  27.267  22.337  1.00  0.00    -0.200 F 
ATOM     80  F   UNL A   1      50.833  26.718  23.660  1.00  0.00    -0.200 F 
ENDBRANCH  56  70
BRANCH  57  81
ATOM     81  C   UNL A   1      39.300  30.483  30.902  1.00  0.00     0.064 A 
ATOM     82  C   UNL A   1      38.174  31.019  30.261  1.00  0.00     0.173 A 
ATOM     83  C   UNL A   1      39.249  30.334  32.295  1.00  0.00     0.173 A 
ATOM     84  F   UNL A   1      38.184  31.199  28.931  1.00  0.00    -0.203 F 
ATOM     85  C   UNL A   1      37.053  31.417  30.987  1.00  0.00     0.198 A 
ATOM     86  C   UNL A   1      38.117  30.706  33.017  1.00  0.00     0.198 A 
ATOM     87  F   UNL A   1      40.298  29.821  32.955  1.00  0.00    -0.203 F 
ATOM     88  F   UNL A   1      36.012  31.975  30.354  1.00  0.00    -0.200 F 
ATOM     89  C   UNL A   1      37.024  31.256  32.364  1.00  0.00     0.200 A 
ATOM     90  F   UNL A   1      38.086  30.537  34.346  1.00  0.00    -0.200 F 
ATOM     91  F   UNL A   1      35.946  31.640  33.062  1.00  0.00    -0.200 F 
ENDBRANCH  57  81
BRANCH  69  92
ATOM     92  C   UNL A   1      44.883  34.042  28.761  1.00  0.00     0.064 A 
ATOM     93  C   UNL A   1      44.455  35.004  27.833  1.00  0.00     0.173 A 
ATOM     94  C   UNL A   1      45.679  34.472  29.834  1.00  0.00     0.173 A 
ATOM     95  F   UNL A   1      43.706  34.639  26.782  1.00  0.00    -0.203 F 
ATOM     96  C   UNL A   1      44.840  36.336  27.954  1.00  0.00     0.198 A 
ATOM     97  C   UNL A   1      46.037  35.811  29.969  1.00  0.00     0.198 A 
ATOM     98  F   UNL A   1      46.108  33.595  30.753  1.00  0.00    -0.203 F 
ATOM     99  F   UNL A   1      44.468  37.225  27.024  1.00  0.00    -0.200 F 
ATOM    100  C   UNL A   1      45.626  36.739  29.024  1.00  0.00     0.200 A 
ATOM    101  F   UNL A   1      46.784  36.201  31.010  1.00  0.00    -0.200 F 
ATOM    102  F   UNL A   1      45.995  38.022  29.139  1.00  0.00    -0.200 F 
ENDBRANCH  69  92
ENDBRANCH  43  44
ENDBRANCH  35  38
ENDBRANCH  33  34
ENDBRANCH  32  33
ENDBRANCH  31  32
ENDBRANCH  30  31
ENDBRANCH   1  30
TORSDOF 18
ENDMDL
MODEL 3
REMARK VINA RESULT:     -11.7      0.531      7.222
REMARK SMILES CC[NH+]1CCC(CC(=O)N[C@H](C(=O)NCCCCCCNC(=O)c2ccc(-c3c4nc(c(-c5c(F)c(F)c(F)c(F)c5F)c5ccc([nH]5)c(-c5c(F)c(F)c(F)c(F)c5F)c5nc(c(-c6c(F)c(F)c(F)c(F)c6F)c6ccc3[nH]6)C=C5)C=C4)cc2)c2ccc(F)cc2F)CC1
REMARK SMILES IDX 16 1 15 2 14 3 12 4 13 5 11 7 10 8 8 9 9 10 7 12 6 13 3 14
REMARK SMILES IDX 4 15 96 16 5 18 95 19 2 20 1 21 87 22 88 23 93 24 89 25
REMARK SMILES IDX 92 26 94 27 90 28 91 29 17 30 18 31 19 32 20 33 21 34 22 35
REMARK SMILES IDX 23 37 24 38 25 39 86 40 26 41 85 42 27 43 28 44 29 45 79 46
REMARK SMILES IDX 30 47 84 48 78 49 80 50 31 51 83 52 77 53 76 54 32 56 64 57
REMARK SMILES IDX 44 58 63 59 45 60 48 61 62 62 81 63 46 64 47 65 61 67 82 68
REMARK SMILES IDX 49 69 33 70 34 71 42 72 35 73 36 74 40 75 43 76 37 77 38 78
REMARK SMILES IDX 41 79 39 80 65 81 66 82 74 83 67 84 68 85 72 86 75 87 69 88
REMARK SMILES IDX 70 89 73 90 71 91 50 92 51 93 59 94 52 95 53 96 57 97 60 98
REMARK SMILES IDX 54 99 55 100 58 101 56 102
REMARK H PARENT 14 6 10 11 3 17 21 36 80 55 48 66
REMARK Flexibility Score: inf
ROOT
ATOM      1  C   UNL A   1      36.401  22.594  24.247  1.00  0.00     0.021 C 
ENDROOT
BRANCH   1   2
ATOM      2  C   UNL A   1      35.769  23.851  24.841  1.00  0.00     0.116 C 
BRANCH   2   3
ATOM      3  N   UNL A   1      34.816  23.582  25.910  1.00  0.00    -0.354 N 
ATOM      4  C   UNL A   1      33.537  24.055  26.102  1.00  0.00     0.247 C 
ATOM      5  O   UNL A   1      32.869  23.599  27.033  1.00  0.00    -0.272 OA
ATOM      6  H   UNL A   1      35.138  22.964  26.607  1.00  0.00     0.163 HD
BRANCH   4   7
ATOM      7  C   UNL A   1      32.958  25.080  25.109  1.00  0.00     0.205 C 
BRANCH   7   8
ATOM      8  N   UNL A   1      31.685  24.627  24.548  1.00  0.00    -0.340 N 
ATOM      9  C   UNL A   1      31.433  23.612  23.671  1.00  0.00     0.221 C 
ATOM     10  O   UNL A   1      30.315  23.541  23.160  1.00  0.00    -0.275 OA
ATOM     11  H   UNL A   1      30.892  25.131  24.847  1.00  0.00     0.164 HD
BRANCH   9  12
ATOM     12  C   UNL A   1      32.491  22.555  23.372  1.00  0.00     0.104 C 
BRANCH  12  13
ATOM     13  C   UNL A   1      32.211  21.100  23.816  1.00  0.00     0.009 C 
ATOM     14  N   UNL A   1      33.459  18.452  23.973  1.00  0.00    -0.335 N 
ATOM     15  C   UNL A   1      32.289  18.636  23.106  1.00  0.00     0.262 C 
ATOM     16  C   UNL A   1      33.239  19.194  25.222  1.00  0.00     0.262 C 
ATOM     17  H   UNL A   1      34.290  18.828  23.516  1.00  0.00     0.348 HD
ATOM     18  C   UNL A   1      32.284  20.090  22.670  1.00  0.00     0.066 C 
ATOM     19  C   UNL A   1      33.203  20.702  24.931  1.00  0.00     0.066 C 
BRANCH  14  20
ATOM     20  C   UNL A   1      33.754  17.035  24.194  1.00  0.00     0.258 C 
ATOM     21  C   UNL A   1      32.689  16.396  25.087  1.00  0.00     0.071 C 
ENDBRANCH  14  20
ENDBRANCH  12  13
ENDBRANCH   9  12
ENDBRANCH   7   8
BRANCH   7  22
ATOM     22  C   UNL A   1      32.906  26.517  25.623  1.00  0.00     0.020 A 
ATOM     23  C   UNL A   1      33.993  27.407  25.506  1.00  0.00     0.012 A 
ATOM     24  C   UNL A   1      31.835  26.909  26.440  1.00  0.00     0.131 A 
ATOM     25  C   UNL A   1      34.022  28.597  26.239  1.00  0.00     0.040 A 
ATOM     26  C   UNL A   1      31.853  28.095  27.166  1.00  0.00     0.078 A 
ATOM     27  F   UNL A   1      30.785  26.095  26.597  1.00  0.00    -0.206 F 
ATOM     28  C   UNL A   1      32.960  28.921  27.074  1.00  0.00     0.126 A 
ATOM     29  F   UNL A   1      33.020  30.032  27.820  1.00  0.00    -0.207 F 
ENDBRANCH   7  22
ENDBRANCH   4   7
ENDBRANCH   2   3
ENDBRANCH   1   2
BRANCH   1  30
ATOM     30  C   UNL A   1      37.000  21.643  25.284  1.00  0.00     0.002 C 
BRANCH  30  31
ATOM     31  C   UNL A   1      36.854  20.155  24.952  1.00  0.00     0.002 C 
BRANCH  31  32
ATOM     32  C   UNL A   1      38.162  19.357  24.924  1.00  0.00     0.021 C 
BRANCH  32  33
ATOM     33  C   UNL A   1      39.252  19.877  25.857  1.00  0.00     0.116 C 
BRANCH  33  34
ATOM     34  N   UNL A   1      40.415  19.006  25.878  1.00  0.00    -0.352 N 
ATOM     35  C   UNL A   1      41.740  19.310  26.056  1.00  0.00     0.251 C 
ATOM     36  H   UNL A   1      40.222  18.051  25.743  1.00  0.00     0.163 HD
ATOM     37  O   UNL A   1      42.597  18.455  25.854  1.00  0.00    -0.269 OA
BRANCH  35  38
ATOM     38  C   UNL A   1      42.148  20.668  26.478  1.00  0.00     0.039 A 
ATOM     39  C   UNL A   1      42.502  21.595  25.494  1.00  0.00     0.014 A 
ATOM     40  C   UNL A   1      42.225  21.019  27.829  1.00  0.00     0.014 A 
ATOM     41  C   UNL A   1      42.887  22.886  25.862  1.00  0.00     0.010 A 
ATOM     42  C   UNL A   1      42.545  22.326  28.192  1.00  0.00     0.010 A 
ATOM     43  C   UNL A   1      42.886  23.270  27.213  1.00  0.00    -0.014 A 
BRANCH  43  44
ATOM     44  C   UNL A   1      43.244  24.656  27.607  1.00  0.00     0.031 A 
ATOM     45  C   UNL A   1      44.685  25.082  27.669  1.00  0.00     0.074 A 
ATOM     46  C   UNL A   1      42.270  25.520  27.950  1.00  0.00     0.049 A 
ATOM     47  N   UNL A   1      45.192  26.240  28.013  1.00  0.00    -0.248 NA
ATOM     48  C   UNL A   1      45.692  24.067  27.322  1.00  0.00     0.031 C 
ATOM     49  C   UNL A   1      40.839  25.211  27.979  1.00  0.00     0.029 A 
ATOM     50  N   UNL A   1      42.333  26.834  28.340  1.00  0.00    -0.354 N 
ATOM     51  C   UNL A   1      46.569  26.089  27.932  1.00  0.00     0.074 A 
ATOM     52  C   UNL A   1      46.823  24.714  27.559  1.00  0.00     0.031 C 
ATOM     53  C   UNL A   1      40.159  26.311  28.340  1.00  0.00     0.029 A 
ATOM     54  C   UNL A   1      41.105  27.393  28.594  1.00  0.00     0.049 A 
ATOM     55  H   UNL A   1      43.179  27.329  28.429  1.00  0.00     0.167 HD
ATOM     56  C   UNL A   1      47.536  27.020  28.125  1.00  0.00     0.037 A 
ATOM     57  C   UNL A   1      40.780  28.641  28.984  1.00  0.00     0.037 A 
ATOM     58  C   UNL A   1      47.281  28.394  28.473  1.00  0.00     0.049 A 
ATOM     59  C   UNL A   1      41.872  29.658  29.173  1.00  0.00     0.074 A 
ATOM     60  C   UNL A   1      48.189  29.423  28.651  1.00  0.00     0.029 A 
ATOM     61  N   UNL A   1      46.021  28.931  28.690  1.00  0.00    -0.354 N 
ATOM     62  N   UNL A   1      43.168  29.519  29.032  1.00  0.00    -0.248 NA
ATOM     63  C   UNL A   1      41.452  31.012  29.561  1.00  0.00     0.031 C 
ATOM     64  C   UNL A   1      47.480  30.576  29.011  1.00  0.00     0.029 A 
ATOM     65  C   UNL A   1      46.128  30.276  29.009  1.00  0.00     0.049 A 
ATOM     66  H   UNL A   1      45.175  28.432  28.625  1.00  0.00     0.167 HD
ATOM     67  C   UNL A   1      43.714  30.771  29.280  1.00  0.00     0.074 A 
ATOM     68  C   UNL A   1      42.607  31.660  29.564  1.00  0.00     0.031 C 
ATOM     69  C   UNL A   1      45.016  31.150  29.273  1.00  0.00     0.037 A 
BRANCH  56  70
ATOM     70  C   UNL A   1      48.963  26.585  27.952  1.00  0.00     0.064 A 
ATOM     71  C   UNL A   1      49.548  26.483  26.681  1.00  0.00     0.173 A 
ATOM     72  C   UNL A   1      49.767  26.311  29.069  1.00  0.00     0.173 A 
ATOM     73  F   UNL A   1      48.820  26.722  25.581  1.00  0.00    -0.203 F 
ATOM     74  C   UNL A   1      50.878  26.096  26.534  1.00  0.00     0.198 A 
ATOM     75  C   UNL A   1      51.105  25.954  28.919  1.00  0.00     0.198 A 
ATOM     76  F   UNL A   1      49.258  26.399  30.307  1.00  0.00    -0.203 F 
ATOM     77  F   UNL A   1      51.403  25.961  25.307  1.00  0.00    -0.200 F 
ATOM     78  C   UNL A   1      51.657  25.841  27.652  1.00  0.00     0.200 A 
ATOM     79  F   UNL A   1      51.859  25.718  30.000  1.00  0.00    -0.200 F 
ATOM     80  F   UNL A   1      52.939  25.478  27.508  1.00  0.00    -0.200 F 
ENDBRANCH  56  70
BRANCH  57  81
ATOM     81  C   UNL A   1      39.355  29.012  29.179  1.00  0.00     0.064 A 
ATOM     82  C   UNL A   1      38.579  29.473  28.107  1.00  0.00     0.173 A 
ATOM     83  C   UNL A   1      38.745  28.931  30.440  1.00  0.00     0.173 A 
ATOM     84  F   UNL A   1      39.124  29.586  26.886  1.00  0.00    -0.203 F 
ATOM     85  C   UNL A   1      37.255  29.868  28.293  1.00  0.00     0.198 A 
ATOM     86  C   UNL A   1      37.413  29.299  30.619  1.00  0.00     0.198 A 
ATOM     87  F   UNL A   1      39.443  28.490  31.497  1.00  0.00    -0.203 F 
ATOM     88  F   UNL A   1      36.553  30.355  27.261  1.00  0.00    -0.200 F 
ATOM     89  C   UNL A   1      36.673  29.776  29.548  1.00  0.00     0.200 A 
ATOM     90  F   UNL A   1      36.849  29.196  31.830  1.00  0.00    -0.200 F 
ATOM     91  F   UNL A   1      35.400  30.156  29.727  1.00  0.00    -0.200 F 
ENDBRANCH  57  81
BRANCH  69  92
ATOM     92  C   UNL A   1      45.306  32.599  29.534  1.00  0.00     0.064 A 
ATOM     93  C   UNL A   1      45.563  33.082  30.826  1.00  0.00     0.173 A 
ATOM     94  C   UNL A   1      45.342  33.516  28.471  1.00  0.00     0.173 A 
ATOM     95  F   UNL A   1      45.525  32.248  31.876  1.00  0.00    -0.203 F 
ATOM     96  C   UNL A   1      45.809  34.433  31.050  1.00  0.00     0.198 A 
ATOM     97  C   UNL A   1      45.619  34.861  28.694  1.00  0.00     0.198 A 
ATOM     98  F   UNL A   1      45.111  33.105  27.215  1.00  0.00    -0.203 F 
ATOM     99  F   UNL A   1      45.994  34.880  32.298  1.00  0.00    -0.200 F 
ATOM    100  C   UNL A   1      45.842  35.320  29.984  1.00  0.00     0.200 A 
ATOM    101  F   UNL A   1      45.664  35.715  27.662  1.00  0.00    -0.200 F 
ATOM    102  F   UNL A   1      46.079  36.621  30.201  1.00  0.00    -0.200 F 
ENDBRANCH  69  92
ENDBRANCH  43  44
ENDBRANCH  35  38
ENDBRANCH  33  34
ENDBRANCH  32  33
ENDBRANCH  31  32
ENDBRANCH  30  31
ENDBRANCH   1  30
TORSDOF 18
ENDMDL
