MODEL 1
REMARK VINA RESULT:     -12.9      0.000      0.000
REMARK SMILES Cc1ccc(NC(=O)C[C@H]2SC[C@H](C(=O)NCCCCCCNC(=O)c3ccc(-c4c5nc(c(-c6c(F)c(F)c(F)c(F)c6F)c6ccc([nH]6)c(-c6c(F)c(F)c(F)c(F)c6F)c6nc(c(-c7c(F)c(F)c(F)c(F)c7F)c7ccc4[nH]7)C=C6)C=C5)cc3)NC2=O)cc1
REMARK SMILES IDX 19 1 18 2 17 3 16 4 14 5 15 6 13 8 10 9 11 10 90 11 12 12
REMARK SMILES IDX 89 13 91 14 9 16 7 17 6 18 8 20 5 21 1 22 2 23 3 24 93 25
REMARK SMILES IDX 4 26 92 27 20 28 21 29 22 30 23 31 24 32 25 34 26 35 27 36
REMARK SMILES IDX 88 37 28 38 87 39 29 40 30 41 31 42 81 43 32 44 86 45 80 46
REMARK SMILES IDX 82 47 33 48 85 49 79 50 78 51 34 53 66 54 46 55 65 56 47 57
REMARK SMILES IDX 50 58 64 59 83 60 48 61 49 62 63 64 84 65 51 66 35 67 36 68
REMARK SMILES IDX 44 69 37 70 38 71 42 72 45 73 39 74 40 75 43 76 41 77 67 78
REMARK SMILES IDX 68 79 76 80 69 81 70 82 74 83 77 84 71 85 72 86 75 87 73 88
REMARK SMILES IDX 52 89 53 90 61 91 54 92 55 93 59 94 62 95 56 96 57 97 60 98
REMARK SMILES IDX 58 99
REMARK H PARENT 16 7 89 15 6 19 23 33 82 52 50 63
REMARK Flexibility Score: inf
ROOT
ATOM      1  C   UNL A   1      31.811  28.952  27.611  1.00  0.00     0.002 C 
ENDROOT
BRANCH   1   2
ATOM      2  C   UNL A   1      31.880  27.604  26.875  1.00  0.00     0.021 C 
BRANCH   2   3
ATOM      3  C   UNL A   1      32.644  27.620  25.546  1.00  0.00     0.116 C 
BRANCH   3   4
ATOM      4  N   UNL A   1      31.750  27.395  24.426  1.00  0.00    -0.354 N 
ATOM      5  C   UNL A   1      31.411  26.255  23.763  1.00  0.00     0.243 C 
ATOM      6  O   UNL A   1      30.652  26.369  22.797  1.00  0.00    -0.273 OA
ATOM      7  H   UNL A   1      31.310  28.208  24.088  1.00  0.00     0.163 HD
BRANCH   5   8
ATOM      8  C   UNL A   1      31.922  24.871  24.196  1.00  0.00     0.181 C 
ATOM      9  C   UNL A   1      32.243  21.931  23.516  1.00  0.00     0.145 C 
ATOM     10  S   UNL A   1      31.415  22.305  25.125  1.00  0.00    -0.145 SA
ATOM     11  C   UNL A   1      33.259  23.029  23.179  1.00  0.00     0.234 C 
ATOM     12  C   UNL A   1      30.804  23.971  24.715  1.00  0.00     0.105 C 
ATOM     13  N   UNL A   1      32.784  24.318  23.155  1.00  0.00    -0.343 N 
ATOM     14  O   UNL A   1      34.415  22.842  22.815  1.00  0.00    -0.274 OA
ATOM     15  H   UNL A   1      33.037  24.897  22.399  1.00  0.00     0.164 HD
BRANCH   9  16
ATOM     16  C   UNL A   1      32.712  20.471  23.512  1.00  0.00     0.124 C 
BRANCH  16  17
ATOM     17  C   UNL A   1      32.911  19.758  24.833  1.00  0.00     0.226 C 
ATOM     18  N   UNL A   1      33.884  20.078  25.725  1.00  0.00    -0.326 N 
ATOM     19  H   UNL A   1      33.810  19.586  26.574  1.00  0.00     0.169 HD
ATOM     20  O   UNL A   1      32.151  18.828  25.135  1.00  0.00    -0.275 OA
BRANCH  18  21
ATOM     21  C   UNL A   1      34.970  20.959  25.690  1.00  0.00     0.041 A 
ATOM     22  C   UNL A   1      38.107  23.921  25.663  1.00  0.00     0.044 C 
ATOM     23  C   UNL A   1      37.023  22.885  25.697  1.00  0.00    -0.051 A 
ATOM     24  C   UNL A   1      37.201  21.652  25.058  1.00  0.00     0.005 A 
ATOM     25  C   UNL A   1      35.817  23.138  26.355  1.00  0.00     0.005 A 
ATOM     26  C   UNL A   1      36.181  20.691  25.060  1.00  0.00     0.026 A 
ATOM     27  C   UNL A   1      34.808  22.173  26.365  1.00  0.00     0.026 A 
ENDBRANCH  18  21
ENDBRANCH  16  17
ENDBRANCH   9  16
ENDBRANCH   5   8
ENDBRANCH   3   4
ENDBRANCH   2   3
ENDBRANCH   1   2
BRANCH   1  28
ATOM     28  C   UNL A   1      31.850  30.218  26.740  1.00  0.00     0.002 C 
BRANCH  28  29
ATOM     29  C   UNL A   1      33.092  31.100  26.889  1.00  0.00     0.021 C 
BRANCH  29  30
ATOM     30  C   UNL A   1      34.236  30.454  27.663  1.00  0.00     0.116 C 
BRANCH  30  31
ATOM     31  N   UNL A   1      34.731  31.246  28.781  1.00  0.00    -0.352 N 
ATOM     32  C   UNL A   1      35.846  31.033  29.573  1.00  0.00     0.251 C 
ATOM     33  H   UNL A   1      34.197  32.043  29.004  1.00  0.00     0.163 HD
ATOM     34  O   UNL A   1      36.098  31.784  30.503  1.00  0.00    -0.269 OA
BRANCH  32  35
ATOM     35  C   UNL A   1      36.800  29.957  29.206  1.00  0.00     0.039 A 
ATOM     36  C   UNL A   1      37.072  28.966  30.155  1.00  0.00     0.014 A 
ATOM     37  C   UNL A   1      37.549  30.030  28.034  1.00  0.00     0.014 A 
ATOM     38  C   UNL A   1      38.242  28.216  30.043  1.00  0.00     0.010 A 
ATOM     39  C   UNL A   1      38.752  29.352  27.963  1.00  0.00     0.010 A 
ATOM     40  C   UNL A   1      39.132  28.499  29.004  1.00  0.00    -0.014 A 
BRANCH  40  41
ATOM     41  C   UNL A   1      40.533  28.090  29.037  1.00  0.00     0.031 A 
ATOM     42  C   UNL A   1      40.989  26.808  28.467  1.00  0.00     0.074 A 
ATOM     43  C   UNL A   1      41.454  28.932  29.561  1.00  0.00     0.049 A 
ATOM     44  N   UNL A   1      41.999  26.145  28.930  1.00  0.00    -0.248 NA
ATOM     45  C   UNL A   1      40.336  26.157  27.337  1.00  0.00     0.031 C 
ATOM     46  C   UNL A   1      42.907  28.821  29.462  1.00  0.00     0.029 A 
ATOM     47  N   UNL A   1      41.244  29.982  30.470  1.00  0.00    -0.354 N 
ATOM     48  C   UNL A   1      42.293  25.161  28.021  1.00  0.00     0.074 A 
ATOM     49  C   UNL A   1      41.188  25.157  27.086  1.00  0.00     0.031 C 
ATOM     50  C   UNL A   1      43.464  29.531  30.454  1.00  0.00     0.029 A 
ATOM     51  C   UNL A   1      42.387  30.008  31.301  1.00  0.00     0.049 A 
ATOM     52  H   UNL A   1      40.462  30.577  30.518  1.00  0.00     0.167 HD
ATOM     53  C   UNL A   1      43.507  24.540  28.047  1.00  0.00     0.037 A 
ATOM     54  C   UNL A   1      42.307  29.824  32.650  1.00  0.00     0.037 A 
ATOM     55  C   UNL A   1      44.373  25.057  29.096  1.00  0.00     0.049 A 
ATOM     56  C   UNL A   1      43.151  28.688  33.172  1.00  0.00     0.074 A 
ATOM     57  C   UNL A   1      45.390  25.999  29.080  1.00  0.00     0.029 A 
ATOM     58  N   UNL A   1      44.058  24.845  30.433  1.00  0.00    -0.354 N 
ATOM     59  N   UNL A   1      43.602  27.722  32.426  1.00  0.00    -0.248 NA
ATOM     60  C   UNL A   1      43.492  28.515  34.581  1.00  0.00     0.031 C 
ATOM     61  C   UNL A   1      45.682  26.362  30.412  1.00  0.00     0.029 A 
ATOM     62  C   UNL A   1      44.842  25.644  31.244  1.00  0.00     0.049 A 
ATOM     63  H   UNL A   1      43.373  24.216  30.756  1.00  0.00     0.167 HD
ATOM     64  C   UNL A   1      44.222  26.788  33.218  1.00  0.00     0.074 A 
ATOM     65  C   UNL A   1      44.154  27.346  34.554  1.00  0.00     0.031 C 
ATOM     66  C   UNL A   1      44.708  25.626  32.691  1.00  0.00     0.037 A 
BRANCH  53  67
ATOM     67  C   UNL A   1      43.981  23.687  26.901  1.00  0.00     0.064 A 
ATOM     68  C   UNL A   1      43.559  22.351  26.746  1.00  0.00     0.173 A 
ATOM     69  C   UNL A   1      44.908  24.142  25.946  1.00  0.00     0.173 A 
ATOM     70  F   UNL A   1      42.627  21.811  27.541  1.00  0.00    -0.203 F 
ATOM     71  C   UNL A   1      44.103  21.505  25.779  1.00  0.00     0.198 A 
ATOM     72  C   UNL A   1      45.487  23.283  25.008  1.00  0.00     0.198 A 
ATOM     73  F   UNL A   1      45.275  25.432  25.910  1.00  0.00    -0.203 F 
ATOM     74  F   UNL A   1      43.680  20.235  25.693  1.00  0.00    -0.200 F 
ATOM     75  C   UNL A   1      45.093  21.961  24.933  1.00  0.00     0.200 A 
ATOM     76  F   UNL A   1      46.445  23.739  24.190  1.00  0.00    -0.200 F 
ATOM     77  F   UNL A   1      45.659  21.130  24.046  1.00  0.00    -0.200 F 
ENDBRANCH  53  67
BRANCH  54  78
ATOM     78  C   UNL A   1      40.997  30.217  33.226  1.00  0.00     0.064 A 
ATOM     79  C   UNL A   1      40.725  31.584  33.422  1.00  0.00     0.173 A 
ATOM     80  C   UNL A   1      39.914  29.330  33.243  1.00  0.00     0.173 A 
ATOM     81  F   UNL A   1      41.729  32.476  33.405  1.00  0.00    -0.203 F 
ATOM     82  C   UNL A   1      39.419  32.054  33.521  1.00  0.00     0.198 A 
ATOM     83  C   UNL A   1      38.606  29.804  33.355  1.00  0.00     0.198 A 
ATOM     84  F   UNL A   1      40.105  28.019  33.040  1.00  0.00    -0.203 F 
ATOM     85  F   UNL A   1      39.188  33.374  33.596  1.00  0.00    -0.200 F 
ATOM     86  C   UNL A   1      38.358  31.166  33.462  1.00  0.00     0.200 A 
ATOM     87  F   UNL A   1      37.578  28.949  33.263  1.00  0.00    -0.200 F 
ATOM     88  F   UNL A   1      37.100  31.623  33.464  1.00  0.00    -0.200 F 
ENDBRANCH  54  78
BRANCH  66  89
ATOM     89  C   UNL A   1      45.198  24.421  33.457  1.00  0.00     0.064 A 
ATOM     90  C   UNL A   1      44.477  23.224  33.591  1.00  0.00     0.173 A 
ATOM     91  C   UNL A   1      46.517  24.394  33.978  1.00  0.00     0.173 A 
ATOM     92  F   UNL A   1      43.265  23.074  33.040  1.00  0.00    -0.203 F 
ATOM     93  C   UNL A   1      45.007  22.108  34.247  1.00  0.00     0.198 A 
ATOM     94  C   UNL A   1      47.062  23.262  34.581  1.00  0.00     0.198 A 
ATOM     95  F   UNL A   1      47.327  25.459  33.892  1.00  0.00    -0.203 F 
ATOM     96  F   UNL A   1      44.261  21.002  34.382  1.00  0.00    -0.200 F 
ATOM     97  C   UNL A   1      46.302  22.122  34.730  1.00  0.00     0.200 A 
ATOM     98  F   UNL A   1      48.337  23.277  34.996  1.00  0.00    -0.200 F 
ATOM     99  F   UNL A   1      46.821  21.034  35.316  1.00  0.00    -0.200 F 
ENDBRANCH  66  89
ENDBRANCH  40  41
ENDBRANCH  32  35
ENDBRANCH  30  31
ENDBRANCH  29  30
ENDBRANCH  28  29
ENDBRANCH   1  28
TORSDOF 16
ENDMDL
MODEL 2
REMARK VINA RESULT:     -12.8      2.451      4.007
REMARK SMILES Cc1ccc(NC(=O)C[C@H]2SC[C@H](C(=O)NCCCCCCNC(=O)c3ccc(-c4c5nc(c(-c6c(F)c(F)c(F)c(F)c6F)c6ccc([nH]6)c(-c6c(F)c(F)c(F)c(F)c6F)c6nc(c(-c7c(F)c(F)c(F)c(F)c7F)c7ccc4[nH]7)C=C6)C=C5)cc3)NC2=O)cc1
REMARK SMILES IDX 19 1 18 2 17 3 16 4 14 5 15 6 13 8 10 9 11 10 90 11 12 12
REMARK SMILES IDX 89 13 91 14 9 16 7 17 6 18 8 20 5 21 1 22 2 23 3 24 93 25
REMARK SMILES IDX 4 26 92 27 20 28 21 29 22 30 23 31 24 32 25 34 26 35 27 36
REMARK SMILES IDX 88 37 28 38 87 39 29 40 30 41 31 42 81 43 32 44 86 45 80 46
REMARK SMILES IDX 82 47 33 48 85 49 79 50 78 51 34 53 66 54 46 55 65 56 47 57
REMARK SMILES IDX 50 58 64 59 83 60 48 61 49 62 63 64 84 65 51 66 35 67 36 68
REMARK SMILES IDX 44 69 37 70 38 71 42 72 45 73 39 74 40 75 43 76 41 77 67 78
REMARK SMILES IDX 68 79 76 80 69 81 70 82 74 83 77 84 71 85 72 86 75 87 73 88
REMARK SMILES IDX 52 89 53 90 61 91 54 92 55 93 59 94 62 95 56 96 57 97 60 98
REMARK SMILES IDX 58 99
REMARK H PARENT 16 7 89 15 6 19 23 33 82 52 50 63
REMARK Flexibility Score: inf
ROOT
ATOM      1  C   UNL A   1      33.796  31.744  28.049  1.00  0.00     0.002 C 
ENDROOT
BRANCH   1   2
ATOM      2  C   UNL A   1      35.068  31.013  27.588  1.00  0.00     0.021 C 
BRANCH   2   3
ATOM      3  C   UNL A   1      34.937  29.491  27.451  1.00  0.00     0.116 C 
BRANCH   3   4
ATOM      4  N   UNL A   1      33.661  29.029  27.961  1.00  0.00    -0.354 N 
ATOM      5  C   UNL A   1      32.630  28.383  27.349  1.00  0.00     0.243 C 
ATOM      6  O   UNL A   1      31.625  28.155  28.028  1.00  0.00    -0.273 OA
ATOM      7  H   UNL A   1      33.514  29.214  28.916  1.00  0.00     0.163 HD
BRANCH   5   8
ATOM      8  C   UNL A   1      32.703  27.927  25.883  1.00  0.00     0.181 C 
ATOM      9  C   UNL A   1      31.786  25.954  23.766  1.00  0.00     0.145 C 
ATOM     10  S   UNL A   1      33.614  26.139  23.965  1.00  0.00    -0.145 SA
ATOM     11  C   UNL A   1      31.084  27.276  24.102  1.00  0.00     0.234 C 
ATOM     12  C   UNL A   1      33.624  26.726  25.689  1.00  0.00     0.105 C 
ATOM     13  N   UNL A   1      31.353  27.817  25.335  1.00  0.00    -0.343 N 
ATOM     14  O   UNL A   1      30.221  27.818  23.418  1.00  0.00    -0.274 OA
ATOM     15  H   UNL A   1      30.599  28.147  25.877  1.00  0.00     0.164 HD
BRANCH   9  16
ATOM     16  C   UNL A   1      31.486  25.286  22.419  1.00  0.00     0.124 C 
BRANCH  16  17
ATOM     17  C   UNL A   1      32.639  24.858  21.536  1.00  0.00     0.226 C 
ATOM     18  N   UNL A   1      33.235  23.639  21.608  1.00  0.00    -0.326 N 
ATOM     19  H   UNL A   1      33.898  23.487  20.898  1.00  0.00     0.169 HD
ATOM     20  O   UNL A   1      33.078  25.651  20.693  1.00  0.00    -0.275 OA
BRANCH  18  21
ATOM     21  C   UNL A   1      33.102  22.554  22.481  1.00  0.00     0.041 A 
ATOM     22  C   UNL A   1      32.998  19.279  25.289  1.00  0.00     0.044 C 
ATOM     23  C   UNL A   1      33.022  20.432  24.330  1.00  0.00    -0.051 A 
ATOM     24  C   UNL A   1      32.136  20.472  23.247  1.00  0.00     0.005 A 
ATOM     25  C   UNL A   1      33.933  21.478  24.496  1.00  0.00     0.005 A 
ATOM     26  C   UNL A   1      32.172  21.530  22.330  1.00  0.00     0.026 A 
ATOM     27  C   UNL A   1      33.958  22.538  23.588  1.00  0.00     0.026 A 
ENDBRANCH  18  21
ENDBRANCH  16  17
ENDBRANCH   9  16
ENDBRANCH   5   8
ENDBRANCH   3   4
ENDBRANCH   2   3
ENDBRANCH   1   2
BRANCH   1  28
ATOM     28  C   UNL A   1      33.621  33.194  27.569  1.00  0.00     0.002 C 
BRANCH  28  29
ATOM     29  C   UNL A   1      33.063  34.181  28.598  1.00  0.00     0.021 C 
BRANCH  29  30
ATOM     30  C   UNL A   1      34.028  35.294  28.993  1.00  0.00     0.116 C 
BRANCH  30  31
ATOM     31  N   UNL A   1      34.317  35.363  30.419  1.00  0.00    -0.352 N 
ATOM     32  C   UNL A   1      35.120  34.537  31.187  1.00  0.00     0.251 C 
ATOM     33  H   UNL A   1      33.879  36.099  30.905  1.00  0.00     0.163 HD
ATOM     34  O   UNL A   1      35.224  34.717  32.391  1.00  0.00    -0.269 OA
BRANCH  32  35
ATOM     35  C   UNL A   1      35.951  33.507  30.515  1.00  0.00     0.039 A 
ATOM     36  C   UNL A   1      35.956  32.214  31.048  1.00  0.00     0.014 A 
ATOM     37  C   UNL A   1      36.847  33.853  29.506  1.00  0.00     0.014 A 
ATOM     38  C   UNL A   1      37.012  31.355  30.746  1.00  0.00     0.010 A 
ATOM     39  C   UNL A   1      37.941  33.040  29.272  1.00  0.00     0.010 A 
ATOM     40  C   UNL A   1      38.059  31.822  29.948  1.00  0.00    -0.014 A 
BRANCH  40  41
ATOM     41  C   UNL A   1      39.372  31.184  29.923  1.00  0.00     0.031 A 
ATOM     42  C   UNL A   1      39.586  29.854  29.322  1.00  0.00     0.074 A 
ATOM     43  C   UNL A   1      40.439  31.851  30.421  1.00  0.00     0.049 A 
ATOM     44  N   UNL A   1      40.487  29.024  29.738  1.00  0.00    -0.248 NA
ATOM     45  C   UNL A   1      38.793  29.342  28.210  1.00  0.00     0.031 C 
ATOM     46  C   UNL A   1      41.848  31.501  30.265  1.00  0.00     0.029 A 
ATOM     47  N   UNL A   1      40.440  32.905  31.349  1.00  0.00    -0.354 N 
ATOM     48  C   UNL A   1      40.579  28.020  28.807  1.00  0.00     0.074 A 
ATOM     49  C   UNL A   1      39.457  28.218  27.915  1.00  0.00     0.031 C 
ATOM     50  C   UNL A   1      42.552  32.090  31.244  1.00  0.00     0.029 A 
ATOM     51  C   UNL A   1      41.600  32.726  32.136  1.00  0.00     0.049 A 
ATOM     52  H   UNL A   1      39.772  33.621  31.434  1.00  0.00     0.167 HD
ATOM     53  C   UNL A   1      41.672  27.205  28.780  1.00  0.00     0.037 A 
ATOM     54  C   UNL A   1      41.539  32.534  33.485  1.00  0.00     0.037 A 
ATOM     55  C   UNL A   1      42.649  27.552  29.801  1.00  0.00     0.049 A 
ATOM     56  C   UNL A   1      42.199  31.264  33.962  1.00  0.00     0.074 A 
ATOM     57  C   UNL A   1      43.808  28.311  29.757  1.00  0.00     0.029 A 
ATOM     58  N   UNL A   1      42.351  27.372  31.147  1.00  0.00    -0.354 N 
ATOM     59  N   UNL A   1      42.455  30.249  33.188  1.00  0.00    -0.248 NA
ATOM     60  C   UNL A   1      42.556  31.012  35.355  1.00  0.00     0.031 C 
ATOM     61  C   UNL A   1      44.205  28.597  31.081  1.00  0.00     0.029 A 
ATOM     62  C   UNL A   1      43.286  28.014  31.936  1.00  0.00     0.049 A 
ATOM     63  H   UNL A   1      41.582  26.860  31.489  1.00  0.00     0.167 HD
ATOM     64  C   UNL A   1      42.937  29.212  33.945  1.00  0.00     0.074 A 
ATOM     65  C   UNL A   1      43.012  29.749  35.289  1.00  0.00     0.031 C 
ATOM     66  C   UNL A   1      43.203  27.994  33.386  1.00  0.00     0.037 A 
BRANCH  53  67
ATOM     67  C   UNL A   1      41.955  26.306  27.607  1.00  0.00     0.064 A 
ATOM     68  C   UNL A   1      41.330  25.049  27.468  1.00  0.00     0.173 A 
ATOM     69  C   UNL A   1      42.892  26.628  26.609  1.00  0.00     0.173 A 
ATOM     70  F   UNL A   1      40.368  24.646  28.306  1.00  0.00    -0.203 F 
ATOM     71  C   UNL A   1      41.692  24.144  26.470  1.00  0.00     0.198 A 
ATOM     72  C   UNL A   1      43.288  25.704  25.638  1.00  0.00     0.198 A 
ATOM     73  F   UNL A   1      43.445  27.849  26.560  1.00  0.00    -0.203 F 
ATOM     74  F   UNL A   1      41.080  22.953  26.399  1.00  0.00    -0.200 F 
ATOM     75  C   UNL A   1      42.697  24.457  25.577  1.00  0.00     0.200 A 
ATOM     76  F   UNL A   1      44.261  26.022  24.774  1.00  0.00    -0.200 F 
ATOM     77  F   UNL A   1      43.087  23.562  24.658  1.00  0.00    -0.200 F 
ENDBRANCH  53  67
BRANCH  54  78
ATOM     78  C   UNL A   1      40.335  33.130  34.115  1.00  0.00     0.064 A 
ATOM     79  C   UNL A   1      39.250  32.290  34.429  1.00  0.00     0.173 A 
ATOM     80  C   UNL A   1      40.379  34.390  34.724  1.00  0.00     0.173 A 
ATOM     81  F   UNL A   1      39.167  31.068  33.880  1.00  0.00    -0.203 F 
ATOM     82  C   UNL A   1      38.310  32.652  35.391  1.00  0.00     0.198 A 
ATOM     83  C   UNL A   1      39.428  34.754  35.678  1.00  0.00     0.198 A 
ATOM     84  F   UNL A   1      41.398  35.225  34.482  1.00  0.00    -0.203 F 
ATOM     85  F   UNL A   1      37.351  31.784  35.748  1.00  0.00    -0.200 F 
ATOM     86  C   UNL A   1      38.415  33.874  36.033  1.00  0.00     0.200 A 
ATOM     87  F   UNL A   1      39.548  35.922  36.325  1.00  0.00    -0.200 F 
ATOM     88  F   UNL A   1      37.569  34.187  37.022  1.00  0.00    -0.200 F 
ENDBRANCH  54  78
BRANCH  66  89
ATOM     89  C   UNL A   1      43.511  26.710  34.120  1.00  0.00     0.064 A 
ATOM     90  C   UNL A   1      42.550  25.927  34.778  1.00  0.00     0.173 A 
ATOM     91  C   UNL A   1      44.811  26.146  34.056  1.00  0.00     0.173 A 
ATOM     92  F   UNL A   1      41.259  26.285  34.809  1.00  0.00    -0.203 F 
ATOM     93  C   UNL A   1      42.873  24.706  35.378  1.00  0.00     0.198 A 
ATOM     94  C   UNL A   1      45.116  24.902  34.606  1.00  0.00     0.198 A 
ATOM     95  F   UNL A   1      45.819  26.774  33.432  1.00  0.00    -0.203 F 
ATOM     96  F   UNL A   1      41.925  24.015  36.029  1.00  0.00    -0.200 F 
ATOM     97  C   UNL A   1      44.151  24.188  35.283  1.00  0.00     0.200 A 
ATOM     98  F   UNL A   1      46.347  24.393  34.458  1.00  0.00    -0.200 F 
ATOM     99  F   UNL A   1      44.444  22.995  35.819  1.00  0.00    -0.200 F 
ENDBRANCH  66  89
ENDBRANCH  40  41
ENDBRANCH  32  35
ENDBRANCH  30  31
ENDBRANCH  29  30
ENDBRANCH  28  29
ENDBRANCH   1  28
TORSDOF 16
ENDMDL
MODEL 3
REMARK VINA RESULT:     -12.7      1.405      2.118
REMARK SMILES Cc1ccc(NC(=O)C[C@H]2SC[C@H](C(=O)NCCCCCCNC(=O)c3ccc(-c4c5nc(c(-c6c(F)c(F)c(F)c(F)c6F)c6ccc([nH]6)c(-c6c(F)c(F)c(F)c(F)c6F)c6nc(c(-c7c(F)c(F)c(F)c(F)c7F)c7ccc4[nH]7)C=C6)C=C5)cc3)NC2=O)cc1
REMARK SMILES IDX 19 1 18 2 17 3 16 4 14 5 15 6 13 8 10 9 11 10 90 11 12 12
REMARK SMILES IDX 89 13 91 14 9 16 7 17 6 18 8 20 5 21 1 22 2 23 3 24 93 25
REMARK SMILES IDX 4 26 92 27 20 28 21 29 22 30 23 31 24 32 25 34 26 35 27 36
REMARK SMILES IDX 88 37 28 38 87 39 29 40 30 41 31 42 81 43 32 44 86 45 80 46
REMARK SMILES IDX 82 47 33 48 85 49 79 50 78 51 34 53 66 54 46 55 65 56 47 57
REMARK SMILES IDX 50 58 64 59 83 60 48 61 49 62 63 64 84 65 51 66 35 67 36 68
REMARK SMILES IDX 44 69 37 70 38 71 42 72 45 73 39 74 40 75 43 76 41 77 67 78
REMARK SMILES IDX 68 79 76 80 69 81 70 82 74 83 77 84 71 85 72 86 75 87 73 88
REMARK SMILES IDX 52 89 53 90 61 91 54 92 55 93 59 94 62 95 56 96 57 97 60 98
REMARK SMILES IDX 58 99
REMARK H PARENT 16 7 89 15 6 19 23 33 82 52 50 63
REMARK Flexibility Score: inf
ROOT
ATOM      1  C   UNL A   1      31.936  29.392  25.172  1.00  0.00     0.002 C 
ENDROOT
BRANCH   1   2
ATOM      2  C   UNL A   1      30.849  29.867  24.193  1.00  0.00     0.021 C 
BRANCH   2   3
ATOM      3  C   UNL A   1      30.764  29.086  22.877  1.00  0.00     0.116 C 
BRANCH   3   4
ATOM      4  N   UNL A   1      32.083  28.865  22.315  1.00  0.00    -0.354 N 
ATOM      5  C   UNL A   1      32.937  27.809  22.416  1.00  0.00     0.243 C 
ATOM      6  O   UNL A   1      34.036  27.917  21.866  1.00  0.00    -0.273 OA
ATOM      7  H   UNL A   1      32.420  29.608  21.764  1.00  0.00     0.163 HD
BRANCH   5   8
ATOM      8  C   UNL A   1      32.558  26.517  23.158  1.00  0.00     0.181 C 
ATOM      9  C   UNL A   1      33.506  24.010  24.583  1.00  0.00     0.145 C 
ATOM     10  S   UNL A   1      32.312  23.752  23.197  1.00  0.00    -0.145 SA
ATOM     11  C   UNL A   1      33.246  25.362  25.258  1.00  0.00     0.234 C 
ATOM     12  C   UNL A   1      32.663  25.280  22.271  1.00  0.00     0.105 C 
ATOM     13  N   UNL A   1      33.253  26.467  24.443  1.00  0.00    -0.343 N 
ATOM     14  O   UNL A   1      33.153  25.547  26.467  1.00  0.00    -0.274 OA
ATOM     15  H   UNL A   1      33.751  27.264  24.737  1.00  0.00     0.164 HD
BRANCH   9  16
ATOM     16  C   UNL A   1      33.553  22.750  25.456  1.00  0.00     0.124 C 
BRANCH  16  17
ATOM     17  C   UNL A   1      32.256  22.173  25.984  1.00  0.00     0.226 C 
ATOM     18  N   UNL A   1      31.849  20.897  25.755  1.00  0.00    -0.326 N 
ATOM     19  H   UNL A   1      31.036  20.654  26.254  1.00  0.00     0.169 HD
ATOM     20  O   UNL A   1      31.512  22.889  26.666  1.00  0.00    -0.275 OA
BRANCH  18  21
ATOM     21  C   UNL A   1      32.342  19.857  24.960  1.00  0.00     0.041 A 
ATOM     22  C   UNL A   1      34.072  16.576  22.757  1.00  0.00     0.044 C 
ATOM     23  C   UNL A   1      33.451  17.701  23.531  1.00  0.00    -0.051 A 
ATOM     24  C   UNL A   1      32.720  18.696  22.871  1.00  0.00     0.005 A 
ATOM     25  C   UNL A   1      33.603  17.780  24.917  1.00  0.00     0.005 A 
ATOM     26  C   UNL A   1      32.163  19.766  23.583  1.00  0.00     0.026 A 
ATOM     27  C   UNL A   1      33.035  18.840  25.625  1.00  0.00     0.026 A 
ENDBRANCH  18  21
ENDBRANCH  16  17
ENDBRANCH   9  16
ENDBRANCH   5   8
ENDBRANCH   3   4
ENDBRANCH   2   3
ENDBRANCH   1   2
BRANCH   1  28
ATOM     28  C   UNL A   1      31.782  29.826  26.638  1.00  0.00     0.002 C 
BRANCH  28  29
ATOM     29  C   UNL A   1      32.687  30.971  27.101  1.00  0.00     0.021 C 
BRANCH  29  30
ATOM     30  C   UNL A   1      34.051  30.527  27.618  1.00  0.00     0.116 C 
BRANCH  30  31
ATOM     31  N   UNL A   1      34.599  31.368  28.674  1.00  0.00    -0.352 N 
ATOM     32  C   UNL A   1      35.713  31.154  29.469  1.00  0.00     0.251 C 
ATOM     33  H   UNL A   1      34.109  32.204  28.847  1.00  0.00     0.163 HD
ATOM     34  O   UNL A   1      36.014  31.953  30.342  1.00  0.00    -0.269 OA
BRANCH  32  35
ATOM     35  C   UNL A   1      36.607  30.009  29.167  1.00  0.00     0.039 A 
ATOM     36  C   UNL A   1      36.938  29.138  30.212  1.00  0.00     0.014 A 
ATOM     37  C   UNL A   1      37.255  29.907  27.938  1.00  0.00     0.014 A 
ATOM     38  C   UNL A   1      38.077  28.341  30.102  1.00  0.00     0.010 A 
ATOM     39  C   UNL A   1      38.432  29.185  27.858  1.00  0.00     0.010 A 
ATOM     40  C   UNL A   1      38.881  28.460  28.966  1.00  0.00    -0.014 A 
BRANCH  40  41
ATOM     41  C   UNL A   1      40.269  28.013  28.937  1.00  0.00     0.031 A 
ATOM     42  C   UNL A   1      40.655  26.685  28.423  1.00  0.00     0.074 A 
ATOM     43  C   UNL A   1      41.244  28.858  29.348  1.00  0.00     0.049 A 
ATOM     44  N   UNL A   1      41.676  26.022  28.863  1.00  0.00    -0.248 NA
ATOM     45  C   UNL A   1      39.914  25.985  27.380  1.00  0.00     0.031 C 
ATOM     46  C   UNL A   1      42.684  28.697  29.165  1.00  0.00     0.029 A 
ATOM     47  N   UNL A   1      41.120  29.967  30.200  1.00  0.00    -0.354 N 
ATOM     48  C   UNL A   1      41.885  24.975  28.001  1.00  0.00     0.074 A 
ATOM     49  C   UNL A   1      40.722  24.946  27.140  1.00  0.00     0.031 C 
ATOM     50  C   UNL A   1      43.322  29.450  30.074  1.00  0.00     0.029 A 
ATOM     51  C   UNL A   1      42.314  30.011  30.955  1.00  0.00     0.049 A 
ATOM     52  H   UNL A   1      40.358  30.587  30.259  1.00  0.00     0.167 HD
ATOM     53  C   UNL A   1      43.081  24.321  27.992  1.00  0.00     0.037 A 
ATOM     54  C   UNL A   1      42.317  29.914  32.314  1.00  0.00     0.037 A 
ATOM     55  C   UNL A   1      44.026  24.876  28.949  1.00  0.00     0.049 A 
ATOM     56  C   UNL A   1      43.163  28.787  32.854  1.00  0.00     0.074 A 
ATOM     57  C   UNL A   1      45.064  25.785  28.809  1.00  0.00     0.029 A 
ATOM     58  N   UNL A   1      43.792  24.757  30.314  1.00  0.00    -0.354 N 
ATOM     59  N   UNL A   1      43.540  27.763  32.145  1.00  0.00    -0.248 NA
ATOM     60  C   UNL A   1      43.589  28.692  34.247  1.00  0.00     0.031 C 
ATOM     61  C   UNL A   1      45.450  26.221  30.095  1.00  0.00     0.029 A 
ATOM     62  C   UNL A   1      44.647  25.581  31.021  1.00  0.00     0.049 A 
ATOM     63  H   UNL A   1      43.114  24.169  30.719  1.00  0.00     0.167 HD
ATOM     64  C   UNL A   1      44.185  26.863  32.954  1.00  0.00     0.074 A 
ATOM     65  C   UNL A   1      44.218  27.504  34.254  1.00  0.00     0.031 C 
ATOM     66  C   UNL A   1      44.606  25.656  32.472  1.00  0.00     0.037 A 
BRANCH  53  67
ATOM     67  C   UNL A   1      43.458  23.385  26.875  1.00  0.00     0.064 A 
ATOM     68  C   UNL A   1      43.060  22.033  26.874  1.00  0.00     0.173 A 
ATOM     69  C   UNL A   1      44.269  23.777  25.794  1.00  0.00     0.173 A 
ATOM     70  F   UNL A   1      42.231  21.543  27.803  1.00  0.00    -0.203 F 
ATOM     71  C   UNL A   1      43.525  21.120  25.926  1.00  0.00     0.198 A 
ATOM     72  C   UNL A   1      44.772  22.854  24.872  1.00  0.00     0.198 A 
ATOM     73  F   UNL A   1      44.594  25.066  25.615  1.00  0.00    -0.203 F 
ATOM     74  F   UNL A   1      43.132  19.839  25.988  1.00  0.00    -0.200 F 
ATOM     75  C   UNL A   1      44.410  21.523  24.947  1.00  0.00     0.200 A 
ATOM     76  F   UNL A   1      45.628  23.259  23.924  1.00  0.00    -0.200 F 
ATOM     77  F   UNL A   1      44.905  20.633  24.075  1.00  0.00    -0.200 F 
ENDBRANCH  53  67
BRANCH  54  78
ATOM     78  C   UNL A   1      41.057  30.380  32.946  1.00  0.00     0.064 A 
ATOM     79  C   UNL A   1      40.807  31.763  33.018  1.00  0.00     0.173 A 
ATOM     80  C   UNL A   1      39.975  29.513  33.138  1.00  0.00     0.173 A 
ATOM     81  F   UNL A   1      41.809  32.636  32.830  1.00  0.00    -0.203 F 
ATOM     82  C   UNL A   1      39.514  32.257  33.167  1.00  0.00     0.198 A 
ATOM     83  C   UNL A   1      38.682  30.012  33.300  1.00  0.00     0.198 A 
ATOM     84  F   UNL A   1      40.145  28.186  33.059  1.00  0.00    -0.203 F 
ATOM     85  F   UNL A   1      39.294  33.579  33.120  1.00  0.00    -0.200 F 
ATOM     86  C   UNL A   1      38.448  31.380  33.283  1.00  0.00     0.200 A 
ATOM     87  F   UNL A   1      37.646  29.164  33.378  1.00  0.00    -0.200 F 
ATOM     88  F   UNL A   1      37.195  31.850  33.333  1.00  0.00    -0.200 F 
ENDBRANCH  54  78
BRANCH  66  89
ATOM     89  C   UNL A   1      45.114  24.487  33.281  1.00  0.00     0.064 A 
ATOM     90  C   UNL A   1      44.372  23.322  33.537  1.00  0.00     0.173 A 
ATOM     91  C   UNL A   1      46.462  24.452  33.718  1.00  0.00     0.173 A 
ATOM     92  F   UNL A   1      43.123  23.175  33.075  1.00  0.00    -0.203 F 
ATOM     93  C   UNL A   1      44.913  22.234  34.228  1.00  0.00     0.198 A 
ATOM     94  C   UNL A   1      47.016  23.344  34.356  1.00  0.00     0.198 A 
ATOM     95  F   UNL A   1      47.293  25.485  33.513  1.00  0.00    -0.203 F 
ATOM     96  F   UNL A   1      44.149  21.162  34.481  1.00  0.00    -0.200 F 
ATOM     97  C   UNL A   1      46.237  22.239  34.627  1.00  0.00     0.200 A 
ATOM     98  F   UNL A   1      48.314  23.346  34.688  1.00  0.00    -0.200 F 
ATOM     99  F   UNL A   1      46.764  21.175  35.247  1.00  0.00    -0.200 F 
ENDBRANCH  66  89
ENDBRANCH  40  41
ENDBRANCH  32  35
ENDBRANCH  30  31
ENDBRANCH  29  30
ENDBRANCH  28  29
ENDBRANCH   1  28
TORSDOF 16
ENDMDL
