MODEL 1
REMARK VINA RESULT:     -11.0      0.000      0.000
REMARK SMILES C[C@H](O)C[C@H](Cc1cccc(Br)c1)C(=O)NCCCCCCNC(=O)c1ccc(-c2c3nc(c(-c4c(F)c(F)c(F)c(F)c4F)c4ccc([nH]4)c(-c4c(F)c(F)c(F)c(F)c4F)c4nc(c(-c5c(F)c(F)c(F)c(F)c5F)c5ccc2[nH]5)C=C4)C=C3)cc1
REMARK SMILES IDX 19 1 18 2 17 3 16 4 14 5 15 6 5 8 4 9 2 10 1 11 3 12 6 14
REMARK SMILES IDX 7 15 8 16 13 17 9 18 11 19 10 20 12 21 20 22 21 23 22 24
REMARK SMILES IDX 23 25 24 26 25 28 26 29 27 30 88 31 28 32 87 33 29 34 30 35
REMARK SMILES IDX 31 36 81 37 32 38 86 39 80 40 82 41 33 42 85 43 79 44 78 45
REMARK SMILES IDX 34 47 66 48 46 49 65 50 47 51 50 52 64 53 83 54 48 55 49 56
REMARK SMILES IDX 63 58 84 59 51 60 35 61 36 62 44 63 37 64 38 65 42 66 45 67
REMARK SMILES IDX 39 68 40 69 43 70 41 71 67 72 68 73 76 74 69 75 70 76 74 77
REMARK SMILES IDX 77 78 71 79 72 80 75 81 73 82 52 83 53 84 61 85 54 86 55 87
REMARK SMILES IDX 59 88 62 89 56 90 57 91 60 92 58 93
REMARK H PARENT 16 7 3 13 23 27 82 46 50 57
REMARK Flexibility Score: inf
ROOT
ATOM      1  C   UNL A   1      31.995  29.913  27.015  1.00  0.00     0.002 C 
ENDROOT
BRANCH   1   2
ATOM      2  C   UNL A   1      31.727  28.430  26.742  1.00  0.00     0.021 C 
BRANCH   2   3
ATOM      3  C   UNL A   1      33.001  27.633  26.496  1.00  0.00     0.116 C 
BRANCH   3   4
ATOM      4  N   UNL A   1      33.620  28.035  25.248  1.00  0.00    -0.356 N 
ATOM      5  C   UNL A   1      33.197  27.884  23.964  1.00  0.00     0.223 C 
ATOM      6  O   UNL A   1      33.925  28.315  23.068  1.00  0.00    -0.275 OA
ATOM      7  H   UNL A   1      34.487  28.492  25.345  1.00  0.00     0.163 HD
BRANCH   5   8
ATOM      8  C   UNL A   1      31.853  27.240  23.648  1.00  0.00     0.085 C 
BRANCH   8   9
ATOM      9  C   UNL A   1      32.038  25.705  23.585  1.00  0.00     0.045 C 
BRANCH   9  10
ATOM     10  C   UNL A   1      31.078  24.931  24.494  1.00  0.00     0.112 C 
ATOM     11  C   UNL A   1      31.848  23.972  25.392  1.00  0.00     0.038 C 
BRANCH  10  12
ATOM     12  O   UNL A   1      30.167  24.171  23.713  1.00  0.00    -0.393 OA
ATOM     13  H   UNL A   1      29.308  24.135  24.161  1.00  0.00     0.210 HD
ENDBRANCH  10  12
ENDBRANCH   9  10
ENDBRANCH   8   9
BRANCH   8  14
ATOM     14  C   UNL A   1      31.198  27.904  22.411  1.00  0.00     0.049 C 
BRANCH  14  15
ATOM     15  C   UNL A   1      29.921  28.663  22.708  1.00  0.00    -0.046 A 
ATOM     16  C   UNL A   1      28.735  27.974  22.990  1.00  0.00     0.004 A 
ATOM     17  C   UNL A   1      29.895  30.065  22.703  1.00  0.00     0.019 A 
ATOM     18  C   UNL A   1      27.543  28.672  23.208  1.00  0.00     0.001 A 
ATOM     19  C   UNL A   1      28.697  30.754  22.875  1.00  0.00     0.018 A 
ATOM     20  C   UNL A   1      27.518  30.064  23.126  1.00  0.00     0.016 A 
ATOM     21  Br  UNL A   1      28.684  32.640  22.735  1.00  0.00    -0.051 Br
ENDBRANCH  14  15
ENDBRANCH   8  14
ENDBRANCH   5   8
ENDBRANCH   3   4
ENDBRANCH   2   3
ENDBRANCH   1   2
BRANCH   1  22
ATOM     22  C   UNL A   1      31.374  30.869  25.989  1.00  0.00     0.002 C 
BRANCH  22  23
ATOM     23  C   UNL A   1      31.279  32.325  26.450  1.00  0.00     0.021 C 
BRANCH  23  24
ATOM     24  C   UNL A   1      32.499  32.812  27.222  1.00  0.00     0.116 C 
BRANCH  24  25
ATOM     25  N   UNL A   1      32.369  34.205  27.612  1.00  0.00    -0.352 N 
ATOM     26  C   UNL A   1      33.024  34.886  28.604  1.00  0.00     0.251 C 
ATOM     27  H   UNL A   1      31.719  34.732  27.093  1.00  0.00     0.163 HD
ATOM     28  O   UNL A   1      32.649  36.002  28.944  1.00  0.00    -0.269 OA
BRANCH  26  29
ATOM     29  C   UNL A   1      34.183  34.259  29.271  1.00  0.00     0.039 A 
ATOM     30  C   UNL A   1      35.462  34.505  28.770  1.00  0.00     0.014 A 
ATOM     31  C   UNL A   1      34.004  33.420  30.374  1.00  0.00     0.014 A 
ATOM     32  C   UNL A   1      36.568  33.935  29.400  1.00  0.00     0.010 A 
ATOM     33  C   UNL A   1      35.111  32.919  31.049  1.00  0.00     0.010 A 
ATOM     34  C   UNL A   1      36.403  33.155  30.556  1.00  0.00    -0.014 A 
BRANCH  34  35
ATOM     35  C   UNL A   1      37.567  32.533  31.234  1.00  0.00     0.031 A 
ATOM     36  C   UNL A   1      38.306  31.406  30.565  1.00  0.00     0.074 A 
ATOM     37  C   UNL A   1      37.933  32.953  32.461  1.00  0.00     0.049 A 
ATOM     38  N   UNL A   1      39.298  30.680  31.016  1.00  0.00    -0.248 NA
ATOM     39  C   UNL A   1      37.852  31.024  29.217  1.00  0.00     0.031 C 
ATOM     40  C   UNL A   1      37.271  34.009  33.227  1.00  0.00     0.029 A 
ATOM     41  N   UNL A   1      38.947  32.532  33.284  1.00  0.00    -0.354 N 
ATOM     42  C   UNL A   1      39.581  29.763  30.013  1.00  0.00     0.074 A 
ATOM     43  C   UNL A   1      38.614  29.972  28.959  1.00  0.00     0.031 C 
ATOM     44  C   UNL A   1      37.906  34.167  34.400  1.00  0.00     0.029 A 
ATOM     45  C   UNL A   1      38.994  33.197  34.485  1.00  0.00     0.049 A 
ATOM     46  H   UNL A   1      39.582  31.822  33.036  1.00  0.00     0.167 HD
ATOM     47  C   UNL A   1      40.581  28.851  29.959  1.00  0.00     0.037 A 
ATOM     48  C   UNL A   1      39.816  33.032  35.539  1.00  0.00     0.037 A 
ATOM     49  C   UNL A   1      41.553  28.657  31.002  1.00  0.00     0.049 A 
ATOM     50  C   UNL A   1      40.906  31.994  35.459  1.00  0.00     0.074 A 
ATOM     51  C   UNL A   1      42.613  27.770  31.040  1.00  0.00     0.029 A 
ATOM     52  N   UNL A   1      41.585  29.372  32.191  1.00  0.00    -0.354 N 
ATOM     53  N   UNL A   1      41.192  31.165  34.484  1.00  0.00    -0.248 NA
ATOM     54  C   UNL A   1      41.797  31.880  36.622  1.00  0.00     0.031 C 
ATOM     55  C   UNL A   1      43.264  27.919  32.268  1.00  0.00     0.029 A 
ATOM     56  C   UNL A   1      42.646  28.940  32.970  1.00  0.00     0.049 A 
ATOM     57  H   UNL A   1      40.949  30.079  32.443  1.00  0.00     0.167 HD
ATOM     58  C   UNL A   1      42.318  30.465  34.898  1.00  0.00     0.074 A 
ATOM     59  C   UNL A   1      42.671  30.976  36.204  1.00  0.00     0.031 C 
ATOM     60  C   UNL A   1      43.000  29.485  34.255  1.00  0.00     0.037 A 
BRANCH  47  61
ATOM     61  C   UNL A   1      40.689  28.007  28.722  1.00  0.00     0.064 A 
ATOM     62  C   UNL A   1      40.000  26.790  28.606  1.00  0.00     0.173 A 
ATOM     63  C   UNL A   1      41.440  28.443  27.620  1.00  0.00     0.173 A 
ATOM     64  F   UNL A   1      39.278  26.322  29.635  1.00  0.00    -0.203 F 
ATOM     65  C   UNL A   1      40.075  26.031  27.441  1.00  0.00     0.198 A 
ATOM     66  C   UNL A   1      41.488  27.697  26.446  1.00  0.00     0.198 A 
ATOM     67  F   UNL A   1      42.115  29.600  27.677  1.00  0.00    -0.203 F 
ATOM     68  F   UNL A   1      39.443  24.851  27.369  1.00  0.00    -0.200 F 
ATOM     69  C   UNL A   1      40.810  26.490  26.359  1.00  0.00     0.200 A 
ATOM     70  F   UNL A   1      42.187  28.149  25.395  1.00  0.00    -0.200 F 
ATOM     71  F   UNL A   1      40.869  25.766  25.232  1.00  0.00    -0.200 F 
ENDBRANCH  47  61
BRANCH  48  72
ATOM     72  C   UNL A   1      39.654  33.869  36.760  1.00  0.00     0.064 A 
ATOM     73  C   UNL A   1      38.875  33.431  37.840  1.00  0.00     0.173 A 
ATOM     74  C   UNL A   1      40.234  35.143  36.851  1.00  0.00     0.173 A 
ATOM     75  F   UNL A   1      38.285  32.227  37.795  1.00  0.00    -0.203 F 
ATOM     76  C   UNL A   1      38.644  34.251  38.942  1.00  0.00     0.198 A 
ATOM     77  C   UNL A   1      40.033  35.948  37.970  1.00  0.00     0.198 A 
ATOM     78  F   UNL A   1      40.996  35.608  35.850  1.00  0.00    -0.203 F 
ATOM     79  F   UNL A   1      37.836  33.835  39.926  1.00  0.00    -0.200 F 
ATOM     80  C   UNL A   1      39.225  35.508  39.008  1.00  0.00     0.200 A 
ATOM     81  F   UNL A   1      40.611  37.155  38.037  1.00  0.00    -0.200 F 
ATOM     82  F   UNL A   1      38.996  36.301  40.063  1.00  0.00    -0.200 F 
ENDBRANCH  48  72
BRANCH  60  83
ATOM     83  C   UNL A   1      44.237  28.954  34.920  1.00  0.00     0.064 A 
ATOM     84  C   UNL A   1      44.201  27.850  35.784  1.00  0.00     0.173 A 
ATOM     85  C   UNL A   1      45.484  29.542  34.658  1.00  0.00     0.173 A 
ATOM     86  F   UNL A   1      43.032  27.260  36.078  1.00  0.00    -0.203 F 
ATOM     87  C   UNL A   1      45.362  27.378  36.389  1.00  0.00     0.198 A 
ATOM     88  C   UNL A   1      46.647  29.044  35.236  1.00  0.00     0.198 A 
ATOM     89  F   UNL A   1      45.576  30.594  33.830  1.00  0.00    -0.203 F 
ATOM     90  F   UNL A   1      45.296  26.359  37.258  1.00  0.00    -0.200 F 
ATOM     91  C   UNL A   1      46.585  27.970  36.109  1.00  0.00     0.200 A 
ATOM     92  F   UNL A   1      47.830  29.606  34.950  1.00  0.00    -0.200 F 
ATOM     93  F   UNL A   1      47.703  27.509  36.687  1.00  0.00    -0.200 F 
ENDBRANCH  60  83
ENDBRANCH  34  35
ENDBRANCH  26  29
ENDBRANCH  24  25
ENDBRANCH  23  24
ENDBRANCH  22  23
ENDBRANCH   1  22
TORSDOF 18
ENDMDL
MODEL 2
REMARK VINA RESULT:     -10.9      6.099     11.423
REMARK SMILES C[C@H](O)C[C@H](Cc1cccc(Br)c1)C(=O)NCCCCCCNC(=O)c1ccc(-c2c3nc(c(-c4c(F)c(F)c(F)c(F)c4F)c4ccc([nH]4)c(-c4c(F)c(F)c(F)c(F)c4F)c4nc(c(-c5c(F)c(F)c(F)c(F)c5F)c5ccc2[nH]5)C=C4)C=C3)cc1
REMARK SMILES IDX 19 1 18 2 17 3 16 4 14 5 15 6 5 8 4 9 2 10 1 11 3 12 6 14
REMARK SMILES IDX 7 15 8 16 13 17 9 18 11 19 10 20 12 21 20 22 21 23 22 24
REMARK SMILES IDX 23 25 24 26 25 28 26 29 27 30 88 31 28 32 87 33 29 34 30 35
REMARK SMILES IDX 31 36 81 37 32 38 86 39 80 40 82 41 33 42 85 43 79 44 78 45
REMARK SMILES IDX 34 47 66 48 46 49 65 50 47 51 50 52 64 53 83 54 48 55 49 56
REMARK SMILES IDX 63 58 84 59 51 60 35 61 36 62 44 63 37 64 38 65 42 66 45 67
REMARK SMILES IDX 39 68 40 69 43 70 41 71 67 72 68 73 76 74 69 75 70 76 74 77
REMARK SMILES IDX 77 78 71 79 72 80 75 81 73 82 52 83 53 84 61 85 54 86 55 87
REMARK SMILES IDX 59 88 62 89 56 90 57 91 60 92 58 93
REMARK H PARENT 16 7 3 13 23 27 82 46 50 57
REMARK Flexibility Score: inf
ROOT
ATOM      1  C   UNL A   1      37.821  22.191  25.213  1.00  0.00     0.002 C 
ENDROOT
BRANCH   1   2
ATOM      2  C   UNL A   1      36.698  23.030  25.830  1.00  0.00     0.021 C 
BRANCH   2   3
ATOM      3  C   UNL A   1      35.704  23.542  24.796  1.00  0.00     0.116 C 
BRANCH   3   4
ATOM      4  N   UNL A   1      34.422  23.815  25.414  1.00  0.00    -0.356 N 
ATOM      5  C   UNL A   1      33.194  23.280  25.177  1.00  0.00     0.223 C 
ATOM      6  O   UNL A   1      32.248  23.697  25.847  1.00  0.00    -0.275 OA
ATOM      7  H   UNL A   1      34.443  24.499  26.123  1.00  0.00     0.163 HD
BRANCH   5   8
ATOM      8  C   UNL A   1      33.003  22.176  24.145  1.00  0.00     0.085 C 
BRANCH   8   9
ATOM      9  C   UNL A   1      32.271  22.763  22.915  1.00  0.00     0.045 C 
BRANCH   9  10
ATOM     10  C   UNL A   1      33.084  23.821  22.161  1.00  0.00     0.112 C 
ATOM     11  C   UNL A   1      32.404  25.181  22.248  1.00  0.00     0.038 C 
BRANCH  10  12
ATOM     12  O   UNL A   1      33.197  23.469  20.789  1.00  0.00    -0.393 OA
ATOM     13  H   UNL A   1      33.160  24.270  20.246  1.00  0.00     0.210 HD
ENDBRANCH  10  12
ENDBRANCH   9  10
ENDBRANCH   8   9
BRANCH   8  14
ATOM     14  C   UNL A   1      32.364  20.920  24.789  1.00  0.00     0.049 C 
BRANCH  14  15
ATOM     15  C   UNL A   1      32.786  19.608  24.161  1.00  0.00    -0.046 A 
ATOM     16  C   UNL A   1      32.249  19.204  22.932  1.00  0.00     0.004 A 
ATOM     17  C   UNL A   1      33.714  18.769  24.793  1.00  0.00     0.019 A 
ATOM     18  C   UNL A   1      32.595  17.967  22.379  1.00  0.00     0.001 A 
ATOM     19  C   UNL A   1      34.020  17.518  24.262  1.00  0.00     0.018 A 
ATOM     20  C   UNL A   1      33.462  17.111  23.056  1.00  0.00     0.016 A 
ATOM     21  Br  UNL A   1      35.180  16.365  25.212  1.00  0.00    -0.051 Br
ENDBRANCH  14  15
ENDBRANCH   8  14
ENDBRANCH   5   8
ENDBRANCH   3   4
ENDBRANCH   2   3
ENDBRANCH   1   2
BRANCH   1  22
ATOM     22  C   UNL A   1      37.365  20.845  24.637  1.00  0.00     0.002 C 
BRANCH  22  23
ATOM     23  C   UNL A   1      38.243  19.654  25.027  1.00  0.00     0.021 C 
BRANCH  23  24
ATOM     24  C   UNL A   1      39.307  19.983  26.066  1.00  0.00     0.116 C 
BRANCH  24  25
ATOM     25  N   UNL A   1      40.410  19.038  26.023  1.00  0.00    -0.352 N 
ATOM     26  C   UNL A   1      41.758  19.286  26.041  1.00  0.00     0.251 C 
ATOM     27  H   UNL A   1      40.154  18.089  25.975  1.00  0.00     0.163 HD
ATOM     28  O   UNL A   1      42.557  18.393  25.787  1.00  0.00    -0.269 OA
BRANCH  26  29
ATOM     29  C   UNL A   1      42.241  20.645  26.358  1.00  0.00     0.039 A 
ATOM     30  C   UNL A   1      42.550  21.512  25.309  1.00  0.00     0.014 A 
ATOM     31  C   UNL A   1      42.400  21.054  27.685  1.00  0.00     0.014 A 
ATOM     32  C   UNL A   1      42.989  22.805  25.593  1.00  0.00     0.010 A 
ATOM     33  C   UNL A   1      42.759  22.367  27.965  1.00  0.00     0.010 A 
ATOM     34  C   UNL A   1      43.078  23.249  26.922  1.00  0.00    -0.014 A 
BRANCH  34  35
ATOM     35  C   UNL A   1      43.551  24.618  27.243  1.00  0.00     0.031 A 
ATOM     36  C   UNL A   1      42.584  25.634  27.785  1.00  0.00     0.074 A 
ATOM     37  C   UNL A   1      44.835  24.956  27.011  1.00  0.00     0.049 A 
ATOM     38  N   UNL A   1      42.777  26.900  28.060  1.00  0.00    -0.248 NA
ATOM     39  C   UNL A   1      41.206  25.175  28.027  1.00  0.00     0.031 C 
ATOM     40  C   UNL A   1      45.857  24.070  26.451  1.00  0.00     0.029 A 
ATOM     41  N   UNL A   1      45.497  26.142  27.208  1.00  0.00    -0.354 N 
ATOM     42  C   UNL A   1      41.551  27.381  28.501  1.00  0.00     0.074 A 
ATOM     43  C   UNL A   1      40.604  26.296  28.392  1.00  0.00     0.031 C 
ATOM     44  C   UNL A   1      47.020  24.737  26.367  1.00  0.00     0.029 A 
ATOM     45  C   UNL A   1      46.816  26.107  26.828  1.00  0.00     0.049 A 
ATOM     46  H   UNL A   1      45.066  26.942  27.587  1.00  0.00     0.167 HD
ATOM     47  C   UNL A   1      41.252  28.609  28.988  1.00  0.00     0.037 A 
ATOM     48  C   UNL A   1      47.750  27.076  26.840  1.00  0.00     0.037 A 
ATOM     49  C   UNL A   1      42.202  29.682  29.113  1.00  0.00     0.049 A 
ATOM     50  C   UNL A   1      47.382  28.439  27.368  1.00  0.00     0.074 A 
ATOM     51  C   UNL A   1      42.003  30.958  29.606  1.00  0.00     0.029 A 
ATOM     52  N   UNL A   1      43.537  29.597  28.745  1.00  0.00    -0.354 N 
ATOM     53  N   UNL A   1      46.231  28.867  27.827  1.00  0.00    -0.248 NA
ATOM     54  C   UNL A   1      48.448  29.450  27.392  1.00  0.00     0.031 C 
ATOM     55  C   UNL A   1      43.208  31.661  29.501  1.00  0.00     0.029 A 
ATOM     56  C   UNL A   1      44.172  30.803  28.998  1.00  0.00     0.049 A 
ATOM     57  H   UNL A   1      43.969  28.800  28.362  1.00  0.00     0.167 HD
ATOM     58  C   UNL A   1      46.446  30.178  28.234  1.00  0.00     0.074 A 
ATOM     59  C   UNL A   1      47.841  30.469  27.980  1.00  0.00     0.031 C 
ATOM     60  C   UNL A   1      45.569  31.063  28.769  1.00  0.00     0.037 A 
BRANCH  47  61
ATOM     61  C   UNL A   1      39.843  28.852  29.446  1.00  0.00     0.064 A 
ATOM     62  C   UNL A   1      38.860  29.325  28.563  1.00  0.00     0.173 A 
ATOM     63  C   UNL A   1      39.455  28.556  30.762  1.00  0.00     0.173 A 
ATOM     64  F   UNL A   1      39.181  29.636  27.299  1.00  0.00    -0.203 F 
ATOM     65  C   UNL A   1      37.546  29.513  28.986  1.00  0.00     0.198 A 
ATOM     66  C   UNL A   1      38.134  28.714  31.171  1.00  0.00     0.198 A 
ATOM     67  F   UNL A   1      40.353  28.097  31.645  1.00  0.00    -0.203 F 
ATOM     68  F   UNL A   1      36.635  30.008  28.136  1.00  0.00    -0.200 F 
ATOM     69  C   UNL A   1      37.182  29.198  30.286  1.00  0.00     0.200 A 
ATOM     70  F   UNL A   1      37.779  28.395  32.424  1.00  0.00    -0.200 F 
ATOM     71  F   UNL A   1      35.913  29.364  30.686  1.00  0.00    -0.200 F 
ENDBRANCH  47  61
BRANCH  48  72
ATOM     72  C   UNL A   1      49.128  26.802  26.347  1.00  0.00     0.064 A 
ATOM     73  C   UNL A   1      49.478  27.029  25.008  1.00  0.00     0.173 A 
ATOM     74  C   UNL A   1      50.109  26.262  27.192  1.00  0.00     0.173 A 
ATOM     75  F   UNL A   1      48.571  27.528  24.156  1.00  0.00    -0.203 F 
ATOM     76  C   UNL A   1      50.737  26.683  24.523  1.00  0.00     0.198 A 
ATOM     77  C   UNL A   1      51.381  25.951  26.715  1.00  0.00     0.198 A 
ATOM     78  F   UNL A   1      49.832  26.033  28.484  1.00  0.00    -0.203 F 
ATOM     79  F   UNL A   1      51.018  26.842  23.223  1.00  0.00    -0.200 F 
ATOM     80  C   UNL A   1      51.689  26.147  25.377  1.00  0.00     0.200 A 
ATOM     81  F   UNL A   1      52.303  25.450  27.548  1.00  0.00    -0.200 F 
ATOM     82  F   UNL A   1      52.897  25.806  24.909  1.00  0.00    -0.200 F 
ENDBRANCH  48  72
BRANCH  60  83
ATOM     83  C   UNL A   1      46.106  32.402  29.184  1.00  0.00     0.064 A 
ATOM     84  C   UNL A   1      46.610  32.635  30.472  1.00  0.00     0.173 A 
ATOM     85  C   UNL A   1      46.146  33.460  28.262  1.00  0.00     0.173 A 
ATOM     86  F   UNL A   1      46.582  31.661  31.394  1.00  0.00    -0.203 F 
ATOM     87  C   UNL A   1      47.100  33.887  30.832  1.00  0.00     0.198 A 
ATOM     88  C   UNL A   1      46.671  34.699  28.615  1.00  0.00     0.198 A 
ATOM     89  F   UNL A   1      45.687  33.287  27.013  1.00  0.00    -0.203 F 
ATOM     90  F   UNL A   1      47.521  34.103  32.086  1.00  0.00    -0.200 F 
ATOM     91  C   UNL A   1      47.137  34.916  29.902  1.00  0.00     0.200 A 
ATOM     92  F   UNL A   1      46.722  35.686  27.709  1.00  0.00    -0.200 F 
ATOM     93  F   UNL A   1      47.616  36.118  30.249  1.00  0.00    -0.200 F 
ENDBRANCH  60  83
ENDBRANCH  34  35
ENDBRANCH  26  29
ENDBRANCH  24  25
ENDBRANCH  23  24
ENDBRANCH  22  23
ENDBRANCH   1  22
TORSDOF 18
ENDMDL
MODEL 3
REMARK VINA RESULT:     -10.9      6.016     10.123
REMARK SMILES C[C@H](O)C[C@H](Cc1cccc(Br)c1)C(=O)NCCCCCCNC(=O)c1ccc(-c2c3nc(c(-c4c(F)c(F)c(F)c(F)c4F)c4ccc([nH]4)c(-c4c(F)c(F)c(F)c(F)c4F)c4nc(c(-c5c(F)c(F)c(F)c(F)c5F)c5ccc2[nH]5)C=C4)C=C3)cc1
REMARK SMILES IDX 19 1 18 2 17 3 16 4 14 5 15 6 5 8 4 9 2 10 1 11 3 12 6 14
REMARK SMILES IDX 7 15 8 16 13 17 9 18 11 19 10 20 12 21 20 22 21 23 22 24
REMARK SMILES IDX 23 25 24 26 25 28 26 29 27 30 88 31 28 32 87 33 29 34 30 35
REMARK SMILES IDX 31 36 81 37 32 38 86 39 80 40 82 41 33 42 85 43 79 44 78 45
REMARK SMILES IDX 34 47 66 48 46 49 65 50 47 51 50 52 64 53 83 54 48 55 49 56
REMARK SMILES IDX 63 58 84 59 51 60 35 61 36 62 44 63 37 64 38 65 42 66 45 67
REMARK SMILES IDX 39 68 40 69 43 70 41 71 67 72 68 73 76 74 69 75 70 76 74 77
REMARK SMILES IDX 77 78 71 79 72 80 75 81 73 82 52 83 53 84 61 85 54 86 55 87
REMARK SMILES IDX 59 88 62 89 56 90 57 91 60 92 58 93
REMARK H PARENT 16 7 3 13 23 27 82 46 50 57
REMARK Flexibility Score: inf
ROOT
ATOM      1  C   UNL A   1      37.768  22.192  25.218  1.00  0.00     0.002 C 
ENDROOT
BRANCH   1   2
ATOM      2  C   UNL A   1      36.642  22.998  25.873  1.00  0.00     0.021 C 
BRANCH   2   3
ATOM      3  C   UNL A   1      35.635  23.536  24.865  1.00  0.00     0.116 C 
BRANCH   3   4
ATOM      4  N   UNL A   1      34.351  23.763  25.501  1.00  0.00    -0.356 N 
ATOM      5  C   UNL A   1      33.128  23.230  25.239  1.00  0.00     0.223 C 
ATOM      6  O   UNL A   1      32.181  23.602  25.933  1.00  0.00    -0.275 OA
ATOM      7  H   UNL A   1      34.368  24.409  26.245  1.00  0.00     0.163 HD
BRANCH   5   8
ATOM      8  C   UNL A   1      32.945  22.180  24.151  1.00  0.00     0.085 C 
BRANCH   8   9
ATOM      9  C   UNL A   1      32.281  22.846  22.922  1.00  0.00     0.045 C 
BRANCH   9  10
ATOM     10  C   UNL A   1      33.220  23.768  22.138  1.00  0.00     0.112 C 
ATOM     11  C   UNL A   1      32.792  25.222  22.291  1.00  0.00     0.038 C 
BRANCH  10  12
ATOM     12  O   UNL A   1      33.191  23.440  20.756  1.00  0.00    -0.393 OA
ATOM     13  H   UNL A   1      33.263  24.251  20.230  1.00  0.00     0.210 HD
ENDBRANCH  10  12
ENDBRANCH   9  10
ENDBRANCH   8   9
BRANCH   8  14
ATOM     14  C   UNL A   1      32.242  20.918  24.711  1.00  0.00     0.049 C 
BRANCH  14  15
ATOM     15  C   UNL A   1      32.711  19.614  24.100  1.00  0.00    -0.046 A 
ATOM     16  C   UNL A   1      32.224  19.198  22.855  1.00  0.00     0.004 A 
ATOM     17  C   UNL A   1      33.635  18.795  24.764  1.00  0.00     0.019 A 
ATOM     18  C   UNL A   1      32.613  17.967  22.317  1.00  0.00     0.001 A 
ATOM     19  C   UNL A   1      33.984  17.550  24.246  1.00  0.00     0.018 A 
ATOM     20  C   UNL A   1      33.475  17.130  23.024  1.00  0.00     0.016 A 
ATOM     21  Br  UNL A   1      35.135  16.422  25.236  1.00  0.00    -0.051 Br
ENDBRANCH  14  15
ENDBRANCH   8  14
ENDBRANCH   5   8
ENDBRANCH   3   4
ENDBRANCH   2   3
ENDBRANCH   1   2
BRANCH   1  22
ATOM     22  C   UNL A   1      37.326  20.843  24.637  1.00  0.00     0.002 C 
BRANCH  22  23
ATOM     23  C   UNL A   1      38.239  19.667  24.990  1.00  0.00     0.021 C 
BRANCH  23  24
ATOM     24  C   UNL A   1      39.234  19.968  26.104  1.00  0.00     0.116 C 
BRANCH  24  25
ATOM     25  N   UNL A   1      40.413  19.123  26.015  1.00  0.00    -0.352 N 
ATOM     26  C   UNL A   1      41.734  19.488  26.005  1.00  0.00     0.251 C 
ATOM     27  H   UNL A   1      40.239  18.157  25.952  1.00  0.00     0.163 HD
ATOM     28  O   UNL A   1      42.601  18.673  25.714  1.00  0.00    -0.269 OA
BRANCH  26  29
ATOM     29  C   UNL A   1      42.105  20.877  26.340  1.00  0.00     0.039 A 
ATOM     30  C   UNL A   1      42.344  21.208  27.674  1.00  0.00     0.014 A 
ATOM     31  C   UNL A   1      42.201  21.851  25.341  1.00  0.00     0.014 A 
ATOM     32  C   UNL A   1      42.714  22.512  28.003  1.00  0.00     0.010 A 
ATOM     33  C   UNL A   1      42.648  23.127  25.660  1.00  0.00     0.010 A 
ATOM     34  C   UNL A   1      42.889  23.476  26.998  1.00  0.00    -0.014 A 
BRANCH  34  35
ATOM     35  C   UNL A   1      43.273  24.870  27.330  1.00  0.00     0.031 A 
ATOM     36  C   UNL A   1      44.689  25.326  27.112  1.00  0.00     0.074 A 
ATOM     37  C   UNL A   1      42.361  25.709  27.861  1.00  0.00     0.049 A 
ATOM     38  N   UNL A   1      45.246  26.475  27.404  1.00  0.00    -0.248 NA
ATOM     39  C   UNL A   1      45.614  24.351  26.509  1.00  0.00     0.031 C 
ATOM     40  C   UNL A   1      40.968  25.371  28.155  1.00  0.00     0.029 A 
ATOM     41  N   UNL A   1      42.476  27.018  28.258  1.00  0.00    -0.354 N 
ATOM     42  C   UNL A   1      46.576  26.357  27.023  1.00  0.00     0.074 A 
ATOM     43  C   UNL A   1      46.764  25.006  26.546  1.00  0.00     0.031 C 
ATOM     44  C   UNL A   1      40.353  26.449  28.668  1.00  0.00     0.029 A 
ATOM     45  C   UNL A   1      41.316  27.540  28.777  1.00  0.00     0.049 A 
ATOM     46  H   UNL A   1      43.311  27.534  28.177  1.00  0.00     0.167 HD
ATOM     47  C   UNL A   1      47.546  27.302  27.037  1.00  0.00     0.037 A 
ATOM     48  C   UNL A   1      41.066  28.758  29.292  1.00  0.00     0.037 A 
ATOM     49  C   UNL A   1      47.351  28.652  27.496  1.00  0.00     0.049 A 
ATOM     50  C   UNL A   1      42.171  29.783  29.315  1.00  0.00     0.074 A 
ATOM     51  C   UNL A   1      48.264  29.689  27.538  1.00  0.00     0.029 A 
ATOM     52  N   UNL A   1      46.153  29.151  27.985  1.00  0.00    -0.354 N 
ATOM     53  N   UNL A   1      43.412  29.673  28.907  1.00  0.00    -0.248 NA
ATOM     54  C   UNL A   1      41.834  31.107  29.855  1.00  0.00     0.031 C 
ATOM     55  C   UNL A   1      47.630  30.807  28.091  1.00  0.00     0.029 A 
ATOM     56  C   UNL A   1      46.306  30.482  28.336  1.00  0.00     0.049 A 
ATOM     57  H   UNL A   1      45.318  28.636  28.072  1.00  0.00     0.167 HD
ATOM     58  C   UNL A   1      43.989  30.922  29.101  1.00  0.00     0.074 A 
ATOM     59  C   UNL A   1      42.958  31.777  29.648  1.00  0.00     0.031 C 
ATOM     60  C   UNL A   1      45.258  31.326  28.850  1.00  0.00     0.037 A 
BRANCH  47  61
ATOM     61  C   UNL A   1      48.901  26.917  26.519  1.00  0.00     0.064 A 
ATOM     62  C   UNL A   1      49.865  26.337  27.357  1.00  0.00     0.173 A 
ATOM     63  C   UNL A   1      49.223  27.076  25.162  1.00  0.00     0.173 A 
ATOM     64  F   UNL A   1      49.614  26.175  28.665  1.00  0.00    -0.203 F 
ATOM     65  C   UNL A   1      51.107  25.948  26.862  1.00  0.00     0.198 A 
ATOM     66  C   UNL A   1      50.453  26.657  24.664  1.00  0.00     0.198 A 
ATOM     67  F   UNL A   1      48.337  27.622  24.317  1.00  0.00    -0.203 F 
ATOM     68  F   UNL A   1      52.028  25.435  27.691  1.00  0.00    -0.200 F 
ATOM     69  C   UNL A   1      51.396  26.099  25.514  1.00  0.00     0.200 A 
ATOM     70  F   UNL A   1      50.726  26.790  23.358  1.00  0.00    -0.200 F 
ATOM     71  F   UNL A   1      52.587  25.710  25.035  1.00  0.00    -0.200 F 
ENDBRANCH  47  61
BRANCH  48  72
ATOM     72  C   UNL A   1      39.715  29.089  29.825  1.00  0.00     0.064 A 
ATOM     73  C   UNL A   1      39.395  28.873  31.173  1.00  0.00     0.173 A 
ATOM     74  C   UNL A   1      38.703  29.580  28.987  1.00  0.00     0.173 A 
ATOM     75  F   UNL A   1      40.323  28.389  32.012  1.00  0.00    -0.203 F 
ATOM     76  C   UNL A   1      38.105  29.091  31.651  1.00  0.00     0.198 A 
ATOM     77  C   UNL A   1      37.423  29.833  29.475  1.00  0.00     0.198 A 
ATOM     78  F   UNL A   1      38.957  29.813  27.691  1.00  0.00    -0.203 F 
ATOM     79  F   UNL A   1      37.810  28.807  32.927  1.00  0.00    -0.200 F 
ATOM     80  C   UNL A   1      37.120  29.573  30.803  1.00  0.00     0.200 A 
ATOM     81  F   UNL A   1      36.479  30.316  28.655  1.00  0.00    -0.200 F 
ATOM     82  F   UNL A   1      35.878  29.775  31.261  1.00  0.00    -0.200 F 
ENDBRANCH  48  72
BRANCH  60  83
ATOM     83  C   UNL A   1      45.585  32.772  29.094  1.00  0.00     0.064 A 
ATOM     84  C   UNL A   1      45.393  33.754  28.111  1.00  0.00     0.173 A 
ATOM     85  C   UNL A   1      46.065  33.182  30.347  1.00  0.00     0.173 A 
ATOM     86  F   UNL A   1      44.948  33.412  26.892  1.00  0.00    -0.203 F 
ATOM     87  C   UNL A   1      45.705  35.087  28.363  1.00  0.00     0.198 A 
ATOM     88  C   UNL A   1      46.341  34.520  30.606  1.00  0.00     0.198 A 
ATOM     89  F   UNL A   1      46.255  32.284  31.326  1.00  0.00    -0.203 F 
ATOM     90  F   UNL A   1      45.571  35.998  27.390  1.00  0.00    -0.200 F 
ATOM     91  C   UNL A   1      46.172  35.470  29.612  1.00  0.00     0.200 A 
ATOM     92  F   UNL A   1      46.774  34.891  31.819  1.00  0.00    -0.200 F 
ATOM     93  F   UNL A   1      46.464  36.755  29.854  1.00  0.00    -0.200 F 
ENDBRANCH  60  83
ENDBRANCH  34  35
ENDBRANCH  26  29
ENDBRANCH  24  25
ENDBRANCH  23  24
ENDBRANCH  22  23
ENDBRANCH   1  22
TORSDOF 18
ENDMDL
