MODEL 1
REMARK VINA RESULT:     -12.3      0.000      0.000
REMARK SMILES C/C=C/C=C/C=C/C(=O)O[C@H]1C=C(C=O)[C@@](O)(C(=O)NCCCCCCNC(=O)c2ccc(-c3c4nc(c(-c5c(F)c(F)c(F)c(F)c5F)c5ccc([nH]5)c(-c5c(F)c(F)c(F)c(F)c5F)c5nc(c(-c6c(F)c(F)c(F)c(F)c6F)c6ccc3[nH]6)C=C5)C=C4)cc2)[C@]2(C)CCCC(C)(C)[C@@H]12
REMARK SMILES IDX 22 1 21 2 20 3 18 4 19 5 16 7 11 8 12 9 101 10 13 11 93 12
REMARK SMILES IDX 98 13 95 14 94 15 97 16 99 17 100 18 96 19 10 20 8 21 9 22
REMARK SMILES IDX 7 23 6 24 5 25 4 26 3 27 1 28 2 29 14 30 15 31 17 32 23 34
REMARK SMILES IDX 24 35 25 36 26 37 27 38 28 39 29 41 30 42 31 43 92 44 32 45
REMARK SMILES IDX 91 46 33 47 34 48 35 49 85 50 36 51 90 52 84 53 86 54 37 55
REMARK SMILES IDX 89 56 83 57 82 58 38 60 70 61 50 62 69 63 51 64 54 65 68 66
REMARK SMILES IDX 87 67 52 68 53 69 67 71 88 72 55 73 39 74 40 75 48 76 41 77
REMARK SMILES IDX 42 78 46 79 49 80 43 81 44 82 47 83 45 84 71 85 72 86 80 87
REMARK SMILES IDX 73 88 74 89 78 90 81 91 75 92 76 93 79 94 77 95 56 96 57 97
REMARK SMILES IDX 65 98 58 99 59 100 63 101 66 102 60 103 61 104 64 105 62 106
REMARK H PARENT 20 6 17 33 27 40 86 59 54 70
REMARK Flexibility Score: inf
ROOT
ATOM      1  C   UNL A   1      36.435  21.071  24.863  1.00  0.00     0.021 C 
ENDROOT
BRANCH   1   2
ATOM      2  C   UNL A   1      35.486  21.460  25.989  1.00  0.00     0.116 C 
BRANCH   2   3
ATOM      3  N   UNL A   1      34.188  20.781  25.933  1.00  0.00    -0.353 N 
ATOM      4  C   UNL A   1      32.912  21.287  25.762  1.00  0.00     0.257 C 
ATOM      5  O   UNL A   1      31.968  20.494  25.740  1.00  0.00    -0.271 OA
ATOM      6  H   UNL A   1      34.233  19.803  26.033  1.00  0.00     0.163 HD
BRANCH   4   7
ATOM      7  C   UNL A   1      32.700  22.827  25.624  1.00  0.00     0.176 C 
ATOM      8  C   UNL A   1      32.322  25.700  25.490  1.00  0.00     0.204 C 
ATOM      9  C   UNL A   1      31.814  24.856  26.627  1.00  0.00     0.028 C 
ATOM     10  C   UNL A   1      32.784  24.896  24.188  1.00  0.00     0.049 C 
ATOM     11  C   UNL A   1      31.734  23.515  26.557  1.00  0.00     0.033 C 
ATOM     12  C   UNL A   1      32.444  23.337  24.148  1.00  0.00     0.017 C 
ATOM     13  C   UNL A   1      32.816  25.636  22.803  1.00  0.00    -0.028 C 
ATOM     14  C   UNL A   1      33.374  22.708  23.065  1.00  0.00     0.011 C 
ATOM     15  C   UNL A   1      31.010  22.936  23.685  1.00  0.00     0.016 C 
ATOM     16  C   UNL A   1      33.633  24.808  21.776  1.00  0.00     0.007 C 
ATOM     17  C   UNL A   1      31.436  25.962  22.208  1.00  0.00     0.011 C 
ATOM     18  C   UNL A   1      33.588  26.958  22.958  1.00  0.00     0.011 C 
ATOM     19  C   UNL A   1      33.210  23.352  21.691  1.00  0.00     0.001 C 
BRANCH   8  20
ATOM     20  O   UNL A   1      31.333  26.703  25.195  1.00  0.00    -0.455 OA
BRANCH  20  21
ATOM     21  C   UNL A   1      31.628  27.956  25.632  1.00  0.00     0.331 C 
ATOM     22  O   UNL A   1      32.203  28.244  26.679  1.00  0.00    -0.247 OA
BRANCH  21  23
ATOM     23  C   UNL A   1      31.032  28.949  24.728  1.00  0.00     0.093 C 
ATOM     24  C   UNL A   1      30.175  28.533  23.780  1.00  0.00     0.007 C 
BRANCH  24  25
ATOM     25  C   UNL A   1      29.240  29.447  23.153  1.00  0.00     0.000 C 
ATOM     26  C   UNL A   1      29.158  30.734  23.529  1.00  0.00    -0.000 C 
BRANCH  26  27
ATOM     27  C   UNL A   1      28.456  31.741  22.762  1.00  0.00    -0.005 C 
ATOM     28  C   UNL A   1      27.738  32.766  20.589  1.00  0.00     0.035 C 
ATOM     29  C   UNL A   1      28.503  31.788  21.421  1.00  0.00    -0.030 C 
ENDBRANCH  26  27
ENDBRANCH  24  25
ENDBRANCH  21  23
ENDBRANCH  20  21
ENDBRANCH   8  20
BRANCH  11  30
ATOM     30  C   UNL A   1      30.326  23.060  26.737  1.00  0.00     0.259 C 
ATOM     31  O   UNL A   1      29.514  23.705  27.399  1.00  0.00    -0.298 OA
ENDBRANCH  11  30
BRANCH   7  32
ATOM     32  O   UNL A   1      33.960  23.371  26.149  1.00  0.00    -0.375 OA
ATOM     33  H   UNL A   1      34.533  23.628  25.411  1.00  0.00     0.212 HD
ENDBRANCH   7  32
ENDBRANCH   4   7
ENDBRANCH   2   3
ENDBRANCH   1   2
BRANCH   1  34
ATOM     34  C   UNL A   1      37.622  22.018  24.728  1.00  0.00     0.002 C 
BRANCH  34  35
ATOM     35  C   UNL A   1      38.416  22.250  26.024  1.00  0.00     0.002 C 
BRANCH  35  36
ATOM     36  C   UNL A   1      39.332  21.103  26.460  1.00  0.00     0.021 C 
BRANCH  36  37
ATOM     37  C   UNL A   1      39.557  20.029  25.401  1.00  0.00     0.116 C 
BRANCH  37  38
ATOM     38  N   UNL A   1      40.520  19.029  25.836  1.00  0.00    -0.352 N 
ATOM     39  C   UNL A   1      41.816  19.185  26.254  1.00  0.00     0.251 C 
ATOM     40  H   UNL A   1      40.191  18.101  25.827  1.00  0.00     0.163 HD
ATOM     41  O   UNL A   1      42.545  18.206  26.380  1.00  0.00    -0.269 OA
BRANCH  39  42
ATOM     42  C   UNL A   1      42.340  20.535  26.541  1.00  0.00     0.039 A 
ATOM     43  C   UNL A   1      42.784  21.327  25.479  1.00  0.00     0.014 A 
ATOM     44  C   UNL A   1      42.414  21.011  27.854  1.00  0.00     0.014 A 
ATOM     45  C   UNL A   1      43.250  22.618  25.729  1.00  0.00     0.010 A 
ATOM     46  C   UNL A   1      42.809  22.324  28.093  1.00  0.00     0.010 A 
ATOM     47  C   UNL A   1      43.236  23.139  27.033  1.00  0.00    -0.014 A 
BRANCH  47  48
ATOM     48  C   UNL A   1      43.667  24.533  27.308  1.00  0.00     0.031 A 
ATOM     49  C   UNL A   1      42.671  25.554  27.784  1.00  0.00     0.074 A 
ATOM     50  C   UNL A   1      44.943  24.892  27.069  1.00  0.00     0.049 A 
ATOM     51  N   UNL A   1      42.842  26.831  28.015  1.00  0.00    -0.248 NA
ATOM     52  C   UNL A   1      41.294  25.084  28.001  1.00  0.00     0.031 C 
ATOM     53  C   UNL A   1      45.990  24.005  26.561  1.00  0.00     0.029 A 
ATOM     54  N   UNL A   1      45.575  26.103  27.210  1.00  0.00    -0.354 N 
ATOM     55  C   UNL A   1      41.597  27.317  28.392  1.00  0.00     0.074 A 
ATOM     56  C   UNL A   1      40.667  26.211  28.304  1.00  0.00     0.031 C 
ATOM     57  C   UNL A   1      47.137  24.693  26.453  1.00  0.00     0.029 A 
ATOM     58  C   UNL A   1      46.898  26.079  26.845  1.00  0.00     0.049 A 
ATOM     59  H   UNL A   1      45.122  26.911  27.542  1.00  0.00     0.167 HD
ATOM     60  C   UNL A   1      41.264  28.566  28.795  1.00  0.00     0.037 A 
ATOM     61  C   UNL A   1      47.814  27.066  26.818  1.00  0.00     0.037 A 
ATOM     62  C   UNL A   1      42.197  29.656  28.902  1.00  0.00     0.049 A 
ATOM     63  C   UNL A   1      47.416  28.446  27.267  1.00  0.00     0.074 A 
ATOM     64  C   UNL A   1      41.973  30.942  29.361  1.00  0.00     0.029 A 
ATOM     65  N   UNL A   1      43.535  29.590  28.540  1.00  0.00    -0.354 N 
ATOM     66  N   UNL A   1      46.253  28.876  27.689  1.00  0.00    -0.248 NA
ATOM     67  C   UNL A   1      48.464  29.477  27.244  1.00  0.00     0.031 C 
ATOM     68  C   UNL A   1      43.159  31.669  29.222  1.00  0.00     0.029 A 
ATOM     69  C   UNL A   1      44.141  30.821  28.739  1.00  0.00     0.049 A 
ATOM     70  H   UNL A   1      43.988  28.786  28.192  1.00  0.00     0.167 HD
ATOM     71  C   UNL A   1      46.434  30.216  28.009  1.00  0.00     0.074 A 
ATOM     72  C   UNL A   1      47.824  30.523  27.747  1.00  0.00     0.031 C 
ATOM     73  C   UNL A   1      45.528  31.110  28.478  1.00  0.00     0.037 A 
BRANCH  60  74
ATOM     74  C   UNL A   1      39.827  28.825  29.150  1.00  0.00     0.064 A 
ATOM     75  C   UNL A   1      39.345  28.645  30.456  1.00  0.00     0.173 A 
ATOM     76  C   UNL A   1      38.931  29.303  28.182  1.00  0.00     0.173 A 
ATOM     77  F   UNL A   1      40.157  28.180  31.418  1.00  0.00    -0.203 F 
ATOM     78  C   UNL A   1      38.013  28.904  30.772  1.00  0.00     0.198 A 
ATOM     79  C   UNL A   1      37.609  29.594  28.510  1.00  0.00     0.198 A 
ATOM     80  F   UNL A   1      39.339  29.499  26.919  1.00  0.00    -0.203 F 
ATOM     81  F   UNL A   1      37.565  28.676  32.014  1.00  0.00    -0.200 F 
ATOM     82  C   UNL A   1      37.149  29.387  29.801  1.00  0.00     0.200 A 
ATOM     83  F   UNL A   1      36.779  30.074  27.573  1.00  0.00    -0.200 F 
ATOM     84  F   UNL A   1      35.872  29.646  30.109  1.00  0.00    -0.200 F 
ENDBRANCH  60  74
BRANCH  61  85
ATOM     85  C   UNL A   1      49.201  26.779  26.366  1.00  0.00     0.064 A 
ATOM     86  C   UNL A   1      49.583  26.988  25.034  1.00  0.00     0.173 A 
ATOM     87  C   UNL A   1      50.171  26.290  27.253  1.00  0.00     0.173 A 
ATOM     88  F   UNL A   1      48.687  27.437  24.142  1.00  0.00    -0.203 F 
ATOM     89  C   UNL A   1      50.875  26.695  24.600  1.00  0.00     0.198 A 
ATOM     90  C   UNL A   1      51.471  26.028  26.826  1.00  0.00     0.198 A 
ATOM     91  F   UNL A   1      49.860  26.079  28.541  1.00  0.00    -0.203 F 
ATOM     92  F   UNL A   1      51.198  26.857  23.310  1.00  0.00    -0.200 F 
ATOM     93  C   UNL A   1      51.819  26.221  25.498  1.00  0.00     0.200 A 
ATOM     94  F   UNL A   1      52.385  25.586  27.701  1.00  0.00    -0.200 F 
ATOM     95  F   UNL A   1      53.062  25.944  25.082  1.00  0.00    -0.200 F 
ENDBRANCH  61  85
BRANCH  73  96
ATOM     96  C   UNL A   1      46.021  32.498  28.775  1.00  0.00     0.064 A 
ATOM     97  C   UNL A   1      46.545  32.842  30.030  1.00  0.00     0.173 A 
ATOM     98  C   UNL A   1      46.004  33.485  27.778  1.00  0.00     0.173 A 
ATOM     99  F   UNL A   1      46.571  31.941  31.023  1.00  0.00    -0.203 F 
ATOM    100  C   UNL A   1      47.009  34.131  30.282  1.00  0.00     0.198 A 
ATOM    101  C   UNL A   1      46.500  34.761  28.023  1.00  0.00     0.198 A 
ATOM    102  F   UNL A   1      45.521  33.205  26.558  1.00  0.00    -0.203 F 
ATOM    103  F   UNL A   1      47.456  34.453  31.504  1.00  0.00    -0.200 F 
ATOM    104  C   UNL A   1      46.994  35.087  29.276  1.00  0.00     0.200 A 
ATOM    105  F   UNL A   1      46.500  35.678  27.045  1.00  0.00    -0.200 F 
ATOM    106  F   UNL A   1      47.448  36.324  29.518  1.00  0.00    -0.200 F 
ENDBRANCH  73  96
ENDBRANCH  47  48
ENDBRANCH  39  42
ENDBRANCH  37  38
ENDBRANCH  36  37
ENDBRANCH  35  36
ENDBRANCH  34  35
ENDBRANCH   1  34
TORSDOF 20
ENDMDL
MODEL 2
REMARK VINA RESULT:     -12.3      0.457      6.876
REMARK SMILES C/C=C/C=C/C=C/C(=O)O[C@H]1C=C(C=O)[C@@](O)(C(=O)NCCCCCCNC(=O)c2ccc(-c3c4nc(c(-c5c(F)c(F)c(F)c(F)c5F)c5ccc([nH]5)c(-c5c(F)c(F)c(F)c(F)c5F)c5nc(c(-c6c(F)c(F)c(F)c(F)c6F)c6ccc3[nH]6)C=C5)C=C4)cc2)[C@]2(C)CCCC(C)(C)[C@@H]12
REMARK SMILES IDX 22 1 21 2 20 3 18 4 19 5 16 7 11 8 12 9 101 10 13 11 93 12
REMARK SMILES IDX 98 13 95 14 94 15 97 16 99 17 100 18 96 19 10 20 8 21 9 22
REMARK SMILES IDX 7 23 6 24 5 25 4 26 3 27 1 28 2 29 14 30 15 31 17 32 23 34
REMARK SMILES IDX 24 35 25 36 26 37 27 38 28 39 29 41 30 42 31 43 92 44 32 45
REMARK SMILES IDX 91 46 33 47 34 48 35 49 85 50 36 51 90 52 84 53 86 54 37 55
REMARK SMILES IDX 89 56 83 57 82 58 38 60 70 61 50 62 69 63 51 64 54 65 68 66
REMARK SMILES IDX 87 67 52 68 53 69 67 71 88 72 55 73 39 74 40 75 48 76 41 77
REMARK SMILES IDX 42 78 46 79 49 80 43 81 44 82 47 83 45 84 71 85 72 86 80 87
REMARK SMILES IDX 73 88 74 89 78 90 81 91 75 92 76 93 79 94 77 95 56 96 57 97
REMARK SMILES IDX 65 98 58 99 59 100 63 101 66 102 60 103 61 104 64 105 62 106
REMARK H PARENT 20 6 17 33 27 40 86 59 54 70
REMARK Flexibility Score: inf
ROOT
ATOM      1  C   UNL A   1      36.388  20.789  25.148  1.00  0.00     0.021 C 
ENDROOT
BRANCH   1   2
ATOM      2  C   UNL A   1      35.321  21.456  26.006  1.00  0.00     0.116 C 
BRANCH   2   3
ATOM      3  N   UNL A   1      34.010  20.804  25.936  1.00  0.00    -0.353 N 
ATOM      4  C   UNL A   1      32.747  21.334  25.743  1.00  0.00     0.257 C 
ATOM      5  O   UNL A   1      31.788  20.560  25.714  1.00  0.00    -0.271 OA
ATOM      6  H   UNL A   1      34.033  19.825  26.045  1.00  0.00     0.163 HD
BRANCH   4   7
ATOM      7  C   UNL A   1      32.569  22.877  25.590  1.00  0.00     0.176 C 
ATOM      8  C   UNL A   1      32.249  25.755  25.428  1.00  0.00     0.204 C 
ATOM      9  C   UNL A   1      31.681  24.926  26.548  1.00  0.00     0.028 C 
ATOM     10  C   UNL A   1      32.747  24.937  24.149  1.00  0.00     0.049 C 
ATOM     11  C   UNL A   1      31.580  23.587  26.481  1.00  0.00     0.033 C 
ATOM     12  C   UNL A   1      32.381  23.384  24.103  1.00  0.00     0.017 C 
ATOM     13  C   UNL A   1      32.847  25.669  22.763  1.00  0.00    -0.028 C 
ATOM     14  C   UNL A   1      33.340  22.732  23.060  1.00  0.00     0.011 C 
ATOM     15  C   UNL A   1      30.959  23.007  23.586  1.00  0.00     0.016 C 
ATOM     16  C   UNL A   1      33.688  24.821  21.772  1.00  0.00     0.007 C 
ATOM     17  C   UNL A   1      31.498  26.016  22.112  1.00  0.00     0.011 C 
ATOM     18  C   UNL A   1      33.637  26.977  22.942  1.00  0.00     0.011 C 
ATOM     19  C   UNL A   1      33.242  23.372  21.677  1.00  0.00     0.001 C 
BRANCH   8  20
ATOM     20  O   UNL A   1      31.291  26.775  25.090  1.00  0.00    -0.455 OA
BRANCH  20  21
ATOM     21  C   UNL A   1      31.621  28.034  25.480  1.00  0.00     0.331 C 
ATOM     22  O   UNL A   1      32.244  28.341  26.494  1.00  0.00    -0.247 OA
BRANCH  21  23
ATOM     23  C   UNL A   1      30.998  29.011  24.577  1.00  0.00     0.093 C 
ATOM     24  C   UNL A   1      30.059  28.591  23.713  1.00  0.00     0.007 C 
BRANCH  24  25
ATOM     25  C   UNL A   1      29.116  29.516  23.113  1.00  0.00     0.000 C 
ATOM     26  C   UNL A   1      29.056  30.802  23.496  1.00  0.00    -0.000 C 
BRANCH  26  27
ATOM     27  C   UNL A   1      28.343  31.818  22.751  1.00  0.00    -0.005 C 
ATOM     28  C   UNL A   1      27.682  32.933  20.603  1.00  0.00     0.035 C 
ATOM     29  C   UNL A   1      28.453  31.946  21.419  1.00  0.00    -0.030 C 
ENDBRANCH  26  27
ENDBRANCH  24  25
ENDBRANCH  21  23
ENDBRANCH  20  21
ENDBRANCH   8  20
BRANCH  11  30
ATOM     30  C   UNL A   1      30.158  23.159  26.607  1.00  0.00     0.259 C 
ATOM     31  O   UNL A   1      29.633  22.961  27.703  1.00  0.00    -0.298 OA
ENDBRANCH  11  30
BRANCH   7  32
ATOM     32  O   UNL A   1      33.817  23.401  26.161  1.00  0.00    -0.375 OA
ATOM     33  H   UNL A   1      33.728  23.471  27.124  1.00  0.00     0.212 HD
ENDBRANCH   7  32
ENDBRANCH   4   7
ENDBRANCH   2   3
ENDBRANCH   1   2
BRANCH   1  34
ATOM     34  C   UNL A   1      37.483  21.751  24.702  1.00  0.00     0.002 C 
BRANCH  34  35
ATOM     35  C   UNL A   1      38.488  22.142  25.798  1.00  0.00     0.002 C 
BRANCH  35  36
ATOM     36  C   UNL A   1      39.330  20.997  26.370  1.00  0.00     0.021 C 
BRANCH  36  37
ATOM     37  C   UNL A   1      39.629  19.871  25.386  1.00  0.00     0.116 C 
BRANCH  37  38
ATOM     38  N   UNL A   1      40.625  18.947  25.903  1.00  0.00    -0.352 N 
ATOM     39  C   UNL A   1      41.891  19.194  26.368  1.00  0.00     0.251 C 
ATOM     40  H   UNL A   1      40.350  18.002  25.920  1.00  0.00     0.163 HD
ATOM     41  O   UNL A   1      42.668  18.264  26.566  1.00  0.00    -0.269 OA
BRANCH  39  42
ATOM     42  C   UNL A   1      42.326  20.582  26.619  1.00  0.00     0.039 A 
ATOM     43  C   UNL A   1      42.656  21.394  25.531  1.00  0.00     0.014 A 
ATOM     44  C   UNL A   1      42.430  21.076  27.923  1.00  0.00     0.014 A 
ATOM     45  C   UNL A   1      43.036  22.719  25.747  1.00  0.00     0.010 A 
ATOM     46  C   UNL A   1      42.736  22.418  28.133  1.00  0.00     0.010 A 
ATOM     47  C   UNL A   1      43.048  23.251  27.047  1.00  0.00    -0.014 A 
BRANCH  47  48
ATOM     48  C   UNL A   1      43.385  24.676  27.290  1.00  0.00     0.031 A 
ATOM     49  C   UNL A   1      44.780  25.177  27.038  1.00  0.00     0.074 A 
ATOM     50  C   UNL A   1      42.450  25.503  27.795  1.00  0.00     0.049 A 
ATOM     51  N   UNL A   1      45.283  26.368  27.250  1.00  0.00    -0.248 NA
ATOM     52  C   UNL A   1      45.747  24.205  26.505  1.00  0.00     0.031 C 
ATOM     53  C   UNL A   1      41.076  25.123  28.126  1.00  0.00     0.029 A 
ATOM     54  N   UNL A   1      42.516  26.833  28.130  1.00  0.00    -0.354 N 
ATOM     55  C   UNL A   1      46.621  26.283  26.889  1.00  0.00     0.074 A 
ATOM     56  C   UNL A   1      46.867  24.912  26.498  1.00  0.00     0.031 C 
ATOM     57  C   UNL A   1      40.423  26.197  28.595  1.00  0.00     0.029 A 
ATOM     58  C   UNL A   1      41.341  27.331  28.638  1.00  0.00     0.049 A 
ATOM     59  H   UNL A   1      43.328  27.377  28.016  1.00  0.00     0.167 HD
ATOM     60  C   UNL A   1      47.553  27.265  26.865  1.00  0.00     0.037 A 
ATOM     61  C   UNL A   1      41.041  28.561  29.097  1.00  0.00     0.037 A 
ATOM     62  C   UNL A   1      47.296  28.632  27.233  1.00  0.00     0.049 A 
ATOM     63  C   UNL A   1      42.097  29.633  29.063  1.00  0.00     0.074 A 
ATOM     64  C   UNL A   1      48.156  29.716  27.183  1.00  0.00     0.029 A 
ATOM     65  N   UNL A   1      46.088  29.104  27.726  1.00  0.00    -0.354 N 
ATOM     66  N   UNL A   1      43.339  29.559  28.652  1.00  0.00    -0.248 NA
ATOM     67  C   UNL A   1      41.705  30.963  29.550  1.00  0.00     0.031 C 
ATOM     68  C   UNL A   1      47.487  30.829  27.699  1.00  0.00     0.029 A 
ATOM     69  C   UNL A   1      46.189  30.458  28.011  1.00  0.00     0.049 A 
ATOM     70  H   UNL A   1      45.278  28.559  27.856  1.00  0.00     0.167 HD
ATOM     71  C   UNL A   1      43.869  30.834  28.802  1.00  0.00     0.074 A 
ATOM     72  C   UNL A   1      42.807  31.667  29.327  1.00  0.00     0.031 C 
ATOM     73  C   UNL A   1      45.122  31.275  28.529  1.00  0.00     0.037 A 
BRANCH  60  74
ATOM     74  C   UNL A   1      48.942  26.898  26.427  1.00  0.00     0.064 A 
ATOM     75  C   UNL A   1      49.896  26.404  27.332  1.00  0.00     0.173 A 
ATOM     76  C   UNL A   1      49.313  27.000  25.078  1.00  0.00     0.173 A 
ATOM     77  F   UNL A   1      49.598  26.296  28.636  1.00  0.00    -0.203 F 
ATOM     78  C   UNL A   1      51.175  26.054  26.906  1.00  0.00     0.198 A 
ATOM     79  C   UNL A   1      50.582  26.616  24.651  1.00  0.00     0.198 A 
ATOM     80  F   UNL A   1      48.439  27.460  24.169  1.00  0.00    -0.203 F 
ATOM     81  F   UNL A   1      52.083  25.633  27.798  1.00  0.00    -0.200 F 
ATOM     82  C   UNL A   1      51.514  26.153  25.566  1.00  0.00     0.200 A 
ATOM     83  F   UNL A   1      50.903  26.698  23.352  1.00  0.00    -0.200 F 
ATOM     84  F   UNL A   1      52.741  25.805  25.157  1.00  0.00    -0.200 F 
ENDBRANCH  60  74
BRANCH  61  85
ATOM     85  C   UNL A   1      39.676  28.849  29.611  1.00  0.00     0.064 A 
ATOM     86  C   UNL A   1      39.340  28.595  30.948  1.00  0.00     0.173 A 
ATOM     87  C   UNL A   1      38.681  29.381  28.779  1.00  0.00     0.173 A 
ATOM     88  F   UNL A   1      40.252  28.069  31.779  1.00  0.00    -0.203 F 
ATOM     89  C   UNL A   1      38.054  28.839  31.426  1.00  0.00     0.198 A 
ATOM     90  C   UNL A   1      37.404  29.654  29.266  1.00  0.00     0.198 A 
ATOM     91  F   UNL A   1      38.952  29.649  27.492  1.00  0.00    -0.203 F 
ATOM     92  F   UNL A   1      37.747  28.540  32.696  1.00  0.00    -0.200 F 
ATOM     93  C   UNL A   1      37.089  29.374  30.586  1.00  0.00     0.200 A 
ATOM     94  F   UNL A   1      36.480  30.187  28.455  1.00  0.00    -0.200 F 
ATOM     95  F   UNL A   1      35.855  29.612  31.048  1.00  0.00    -0.200 F 
ENDBRANCH  61  85
BRANCH  73  96
ATOM     96  C   UNL A   1      45.404  32.733  28.755  1.00  0.00     0.064 A 
ATOM     97  C   UNL A   1      45.943  33.202  29.963  1.00  0.00     0.173 A 
ATOM     98  C   UNL A   1      45.171  33.667  27.735  1.00  0.00     0.173 A 
ATOM     99  F   UNL A   1      46.172  32.353  30.976  1.00  0.00    -0.203 F 
ATOM    100  C   UNL A   1      46.211  34.556  30.149  1.00  0.00     0.198 A 
ATOM    101  C   UNL A   1      45.472  35.014  27.912  1.00  0.00     0.198 A 
ATOM    102  F   UNL A   1      44.664  33.270  26.557  1.00  0.00    -0.203 F 
ATOM    103  F   UNL A   1      46.675  34.989  31.329  1.00  0.00    -0.200 F 
ATOM    104  C   UNL A   1      45.983  35.459  29.121  1.00  0.00     0.200 A 
ATOM    105  F   UNL A   1      45.267  35.882  26.911  1.00  0.00    -0.200 F 
ATOM    106  F   UNL A   1      46.249  36.760  29.299  1.00  0.00    -0.200 F 
ENDBRANCH  73  96
ENDBRANCH  47  48
ENDBRANCH  39  42
ENDBRANCH  37  38
ENDBRANCH  36  37
ENDBRANCH  35  36
ENDBRANCH  34  35
ENDBRANCH   1  34
TORSDOF 20
ENDMDL
MODEL 3
REMARK VINA RESULT:     -12.0      1.537      2.455
REMARK SMILES C/C=C/C=C/C=C/C(=O)O[C@H]1C=C(C=O)[C@@](O)(C(=O)NCCCCCCNC(=O)c2ccc(-c3c4nc(c(-c5c(F)c(F)c(F)c(F)c5F)c5ccc([nH]5)c(-c5c(F)c(F)c(F)c(F)c5F)c5nc(c(-c6c(F)c(F)c(F)c(F)c6F)c6ccc3[nH]6)C=C5)C=C4)cc2)[C@]2(C)CCCC(C)(C)[C@@H]12
REMARK SMILES IDX 22 1 21 2 20 3 18 4 19 5 16 7 11 8 12 9 101 10 13 11 93 12
REMARK SMILES IDX 98 13 95 14 94 15 97 16 99 17 100 18 96 19 10 20 8 21 9 22
REMARK SMILES IDX 7 23 6 24 5 25 4 26 3 27 1 28 2 29 14 30 15 31 17 32 23 34
REMARK SMILES IDX 24 35 25 36 26 37 27 38 28 39 29 41 30 42 31 43 92 44 32 45
REMARK SMILES IDX 91 46 33 47 34 48 35 49 85 50 36 51 90 52 84 53 86 54 37 55
REMARK SMILES IDX 89 56 83 57 82 58 38 60 70 61 50 62 69 63 51 64 54 65 68 66
REMARK SMILES IDX 87 67 52 68 53 69 67 71 88 72 55 73 39 74 40 75 48 76 41 77
REMARK SMILES IDX 42 78 46 79 49 80 43 81 44 82 47 83 45 84 71 85 72 86 80 87
REMARK SMILES IDX 73 88 74 89 78 90 81 91 75 92 76 93 79 94 77 95 56 96 57 97
REMARK SMILES IDX 65 98 58 99 59 100 63 101 66 102 60 103 61 104 64 105 62 106
REMARK H PARENT 20 6 17 33 27 40 86 59 54 70
REMARK Flexibility Score: inf
ROOT
ATOM      1  C   UNL A   1      35.561  20.544  25.382  1.00  0.00     0.021 C 
ENDROOT
BRANCH   1   2
ATOM      2  C   UNL A   1      34.255  21.285  25.637  1.00  0.00     0.116 C 
BRANCH   2   3
ATOM      3  N   UNL A   1      33.302  21.207  24.526  1.00  0.00    -0.353 N 
ATOM      4  C   UNL A   1      32.552  22.192  23.908  1.00  0.00     0.257 C 
ATOM      5  O   UNL A   1      31.818  21.867  22.973  1.00  0.00    -0.271 OA
ATOM      6  H   UNL A   1      33.175  20.303  24.159  1.00  0.00     0.163 HD
BRANCH   4   7
ATOM      7  C   UNL A   1      32.637  23.665  24.419  1.00  0.00     0.176 C 
ATOM      8  C   UNL A   1      32.832  26.359  25.476  1.00  0.00     0.204 C 
ATOM      9  C   UNL A   1      32.367  25.186  26.295  1.00  0.00     0.028 C 
ATOM     10  C   UNL A   1      32.891  26.117  23.898  1.00  0.00     0.049 C 
ATOM     11  C   UNL A   1      32.006  24.013  25.744  1.00  0.00     0.033 C 
ATOM     12  C   UNL A   1      32.240  24.766  23.353  1.00  0.00     0.017 C 
ATOM     13  C   UNL A   1      32.834  27.354  22.931  1.00  0.00    -0.028 C 
ATOM     14  C   UNL A   1      32.822  24.537  21.924  1.00  0.00     0.011 C 
ATOM     15  C   UNL A   1      30.697  24.762  23.130  1.00  0.00     0.016 C 
ATOM     16  C   UNL A   1      33.277  26.936  21.504  1.00  0.00     0.007 C 
ATOM     17  C   UNL A   1      31.467  28.055  22.852  1.00  0.00     0.011 C 
ATOM     18  C   UNL A   1      33.873  28.394  23.385  1.00  0.00     0.011 C 
ATOM     19  C   UNL A   1      32.558  25.705  20.978  1.00  0.00     0.001 C 
BRANCH   8  20
ATOM     20  O   UNL A   1      32.031  27.502  25.828  1.00  0.00    -0.455 OA
BRANCH  20  21
ATOM     21  C   UNL A   1      32.101  27.880  27.132  1.00  0.00     0.331 C 
ATOM     22  O   UNL A   1      31.338  27.535  28.031  1.00  0.00    -0.247 OA
BRANCH  21  23
ATOM     23  C   UNL A   1      33.155  28.890  27.299  1.00  0.00     0.093 C 
ATOM     24  C   UNL A   1      32.827  30.191  27.221  1.00  0.00     0.007 C 
BRANCH  24  25
ATOM     25  C   UNL A   1      33.680  31.220  27.783  1.00  0.00     0.000 C 
ATOM     26  C   UNL A   1      33.419  32.525  27.601  1.00  0.00    -0.000 C 
BRANCH  26  27
ATOM     27  C   UNL A   1      34.063  33.576  28.359  1.00  0.00    -0.005 C 
ATOM     28  C   UNL A   1      34.007  35.489  29.980  1.00  0.00     0.035 C 
ATOM     29  C   UNL A   1      33.376  34.435  29.128  1.00  0.00    -0.030 C 
ENDBRANCH  26  27
ENDBRANCH  24  25
ENDBRANCH  21  23
ENDBRANCH  20  21
ENDBRANCH   8  20
BRANCH  11  30
ATOM     30  C   UNL A   1      30.587  23.692  26.070  1.00  0.00     0.259 C 
ATOM     31  O   UNL A   1      30.007  24.205  27.025  1.00  0.00    -0.298 OA
ENDBRANCH  11  30
BRANCH   7  32
ATOM     32  O   UNL A   1      34.052  23.793  24.793  1.00  0.00    -0.375 OA
ATOM     33  H   UNL A   1      34.165  23.544  25.723  1.00  0.00     0.212 HD
ENDBRANCH   7  32
ENDBRANCH   4   7
ENDBRANCH   2   3
ENDBRANCH   1   2
BRANCH   1  34
ATOM     34  C   UNL A   1      36.569  21.368  24.589  1.00  0.00     0.002 C 
BRANCH  34  35
ATOM     35  C   UNL A   1      37.981  21.423  25.195  1.00  0.00     0.002 C 
BRANCH  35  36
ATOM     36  C   UNL A   1      38.706  20.080  25.319  1.00  0.00     0.021 C 
BRANCH  36  37
ATOM     37  C   UNL A   1      39.732  20.011  26.445  1.00  0.00     0.116 C 
BRANCH  37  38
ATOM     38  N   UNL A   1      40.857  19.154  26.105  1.00  0.00    -0.352 N 
ATOM     39  C   UNL A   1      42.167  19.482  25.866  1.00  0.00     0.251 C 
ATOM     40  H   UNL A   1      40.646  18.195  26.035  1.00  0.00     0.163 HD
ATOM     41  O   UNL A   1      42.932  18.652  25.384  1.00  0.00    -0.269 OA
BRANCH  39  42
ATOM     42  C   UNL A   1      42.656  20.840  26.176  1.00  0.00     0.039 A 
ATOM     43  C   UNL A   1      42.876  21.735  25.127  1.00  0.00     0.014 A 
ATOM     44  C   UNL A   1      42.915  21.223  27.496  1.00  0.00     0.014 A 
ATOM     45  C   UNL A   1      43.304  23.033  25.404  1.00  0.00     0.010 A 
ATOM     46  C   UNL A   1      43.270  22.540  27.776  1.00  0.00     0.010 A 
ATOM     47  C   UNL A   1      43.474  23.456  26.733  1.00  0.00    -0.014 A 
BRANCH  47  48
ATOM     48  C   UNL A   1      43.866  24.852  27.049  1.00  0.00     0.031 A 
ATOM     49  C   UNL A   1      42.839  25.836  27.537  1.00  0.00     0.074 A 
ATOM     50  C   UNL A   1      45.135  25.250  26.838  1.00  0.00     0.049 A 
ATOM     51  N   UNL A   1      42.974  27.111  27.804  1.00  0.00    -0.248 NA
ATOM     52  C   UNL A   1      41.471  25.327  27.723  1.00  0.00     0.031 C 
ATOM     53  C   UNL A   1      46.211  24.402  26.322  1.00  0.00     0.029 A 
ATOM     54  N   UNL A   1      45.735  26.471  27.020  1.00  0.00    -0.354 N 
ATOM     55  C   UNL A   1      41.712  27.555  28.175  1.00  0.00     0.074 A 
ATOM     56  C   UNL A   1      40.812  26.430  28.045  1.00  0.00     0.031 C 
ATOM     57  C   UNL A   1      47.342  25.121  26.249  1.00  0.00     0.029 A 
ATOM     58  C   UNL A   1      47.063  26.489  26.673  1.00  0.00     0.049 A 
ATOM     59  H   UNL A   1      45.257  27.259  27.366  1.00  0.00     0.167 HD
ATOM     60  C   UNL A   1      41.343  28.784  28.605  1.00  0.00     0.037 A 
ATOM     61  C   UNL A   1      47.955  27.499  26.685  1.00  0.00     0.037 A 
ATOM     62  C   UNL A   1      42.247  29.895  28.754  1.00  0.00     0.049 A 
ATOM     63  C   UNL A   1      47.516  28.857  27.163  1.00  0.00     0.074 A 
ATOM     64  C   UNL A   1      41.984  31.162  29.243  1.00  0.00     0.029 A 
ATOM     65  N   UNL A   1      43.591  29.871  28.410  1.00  0.00    -0.354 N 
ATOM     66  N   UNL A   1      46.337  29.247  27.580  1.00  0.00    -0.248 NA
ATOM     67  C   UNL A   1      48.538  29.913  27.182  1.00  0.00     0.031 C 
ATOM     68  C   UNL A   1      43.153  31.922  29.140  1.00  0.00     0.029 A 
ATOM     69  C   UNL A   1      44.163  31.111  28.649  1.00  0.00     0.049 A 
ATOM     70  H   UNL A   1      44.068  29.088  28.048  1.00  0.00     0.167 HD
ATOM     71  C   UNL A   1      46.479  30.582  27.937  1.00  0.00     0.074 A 
ATOM     72  C   UNL A   1      47.865  30.930  27.703  1.00  0.00     0.031 C 
ATOM     73  C   UNL A   1      45.546  31.441  28.415  1.00  0.00     0.037 A 
BRANCH  60  74
ATOM     74  C   UNL A   1      39.895  28.999  28.946  1.00  0.00     0.064 A 
ATOM     75  C   UNL A   1      38.952  29.358  27.970  1.00  0.00     0.173 A 
ATOM     76  C   UNL A   1      39.436  28.801  30.257  1.00  0.00     0.173 A 
ATOM     77  F   UNL A   1      39.338  29.571  26.703  1.00  0.00    -0.203 F 
ATOM     78  C   UNL A   1      37.611  29.539  28.301  1.00  0.00     0.198 A 
ATOM     79  C   UNL A   1      38.089  28.949  30.577  1.00  0.00     0.198 A 
ATOM     80  F   UNL A   1      40.293  28.451  31.229  1.00  0.00    -0.203 F 
ATOM     81  F   UNL A   1      36.739  29.931  27.362  1.00  0.00    -0.200 F 
ATOM     82  C   UNL A   1      37.179  29.326  29.601  1.00  0.00     0.200 A 
ATOM     83  F   UNL A   1      37.671  28.728  31.831  1.00  0.00    -0.200 F 
ATOM     84  F   UNL A   1      35.887  29.489  29.914  1.00  0.00    -0.200 F 
ENDBRANCH  60  74
BRANCH  61  85
ATOM     85  C   UNL A   1      49.355  27.258  26.245  1.00  0.00     0.064 A 
ATOM     86  C   UNL A   1      49.712  27.351  24.893  1.00  0.00     0.173 A 
ATOM     87  C   UNL A   1      50.361  26.931  27.165  1.00  0.00     0.173 A 
ATOM     88  F   UNL A   1      48.781  27.644  23.973  1.00  0.00    -0.203 F 
ATOM     89  C   UNL A   1      51.017  27.100  24.474  1.00  0.00     0.198 A 
ATOM     90  C   UNL A   1      51.673  26.711  26.749  1.00  0.00     0.198 A 
ATOM     91  F   UNL A   1      50.074  26.837  28.471  1.00  0.00    -0.203 F 
ATOM     92  F   UNL A   1      51.320  27.147  23.170  1.00  0.00    -0.200 F 
ATOM     93  C   UNL A   1      51.998  26.786  25.403  1.00  0.00     0.200 A 
ATOM     94  F   UNL A   1      52.620  26.425  27.653  1.00  0.00    -0.200 F 
ATOM     95  F   UNL A   1      53.254  26.550  25.001  1.00  0.00    -0.200 F 
ENDBRANCH  61  85
BRANCH  73  96
ATOM     96  C   UNL A   1      45.999  32.833  28.756  1.00  0.00     0.064 A 
ATOM     97  C   UNL A   1      46.508  33.154  30.022  1.00  0.00     0.173 A 
ATOM     98  C   UNL A   1      45.961  33.847  27.787  1.00  0.00     0.173 A 
ATOM     99  F   UNL A   1      46.553  32.225  30.989  1.00  0.00    -0.203 F 
ATOM    100  C   UNL A   1      46.935  34.447  30.314  1.00  0.00     0.198 A 
ATOM    101  C   UNL A   1      46.421  35.129  28.071  1.00  0.00     0.198 A 
ATOM    102  F   UNL A   1      45.491  33.590  26.556  1.00  0.00    -0.203 F 
ATOM    103  F   UNL A   1      47.368  34.745  31.547  1.00  0.00    -0.200 F 
ATOM    104  C   UNL A   1      46.899  35.431  29.337  1.00  0.00     0.200 A 
ATOM    105  F   UNL A   1      46.401  36.073  27.120  1.00  0.00    -0.200 F 
ATOM    106  F   UNL A   1      47.319  36.672  29.617  1.00  0.00    -0.200 F 
ENDBRANCH  73  96
ENDBRANCH  47  48
ENDBRANCH  39  42
ENDBRANCH  37  38
ENDBRANCH  36  37
ENDBRANCH  35  36
ENDBRANCH  34  35
ENDBRANCH   1  34
TORSDOF 20
ENDMDL
