MODEL 1
REMARK VINA RESULT:     -11.5      0.000      0.000
REMARK SMILES O=C(C[C@H](CNC(=O)c1ccccn1)c1ccc(Cl)cc1)NCCCCCCNC(=O)c1ccc(-c2c3nc(c(-c4c(F)c(F)c(F)c(F)c4F)c4ccc([nH]4)c(-c4c(F)c(F)c(F)c(F)c4F)c4nc(c(-c5c(F)c(F)c(F)c(F)c5F)c5ccc2[nH]5)C=C4)C=C3)cc1
REMARK SMILES IDX 24 1 23 2 22 3 1 4 2 5 3 7 4 8 15 9 16 10 21 11 17 12 20 13
REMARK SMILES IDX 18 14 19 15 5 16 6 17 7 18 8 20 9 21 10 22 14 23 11 24 13 25
REMARK SMILES IDX 12 26 25 27 26 28 27 29 28 30 29 31 30 32 31 34 32 35 33 36
REMARK SMILES IDX 94 37 34 38 93 39 35 40 36 41 37 42 87 43 38 44 92 45 86 46
REMARK SMILES IDX 88 47 39 48 91 49 85 50 84 51 40 53 72 54 52 55 71 56 53 57
REMARK SMILES IDX 56 58 70 59 89 60 54 61 55 62 69 64 90 65 57 66 41 67 42 68
REMARK SMILES IDX 50 69 43 70 44 71 48 72 51 73 45 74 46 75 49 76 47 77 73 78
REMARK SMILES IDX 74 79 82 80 75 81 76 82 80 83 83 84 77 85 78 86 81 87 79 88
REMARK SMILES IDX 58 89 59 90 67 91 60 92 61 93 65 94 68 95 62 96 63 97 66 98
REMARK SMILES IDX 64 99
REMARK H PARENT 22 6 6 19 29 33 88 52 56 63
REMARK Flexibility Score: inf
ROOT
ATOM      1  C   UNL A   1      34.593  31.561  27.993  1.00  0.00     0.021 C 
ENDROOT
BRANCH   1   2
ATOM      2  C   UNL A   1      33.274  31.236  27.292  1.00  0.00     0.116 C 
BRANCH   2   3
ATOM      3  N   UNL A   1      33.090  29.808  27.125  1.00  0.00    -0.356 N 
ATOM      4  O   UNL A   1      31.648  29.982  25.361  1.00  0.00    -0.275 OA
ATOM      5  C   UNL A   1      32.304  29.281  26.126  1.00  0.00     0.220 C 
ATOM      6  H   UNL A   1      33.542  29.193  27.747  1.00  0.00     0.163 HD
BRANCH   5   7
ATOM      7  C   UNL A   1      32.249  27.764  26.064  1.00  0.00     0.110 C 
BRANCH   7   8
ATOM      8  C   UNL A   1      33.510  27.102  25.477  1.00  0.00     0.048 C 
BRANCH   8   9
ATOM      9  C   UNL A   1      33.553  25.601  25.754  1.00  0.00    -0.043 A 
ATOM     10  C   UNL A   1      34.649  24.807  25.378  1.00  0.00     0.005 A 
ATOM     11  C   UNL A   1      32.476  24.985  26.416  1.00  0.00     0.005 A 
ATOM     12  C   UNL A   1      34.682  23.444  25.679  1.00  0.00     0.021 A 
ATOM     13  C   UNL A   1      32.504  23.617  26.705  1.00  0.00     0.021 A 
ATOM     14  C   UNL A   1      33.610  22.854  26.343  1.00  0.00     0.041 A 
ATOM     15  Cl  UNL A   1      33.653  21.177  26.720  1.00  0.00    -0.084 Cl
ENDBRANCH   8   9
BRANCH   8  16
ATOM     16  C   UNL A   1      33.764  27.448  23.988  1.00  0.00     0.125 C 
BRANCH  16  17
ATOM     17  N   UNL A   1      32.569  27.609  23.177  1.00  0.00    -0.350 N 
ATOM     18  C   UNL A   1      31.809  26.701  22.478  1.00  0.00     0.269 C 
ATOM     19  H   UNL A   1      32.245  28.537  23.118  1.00  0.00     0.163 HD
ATOM     20  O   UNL A   1      30.898  27.130  21.771  1.00  0.00    -0.268 OA
BRANCH  18  21
ATOM     21  C   UNL A   1      32.061  25.236  22.584  1.00  0.00     0.128 A 
ATOM     22  C   UNL A   1      31.120  24.394  23.165  1.00  0.00     0.034 A 
ATOM     23  N   UNL A   1      33.214  24.795  22.021  1.00  0.00    -0.251 NA
ATOM     24  C   UNL A   1      31.402  23.033  23.232  1.00  0.00     0.004 A 
ATOM     25  C   UNL A   1      33.457  23.469  22.100  1.00  0.00     0.112 A 
ATOM     26  C   UNL A   1      32.595  22.561  22.694  1.00  0.00     0.020 A 
ENDBRANCH  18  21
ENDBRANCH  16  17
ENDBRANCH   8  16
ENDBRANCH   7   8
ENDBRANCH   5   7
ENDBRANCH   2   3
ENDBRANCH   1   2
BRANCH   1  27
ATOM     27  C   UNL A   1      34.460  32.468  29.222  1.00  0.00     0.002 C 
BRANCH  27  28
ATOM     28  C   UNL A   1      34.582  33.971  28.950  1.00  0.00     0.002 C 
BRANCH  28  29
ATOM     29  C   UNL A   1      33.261  34.743  28.917  1.00  0.00     0.021 C 
BRANCH  29  30
ATOM     30  C   UNL A   1      33.317  36.154  29.497  1.00  0.00     0.116 C 
BRANCH  30  31
ATOM     31  N   UNL A   1      32.438  36.325  30.644  1.00  0.00    -0.352 N 
ATOM     32  C   UNL A   1      32.553  35.822  31.914  1.00  0.00     0.251 C 
ATOM     33  H   UNL A   1      31.643  36.884  30.484  1.00  0.00     0.163 HD
ATOM     34  O   UNL A   1      31.624  35.958  32.712  1.00  0.00    -0.269 OA
BRANCH  32  35
ATOM     35  C   UNL A   1      33.772  35.096  32.331  1.00  0.00     0.039 A 
ATOM     36  C   UNL A   1      33.642  33.799  32.837  1.00  0.00     0.014 A 
ATOM     37  C   UNL A   1      35.035  35.690  32.255  1.00  0.00     0.014 A 
ATOM     38  C   UNL A   1      34.779  33.080  33.214  1.00  0.00     0.010 A 
ATOM     39  C   UNL A   1      36.174  34.949  32.566  1.00  0.00     0.010 A 
ATOM     40  C   UNL A   1      36.058  33.639  33.056  1.00  0.00    -0.014 A 
BRANCH  40  41
ATOM     41  C   UNL A   1      37.279  32.874  33.416  1.00  0.00     0.031 A 
ATOM     42  C   UNL A   1      38.002  33.167  34.704  1.00  0.00     0.074 A 
ATOM     43  C   UNL A   1      37.767  31.950  32.566  1.00  0.00     0.049 A 
ATOM     44  N   UNL A   1      39.116  32.655  35.163  1.00  0.00    -0.248 NA
ATOM     45  C   UNL A   1      37.405  34.188  35.578  1.00  0.00     0.031 C 
ATOM     46  C   UNL A   1      37.184  31.603  31.269  1.00  0.00     0.029 A 
ATOM     47  N   UNL A   1      38.871  31.140  32.661  1.00  0.00    -0.354 N 
ATOM     48  C   UNL A   1      39.354  33.294  36.373  1.00  0.00     0.074 A 
ATOM     49  C   UNL A   1      38.303  34.274  36.548  1.00  0.00     0.031 C 
ATOM     50  C   UNL A   1      37.927  30.643  30.696  1.00  0.00     0.029 A 
ATOM     51  C   UNL A   1      39.054  30.328  31.569  1.00  0.00     0.049 A 
ATOM     52  H   UNL A   1      39.475  31.141  33.439  1.00  0.00     0.167 HD
ATOM     53  C   UNL A   1      40.343  33.068  37.271  1.00  0.00     0.037 A 
ATOM     54  C   UNL A   1      40.025  29.433  31.300  1.00  0.00     0.037 A 
ATOM     55  C   UNL A   1      41.381  32.084  37.106  1.00  0.00     0.049 A 
ATOM     56  C   UNL A   1      41.112  29.200  32.315  1.00  0.00     0.074 A 
ATOM     57  C   UNL A   1      42.417  31.766  37.966  1.00  0.00     0.029 A 
ATOM     58  N   UNL A   1      41.509  31.252  36.003  1.00  0.00    -0.354 N 
ATOM     59  N   UNL A   1      41.298  29.777  33.478  1.00  0.00    -0.248 NA
ATOM     60  C   UNL A   1      42.117  28.179  31.988  1.00  0.00     0.031 C 
ATOM     61  C   UNL A   1      43.189  30.762  37.372  1.00  0.00     0.029 A 
ATOM     62  C   UNL A   1      42.609  30.424  36.161  1.00  0.00     0.049 A 
ATOM     63  H   UNL A   1      40.908  31.250  35.224  1.00  0.00     0.167 HD
ATOM     64  C   UNL A   1      42.416  29.168  34.032  1.00  0.00     0.074 A 
ATOM     65  C   UNL A   1      42.857  28.166  33.086  1.00  0.00     0.031 C 
ATOM     66  C   UNL A   1      43.022  29.417  35.218  1.00  0.00     0.037 A 
BRANCH  53  67
ATOM     67  C   UNL A   1      40.340  33.892  38.526  1.00  0.00     0.064 A 
ATOM     68  C   UNL A   1      39.607  33.497  39.656  1.00  0.00     0.173 A 
ATOM     69  C   UNL A   1      41.102  35.065  38.617  1.00  0.00     0.173 A 
ATOM     70  F   UNL A   1      38.851  32.388  39.617  1.00  0.00    -0.203 F 
ATOM     71  C   UNL A   1      39.615  34.261  40.820  1.00  0.00     0.198 A 
ATOM     72  C   UNL A   1      41.132  35.812  39.793  1.00  0.00     0.198 A 
ATOM     73  F   UNL A   1      41.826  35.486  37.568  1.00  0.00    -0.203 F 
ATOM     74  F   UNL A   1      38.869  33.889  41.869  1.00  0.00    -0.200 F 
ATOM     75  C   UNL A   1      40.383  35.414  40.889  1.00  0.00     0.200 A 
ATOM     76  F   UNL A   1      41.884  36.919  39.863  1.00  0.00    -0.200 F 
ATOM     77  F   UNL A   1      40.396  36.144  42.013  1.00  0.00    -0.200 F 
ENDBRANCH  53  67
BRANCH  54  78
ATOM     78  C   UNL A   1      40.005  28.670  30.025  1.00  0.00     0.064 A 
ATOM     79  C   UNL A   1      39.405  27.405  29.950  1.00  0.00     0.173 A 
ATOM     80  C   UNL A   1      40.606  29.176  28.864  1.00  0.00     0.173 A 
ATOM     81  F   UNL A   1      38.834  26.870  31.040  1.00  0.00    -0.203 F 
ATOM     82  C   UNL A   1      39.433  26.663  28.772  1.00  0.00     0.198 A 
ATOM     83  C   UNL A   1      40.607  28.446  27.678  1.00  0.00     0.198 A 
ATOM     84  F   UNL A   1      41.187  30.384  28.879  1.00  0.00    -0.203 F 
ATOM     85  F   UNL A   1      38.901  25.433  28.745  1.00  0.00    -0.200 F 
ATOM     86  C   UNL A   1      40.030  27.186  27.635  1.00  0.00     0.200 A 
ATOM     87  F   UNL A   1      41.172  28.960  26.576  1.00  0.00    -0.200 F 
ATOM     88  F   UNL A   1      40.059  26.471  26.502  1.00  0.00    -0.200 F 
ENDBRANCH  54  78
BRANCH  66  89
ATOM     89  C   UNL A   1      44.196  28.556  35.583  1.00  0.00     0.064 A 
ATOM     90  C   UNL A   1      44.039  27.348  36.278  1.00  0.00     0.173 A 
ATOM     91  C   UNL A   1      45.494  28.933  35.206  1.00  0.00     0.173 A 
ATOM     92  F   UNL A   1      42.819  26.952  36.674  1.00  0.00    -0.203 F 
ATOM     93  C   UNL A   1      45.141  26.565  36.611  1.00  0.00     0.198 A 
ATOM     94  C   UNL A   1      46.591  28.133  35.514  1.00  0.00     0.198 A 
ATOM     95  F   UNL A   1      45.698  30.075  34.533  1.00  0.00    -0.203 F 
ATOM     96  F   UNL A   1      44.972  25.442  37.323  1.00  0.00    -0.200 F 
ATOM     97  C   UNL A   1      46.415  26.955  36.224  1.00  0.00     0.200 A 
ATOM     98  F   UNL A   1      47.820  28.505  35.129  1.00  0.00    -0.200 F 
ATOM     99  F   UNL A   1      47.474  26.199  36.543  1.00  0.00    -0.200 F 
ENDBRANCH  66  89
ENDBRANCH  40  41
ENDBRANCH  32  35
ENDBRANCH  30  31
ENDBRANCH  29  30
ENDBRANCH  28  29
ENDBRANCH  27  28
ENDBRANCH   1  27
TORSDOF 18
ENDMDL
MODEL 2
REMARK VINA RESULT:     -11.2      6.994     12.402
REMARK SMILES O=C(C[C@H](CNC(=O)c1ccccn1)c1ccc(Cl)cc1)NCCCCCCNC(=O)c1ccc(-c2c3nc(c(-c4c(F)c(F)c(F)c(F)c4F)c4ccc([nH]4)c(-c4c(F)c(F)c(F)c(F)c4F)c4nc(c(-c5c(F)c(F)c(F)c(F)c5F)c5ccc2[nH]5)C=C4)C=C3)cc1
REMARK SMILES IDX 24 1 23 2 22 3 1 4 2 5 3 7 4 8 15 9 16 10 21 11 17 12 20 13
REMARK SMILES IDX 18 14 19 15 5 16 6 17 7 18 8 20 9 21 10 22 14 23 11 24 13 25
REMARK SMILES IDX 12 26 25 27 26 28 27 29 28 30 29 31 30 32 31 34 32 35 33 36
REMARK SMILES IDX 94 37 34 38 93 39 35 40 36 41 37 42 87 43 38 44 92 45 86 46
REMARK SMILES IDX 88 47 39 48 91 49 85 50 84 51 40 53 72 54 52 55 71 56 53 57
REMARK SMILES IDX 56 58 70 59 89 60 54 61 55 62 69 64 90 65 57 66 41 67 42 68
REMARK SMILES IDX 50 69 43 70 44 71 48 72 51 73 45 74 46 75 49 76 47 77 73 78
REMARK SMILES IDX 74 79 82 80 75 81 76 82 80 83 83 84 77 85 78 86 81 87 79 88
REMARK SMILES IDX 58 89 59 90 67 91 60 92 61 93 65 94 68 95 62 96 63 97 66 98
REMARK SMILES IDX 64 99
REMARK H PARENT 22 6 6 19 29 33 88 52 56 63
REMARK Flexibility Score: inf
ROOT
ATOM      1  C   UNL A   1      39.842  21.768  26.138  1.00  0.00     0.021 C 
ENDROOT
BRANCH   1   2
ATOM      2  C   UNL A   1      39.061  23.022  26.528  1.00  0.00     0.116 C 
BRANCH   2   3
ATOM      3  N   UNL A   1      38.185  23.466  25.461  1.00  0.00    -0.356 N 
ATOM      4  O   UNL A   1      36.616  21.837  25.780  1.00  0.00    -0.275 OA
ATOM      5  C   UNL A   1      36.986  22.847  25.191  1.00  0.00     0.220 C 
ATOM      6  H   UNL A   1      38.457  24.236  24.911  1.00  0.00     0.163 HD
BRANCH   5   7
ATOM      7  C   UNL A   1      36.169  23.461  24.066  1.00  0.00     0.110 C 
BRANCH   7   8
ATOM      8  C   UNL A   1      34.667  23.606  24.373  1.00  0.00     0.048 C 
BRANCH   8   9
ATOM      9  C   UNL A   1      34.226  25.067  24.409  1.00  0.00    -0.043 A 
ATOM     10  C   UNL A   1      33.795  25.741  23.254  1.00  0.00     0.005 A 
ATOM     11  C   UNL A   1      34.235  25.767  25.628  1.00  0.00     0.005 A 
ATOM     12  C   UNL A   1      33.357  27.066  23.321  1.00  0.00     0.021 A 
ATOM     13  C   UNL A   1      33.811  27.098  25.691  1.00  0.00     0.021 A 
ATOM     14  C   UNL A   1      33.366  27.739  24.539  1.00  0.00     0.041 A 
ATOM     15  Cl  UNL A   1      32.822  29.368  24.622  1.00  0.00    -0.084 Cl
ENDBRANCH   8   9
BRANCH   8  16
ATOM     16  C   UNL A   1      33.758  22.723  23.481  1.00  0.00     0.125 C 
BRANCH  16  17
ATOM     17  N   UNL A   1      32.823  21.872  24.199  1.00  0.00    -0.350 N 
ATOM     18  C   UNL A   1      31.664  22.159  24.883  1.00  0.00     0.269 C 
ATOM     19  H   UNL A   1      33.063  20.917  24.194  1.00  0.00     0.163 HD
ATOM     20  O   UNL A   1      31.118  21.248  25.504  1.00  0.00    -0.268 OA
BRANCH  18  21
ATOM     21  C   UNL A   1      31.070  23.525  24.859  1.00  0.00     0.128 A 
ATOM     22  C   UNL A   1      31.014  24.294  26.017  1.00  0.00     0.034 A 
ATOM     23  N   UNL A   1      30.667  23.971  23.644  1.00  0.00    -0.251 NA
ATOM     24  C   UNL A   1      30.456  25.566  25.938  1.00  0.00     0.004 A 
ATOM     25  C   UNL A   1      30.134  25.211  23.601  1.00  0.00     0.112 A 
ATOM     26  C   UNL A   1      30.002  26.033  24.709  1.00  0.00     0.020 A 
ENDBRANCH  18  21
ENDBRANCH  16  17
ENDBRANCH   8  16
ENDBRANCH   7   8
ENDBRANCH   5   7
ENDBRANCH   2   3
ENDBRANCH   1   2
BRANCH   1  27
ATOM     27  C   UNL A   1      41.366  21.901  26.246  1.00  0.00     0.002 C 
BRANCH  27  28
ATOM     28  C   UNL A   1      42.087  20.723  26.910  1.00  0.00     0.002 C 
BRANCH  28  29
ATOM     29  C   UNL A   1      42.147  19.438  26.082  1.00  0.00     0.021 C 
BRANCH  29  30
ATOM     30  C   UNL A   1      43.467  18.675  26.158  1.00  0.00     0.116 C 
BRANCH  30  31
ATOM     31  N   UNL A   1      44.083  18.487  24.854  1.00  0.00    -0.352 N 
ATOM     32  C   UNL A   1      44.689  19.404  24.034  1.00  0.00     0.251 C 
ATOM     33  H   UNL A   1      44.062  17.565  24.509  1.00  0.00     0.163 HD
ATOM     34  O   UNL A   1      45.023  19.078  22.893  1.00  0.00    -0.269 OA
BRANCH  32  35
ATOM     35  C   UNL A   1      44.924  20.789  24.495  1.00  0.00     0.039 A 
ATOM     36  C   UNL A   1      44.500  21.848  23.686  1.00  0.00     0.014 A 
ATOM     37  C   UNL A   1      45.582  21.054  25.699  1.00  0.00     0.014 A 
ATOM     38  C   UNL A   1      44.686  23.167  24.109  1.00  0.00     0.010 A 
ATOM     39  C   UNL A   1      45.706  22.366  26.152  1.00  0.00     0.010 A 
ATOM     40  C   UNL A   1      45.267  23.437  25.359  1.00  0.00    -0.014 A 
BRANCH  40  41
ATOM     41  C   UNL A   1      45.437  24.832  25.840  1.00  0.00     0.031 A 
ATOM     42  C   UNL A   1      46.789  25.490  25.788  1.00  0.00     0.074 A 
ATOM     43  C   UNL A   1      44.389  25.492  26.369  1.00  0.00     0.049 A 
ATOM     44  N   UNL A   1      47.154  26.671  26.218  1.00  0.00    -0.248 NA
ATOM     45  C   UNL A   1      47.882  24.703  25.195  1.00  0.00     0.031 C 
ATOM     46  C   UNL A   1      43.036  24.950  26.517  1.00  0.00     0.029 A 
ATOM     47  N   UNL A   1      44.298  26.758  26.891  1.00  0.00    -0.354 N 
ATOM     48  C   UNL A   1      48.513  26.767  25.953  1.00  0.00     0.074 A 
ATOM     49  C   UNL A   1      48.923  25.502  25.380  1.00  0.00     0.031 C 
ATOM     50  C   UNL A   1      42.249  25.882  27.077  1.00  0.00     0.029 A 
ATOM     51  C   UNL A   1      43.045  27.074  27.356  1.00  0.00     0.049 A 
ATOM     52  H   UNL A   1      45.059  27.381  26.928  1.00  0.00     0.167 HD
ATOM     53  C   UNL A   1      49.342  27.822  26.142  1.00  0.00     0.037 A 
ATOM     54  C   UNL A   1      42.592  28.197  27.946  1.00  0.00     0.037 A 
ATOM     55  C   UNL A   1      48.933  29.086  26.697  1.00  0.00     0.049 A 
ATOM     56  C   UNL A   1      43.533  29.355  28.145  1.00  0.00     0.074 A 
ATOM     57  C   UNL A   1      49.693  30.223  26.913  1.00  0.00     0.029 A 
ATOM     58  N   UNL A   1      47.645  29.381  27.120  1.00  0.00    -0.354 N 
ATOM     59  N   UNL A   1      44.806  29.450  27.844  1.00  0.00    -0.248 NA
ATOM     60  C   UNL A   1      42.970  30.570  28.751  1.00  0.00     0.031 C 
ATOM     61  C   UNL A   1      48.872  31.196  27.492  1.00  0.00     0.029 A 
ATOM     62  C   UNL A   1      47.591  30.681  27.597  1.00  0.00     0.049 A 
ATOM     63  H   UNL A   1      46.883  28.760  27.085  1.00  0.00     0.167 HD
ATOM     64  C   UNL A   1      45.185  30.740  28.193  1.00  0.00     0.074 A 
ATOM     65  C   UNL A   1      44.005  31.396  28.713  1.00  0.00     0.031 C 
ATOM     66  C   UNL A   1      46.402  31.326  28.092  1.00  0.00     0.037 A 
BRANCH  53  67
ATOM     67  C   UNL A   1      50.776  27.659  25.729  1.00  0.00     0.064 A 
ATOM     68  C   UNL A   1      51.755  27.241  26.645  1.00  0.00     0.173 A 
ATOM     69  C   UNL A   1      51.173  27.883  24.404  1.00  0.00     0.173 A 
ATOM     70  F   UNL A   1      51.429  27.025  27.929  1.00  0.00    -0.203 F 
ATOM     71  C   UNL A   1      53.082  27.082  26.255  1.00  0.00     0.198 A 
ATOM     72  C   UNL A   1      52.496  27.694  24.009  1.00  0.00     0.198 A 
ATOM     73  F   UNL A   1      50.277  28.278  23.486  1.00  0.00    -0.203 F 
ATOM     74  F   UNL A   1      54.006  26.730  27.158  1.00  0.00    -0.200 F 
ATOM     75  C   UNL A   1      53.449  27.302  24.936  1.00  0.00     0.200 A 
ATOM     76  F   UNL A   1      52.848  27.895  22.732  1.00  0.00    -0.200 F 
ATOM     77  F   UNL A   1      54.725  27.141  24.560  1.00  0.00    -0.200 F 
ENDBRANCH  53  67
BRANCH  54  78
ATOM     78  C   UNL A   1      41.171  28.295  28.373  1.00  0.00     0.064 A 
ATOM     79  C   UNL A   1      40.205  28.873  27.538  1.00  0.00     0.173 A 
ATOM     80  C   UNL A   1      40.755  27.837  29.631  1.00  0.00     0.173 A 
ATOM     81  F   UNL A   1      40.558  29.344  26.332  1.00  0.00    -0.203 F 
ATOM     82  C   UNL A   1      38.885  29.017  27.956  1.00  0.00     0.198 A 
ATOM     83  C   UNL A   1      39.428  27.954  30.037  1.00  0.00     0.198 A 
ATOM     84  F   UNL A   1      41.638  27.269  30.466  1.00  0.00    -0.203 F 
ATOM     85  F   UNL A   1      37.994  29.625  27.159  1.00  0.00    -0.200 F 
ATOM     86  C   UNL A   1      38.496  28.554  29.204  1.00  0.00     0.200 A 
ATOM     87  F   UNL A   1      39.052  27.492  31.238  1.00  0.00    -0.200 F 
ATOM     88  F   UNL A   1      37.226  28.695  29.607  1.00  0.00    -0.200 F 
ENDBRANCH  54  78
BRANCH  66  89
ATOM     89  C   UNL A   1      46.506  32.766  28.502  1.00  0.00     0.064 A 
ATOM     90  C   UNL A   1      46.295  33.811  27.591  1.00  0.00     0.173 A 
ATOM     91  C   UNL A   1      46.795  33.104  29.834  1.00  0.00     0.173 A 
ATOM     92  F   UNL A   1      46.030  33.540  26.303  1.00  0.00    -0.203 F 
ATOM     93  C   UNL A   1      46.399  35.141  27.990  1.00  0.00     0.198 A 
ATOM     94  C   UNL A   1      46.870  34.434  30.235  1.00  0.00     0.198 A 
ATOM     95  F   UNL A   1      46.999  32.142  30.745  1.00  0.00    -0.203 F 
ATOM     96  F   UNL A   1      46.246  36.123  27.090  1.00  0.00    -0.200 F 
ATOM     97  C   UNL A   1      46.681  35.451  29.312  1.00  0.00     0.200 A 
ATOM     98  F   UNL A   1      47.130  34.732  31.516  1.00  0.00    -0.200 F 
ATOM     99  F   UNL A   1      46.779  36.731  29.695  1.00  0.00    -0.200 F 
ENDBRANCH  66  89
ENDBRANCH  40  41
ENDBRANCH  32  35
ENDBRANCH  30  31
ENDBRANCH  29  30
ENDBRANCH  28  29
ENDBRANCH  27  28
ENDBRANCH   1  27
TORSDOF 18
ENDMDL
MODEL 3
REMARK VINA RESULT:     -11.1      6.975     12.337
REMARK SMILES O=C(C[C@H](CNC(=O)c1ccccn1)c1ccc(Cl)cc1)NCCCCCCNC(=O)c1ccc(-c2c3nc(c(-c4c(F)c(F)c(F)c(F)c4F)c4ccc([nH]4)c(-c4c(F)c(F)c(F)c(F)c4F)c4nc(c(-c5c(F)c(F)c(F)c(F)c5F)c5ccc2[nH]5)C=C4)C=C3)cc1
REMARK SMILES IDX 24 1 23 2 22 3 1 4 2 5 3 7 4 8 15 9 16 10 21 11 17 12 20 13
REMARK SMILES IDX 18 14 19 15 5 16 6 17 7 18 8 20 9 21 10 22 14 23 11 24 13 25
REMARK SMILES IDX 12 26 25 27 26 28 27 29 28 30 29 31 30 32 31 34 32 35 33 36
REMARK SMILES IDX 94 37 34 38 93 39 35 40 36 41 37 42 87 43 38 44 92 45 86 46
REMARK SMILES IDX 88 47 39 48 91 49 85 50 84 51 40 53 72 54 52 55 71 56 53 57
REMARK SMILES IDX 56 58 70 59 89 60 54 61 55 62 69 64 90 65 57 66 41 67 42 68
REMARK SMILES IDX 50 69 43 70 44 71 48 72 51 73 45 74 46 75 49 76 47 77 73 78
REMARK SMILES IDX 74 79 82 80 75 81 76 82 80 83 83 84 77 85 78 86 81 87 79 88
REMARK SMILES IDX 58 89 59 90 67 91 60 92 61 93 65 94 68 95 62 96 63 97 66 98
REMARK SMILES IDX 64 99
REMARK H PARENT 22 6 6 19 29 33 88 52 56 63
REMARK Flexibility Score: inf
ROOT
ATOM      1  C   UNL A   1      39.666  22.019  26.701  1.00  0.00     0.021 C 
ENDROOT
BRANCH   1   2
ATOM      2  C   UNL A   1      38.942  23.337  26.429  1.00  0.00     0.116 C 
BRANCH   2   3
ATOM      3  N   UNL A   1      37.503  23.168  26.408  1.00  0.00    -0.356 N 
ATOM      4  O   UNL A   1      37.437  22.149  24.364  1.00  0.00    -0.275 OA
ATOM      5  C   UNL A   1      36.854  22.538  25.370  1.00  0.00     0.220 C 
ATOM      6  H   UNL A   1      36.971  23.515  27.160  1.00  0.00     0.163 HD
BRANCH   5   7
ATOM      7  C   UNL A   1      35.347  22.407  25.522  1.00  0.00     0.110 C 
BRANCH   7   8
ATOM      8  C   UNL A   1      34.671  23.590  26.241  1.00  0.00     0.048 C 
BRANCH   8   9
ATOM      9  C   UNL A   1      34.314  24.719  25.278  1.00  0.00    -0.043 A 
ATOM     10  C   UNL A   1      34.303  24.533  23.886  1.00  0.00     0.005 A 
ATOM     11  C   UNL A   1      33.972  25.985  25.786  1.00  0.00     0.005 A 
ATOM     12  C   UNL A   1      33.933  25.571  23.028  1.00  0.00     0.021 A 
ATOM     13  C   UNL A   1      33.615  27.028  24.926  1.00  0.00     0.021 A 
ATOM     14  C   UNL A   1      33.589  26.814  23.551  1.00  0.00     0.041 A 
ATOM     15  Cl  UNL A   1      33.127  28.091  22.496  1.00  0.00    -0.084 Cl
ENDBRANCH   8   9
BRANCH   8  16
ATOM     16  C   UNL A   1      33.488  23.175  27.151  1.00  0.00     0.125 C 
BRANCH  16  17
ATOM     17  N   UNL A   1      32.578  22.197  26.578  1.00  0.00    -0.350 N 
ATOM     18  C   UNL A   1      31.409  22.341  25.867  1.00  0.00     0.269 C 
ATOM     19  H   UNL A   1      32.850  21.262  26.723  1.00  0.00     0.163 HD
ATOM     20  O   UNL A   1      30.769  21.326  25.594  1.00  0.00    -0.268 OA
BRANCH  18  21
ATOM     21  C   UNL A   1      30.934  23.681  25.421  1.00  0.00     0.128 A 
ATOM     22  C   UNL A   1      30.760  23.958  24.069  1.00  0.00     0.034 A 
ATOM     23  N   UNL A   1      30.628  24.556  26.410  1.00  0.00    -0.251 NA
ATOM     24  C   UNL A   1      30.307  25.223  23.707  1.00  0.00     0.004 A 
ATOM     25  C   UNL A   1      30.188  25.774  26.026  1.00  0.00     0.112 A 
ATOM     26  C   UNL A   1      30.020  26.151  24.703  1.00  0.00     0.020 A 
ENDBRANCH  18  21
ENDBRANCH  16  17
ENDBRANCH   8  16
ENDBRANCH   7   8
ENDBRANCH   5   7
ENDBRANCH   2   3
ENDBRANCH   1   2
BRANCH   1  27
ATOM     27  C   UNL A   1      41.088  21.938  26.132  1.00  0.00     0.002 C 
BRANCH  27  28
ATOM     28  C   UNL A   1      41.998  20.886  26.775  1.00  0.00     0.002 C 
BRANCH  28  29
ATOM     29  C   UNL A   1      42.035  19.528  26.071  1.00  0.00     0.021 C 
BRANCH  29  30
ATOM     30  C   UNL A   1      43.355  18.771  26.187  1.00  0.00     0.116 C 
BRANCH  30  31
ATOM     31  N   UNL A   1      43.998  18.562  24.899  1.00  0.00    -0.352 N 
ATOM     32  C   UNL A   1      44.636  19.462  24.086  1.00  0.00     0.251 C 
ATOM     33  H   UNL A   1      43.969  17.637  24.561  1.00  0.00     0.163 HD
ATOM     34  O   UNL A   1      44.991  19.121  22.955  1.00  0.00    -0.269 OA
BRANCH  32  35
ATOM     35  C   UNL A   1      44.883  20.847  24.541  1.00  0.00     0.039 A 
ATOM     36  C   UNL A   1      44.432  21.906  23.747  1.00  0.00     0.014 A 
ATOM     37  C   UNL A   1      45.579  21.111  25.724  1.00  0.00     0.014 A 
ATOM     38  C   UNL A   1      44.629  23.224  24.165  1.00  0.00     0.010 A 
ATOM     39  C   UNL A   1      45.715  22.423  26.174  1.00  0.00     0.010 A 
ATOM     40  C   UNL A   1      45.249  23.494  25.397  1.00  0.00    -0.014 A 
BRANCH  40  41
ATOM     41  C   UNL A   1      45.431  24.889  25.874  1.00  0.00     0.031 A 
ATOM     42  C   UNL A   1      46.788  25.538  25.811  1.00  0.00     0.074 A 
ATOM     43  C   UNL A   1      44.391  25.556  26.410  1.00  0.00     0.049 A 
ATOM     44  N   UNL A   1      47.163  26.718  26.236  1.00  0.00    -0.248 NA
ATOM     45  C   UNL A   1      47.871  24.743  25.211  1.00  0.00     0.031 C 
ATOM     46  C   UNL A   1      43.036  25.025  26.568  1.00  0.00     0.029 A 
ATOM     47  N   UNL A   1      44.313  26.824  26.929  1.00  0.00    -0.354 N 
ATOM     48  C   UNL A   1      48.521  26.804  25.961  1.00  0.00     0.074 A 
ATOM     49  C   UNL A   1      48.919  25.536  25.388  1.00  0.00     0.031 C 
ATOM     50  C   UNL A   1      42.259  25.963  27.132  1.00  0.00     0.029 A 
ATOM     51  C   UNL A   1      43.066  27.150  27.403  1.00  0.00     0.049 A 
ATOM     52  H   UNL A   1      45.079  27.443  26.960  1.00  0.00     0.167 HD
ATOM     53  C   UNL A   1      49.358  27.854  26.142  1.00  0.00     0.037 A 
ATOM     54  C   UNL A   1      42.623  28.276  27.994  1.00  0.00     0.037 A 
ATOM     55  C   UNL A   1      48.962  29.122  26.698  1.00  0.00     0.049 A 
ATOM     56  C   UNL A   1      43.574  29.429  28.184  1.00  0.00     0.074 A 
ATOM     57  C   UNL A   1      49.730  30.254  26.906  1.00  0.00     0.029 A 
ATOM     58  N   UNL A   1      47.678  29.426  27.129  1.00  0.00    -0.354 N 
ATOM     59  N   UNL A   1      44.845  29.515  27.874  1.00  0.00    -0.248 NA
ATOM     60  C   UNL A   1      43.023  30.648  28.792  1.00  0.00     0.031 C 
ATOM     61  C   UNL A   1      48.920  31.234  27.490  1.00  0.00     0.029 A 
ATOM     62  C   UNL A   1      47.636  30.727  27.604  1.00  0.00     0.049 A 
ATOM     63  H   UNL A   1      46.912  28.809  27.101  1.00  0.00     0.167 HD
ATOM     64  C   UNL A   1      45.235  30.802  28.217  1.00  0.00     0.074 A 
ATOM     65  C   UNL A   1      44.063  31.467  28.745  1.00  0.00     0.031 C 
ATOM     66  C   UNL A   1      46.456  31.381  28.106  1.00  0.00     0.037 A 
BRANCH  53  67
ATOM     67  C   UNL A   1      50.788  27.680  25.720  1.00  0.00     0.064 A 
ATOM     68  C   UNL A   1      51.784  27.330  26.645  1.00  0.00     0.173 A 
ATOM     69  C   UNL A   1      51.164  27.827  24.377  1.00  0.00     0.173 A 
ATOM     70  F   UNL A   1      51.479  27.190  27.945  1.00  0.00    -0.203 F 
ATOM     71  C   UNL A   1      53.107  27.161  26.246  1.00  0.00     0.198 A 
ATOM     72  C   UNL A   1      52.484  27.628  23.975  1.00  0.00     0.198 A 
ATOM     73  F   UNL A   1      50.251  28.155  23.450  1.00  0.00    -0.203 F 
ATOM     74  F   UNL A   1      54.048  26.875  27.156  1.00  0.00    -0.200 F 
ATOM     75  C   UNL A   1      53.454  27.303  24.911  1.00  0.00     0.200 A 
ATOM     76  F   UNL A   1      52.815  27.753  22.684  1.00  0.00    -0.200 F 
ATOM     77  F   UNL A   1      54.727  27.133  24.526  1.00  0.00    -0.200 F 
ENDBRANCH  53  67
BRANCH  54  78
ATOM     78  C   UNL A   1      41.207  28.385  28.431  1.00  0.00     0.064 A 
ATOM     79  C   UNL A   1      40.809  27.953  29.704  1.00  0.00     0.173 A 
ATOM     80  C   UNL A   1      40.219  28.899  27.580  1.00  0.00     0.173 A 
ATOM     81  F   UNL A   1      41.715  27.435  30.548  1.00  0.00    -0.203 F 
ATOM     82  C   UNL A   1      39.474  28.002  30.097  1.00  0.00     0.198 A 
ATOM     83  C   UNL A   1      38.889  28.976  27.984  1.00  0.00     0.198 A 
ATOM     84  F   UNL A   1      40.548  29.334  26.354  1.00  0.00    -0.203 F 
ATOM     85  F   UNL A   1      39.114  27.530  31.299  1.00  0.00    -0.200 F 
ATOM     86  C   UNL A   1      38.515  28.517  29.238  1.00  0.00     0.200 A 
ATOM     87  F   UNL A   1      37.967  29.489  27.157  1.00  0.00    -0.200 F 
ATOM     88  F   UNL A   1      37.230  28.563  29.616  1.00  0.00    -0.200 F 
ENDBRANCH  54  78
BRANCH  66  89
ATOM     89  C   UNL A   1      46.572  32.821  28.513  1.00  0.00     0.064 A 
ATOM     90  C   UNL A   1      46.914  33.194  29.821  1.00  0.00     0.173 A 
ATOM     91  C   UNL A   1      46.363  33.841  27.572  1.00  0.00     0.173 A 
ATOM     92  F   UNL A   1      47.110  32.256  30.761  1.00  0.00    -0.203 F 
ATOM     93  C   UNL A   1      47.012  34.536  30.180  1.00  0.00     0.198 A 
ATOM     94  C   UNL A   1      46.490  35.181  27.927  1.00  0.00     0.198 A 
ATOM     95  F   UNL A   1      46.039  33.537  26.307  1.00  0.00    -0.203 F 
ATOM     96  F   UNL A   1      47.288  34.870  31.449  1.00  0.00    -0.200 F 
ATOM     97  C   UNL A   1      46.806  35.527  29.232  1.00  0.00     0.200 A 
ATOM     98  F   UNL A   1      46.303  36.137  27.007  1.00  0.00    -0.200 F 
ATOM     99  F   UNL A   1      46.903  36.818  29.579  1.00  0.00    -0.200 F 
ENDBRANCH  66  89
ENDBRANCH  40  41
ENDBRANCH  32  35
ENDBRANCH  30  31
ENDBRANCH  29  30
ENDBRANCH  28  29
ENDBRANCH  27  28
ENDBRANCH   1  27
TORSDOF 18
ENDMDL
