MODEL 1
REMARK VINA RESULT:     -12.1      0.000      0.000
REMARK SMILES CCN(C(=O)Cc1c(C(=O)NCCCCCCNC(=O)c2ccc(-c3c4nc(c(-c5c(F)c(F)c(F)c(F)c5F)c5ccc([nH]5)c(-c5c(F)c(F)c(F)c(F)c5F)c5nc(c(-c6c(F)c(F)c(F)c(F)c6F)c6ccc3[nH]6)C=C5)C=C4)cc2)[nH]c2ccc(Cl)cc12)c1ccc(C)c(C)c1
REMARK SMILES IDX 13 1 12 2 11 3 9 4 10 5 8 7 7 8 91 9 84 10 85 11 90 12 86 14
REMARK SMILES IDX 88 15 87 16 89 17 6 18 4 19 5 20 3 21 2 22 1 23 92 24 93 25
REMARK SMILES IDX 99 26 94 27 97 28 95 29 98 30 96 31 14 32 15 33 16 34 17 35
REMARK SMILES IDX 18 36 19 37 20 39 21 40 22 41 83 42 23 43 82 44 24 45 25 46
REMARK SMILES IDX 26 47 76 48 27 49 81 50 75 51 77 52 28 53 80 54 74 55 73 56
REMARK SMILES IDX 29 58 61 59 41 60 60 61 42 62 45 63 59 64 78 65 43 66 44 67
REMARK SMILES IDX 58 69 79 70 46 71 30 72 31 73 39 74 32 75 33 76 37 77 40 78
REMARK SMILES IDX 34 79 35 80 38 81 36 82 62 83 63 84 71 85 64 86 65 87 69 88
REMARK SMILES IDX 72 89 66 90 67 91 70 92 68 93 47 94 48 95 56 96 49 97 50 98
REMARK SMILES IDX 54 99 57 100 51 101 52 102 55 103 53 104
REMARK H PARENT 11 6 84 13 18 38 77 57 45 68
REMARK Flexibility Score: inf
ROOT
ATOM      1  C   UNL A   1      36.396  22.730  23.804  1.00  0.00     0.021 C 
ENDROOT
BRANCH   1   2
ATOM      2  C   UNL A   1      34.864  22.753  23.811  1.00  0.00     0.116 C 
BRANCH   2   3
ATOM      3  N   UNL A   1      34.355  22.777  22.464  1.00  0.00    -0.351 N 
ATOM      4  C   UNL A   1      33.530  23.606  21.766  1.00  0.00     0.268 C 
ATOM      5  O   UNL A   1      33.430  23.312  20.568  1.00  0.00    -0.268 OA
ATOM      6  H   UNL A   1      34.677  22.021  21.923  1.00  0.00     0.163 HD
BRANCH   4   7
ATOM      7  C   UNL A   1      32.832  24.785  22.265  1.00  0.00     0.109 A 
ATOM      8  C   UNL A   1      31.667  25.147  22.965  1.00  0.00    -0.000 A 
ATOM      9  C   UNL A   1      31.613  26.599  22.976  1.00  0.00     0.005 A 
ATOM     10  N   UNL A   1      33.445  25.983  21.924  1.00  0.00    -0.350 N 
ATOM     11  C   UNL A   1      32.763  27.075  22.364  1.00  0.00     0.046 A 
ATOM     12  C   UNL A   1      30.694  27.565  23.441  1.00  0.00     0.031 A 
ATOM     13  H   UNL A   1      34.287  26.037  21.416  1.00  0.00     0.167 HD
ATOM     14  C   UNL A   1      33.074  28.436  22.236  1.00  0.00     0.028 A 
ATOM     15  C   UNL A   1      30.979  28.929  23.323  1.00  0.00     0.041 A 
ATOM     16  C   UNL A   1      32.160  29.362  22.741  1.00  0.00     0.022 A 
ATOM     17  Cl  UNL A   1      29.840  30.080  23.912  1.00  0.00    -0.084 Cl
BRANCH   8  18
ATOM     18  C   UNL A   1      30.636  24.257  23.604  1.00  0.00     0.139 C 
BRANCH  18  19
ATOM     19  C   UNL A   1      31.128  23.281  24.659  1.00  0.00     0.231 C 
ATOM     20  O   UNL A   1      31.371  22.118  24.315  1.00  0.00    -0.274 OA
BRANCH  19  21
ATOM     21  N   UNL A   1      31.354  23.745  25.960  1.00  0.00    -0.312 N 
BRANCH  21  22
ATOM     22  C   UNL A   1      30.863  23.132  27.209  1.00  0.00     0.122 C 
ATOM     23  C   UNL A   1      29.377  22.770  27.223  1.00  0.00     0.028 C 
ENDBRANCH  21  22
BRANCH  21  24
ATOM     24  C   UNL A   1      32.061  24.970  26.085  1.00  0.00     0.044 A 
ATOM     25  C   UNL A   1      33.404  25.046  25.727  1.00  0.00     0.026 A 
ATOM     26  C   UNL A   1      31.415  26.083  26.627  1.00  0.00     0.030 A 
ATOM     27  C   UNL A   1      34.094  26.246  25.904  1.00  0.00     0.006 A 
ATOM     28  C   UNL A   1      32.095  27.299  26.796  1.00  0.00    -0.046 A 
ATOM     29  C   UNL A   1      33.452  27.383  26.430  1.00  0.00    -0.048 A 
ATOM     30  C   UNL A   1      31.346  28.464  27.381  1.00  0.00     0.044 C 
ATOM     31  C   UNL A   1      34.275  28.626  26.632  1.00  0.00     0.044 C 
ENDBRANCH  21  24
ENDBRANCH  19  21
ENDBRANCH  18  19
ENDBRANCH   8  18
ENDBRANCH   4   7
ENDBRANCH   2   3
ENDBRANCH   1   2
BRANCH   1  32
ATOM     32  C   UNL A   1      37.010  21.875  24.918  1.00  0.00     0.002 C 
BRANCH  32  33
ATOM     33  C   UNL A   1      36.719  20.374  24.804  1.00  0.00     0.002 C 
BRANCH  33  34
ATOM     34  C   UNL A   1      37.933  19.458  24.992  1.00  0.00     0.021 C 
BRANCH  34  35
ATOM     35  C   UNL A   1      39.086  20.081  25.774  1.00  0.00     0.116 C 
BRANCH  35  36
ATOM     36  N   UNL A   1      40.190  19.146  25.935  1.00  0.00    -0.352 N 
ATOM     37  C   UNL A   1      41.527  19.394  26.082  1.00  0.00     0.251 C 
ATOM     38  H   UNL A   1      39.936  18.194  25.939  1.00  0.00     0.163 HD
ATOM     39  O   UNL A   1      42.343  18.478  25.942  1.00  0.00    -0.269 OA
BRANCH  37  40
ATOM     40  C   UNL A   1      42.007  20.751  26.408  1.00  0.00     0.039 A 
ATOM     41  C   UNL A   1      42.255  21.082  27.744  1.00  0.00     0.014 A 
ATOM     42  C   UNL A   1      42.164  21.714  25.407  1.00  0.00     0.014 A 
ATOM     43  C   UNL A   1      42.703  22.364  28.070  1.00  0.00     0.010 A 
ATOM     44  C   UNL A   1      42.673  22.971  25.725  1.00  0.00     0.010 A 
ATOM     45  C   UNL A   1      42.935  23.312  27.061  1.00  0.00    -0.014 A 
BRANCH  45  46
ATOM     46  C   UNL A   1      43.433  24.672  27.385  1.00  0.00     0.031 A 
ATOM     47  C   UNL A   1      42.498  25.700  27.962  1.00  0.00     0.074 A 
ATOM     48  C   UNL A   1      44.709  25.000  27.104  1.00  0.00     0.049 A 
ATOM     49  N   UNL A   1      42.721  26.958  28.243  1.00  0.00    -0.248 NA
ATOM     50  C   UNL A   1      41.121  25.260  28.234  1.00  0.00     0.031 C 
ATOM     51  C   UNL A   1      45.698  24.105  26.502  1.00  0.00     0.029 A 
ATOM     52  N   UNL A   1      45.389  26.179  27.274  1.00  0.00    -0.354 N 
ATOM     53  C   UNL A   1      41.513  27.463  28.705  1.00  0.00     0.074 A 
ATOM     54  C   UNL A   1      40.547  26.389  28.624  1.00  0.00     0.031 C 
ATOM     55  C   UNL A   1      46.861  24.761  26.369  1.00  0.00     0.029 A 
ATOM     56  C   UNL A   1      46.691  26.131  26.843  1.00  0.00     0.049 A 
ATOM     57  H   UNL A   1      44.980  26.984  27.667  1.00  0.00     0.167 HD
ATOM     58  C   UNL A   1      41.240  28.704  29.175  1.00  0.00     0.037 A 
ATOM     59  C   UNL A   1      47.640  27.087  26.829  1.00  0.00     0.037 A 
ATOM     60  C   UNL A   1      42.213  29.759  29.286  1.00  0.00     0.049 A 
ATOM     61  C   UNL A   1      47.313  28.453  27.370  1.00  0.00     0.074 A 
ATOM     62  C   UNL A   1      42.051  31.031  29.805  1.00  0.00     0.029 A 
ATOM     63  N   UNL A   1      43.532  29.662  28.870  1.00  0.00    -0.354 N 
ATOM     64  N   UNL A   1      46.184  28.899  27.865  1.00  0.00    -0.248 NA
ATOM     65  C   UNL A   1      48.396  29.446  27.359  1.00  0.00     0.031 C 
ATOM     66  C   UNL A   1      43.261  31.717  29.668  1.00  0.00     0.029 A 
ATOM     67  C   UNL A   1      44.191  30.857  29.107  1.00  0.00     0.049 A 
ATOM     68  H   UNL A   1      43.941  28.861  28.467  1.00  0.00     0.167 HD
ATOM     69  C   UNL A   1      46.427  30.209  28.251  1.00  0.00     0.074 A 
ATOM     70  C   UNL A   1      47.817  30.483  27.947  1.00  0.00     0.031 C 
ATOM     71  C   UNL A   1      45.578  31.107  28.809  1.00  0.00     0.037 A 
BRANCH  58  72
ATOM     72  C   UNL A   1      39.833  28.988  29.614  1.00  0.00     0.064 A 
ATOM     73  C   UNL A   1      38.864  29.458  28.714  1.00  0.00     0.173 A 
ATOM     74  C   UNL A   1      39.437  28.746  30.937  1.00  0.00     0.173 A 
ATOM     75  F   UNL A   1      39.195  29.716  27.440  1.00  0.00    -0.203 F 
ATOM     76  C   UNL A   1      37.557  29.698  29.130  1.00  0.00     0.198 A 
ATOM     77  C   UNL A   1      38.121  28.959  31.343  1.00  0.00     0.198 A 
ATOM     78  F   UNL A   1      40.322  28.290  31.836  1.00  0.00    -0.203 F 
ATOM     79  F   UNL A   1      36.660  30.188  28.263  1.00  0.00    -0.200 F 
ATOM     80  C   UNL A   1      37.184  29.441  30.441  1.00  0.00     0.200 A 
ATOM     81  F   UNL A   1      37.761  28.698  32.606  1.00  0.00    -0.200 F 
ATOM     82  F   UNL A   1      35.924  29.663  30.837  1.00  0.00    -0.200 F 
ENDBRANCH  58  72
BRANCH  59  83
ATOM     83  C   UNL A   1      48.996  26.780  26.308  1.00  0.00     0.064 A 
ATOM     84  C   UNL A   1      49.327  27.034  24.969  1.00  0.00     0.173 A 
ATOM     85  C   UNL A   1      49.986  26.223  27.130  1.00  0.00     0.173 A 
ATOM     86  F   UNL A   1      48.407  27.548  24.139  1.00  0.00    -0.203 F 
ATOM     87  C   UNL A   1      50.587  26.720  24.467  1.00  0.00     0.198 A 
ATOM     88  C   UNL A   1      51.256  25.934  26.633  1.00  0.00     0.198 A 
ATOM     89  F   UNL A   1      49.724  25.967  28.420  1.00  0.00    -0.203 F 
ATOM     90  F   UNL A   1      50.860  26.928  23.171  1.00  0.00    -0.200 F 
ATOM     91  C   UNL A   1      51.553  26.174  25.299  1.00  0.00     0.200 A 
ATOM     92  F   UNL A   1      52.190  25.422  27.445  1.00  0.00    -0.200 F 
ATOM     93  F   UNL A   1      52.765  25.873  24.816  1.00  0.00    -0.200 F 
ENDBRANCH  59  83
BRANCH  71  94
ATOM     94  C   UNL A   1      46.137  32.454  29.162  1.00  0.00     0.064 A 
ATOM     95  C   UNL A   1      46.090  33.528  28.263  1.00  0.00     0.173 A 
ATOM     96  C   UNL A   1      46.692  32.678  30.431  1.00  0.00     0.173 A 
ATOM     97  F   UNL A   1      45.583  33.358  27.033  1.00  0.00    -0.203 F 
ATOM     98  C   UNL A   1      46.603  34.775  28.613  1.00  0.00     0.198 A 
ATOM     99  C   UNL A   1      47.177  33.933  30.788  1.00  0.00     0.198 A 
ATOM    100  F   UNL A   1      46.754  31.684  31.328  1.00  0.00    -0.203 F 
ATOM    101  F   UNL A   1      46.591  35.776  27.722  1.00  0.00    -0.200 F 
ATOM    102  C   UNL A   1      47.140  34.978  29.876  1.00  0.00     0.200 A 
ATOM    103  F   UNL A   1      47.684  34.132  32.012  1.00  0.00    -0.200 F 
ATOM    104  F   UNL A   1      47.628  36.180  30.212  1.00  0.00    -0.200 F 
ENDBRANCH  71  94
ENDBRANCH  45  46
ENDBRANCH  37  40
ENDBRANCH  35  36
ENDBRANCH  34  35
ENDBRANCH  33  34
ENDBRANCH  32  33
ENDBRANCH   1  32
TORSDOF 18
ENDMDL
MODEL 2
REMARK VINA RESULT:     -12.0      1.988      3.705
REMARK SMILES CCN(C(=O)Cc1c(C(=O)NCCCCCCNC(=O)c2ccc(-c3c4nc(c(-c5c(F)c(F)c(F)c(F)c5F)c5ccc([nH]5)c(-c5c(F)c(F)c(F)c(F)c5F)c5nc(c(-c6c(F)c(F)c(F)c(F)c6F)c6ccc3[nH]6)C=C5)C=C4)cc2)[nH]c2ccc(Cl)cc12)c1ccc(C)c(C)c1
REMARK SMILES IDX 13 1 12 2 11 3 9 4 10 5 8 7 7 8 91 9 84 10 85 11 90 12 86 14
REMARK SMILES IDX 88 15 87 16 89 17 6 18 4 19 5 20 3 21 2 22 1 23 92 24 93 25
REMARK SMILES IDX 99 26 94 27 97 28 95 29 98 30 96 31 14 32 15 33 16 34 17 35
REMARK SMILES IDX 18 36 19 37 20 39 21 40 22 41 83 42 23 43 82 44 24 45 25 46
REMARK SMILES IDX 26 47 76 48 27 49 81 50 75 51 77 52 28 53 80 54 74 55 73 56
REMARK SMILES IDX 29 58 61 59 41 60 60 61 42 62 45 63 59 64 78 65 43 66 44 67
REMARK SMILES IDX 58 69 79 70 46 71 30 72 31 73 39 74 32 75 33 76 37 77 40 78
REMARK SMILES IDX 34 79 35 80 38 81 36 82 62 83 63 84 71 85 64 86 65 87 69 88
REMARK SMILES IDX 72 89 66 90 67 91 70 92 68 93 47 94 48 95 56 96 49 97 50 98
REMARK SMILES IDX 54 99 57 100 51 101 52 102 55 103 53 104
REMARK H PARENT 11 6 84 13 18 38 77 57 45 68
REMARK Flexibility Score: inf
ROOT
ATOM      1  C   UNL A   1      38.325  23.711  26.128  1.00  0.00     0.021 C 
ENDROOT
BRANCH   1   2
ATOM      2  C   UNL A   1      36.920  23.740  25.517  1.00  0.00     0.116 C 
BRANCH   2   3
ATOM      3  N   UNL A   1      35.925  23.503  26.531  1.00  0.00    -0.351 N 
ATOM      4  C   UNL A   1      34.824  22.707  26.627  1.00  0.00     0.268 C 
ATOM      5  O   UNL A   1      34.291  22.732  27.744  1.00  0.00    -0.268 OA
ATOM      6  H   UNL A   1      36.075  24.041  27.342  1.00  0.00     0.163 HD
BRANCH   4   7
ATOM      7  C   UNL A   1      34.277  21.827  25.601  1.00  0.00     0.109 A 
ATOM      8  C   UNL A   1      33.423  21.855  24.484  1.00  0.00    -0.000 A 
ATOM      9  C   UNL A   1      33.278  20.484  24.026  1.00  0.00     0.005 A 
ATOM     10  N   UNL A   1      34.642  20.496  25.753  1.00  0.00    -0.350 N 
ATOM     11  C   UNL A   1      34.094  19.682  24.811  1.00  0.00     0.046 A 
ATOM     12  C   UNL A   1      32.528  19.836  23.021  1.00  0.00     0.031 A 
ATOM     13  H   UNL A   1      35.236  20.175  26.469  1.00  0.00     0.167 HD
ATOM     14  C   UNL A   1      34.244  18.301  24.625  1.00  0.00     0.028 A 
ATOM     15  C   UNL A   1      32.658  18.459  22.816  1.00  0.00     0.041 A 
ATOM     16  C   UNL A   1      33.514  17.700  23.598  1.00  0.00     0.022 A 
ATOM     17  Cl  UNL A   1      31.734  17.703  21.573  1.00  0.00    -0.084 Cl
BRANCH   8  18
ATOM     18  C   UNL A   1      32.757  23.039  23.836  1.00  0.00     0.139 C 
BRANCH  18  19
ATOM     19  C   UNL A   1      33.664  24.062  23.173  1.00  0.00     0.231 C 
ATOM     20  O   UNL A   1      34.757  23.683  22.738  1.00  0.00    -0.274 OA
BRANCH  19  21
ATOM     21  N   UNL A   1      33.205  25.375  23.017  1.00  0.00    -0.312 N 
BRANCH  21  22
ATOM     22  C   UNL A   1      33.200  26.161  21.768  1.00  0.00     0.122 C 
ATOM     23  C   UNL A   1      32.528  25.488  20.571  1.00  0.00     0.028 C 
ENDBRANCH  21  22
BRANCH  21  24
ATOM     24  C   UNL A   1      32.773  26.043  24.193  1.00  0.00     0.044 A 
ATOM     25  C   UNL A   1      31.440  25.978  24.589  1.00  0.00     0.026 A 
ATOM     26  C   UNL A   1      33.683  26.817  24.917  1.00  0.00     0.030 A 
ATOM     27  C   UNL A   1      31.025  26.682  25.720  1.00  0.00     0.006 A 
ATOM     28  C   UNL A   1      33.281  27.517  26.064  1.00  0.00    -0.046 A 
ATOM     29  C   UNL A   1      31.935  27.449  26.473  1.00  0.00    -0.048 A 
ATOM     30  C   UNL A   1      34.307  28.328  26.805  1.00  0.00     0.044 C 
ATOM     31  C   UNL A   1      31.403  28.215  27.653  1.00  0.00     0.044 C 
ENDBRANCH  21  24
ENDBRANCH  19  21
ENDBRANCH  18  19
ENDBRANCH   8  18
ENDBRANCH   4   7
ENDBRANCH   2   3
ENDBRANCH   1   2
BRANCH   1  32
ATOM     32  C   UNL A   1      38.958  22.315  26.164  1.00  0.00     0.002 C 
BRANCH  32  33
ATOM     33  C   UNL A   1      38.275  21.281  25.261  1.00  0.00     0.002 C 
BRANCH  33  34
ATOM     34  C   UNL A   1      38.902  19.884  25.279  1.00  0.00     0.021 C 
BRANCH  34  35
ATOM     35  C   UNL A   1      39.782  19.596  26.493  1.00  0.00     0.116 C 
BRANCH  35  36
ATOM     36  N   UNL A   1      40.963  18.828  26.126  1.00  0.00    -0.352 N 
ATOM     37  C   UNL A   1      42.223  19.263  25.821  1.00  0.00     0.251 C 
ATOM     38  H   UNL A   1      40.836  17.852  26.095  1.00  0.00     0.163 HD
ATOM     39  O   UNL A   1      43.026  18.496  25.281  1.00  0.00    -0.269 OA
BRANCH  37  40
ATOM     40  C   UNL A   1      42.636  20.646  26.132  1.00  0.00     0.039 A 
ATOM     41  C   UNL A   1      42.665  21.063  27.467  1.00  0.00     0.014 A 
ATOM     42  C   UNL A   1      42.947  21.547  25.109  1.00  0.00     0.014 A 
ATOM     43  C   UNL A   1      43.046  22.370  27.777  1.00  0.00     0.010 A 
ATOM     44  C   UNL A   1      43.390  22.829  25.424  1.00  0.00     0.010 A 
ATOM     45  C   UNL A   1      43.432  23.257  26.760  1.00  0.00    -0.014 A 
BRANCH  45  46
ATOM     46  C   UNL A   1      43.863  24.642  27.072  1.00  0.00     0.031 A 
ATOM     47  C   UNL A   1      42.857  25.658  27.538  1.00  0.00     0.074 A 
ATOM     48  C   UNL A   1      45.147  25.001  26.877  1.00  0.00     0.049 A 
ATOM     49  N   UNL A   1      43.020  26.932  27.789  1.00  0.00    -0.248 NA
ATOM     50  C   UNL A   1      41.476  25.184  27.719  1.00  0.00     0.031 C 
ATOM     51  C   UNL A   1      46.205  24.118  26.385  1.00  0.00     0.029 A 
ATOM     52  N   UNL A   1      45.776  26.207  27.056  1.00  0.00    -0.354 N 
ATOM     53  C   UNL A   1      41.765  27.413  28.139  1.00  0.00     0.074 A 
ATOM     54  C   UNL A   1      40.841  26.307  28.023  1.00  0.00     0.031 C 
ATOM     55  C   UNL A   1      47.355  24.807  26.318  1.00  0.00     0.029 A 
ATOM     56  C   UNL A   1      47.110  26.186  26.728  1.00  0.00     0.049 A 
ATOM     57  H   UNL A   1      45.315  27.011  27.387  1.00  0.00     0.167 HD
ATOM     58  C   UNL A   1      41.421  28.660  28.542  1.00  0.00     0.037 A 
ATOM     59  C   UNL A   1      48.027  27.171  26.752  1.00  0.00     0.037 A 
ATOM     60  C   UNL A   1      42.351  29.749  28.688  1.00  0.00     0.049 A 
ATOM     61  C   UNL A   1      47.620  28.543  27.216  1.00  0.00     0.074 A 
ATOM     62  C   UNL A   1      42.111  31.032  29.148  1.00  0.00     0.029 A 
ATOM     63  N   UNL A   1      43.700  29.680  28.378  1.00  0.00    -0.354 N 
ATOM     64  N   UNL A   1      46.443  28.969  27.607  1.00  0.00    -0.248 NA
ATOM     65  C   UNL A   1      48.671  29.569  27.252  1.00  0.00     0.031 C 
ATOM     66  C   UNL A   1      43.308  31.751  29.079  1.00  0.00     0.029 A 
ATOM     67  C   UNL A   1      44.304  30.903  28.621  1.00  0.00     0.049 A 
ATOM     68  H   UNL A   1      44.162  28.880  28.037  1.00  0.00     0.167 HD
ATOM     69  C   UNL A   1      46.617  30.299  27.963  1.00  0.00     0.074 A 
ATOM     70  C   UNL A   1      48.017  30.606  27.756  1.00  0.00     0.031 C 
ATOM     71  C   UNL A   1      45.701  31.187  28.421  1.00  0.00     0.037 A 
BRANCH  58  72
ATOM     72  C   UNL A   1      39.976  28.913  28.862  1.00  0.00     0.064 A 
ATOM     73  C   UNL A   1      39.077  29.368  27.884  1.00  0.00     0.173 A 
ATOM     74  C   UNL A   1      39.475  28.657  30.146  1.00  0.00     0.173 A 
ATOM     75  F   UNL A   1      39.508  29.638  26.644  1.00  0.00    -0.203 F 
ATOM     76  C   UNL A   1      37.735  29.579  28.189  1.00  0.00     0.198 A 
ATOM     77  C   UNL A   1      38.126  28.842  30.440  1.00  0.00     0.198 A 
ATOM     78  F   UNL A   1      40.291  28.216  31.115  1.00  0.00    -0.203 F 
ATOM     79  F   UNL A   1      36.903  30.054  27.251  1.00  0.00    -0.200 F 
ATOM     80  C   UNL A   1      37.258  29.309  29.464  1.00  0.00     0.200 A 
ATOM     81  F   UNL A   1      37.666  28.568  31.668  1.00  0.00    -0.200 F 
ATOM     82  F   UNL A   1      35.965  29.503  29.753  1.00  0.00    -0.200 F 
ENDBRANCH  58  72
BRANCH  59  83
ATOM     83  C   UNL A   1      49.429  26.891  26.347  1.00  0.00     0.064 A 
ATOM     84  C   UNL A   1      50.388  26.505  27.294  1.00  0.00     0.173 A 
ATOM     85  C   UNL A   1      49.841  27.008  25.012  1.00  0.00     0.173 A 
ATOM     86  F   UNL A   1      50.045  26.399  28.587  1.00  0.00    -0.203 F 
ATOM     87  C   UNL A   1      51.710  26.272  26.926  1.00  0.00     0.198 A 
ATOM     88  C   UNL A   1      51.159  26.747  24.640  1.00  0.00     0.198 A 
ATOM     89  F   UNL A   1      48.962  27.366  24.066  1.00  0.00    -0.203 F 
ATOM     90  F   UNL A   1      52.617  25.952  27.860  1.00  0.00    -0.200 F 
ATOM     91  C   UNL A   1      52.095  26.388  25.598  1.00  0.00     0.200 A 
ATOM     92  F   UNL A   1      51.521  26.846  23.354  1.00  0.00    -0.200 F 
ATOM     93  F   UNL A   1      53.366  26.162  25.245  1.00  0.00    -0.200 F 
ENDBRANCH  59  83
BRANCH  71  94
ATOM     94  C   UNL A   1      46.191  32.562  28.767  1.00  0.00     0.064 A 
ATOM     95  C   UNL A   1      46.671  32.872  30.047  1.00  0.00     0.173 A 
ATOM     96  C   UNL A   1      46.213  33.571  27.791  1.00  0.00     0.173 A 
ATOM     97  F   UNL A   1      46.657  31.946  31.016  1.00  0.00    -0.203 F 
ATOM     98  C   UNL A   1      47.133  34.152  30.346  1.00  0.00     0.198 A 
ATOM     99  C   UNL A   1      46.702  34.841  28.086  1.00  0.00     0.198 A 
ATOM    100  F   UNL A   1      45.769  33.322  26.551  1.00  0.00    -0.203 F 
ATOM    101  F   UNL A   1      47.544  34.440  31.588  1.00  0.00    -0.200 F 
ATOM    102  C   UNL A   1      47.154  35.132  29.365  1.00  0.00     0.200 A 
ATOM    103  F   UNL A   1      46.733  35.783  27.134  1.00  0.00    -0.200 F 
ATOM    104  F   UNL A   1      47.604  36.361  29.653  1.00  0.00    -0.200 F 
ENDBRANCH  71  94
ENDBRANCH  45  46
ENDBRANCH  37  40
ENDBRANCH  35  36
ENDBRANCH  34  35
ENDBRANCH  33  34
ENDBRANCH  32  33
ENDBRANCH   1  32
TORSDOF 18
ENDMDL
MODEL 3
REMARK VINA RESULT:     -12.0      1.104      2.926
REMARK SMILES CCN(C(=O)Cc1c(C(=O)NCCCCCCNC(=O)c2ccc(-c3c4nc(c(-c5c(F)c(F)c(F)c(F)c5F)c5ccc([nH]5)c(-c5c(F)c(F)c(F)c(F)c5F)c5nc(c(-c6c(F)c(F)c(F)c(F)c6F)c6ccc3[nH]6)C=C5)C=C4)cc2)[nH]c2ccc(Cl)cc12)c1ccc(C)c(C)c1
REMARK SMILES IDX 13 1 12 2 11 3 9 4 10 5 8 7 7 8 91 9 84 10 85 11 90 12 86 14
REMARK SMILES IDX 88 15 87 16 89 17 6 18 4 19 5 20 3 21 2 22 1 23 92 24 93 25
REMARK SMILES IDX 99 26 94 27 97 28 95 29 98 30 96 31 14 32 15 33 16 34 17 35
REMARK SMILES IDX 18 36 19 37 20 39 21 40 22 41 83 42 23 43 82 44 24 45 25 46
REMARK SMILES IDX 26 47 76 48 27 49 81 50 75 51 77 52 28 53 80 54 74 55 73 56
REMARK SMILES IDX 29 58 61 59 41 60 60 61 42 62 45 63 59 64 78 65 43 66 44 67
REMARK SMILES IDX 58 69 79 70 46 71 30 72 31 73 39 74 32 75 33 76 37 77 40 78
REMARK SMILES IDX 34 79 35 80 38 81 36 82 62 83 63 84 71 85 64 86 65 87 69 88
REMARK SMILES IDX 72 89 66 90 67 91 70 92 68 93 47 94 48 95 56 96 49 97 50 98
REMARK SMILES IDX 54 99 57 100 51 101 52 102 55 103 53 104
REMARK H PARENT 11 6 84 13 18 38 77 57 45 68
REMARK Flexibility Score: inf
ROOT
ATOM      1  C   UNL A   1      36.626  22.953  24.352  1.00  0.00     0.021 C 
ENDROOT
BRANCH   1   2
ATOM      2  C   UNL A   1      35.986  23.857  25.412  1.00  0.00     0.116 C 
BRANCH   2   3
ATOM      3  N   UNL A   1      34.699  23.342  25.801  1.00  0.00    -0.351 N 
ATOM      4  C   UNL A   1      33.471  23.893  26.013  1.00  0.00     0.268 C 
ATOM      5  O   UNL A   1      32.587  23.057  26.243  1.00  0.00    -0.268 OA
ATOM      6  H   UNL A   1      34.708  22.369  25.947  1.00  0.00     0.163 HD
BRANCH   4   7
ATOM      7  C   UNL A   1      33.110  25.303  25.943  1.00  0.00     0.109 A 
ATOM      8  C   UNL A   1      33.280  26.433  25.122  1.00  0.00    -0.000 A 
ATOM      9  C   UNL A   1      32.685  27.559  25.821  1.00  0.00     0.005 A 
ATOM     10  N   UNL A   1      32.408  25.756  27.052  1.00  0.00    -0.350 N 
ATOM     11  C   UNL A   1      32.110  27.082  26.990  1.00  0.00     0.046 A 
ATOM     12  C   UNL A   1      32.581  28.946  25.582  1.00  0.00     0.031 A 
ATOM     13  H   UNL A   1      32.151  25.176  27.805  1.00  0.00     0.167 HD
ATOM     14  C   UNL A   1      31.403  27.884  27.897  1.00  0.00     0.028 A 
ATOM     15  C   UNL A   1      31.882  29.768  26.471  1.00  0.00     0.041 A 
ATOM     16  C   UNL A   1      31.288  29.244  27.609  1.00  0.00     0.022 A 
ATOM     17  Cl  UNL A   1      31.765  31.456  26.142  1.00  0.00    -0.084 Cl
BRANCH   8  18
ATOM     18  C   UNL A   1      33.937  26.526  23.772  1.00  0.00     0.139 C 
BRANCH  18  19
ATOM     19  C   UNL A   1      33.129  26.048  22.578  1.00  0.00     0.231 C 
ATOM     20  O   UNL A   1      33.641  26.123  21.455  1.00  0.00    -0.274 OA
BRANCH  19  21
ATOM     21  N   UNL A   1      31.869  25.479  22.795  1.00  0.00    -0.312 N 
BRANCH  21  22
ATOM     22  C   UNL A   1      31.547  24.039  22.807  1.00  0.00     0.122 C 
ATOM     23  C   UNL A   1      32.703  23.103  22.454  1.00  0.00     0.028 C 
ENDBRANCH  21  22
BRANCH  21  24
ATOM     24  C   UNL A   1      30.780  26.378  22.939  1.00  0.00     0.044 A 
ATOM     25  C   UNL A   1      29.617  25.975  23.589  1.00  0.00     0.026 A 
ATOM     26  C   UNL A   1      30.860  27.652  22.372  1.00  0.00     0.030 A 
ATOM     27  C   UNL A   1      28.539  26.856  23.677  1.00  0.00     0.006 A 
ATOM     28  C   UNL A   1      29.789  28.552  22.467  1.00  0.00    -0.046 A 
ATOM     29  C   UNL A   1      28.613  28.151  23.129  1.00  0.00    -0.048 A 
ATOM     30  C   UNL A   1      29.936  29.910  21.840  1.00  0.00     0.044 C 
ATOM     31  C   UNL A   1      27.394  29.027  23.226  1.00  0.00     0.044 C 
ENDBRANCH  21  24
ENDBRANCH  19  21
ENDBRANCH  18  19
ENDBRANCH   8  18
ENDBRANCH   4   7
ENDBRANCH   2   3
ENDBRANCH   1   2
BRANCH   1  32
ATOM     32  C   UNL A   1      37.583  21.903  24.926  1.00  0.00     0.002 C 
BRANCH  32  33
ATOM     33  C   UNL A   1      37.142  20.451  24.707  1.00  0.00     0.002 C 
BRANCH  33  34
ATOM     34  C   UNL A   1      38.211  19.393  24.997  1.00  0.00     0.021 C 
BRANCH  34  35
ATOM     35  C   UNL A   1      39.210  19.778  26.085  1.00  0.00     0.116 C 
BRANCH  35  36
ATOM     36  N   UNL A   1      40.369  18.898  26.082  1.00  0.00    -0.352 N 
ATOM     37  C   UNL A   1      41.700  19.212  26.069  1.00  0.00     0.251 C 
ATOM     38  H   UNL A   1      40.165  17.935  26.093  1.00  0.00     0.163 HD
ATOM     39  O   UNL A   1      42.537  18.343  25.805  1.00  0.00    -0.269 OA
BRANCH  37  40
ATOM     40  C   UNL A   1      42.151  20.586  26.369  1.00  0.00     0.039 A 
ATOM     41  C   UNL A   1      42.489  20.919  27.684  1.00  0.00     0.014 A 
ATOM     42  C   UNL A   1      42.192  21.560  25.366  1.00  0.00     0.014 A 
ATOM     43  C   UNL A   1      42.910  22.215  27.986  1.00  0.00     0.010 A 
ATOM     44  C   UNL A   1      42.675  22.834  25.655  1.00  0.00     0.010 A 
ATOM     45  C   UNL A   1      43.026  23.177  26.970  1.00  0.00    -0.014 A 
BRANCH  45  46
ATOM     46  C   UNL A   1      43.494  24.554  27.266  1.00  0.00     0.031 A 
ATOM     47  C   UNL A   1      42.533  25.577  27.809  1.00  0.00     0.074 A 
ATOM     48  C   UNL A   1      44.766  24.901  26.990  1.00  0.00     0.049 A 
ATOM     49  N   UNL A   1      42.729  26.846  28.062  1.00  0.00    -0.248 NA
ATOM     50  C   UNL A   1      41.162  25.117  28.078  1.00  0.00     0.031 C 
ATOM     51  C   UNL A   1      45.778  24.011  26.419  1.00  0.00     0.029 A 
ATOM     52  N   UNL A   1      45.421  26.097  27.139  1.00  0.00    -0.354 N 
ATOM     53  C   UNL A   1      41.506  27.337  28.500  1.00  0.00     0.074 A 
ATOM     54  C   UNL A   1      40.562  26.243  28.435  1.00  0.00     0.031 C 
ATOM     55  C   UNL A   1      46.929  24.687  26.282  1.00  0.00     0.029 A 
ATOM     56  C   UNL A   1      46.729  26.064  26.722  1.00  0.00     0.049 A 
ATOM     57  H   UNL A   1      44.993  26.903  27.508  1.00  0.00     0.167 HD
ATOM     58  C   UNL A   1      41.205  28.583  28.938  1.00  0.00     0.037 A 
ATOM     59  C   UNL A   1      47.658  27.038  26.694  1.00  0.00     0.037 A 
ATOM     60  C   UNL A   1      42.155  29.660  29.032  1.00  0.00     0.049 A 
ATOM     61  C   UNL A   1      47.299  28.410  27.199  1.00  0.00     0.074 A 
ATOM     62  C   UNL A   1      41.963  30.941  29.520  1.00  0.00     0.029 A 
ATOM     63  N   UNL A   1      43.480  29.579  28.632  1.00  0.00    -0.354 N 
ATOM     64  N   UNL A   1      46.156  28.845  27.672  1.00  0.00    -0.248 NA
ATOM     65  C   UNL A   1      48.363  29.423  27.175  1.00  0.00     0.031 C 
ATOM     66  C   UNL A   1      43.161  31.647  29.378  1.00  0.00     0.029 A 
ATOM     67  C   UNL A   1      44.114  30.793  28.847  1.00  0.00     0.049 A 
ATOM     68  H   UNL A   1      43.909  28.777  28.252  1.00  0.00     0.167 HD
ATOM     69  C   UNL A   1      46.370  30.169  28.029  1.00  0.00     0.074 A 
ATOM     70  C   UNL A   1      47.757  30.462  27.732  1.00  0.00     0.031 C 
ATOM     71  C   UNL A   1      45.498  31.062  28.557  1.00  0.00     0.037 A 
BRANCH  58  72
ATOM     72  C   UNL A   1      39.788  28.850  29.356  1.00  0.00     0.064 A 
ATOM     73  C   UNL A   1      39.377  28.713  30.691  1.00  0.00     0.173 A 
ATOM     74  C   UNL A   1      38.840  29.291  28.421  1.00  0.00     0.173 A 
ATOM     75  F   UNL A   1      40.243  28.284  31.622  1.00  0.00    -0.203 F 
ATOM     76  C   UNL A   1      38.065  28.985  31.069  1.00  0.00     0.198 A 
ATOM     77  C   UNL A   1      37.536  29.589  28.807  1.00  0.00     0.198 A 
ATOM     78  F   UNL A   1      39.182  29.444  27.132  1.00  0.00    -0.203 F 
ATOM     79  F   UNL A   1      37.685  28.805  32.341  1.00  0.00    -0.200 F 
ATOM     80  C   UNL A   1      37.147  29.430  30.129  1.00  0.00     0.200 A 
ATOM     81  F   UNL A   1      36.654  30.031  27.900  1.00  0.00    -0.200 F 
ATOM     82  F   UNL A   1      35.887  29.700  30.495  1.00  0.00    -0.200 F 
ENDBRANCH  58  72
BRANCH  59  83
ATOM     83  C   UNL A   1      49.026  26.746  26.194  1.00  0.00     0.064 A 
ATOM     84  C   UNL A   1      49.350  26.923  24.841  1.00  0.00     0.173 A 
ATOM     85  C   UNL A   1      50.033  26.279  27.050  1.00  0.00     0.173 A 
ATOM     86  F   UNL A   1      48.414  27.350  23.980  1.00  0.00    -0.203 F 
ATOM     87  C   UNL A   1      50.621  26.621  24.360  1.00  0.00     0.198 A 
ATOM     88  C   UNL A   1      51.313  26.003  26.572  1.00  0.00     0.198 A 
ATOM     89  F   UNL A   1      49.777  26.099  28.354  1.00  0.00    -0.203 F 
ATOM     90  F   UNL A   1      50.890  26.754  23.054  1.00  0.00    -0.200 F 
ATOM     91  C   UNL A   1      51.604  26.166  25.226  1.00  0.00     0.200 A 
ATOM     92  F   UNL A   1      52.263  25.578  27.416  1.00  0.00    -0.200 F 
ATOM     93  F   UNL A   1      52.827  25.877  24.763  1.00  0.00    -0.200 F 
ENDBRANCH  59  83
BRANCH  71  94
ATOM     94  C   UNL A   1      46.027  32.428  28.883  1.00  0.00     0.064 A 
ATOM     95  C   UNL A   1      46.622  32.711  30.120  1.00  0.00     0.173 A 
ATOM     96  C   UNL A   1      45.968  33.455  27.928  1.00  0.00     0.173 A 
ATOM     97  F   UNL A   1      46.687  31.766  31.069  1.00  0.00    -0.203 F 
ATOM     98  C   UNL A   1      47.118  33.981  30.400  1.00  0.00     0.198 A 
ATOM     99  C   UNL A   1      46.491  34.716  28.201  1.00  0.00     0.198 A 
ATOM    100  F   UNL A   1      45.414  33.233  26.728  1.00  0.00    -0.203 F 
ATOM    101  F   UNL A   1      47.640  34.243  31.606  1.00  0.00    -0.200 F 
ATOM    102  C   UNL A   1      47.058  34.980  29.440  1.00  0.00     0.200 A 
ATOM    103  F   UNL A   1      46.444  35.676  27.268  1.00  0.00    -0.200 F 
ATOM    104  F   UNL A   1      47.540  36.201  29.709  1.00  0.00    -0.200 F 
ENDBRANCH  71  94
ENDBRANCH  45  46
ENDBRANCH  37  40
ENDBRANCH  35  36
ENDBRANCH  34  35
ENDBRANCH  33  34
ENDBRANCH  32  33
ENDBRANCH   1  32
TORSDOF 18
ENDMDL
