MODEL 1
REMARK VINA RESULT:     -12.7      0.000      0.000
REMARK SMILES O=C(NCCCCCCNC(=O)[C@@H]1CC2(CC[NH2+]CC2)C[N@H+]1Cc1cccc2nonc12)c1ccc(-c2c3nc(c(-c4c(F)c(F)c(F)c(F)c4F)c4ccc([nH]4)c(-c4c(F)c(F)c(F)c(F)c4F)c4nc(c(-c5c(F)c(F)c(F)c(F)c5F)c5ccc2[nH]5)C=C4)C=C3)cc1
REMARK SMILES IDX 6 1 5 2 4 3 3 4 1 5 2 6 33 8 34 9 95 10 35 11 94 12 36 13
REMARK SMILES IDX 37 14 38 15 88 16 39 17 93 18 87 19 89 20 40 21 92 22 86 23
REMARK SMILES IDX 85 24 41 26 73 27 53 28 72 29 54 30 57 31 71 32 90 33 55 34
REMARK SMILES IDX 56 35 70 37 91 38 58 39 42 40 43 41 51 42 44 43 45 44 49 45
REMARK SMILES IDX 52 46 46 47 47 48 50 49 48 50 74 51 75 52 83 53 76 54 77 55
REMARK SMILES IDX 81 56 84 57 78 58 79 59 82 60 80 61 59 62 60 63 68 64 61 65
REMARK SMILES IDX 62 66 66 67 69 68 63 69 64 70 67 71 65 72 7 73 8 74 9 75
REMARK SMILES IDX 10 76 11 77 12 79 13 80 14 81 22 82 15 83 21 84 16 86 20 87
REMARK SMILES IDX 17 88 19 89 18 90 23 93 24 94 25 95 32 96 26 97 28 98 31 99
REMARK SMILES IDX 27 100 29 101 30 102
REMARK H PARENT 3 7 89 25 57 36 10 78 22 85 18 91 18 92
REMARK Flexibility Score: inf
ROOT
ATOM      1  C   UNL A   1      36.668  22.932  23.332  1.00  0.00     0.002 C 
ENDROOT
BRANCH   1   2
ATOM      2  C   UNL A   1      37.262  21.928  24.335  1.00  0.00     0.021 C 
BRANCH   2   3
ATOM      3  C   UNL A   1      38.015  22.549  25.521  1.00  0.00     0.116 C 
BRANCH   3   4
ATOM      4  N   UNL A   1      38.809  21.539  26.202  1.00  0.00    -0.352 N 
ATOM      5  O   UNL A   1      40.707  20.446  26.664  1.00  0.00    -0.269 OA
ATOM      6  C   UNL A   1      40.135  21.533  26.527  1.00  0.00     0.251 C 
ATOM      7  H   UNL A   1      38.312  20.734  26.472  1.00  0.00     0.163 HD
BRANCH   6   8
ATOM      8  C   UNL A   1      40.892  22.775  26.789  1.00  0.00     0.039 A 
ATOM      9  C   UNL A   1      40.448  23.623  27.813  1.00  0.00     0.014 A 
ATOM     10  C   UNL A   1      41.894  23.209  25.918  1.00  0.00     0.014 A 
ATOM     11  C   UNL A   1      40.999  24.897  27.973  1.00  0.00     0.010 A 
ATOM     12  C   UNL A   1      42.442  24.485  26.077  1.00  0.00     0.010 A 
ATOM     13  C   UNL A   1      41.998  25.341  27.102  1.00  0.00    -0.014 A 
BRANCH  13  14
ATOM     14  C   UNL A   1      42.577  26.693  27.264  1.00  0.00     0.031 A 
ATOM     15  C   UNL A   1      41.605  27.809  27.344  1.00  0.00     0.074 A 
ATOM     16  C   UNL A   1      43.767  26.922  27.864  1.00  0.00     0.049 A 
ATOM     17  N   UNL A   1      41.054  28.111  28.477  1.00  0.00    -0.248 NA
ATOM     18  C   UNL A   1      41.045  28.525  26.204  1.00  0.00     0.031 C 
ATOM     19  C   UNL A   1      44.541  25.917  28.602  1.00  0.00     0.029 A 
ATOM     20  N   UNL A   1      44.437  28.105  28.105  1.00  0.00    -0.354 N 
ATOM     21  C   UNL A   1      40.014  28.973  28.216  1.00  0.00     0.074 A 
ATOM     22  C   UNL A   1      40.070  29.240  26.795  1.00  0.00     0.031 C 
ATOM     23  C   UNL A   1      45.513  26.538  29.300  1.00  0.00     0.029 A 
ATOM     24  C   UNL A   1      45.521  27.956  28.957  1.00  0.00     0.049 A 
ATOM     25  H   UNL A   1      44.172  28.968  27.711  1.00  0.00     0.167 HD
ATOM     26  C   UNL A   1      39.195  29.396  29.213  1.00  0.00     0.037 A 
ATOM     27  C   UNL A   1      46.126  28.900  29.724  1.00  0.00     0.037 A 
ATOM     28  C   UNL A   1      39.500  28.947  30.554  1.00  0.00     0.049 A 
ATOM     29  C   UNL A   1      45.049  29.386  30.644  1.00  0.00     0.074 A 
ATOM     30  C   UNL A   1      38.831  28.487  31.671  1.00  0.00     0.029 A 
ATOM     31  N   UNL A   1      40.824  28.928  30.888  1.00  0.00    -0.354 N 
ATOM     32  N   UNL A   1      44.668  28.772  31.735  1.00  0.00    -0.248 NA
ATOM     33  C   UNL A   1      44.186  30.506  30.237  1.00  0.00     0.031 C 
ATOM     34  C   UNL A   1      39.812  28.259  32.696  1.00  0.00     0.029 A 
ATOM     35  C   UNL A   1      41.054  28.618  32.198  1.00  0.00     0.049 A 
ATOM     36  H   UNL A   1      41.545  29.119  30.245  1.00  0.00     0.167 HD
ATOM     37  C   UNL A   1      43.393  29.258  31.981  1.00  0.00     0.074 A 
ATOM     38  C   UNL A   1      43.213  30.420  31.139  1.00  0.00     0.031 C 
ATOM     39  C   UNL A   1      42.431  28.529  32.612  1.00  0.00     0.037 A 
BRANCH  26  40
ATOM     40  C   UNL A   1      38.171  30.437  29.021  1.00  0.00     0.064 A 
ATOM     41  C   UNL A   1      36.979  30.078  28.374  1.00  0.00     0.173 A 
ATOM     42  C   UNL A   1      38.393  31.785  29.310  1.00  0.00     0.173 A 
ATOM     43  F   UNL A   1      36.729  28.789  28.093  1.00  0.00    -0.203 F 
ATOM     44  C   UNL A   1      36.053  31.041  27.992  1.00  0.00     0.198 A 
ATOM     45  C   UNL A   1      37.459  32.749  28.931  1.00  0.00     0.198 A 
ATOM     46  F   UNL A   1      39.520  32.168  29.925  1.00  0.00    -0.203 F 
ATOM     47  F   UNL A   1      34.936  30.676  27.349  1.00  0.00    -0.200 F 
ATOM     48  C   UNL A   1      36.298  32.378  28.262  1.00  0.00     0.200 A 
ATOM     49  F   UNL A   1      37.691  34.043  29.193  1.00  0.00    -0.200 F 
ATOM     50  F   UNL A   1      35.417  33.311  27.876  1.00  0.00    -0.200 F 
ENDBRANCH  26  40
BRANCH  27  51
ATOM     51  C   UNL A   1      47.110  29.797  29.042  1.00  0.00     0.064 A 
ATOM     52  C   UNL A   1      48.447  29.837  29.497  1.00  0.00     0.173 A 
ATOM     53  C   UNL A   1      46.800  30.675  27.990  1.00  0.00     0.173 A 
ATOM     54  F   UNL A   1      48.817  29.128  30.574  1.00  0.00    -0.203 F 
ATOM     55  C   UNL A   1      49.423  30.614  28.870  1.00  0.00     0.198 A 
ATOM     56  C   UNL A   1      47.783  31.431  27.345  1.00  0.00     0.198 A 
ATOM     57  F   UNL A   1      45.541  30.827  27.563  1.00  0.00    -0.203 F 
ATOM     58  F   UNL A   1      50.683  30.604  29.329  1.00  0.00    -0.200 F 
ATOM     59  C   UNL A   1      49.096  31.391  27.776  1.00  0.00     0.200 A 
ATOM     60  F   UNL A   1      47.447  32.195  26.295  1.00  0.00    -0.200 F 
ATOM     61  F   UNL A   1      50.036  32.109  27.147  1.00  0.00    -0.200 F 
ENDBRANCH  27  51
BRANCH  39  62
ATOM     62  C   UNL A   1      42.911  27.494  33.553  1.00  0.00     0.064 A 
ATOM     63  C   UNL A   1      42.802  27.721  34.934  1.00  0.00     0.173 A 
ATOM     64  C   UNL A   1      43.465  26.285  33.121  1.00  0.00     0.173 A 
ATOM     65  F   UNL A   1      42.249  28.855  35.392  1.00  0.00    -0.203 F 
ATOM     66  C   UNL A   1      43.237  26.772  35.850  1.00  0.00     0.198 A 
ATOM     67  C   UNL A   1      43.892  25.333  34.043  1.00  0.00     0.198 A 
ATOM     68  F   UNL A   1      43.594  26.020  31.811  1.00  0.00    -0.203 F 
ATOM     69  F   UNL A   1      43.117  27.008  37.165  1.00  0.00    -0.200 F 
ATOM     70  C   UNL A   1      43.778  25.578  35.405  1.00  0.00     0.200 A 
ATOM     71  F   UNL A   1      44.404  24.170  33.615  1.00  0.00    -0.200 F 
ATOM     72  F   UNL A   1      44.181  24.654  36.289  1.00  0.00    -0.200 F 
ENDBRANCH  39  62
ENDBRANCH  13  14
ENDBRANCH   6   8
ENDBRANCH   3   4
ENDBRANCH   2   3
ENDBRANCH   1   2
BRANCH   1  73
ATOM     73  C   UNL A   1      35.140  22.934  23.219  1.00  0.00     0.002 C 
BRANCH  73  74
ATOM     74  C   UNL A   1      34.466  24.284  23.491  1.00  0.00     0.021 C 
BRANCH  74  75
ATOM     75  C   UNL A   1      33.196  24.537  22.684  1.00  0.00     0.116 C 
BRANCH  75  76
ATOM     76  N   UNL A   1      32.061  23.800  23.202  1.00  0.00    -0.351 N 
ATOM     77  C   UNL A   1      30.829  24.304  23.488  1.00  0.00     0.278 C 
ATOM     78  H   UNL A   1      32.194  22.837  23.361  1.00  0.00     0.163 HD
ATOM     79  O   UNL A   1      29.874  23.719  22.960  1.00  0.00    -0.268 OA
BRANCH  77  80
ATOM     80  C   UNL A   1      30.564  25.426  24.524  1.00  0.00     0.275 C 
ATOM     81  C   UNL A   1      30.989  26.883  24.276  1.00  0.00     0.089 C 
ATOM     82  N   UNL A   1      31.252  25.122  25.798  1.00  0.00    -0.320 N 
ATOM     83  C   UNL A   1      31.835  27.299  25.506  1.00  0.00     0.036 C 
ATOM     84  C   UNL A   1      31.292  26.348  26.574  1.00  0.00     0.270 C 
ATOM     85  H   UNL A   1      32.201  24.823  25.573  1.00  0.00     0.349 HD
ATOM     86  C   UNL A   1      31.648  28.772  25.900  1.00  0.00     0.074 C 
ATOM     87  C   UNL A   1      33.349  27.037  25.260  1.00  0.00     0.074 C 
ATOM     88  C   UNL A   1      32.340  29.723  24.922  1.00  0.00     0.261 C 
ATOM     89  C   UNL A   1      33.986  28.069  24.331  1.00  0.00     0.261 C 
ATOM     90  N   UNL A   1      33.771  29.434  24.804  1.00  0.00    -0.346 N 
ATOM     91  H   UNL A   1      34.210  29.544  25.718  1.00  0.00     0.346 HD
ATOM     92  H   UNL A   1      34.181  30.083  24.133  1.00  0.00     0.346 HD
BRANCH  82  93
ATOM     93  C   UNL A   1      30.871  23.913  26.517  1.00  0.00     0.302 C 
BRANCH  93  94
ATOM     94  C   UNL A   1      32.082  23.020  26.618  1.00  0.00     0.038 A 
ATOM     95  C   UNL A   1      33.227  23.415  27.368  1.00  0.00     0.012 A 
ATOM     96  C   UNL A   1      32.257  21.788  25.950  1.00  0.00     0.144 A 
ATOM     97  C   UNL A   1      34.452  22.703  27.394  1.00  0.00     0.003 A 
ATOM     98  C   UNL A   1      33.521  21.059  25.973  1.00  0.00     0.135 A 
ATOM     99  N   UNL A   1      31.390  21.080  25.213  1.00  0.00    -0.049 NA
ATOM    100  C   UNL A   1      34.649  21.511  26.683  1.00  0.00     0.034 A 
ATOM    101  N   UNL A   1      33.391  19.959  25.221  1.00  0.00    -0.050 NA
ATOM    102  O   UNL A   1      32.089  19.981  24.750  1.00  0.00    -0.243 OA
ENDBRANCH  93  94
ENDBRANCH  82  93
ENDBRANCH  77  80
ENDBRANCH  75  76
ENDBRANCH  74  75
ENDBRANCH  73  74
ENDBRANCH   1  73
TORSDOF 15
ENDMDL
MODEL 2
REMARK VINA RESULT:     -12.5      2.928      7.947
REMARK SMILES O=C(NCCCCCCNC(=O)[C@@H]1CC2(CC[NH2+]CC2)C[N@H+]1Cc1cccc2nonc12)c1ccc(-c2c3nc(c(-c4c(F)c(F)c(F)c(F)c4F)c4ccc([nH]4)c(-c4c(F)c(F)c(F)c(F)c4F)c4nc(c(-c5c(F)c(F)c(F)c(F)c5F)c5ccc2[nH]5)C=C4)C=C3)cc1
REMARK SMILES IDX 6 1 5 2 4 3 3 4 1 5 2 6 33 8 34 9 95 10 35 11 94 12 36 13
REMARK SMILES IDX 37 14 38 15 88 16 39 17 93 18 87 19 89 20 40 21 92 22 86 23
REMARK SMILES IDX 85 24 41 26 73 27 53 28 72 29 54 30 57 31 71 32 90 33 55 34
REMARK SMILES IDX 56 35 70 37 91 38 58 39 42 40 43 41 51 42 44 43 45 44 49 45
REMARK SMILES IDX 52 46 46 47 47 48 50 49 48 50 74 51 75 52 83 53 76 54 77 55
REMARK SMILES IDX 81 56 84 57 78 58 79 59 82 60 80 61 59 62 60 63 68 64 61 65
REMARK SMILES IDX 62 66 66 67 69 68 63 69 64 70 67 71 65 72 7 73 8 74 9 75
REMARK SMILES IDX 10 76 11 77 12 79 13 80 14 81 22 82 15 83 21 84 16 86 20 87
REMARK SMILES IDX 17 88 19 89 18 90 23 93 24 94 25 95 32 96 26 97 28 98 31 99
REMARK SMILES IDX 27 100 29 101 30 102
REMARK H PARENT 3 7 89 25 57 36 10 78 22 85 18 91 18 92
REMARK Flexibility Score: inf
ROOT
ATOM      1  C   UNL A   1      32.358  28.836  27.207  1.00  0.00     0.002 C 
ENDROOT
BRANCH   1   2
ATOM      2  C   UNL A   1      32.638  30.341  27.048  1.00  0.00     0.021 C 
BRANCH   2   3
ATOM      3  C   UNL A   1      34.042  30.798  27.470  1.00  0.00     0.116 C 
BRANCH   3   4
ATOM      4  N   UNL A   1      34.027  32.202  27.847  1.00  0.00    -0.352 N 
ATOM      5  O   UNL A   1      34.006  33.891  29.315  1.00  0.00    -0.269 OA
ATOM      6  C   UNL A   1      34.511  32.819  28.963  1.00  0.00     0.251 C 
ATOM      7  H   UNL A   1      33.600  32.801  27.193  1.00  0.00     0.163 HD
BRANCH   6   8
ATOM      8  C   UNL A   1      35.662  32.290  29.724  1.00  0.00     0.039 A 
ATOM      9  C   UNL A   1      36.881  32.116  29.054  1.00  0.00     0.014 A 
ATOM     10  C   UNL A   1      35.503  31.778  31.014  1.00  0.00     0.014 A 
ATOM     11  C   UNL A   1      37.940  31.438  29.664  1.00  0.00     0.010 A 
ATOM     12  C   UNL A   1      36.561  31.096  31.621  1.00  0.00     0.010 A 
ATOM     13  C   UNL A   1      37.786  30.916  30.953  1.00  0.00    -0.014 A 
BRANCH  13  14
ATOM     14  C   UNL A   1      38.903  30.190  31.596  1.00  0.00     0.031 A 
ATOM     15  C   UNL A   1      39.201  28.844  31.051  1.00  0.00     0.074 A 
ATOM     16  C   UNL A   1      39.943  30.813  32.195  1.00  0.00     0.049 A 
ATOM     17  N   UNL A   1      39.964  28.719  30.011  1.00  0.00    -0.248 NA
ATOM     18  C   UNL A   1      38.562  27.602  31.470  1.00  0.00     0.031 C 
ATOM     19  C   UNL A   1      40.215  32.252  32.119  1.00  0.00     0.029 A 
ATOM     20  N   UNL A   1      41.057  30.292  32.824  1.00  0.00    -0.354 N 
ATOM     21  C   UNL A   1      39.846  27.423  29.564  1.00  0.00     0.074 A 
ATOM     22  C   UNL A   1      38.999  26.750  30.525  1.00  0.00     0.031 C 
ATOM     23  C   UNL A   1      41.461  32.487  32.579  1.00  0.00     0.029 A 
ATOM     24  C   UNL A   1      42.022  31.248  33.107  1.00  0.00     0.049 A 
ATOM     25  H   UNL A   1      41.157  29.339  33.050  1.00  0.00     0.167 HD
ATOM     26  C   UNL A   1      40.472  27.021  28.428  1.00  0.00     0.037 A 
ATOM     27  C   UNL A   1      43.351  31.067  33.315  1.00  0.00     0.037 A 
ATOM     28  C   UNL A   1      41.303  27.992  27.752  1.00  0.00     0.049 A 
ATOM     29  C   UNL A   1      43.854  30.458  32.042  1.00  0.00     0.074 A 
ATOM     30  C   UNL A   1      41.575  28.407  26.464  1.00  0.00     0.029 A 
ATOM     31  N   UNL A   1      42.066  28.787  28.559  1.00  0.00    -0.354 N 
ATOM     32  N   UNL A   1      44.136  31.131  30.955  1.00  0.00    -0.248 NA
ATOM     33  C   UNL A   1      43.849  28.997  31.875  1.00  0.00     0.031 C 
ATOM     34  C   UNL A   1      42.578  29.433  26.544  1.00  0.00     0.029 A 
ATOM     35  C   UNL A   1      42.924  29.599  27.875  1.00  0.00     0.049 A 
ATOM     36  H   UNL A   1      42.003  28.775  29.542  1.00  0.00     0.167 HD
ATOM     37  C   UNL A   1      44.074  30.190  29.938  1.00  0.00     0.074 A 
ATOM     38  C   UNL A   1      44.055  28.888  30.567  1.00  0.00     0.031 C 
ATOM     39  C   UNL A   1      43.726  30.504  28.659  1.00  0.00     0.037 A 
BRANCH  26  40
ATOM     40  C   UNL A   1      40.511  25.615  27.991  1.00  0.00     0.064 A 
ATOM     41  C   UNL A   1      39.397  25.106  27.305  1.00  0.00     0.173 A 
ATOM     42  C   UNL A   1      41.527  24.732  28.360  1.00  0.00     0.173 A 
ATOM     43  F   UNL A   1      38.408  25.930  26.925  1.00  0.00    -0.203 F 
ATOM     44  C   UNL A   1      39.284  23.749  27.030  1.00  0.00     0.198 A 
ATOM     45  C   UNL A   1      41.415  23.371  28.077  1.00  0.00     0.198 A 
ATOM     46  F   UNL A   1      42.606  25.178  29.018  1.00  0.00    -0.203 F 
ATOM     47  F   UNL A   1      38.198  23.283  26.400  1.00  0.00    -0.200 F 
ATOM     48  C   UNL A   1      40.289  22.879  27.424  1.00  0.00     0.200 A 
ATOM     49  F   UNL A   1      42.385  22.527  28.454  1.00  0.00    -0.200 F 
ATOM     50  F   UNL A   1      40.173  21.568  27.179  1.00  0.00    -0.200 F 
ENDBRANCH  26  40
BRANCH  27  51
ATOM     51  C   UNL A   1      43.767  30.614  34.679  1.00  0.00     0.064 A 
ATOM     52  C   UNL A   1      44.636  31.422  35.446  1.00  0.00     0.173 A 
ATOM     53  C   UNL A   1      43.404  29.389  35.262  1.00  0.00     0.173 A 
ATOM     54  F   UNL A   1      45.139  32.554  34.931  1.00  0.00    -0.203 F 
ATOM     55  C   UNL A   1      45.019  31.079  36.744  1.00  0.00     0.198 A 
ATOM     56  C   UNL A   1      43.763  29.059  36.571  1.00  0.00     0.198 A 
ATOM     57  F   UNL A   1      42.698  28.479  34.580  1.00  0.00    -0.203 F 
ATOM     58  F   UNL A   1      45.831  31.889  37.438  1.00  0.00    -0.200 F 
ATOM     59  C   UNL A   1      44.559  29.908  37.317  1.00  0.00     0.200 A 
ATOM     60  F   UNL A   1      43.325  27.910  37.109  1.00  0.00    -0.200 F 
ATOM     61  F   UNL A   1      44.892  29.593  38.576  1.00  0.00    -0.200 F 
ENDBRANCH  27  51
BRANCH  39  62
ATOM     62  C   UNL A   1      44.009  31.890  28.229  1.00  0.00     0.064 A 
ATOM     63  C   UNL A   1      45.101  32.134  27.381  1.00  0.00     0.173 A 
ATOM     64  C   UNL A   1      43.221  32.975  28.627  1.00  0.00     0.173 A 
ATOM     65  F   UNL A   1      45.864  31.118  26.950  1.00  0.00    -0.203 F 
ATOM     66  C   UNL A   1      45.397  33.421  26.951  1.00  0.00     0.198 A 
ATOM     67  C   UNL A   1      43.517  34.263  28.186  1.00  0.00     0.198 A 
ATOM     68  F   UNL A   1      42.168  32.795  29.439  1.00  0.00    -0.203 F 
ATOM     69  F   UNL A   1      46.441  33.630  26.136  1.00  0.00    -0.200 F 
ATOM     70  C   UNL A   1      44.603  34.484  27.351  1.00  0.00     0.200 A 
ATOM     71  F   UNL A   1      42.743  35.291  28.560  1.00  0.00    -0.200 F 
ATOM     72  F   UNL A   1      44.878  35.724  26.920  1.00  0.00    -0.200 F 
ENDBRANCH  39  62
ENDBRANCH  13  14
ENDBRANCH   6   8
ENDBRANCH   3   4
ENDBRANCH   2   3
ENDBRANCH   1   2
BRANCH   1  73
ATOM     73  C   UNL A   1      33.530  27.904  26.884  1.00  0.00     0.002 C 
BRANCH  73  74
ATOM     74  C   UNL A   1      33.189  26.713  25.981  1.00  0.00     0.021 C 
BRANCH  74  75
ATOM     75  C   UNL A   1      32.650  25.489  26.714  1.00  0.00     0.116 C 
BRANCH  75  76
ATOM     76  N   UNL A   1      31.225  25.314  26.517  1.00  0.00    -0.351 N 
ATOM     77  C   UNL A   1      30.553  24.131  26.466  1.00  0.00     0.278 C 
ATOM     78  H   UNL A   1      30.690  26.134  26.411  1.00  0.00     0.163 HD
ATOM     79  O   UNL A   1      29.587  24.030  27.234  1.00  0.00    -0.268 OA
BRANCH  77  80
ATOM     80  C   UNL A   1      30.827  23.016  25.425  1.00  0.00     0.275 C 
ATOM     81  C   UNL A   1      31.921  21.956  25.634  1.00  0.00     0.089 C 
ATOM     82  N   UNL A   1      31.222  23.608  24.128  1.00  0.00    -0.320 N 
ATOM     83  C   UNL A   1      32.808  21.998  24.364  1.00  0.00     0.036 C 
ATOM     84  C   UNL A   1      31.824  22.553  23.333  1.00  0.00     0.270 C 
ATOM     85  H   UNL A   1      31.912  24.336  24.318  1.00  0.00     0.349 HD
ATOM     86  C   UNL A   1      33.351  20.620  23.957  1.00  0.00     0.074 C 
ATOM     87  C   UNL A   1      34.009  22.971  24.551  1.00  0.00     0.074 C 
ATOM     88  C   UNL A   1      34.461  20.138  24.891  1.00  0.00     0.261 C 
ATOM     89  C   UNL A   1      35.110  22.390  25.437  1.00  0.00     0.261 C 
ATOM     90  N   UNL A   1      35.570  21.091  24.953  1.00  0.00    -0.346 N 
ATOM     91  H   UNL A   1      35.968  21.204  24.021  1.00  0.00     0.346 HD
ATOM     92  H   UNL A   1      36.275  20.732  25.598  1.00  0.00     0.346 HD
BRANCH  82  93
ATOM     93  C   UNL A   1      30.267  24.470  23.444  1.00  0.00     0.302 C 
BRANCH  93  94
ATOM     94  C   UNL A   1      30.866  25.850  23.336  1.00  0.00     0.038 A 
ATOM     95  C   UNL A   1      30.180  26.991  23.843  1.00  0.00     0.012 A 
ATOM     96  C   UNL A   1      32.073  26.176  22.679  1.00  0.00     0.144 A 
ATOM     97  C   UNL A   1      30.605  28.330  23.654  1.00  0.00     0.003 A 
ATOM     98  C   UNL A   1      32.506  27.556  22.479  1.00  0.00     0.135 A 
ATOM     99  N   UNL A   1      33.001  25.374  22.140  1.00  0.00    -0.049 NA
ATOM    100  C   UNL A   1      31.772  28.660  22.949  1.00  0.00     0.034 A 
ATOM    101  N   UNL A   1      33.656  27.545  21.795  1.00  0.00    -0.050 NA
ATOM    102  O   UNL A   1      33.951  26.209  21.581  1.00  0.00    -0.243 OA
ENDBRANCH  93  94
ENDBRANCH  82  93
ENDBRANCH  77  80
ENDBRANCH  75  76
ENDBRANCH  74  75
ENDBRANCH  73  74
ENDBRANCH   1  73
TORSDOF 15
ENDMDL
MODEL 3
REMARK VINA RESULT:     -12.3      5.290     10.557
REMARK SMILES O=C(NCCCCCCNC(=O)[C@@H]1CC2(CC[NH2+]CC2)C[N@H+]1Cc1cccc2nonc12)c1ccc(-c2c3nc(c(-c4c(F)c(F)c(F)c(F)c4F)c4ccc([nH]4)c(-c4c(F)c(F)c(F)c(F)c4F)c4nc(c(-c5c(F)c(F)c(F)c(F)c5F)c5ccc2[nH]5)C=C4)C=C3)cc1
REMARK SMILES IDX 6 1 5 2 4 3 3 4 1 5 2 6 33 8 34 9 95 10 35 11 94 12 36 13
REMARK SMILES IDX 37 14 38 15 88 16 39 17 93 18 87 19 89 20 40 21 92 22 86 23
REMARK SMILES IDX 85 24 41 26 73 27 53 28 72 29 54 30 57 31 71 32 90 33 55 34
REMARK SMILES IDX 56 35 70 37 91 38 58 39 42 40 43 41 51 42 44 43 45 44 49 45
REMARK SMILES IDX 52 46 46 47 47 48 50 49 48 50 74 51 75 52 83 53 76 54 77 55
REMARK SMILES IDX 81 56 84 57 78 58 79 59 82 60 80 61 59 62 60 63 68 64 61 65
REMARK SMILES IDX 62 66 66 67 69 68 63 69 64 70 67 71 65 72 7 73 8 74 9 75
REMARK SMILES IDX 10 76 11 77 12 79 13 80 14 81 22 82 15 83 21 84 16 86 20 87
REMARK SMILES IDX 17 88 19 89 18 90 23 93 24 94 25 95 32 96 26 97 28 98 31 99
REMARK SMILES IDX 27 100 29 101 30 102
REMARK H PARENT 3 7 89 25 57 36 10 78 22 85 18 91 18 92
REMARK Flexibility Score: inf
ROOT
ATOM      1  C   UNL A   1      43.897  33.230  25.120  1.00  0.00     0.002 C 
ENDROOT
BRANCH   1   2
ATOM      2  C   UNL A   1      44.614  34.475  24.569  1.00  0.00     0.021 C 
BRANCH   2   3
ATOM      3  C   UNL A   1      45.676  35.087  25.494  1.00  0.00     0.116 C 
BRANCH   3   4
ATOM      4  N   UNL A   1      45.169  36.301  26.114  1.00  0.00    -0.352 N 
ATOM      5  O   UNL A   1      43.579  37.575  27.040  1.00  0.00    -0.269 OA
ATOM      6  C   UNL A   1      44.144  36.478  26.998  1.00  0.00     0.251 C 
ATOM      7  H   UNL A   1      45.641  37.126  25.855  1.00  0.00     0.163 HD
BRANCH   6   8
ATOM      8  C   UNL A   1      43.734  35.427  27.954  1.00  0.00     0.039 A 
ATOM      9  C   UNL A   1      42.367  35.150  28.094  1.00  0.00     0.014 A 
ATOM     10  C   UNL A   1      44.648  34.866  28.848  1.00  0.00     0.014 A 
ATOM     11  C   UNL A   1      41.910  34.316  29.117  1.00  0.00     0.010 A 
ATOM     12  C   UNL A   1      44.189  34.035  29.875  1.00  0.00     0.010 A 
ATOM     13  C   UNL A   1      42.818  33.755  30.021  1.00  0.00    -0.014 A 
BRANCH  13  14
ATOM     14  C   UNL A   1      42.335  32.879  31.111  1.00  0.00     0.031 A 
ATOM     15  C   UNL A   1      40.926  33.077  31.525  1.00  0.00     0.074 A 
ATOM     16  C   UNL A   1      42.838  31.646  31.347  1.00  0.00     0.049 A 
ATOM     17  N   UNL A   1      39.970  32.488  30.879  1.00  0.00    -0.248 NA
ATOM     18  C   UNL A   1      40.464  34.041  32.516  1.00  0.00     0.031 C 
ATOM     19  C   UNL A   1      43.765  30.935  30.461  1.00  0.00     0.029 A 
ATOM     20  N   UNL A   1      42.499  30.708  32.302  1.00  0.00    -0.354 N 
ATOM     21  C   UNL A   1      38.784  33.053  31.286  1.00  0.00     0.074 A 
ATOM     22  C   UNL A   1      39.132  33.984  32.338  1.00  0.00     0.031 C 
ATOM     23  C   UNL A   1      43.837  29.644  30.846  1.00  0.00     0.029 A 
ATOM     24  C   UNL A   1      43.077  29.467  32.079  1.00  0.00     0.049 A 
ATOM     25  H   UNL A   1      41.906  30.900  33.064  1.00  0.00     0.167 HD
ATOM     26  C   UNL A   1      37.608  32.690  30.712  1.00  0.00     0.037 A 
ATOM     27  C   UNL A   1      42.664  28.253  32.526  1.00  0.00     0.037 A 
ATOM     28  C   UNL A   1      37.656  31.654  29.705  1.00  0.00     0.049 A 
ATOM     29  C   UNL A   1      41.291  28.085  31.951  1.00  0.00     0.074 A 
ATOM     30  C   UNL A   1      37.096  31.375  28.475  1.00  0.00     0.029 A 
ATOM     31  N   UNL A   1      38.497  30.609  29.967  1.00  0.00    -0.354 N 
ATOM     32  N   UNL A   1      41.039  27.697  30.727  1.00  0.00    -0.248 NA
ATOM     33  C   UNL A   1      40.120  28.572  32.694  1.00  0.00     0.031 C 
ATOM     34  C   UNL A   1      37.592  30.094  28.054  1.00  0.00     0.029 A 
ATOM     35  C   UNL A   1      38.415  29.598  29.052  1.00  0.00     0.049 A 
ATOM     36  H   UNL A   1      39.104  30.587  30.742  1.00  0.00     0.167 HD
ATOM     37  C   UNL A   1      39.751  28.145  30.478  1.00  0.00     0.074 A 
ATOM     38  C   UNL A   1      39.182  28.526  31.753  1.00  0.00     0.031 C 
ATOM     39  C   UNL A   1      39.311  28.484  29.235  1.00  0.00     0.037 A 
BRANCH  26  40
ATOM     40  C   UNL A   1      36.299  33.142  31.214  1.00  0.00     0.064 A 
ATOM     41  C   UNL A   1      35.574  34.057  30.435  1.00  0.00     0.173 A 
ATOM     42  C   UNL A   1      35.823  32.826  32.487  1.00  0.00     0.173 A 
ATOM     43  F   UNL A   1      35.998  34.373  29.201  1.00  0.00    -0.203 F 
ATOM     44  C   UNL A   1      34.428  34.667  30.929  1.00  0.00     0.198 A 
ATOM     45  C   UNL A   1      34.669  33.436  32.978  1.00  0.00     0.198 A 
ATOM     46  F   UNL A   1      36.488  31.959  33.263  1.00  0.00    -0.203 F 
ATOM     47  F   UNL A   1      33.769  35.559  30.177  1.00  0.00    -0.200 F 
ATOM     48  C   UNL A   1      33.980  34.364  32.205  1.00  0.00     0.200 A 
ATOM     49  F   UNL A   1      34.230  33.143  34.211  1.00  0.00    -0.200 F 
ATOM     50  F   UNL A   1      32.887  34.967  32.691  1.00  0.00    -0.200 F 
ENDBRANCH  26  40
BRANCH  27  51
ATOM     51  C   UNL A   1      43.033  27.888  33.930  1.00  0.00     0.064 A 
ATOM     52  C   UNL A   1      43.575  26.611  34.197  1.00  0.00     0.173 A 
ATOM     53  C   UNL A   1      42.829  28.708  35.051  1.00  0.00     0.173 A 
ATOM     54  F   UNL A   1      43.696  25.707  33.212  1.00  0.00    -0.203 F 
ATOM     55  C   UNL A   1      43.986  26.230  35.476  1.00  0.00     0.198 A 
ATOM     56  C   UNL A   1      43.266  28.338  36.326  1.00  0.00     0.198 A 
ATOM     57  F   UNL A   1      42.198  29.884  34.944  1.00  0.00    -0.203 F 
ATOM     58  F   UNL A   1      44.512  25.013  35.675  1.00  0.00    -0.200 F 
ATOM     59  C   UNL A   1      43.856  27.106  36.536  1.00  0.00     0.200 A 
ATOM     60  F   UNL A   1      43.117  29.192  37.350  1.00  0.00    -0.200 F 
ATOM     61  F   UNL A   1      44.283  26.761  37.758  1.00  0.00    -0.200 F 
ENDBRANCH  27  51
BRANCH  39  62
ATOM     62  C   UNL A   1      39.981  27.810  28.101  1.00  0.00     0.064 A 
ATOM     63  C   UNL A   1      39.815  26.426  27.933  1.00  0.00     0.173 A 
ATOM     64  C   UNL A   1      40.770  28.501  27.177  1.00  0.00     0.173 A 
ATOM     65  F   UNL A   1      39.040  25.729  28.779  1.00  0.00    -0.203 F 
ATOM     66  C   UNL A   1      40.422  25.757  26.879  1.00  0.00     0.198 A 
ATOM     67  C   UNL A   1      41.371  27.827  26.117  1.00  0.00     0.198 A 
ATOM     68  F   UNL A   1      40.963  29.824  27.295  1.00  0.00    -0.203 F 
ATOM     69  F   UNL A   1      40.245  24.436  26.735  1.00  0.00    -0.200 F 
ATOM     70  C   UNL A   1      41.197  26.458  25.970  1.00  0.00     0.200 A 
ATOM     71  F   UNL A   1      42.111  28.505  25.227  1.00  0.00    -0.200 F 
ATOM     72  F   UNL A   1      41.769  25.815  24.942  1.00  0.00    -0.200 F 
ENDBRANCH  39  62
ENDBRANCH  13  14
ENDBRANCH   6   8
ENDBRANCH   3   4
ENDBRANCH   2   3
ENDBRANCH   1   2
BRANCH   1  73
ATOM     73  C   UNL A   1      44.686  32.407  26.143  1.00  0.00     0.002 C 
BRANCH  73  74
ATOM     74  C   UNL A   1      43.878  31.337  26.885  1.00  0.00     0.021 C 
BRANCH  74  75
ATOM     75  C   UNL A   1      44.565  29.979  26.995  1.00  0.00     0.116 C 
BRANCH  75  76
ATOM     76  N   UNL A   1      45.825  29.942  26.280  1.00  0.00    -0.351 N 
ATOM     77  C   UNL A   1      46.414  28.845  25.731  1.00  0.00     0.278 C 
ATOM     78  H   UNL A   1      46.302  30.798  26.181  1.00  0.00     0.163 HD
ATOM     79  O   UNL A   1      46.725  28.944  24.536  1.00  0.00    -0.268 OA
BRANCH  77  80
ATOM     80  C   UNL A   1      46.841  27.589  26.533  1.00  0.00     0.275 C 
ATOM     81  C   UNL A   1      48.310  27.312  26.894  1.00  0.00     0.089 C 
ATOM     82  N   UNL A   1      46.473  26.359  25.797  1.00  0.00    -0.320 N 
ATOM     83  C   UNL A   1      48.616  25.881  26.384  1.00  0.00     0.036 C 
ATOM     84  C   UNL A   1      47.217  25.261  26.386  1.00  0.00     0.270 C 
ATOM     85  H   UNL A   1      46.752  26.486  24.824  1.00  0.00     0.349 HD
ATOM     86  C   UNL A   1      49.589  25.110  27.288  1.00  0.00     0.074 C 
ATOM     87  C   UNL A   1      49.197  25.914  24.940  1.00  0.00     0.074 C 
ATOM     88  C   UNL A   1      51.025  25.619  27.157  1.00  0.00     0.261 C 
ATOM     89  C   UNL A   1      50.657  26.362  24.898  1.00  0.00     0.261 C 
ATOM     90  N   UNL A   1      51.500  25.553  25.774  1.00  0.00    -0.346 N 
ATOM     91  H   UNL A   1      51.478  24.584  25.458  1.00  0.00     0.346 HD
ATOM     92  H   UNL A   1      52.453  25.915  25.738  1.00  0.00     0.346 HD
BRANCH  82  93
ATOM     93  C   UNL A   1      45.062  26.114  25.527  1.00  0.00     0.302 C 
BRANCH  93  94
ATOM     94  C   UNL A   1      44.408  25.650  26.805  1.00  0.00     0.038 A 
ATOM     95  C   UNL A   1      44.295  26.517  27.930  1.00  0.00     0.012 A 
ATOM     96  C   UNL A   1      43.931  24.346  27.061  1.00  0.00     0.144 A 
ATOM     97  C   UNL A   1      43.828  26.115  29.206  1.00  0.00     0.003 A 
ATOM     98  C   UNL A   1      43.456  23.932  28.378  1.00  0.00     0.135 A 
ATOM     99  N   UNL A   1      43.819  23.295  26.237  1.00  0.00    -0.049 NA
ATOM    100  C   UNL A   1      43.410  24.805  29.481  1.00  0.00     0.034 A 
ATOM    101  N   UNL A   1      43.111  22.640  28.318  1.00  0.00    -0.050 NA
ATOM    102  O   UNL A   1      43.344  22.251  27.010  1.00  0.00    -0.243 OA
ENDBRANCH  93  94
ENDBRANCH  82  93
ENDBRANCH  77  80
ENDBRANCH  75  76
ENDBRANCH  74  75
ENDBRANCH  73  74
ENDBRANCH   1  73
TORSDOF 15
ENDMDL
