MODEL 1
REMARK VINA RESULT:     -11.7      0.000      0.000
REMARK SMILES COc1ccc(F)cc1-c1cc(C(=O)NCCCCCCNC(=O)c2ccc(-c3c4nc(c(-c5c(F)c(F)c(F)c(F)c5F)c5ccc([nH]5)c(-c5c(F)c(F)c(F)c(F)c5F)c5nc(c(-c6c(F)c(F)c(F)c(F)c6F)c6ccc3[nH]6)C=C5)C=C4)cc2)n(C)n1
REMARK SMILES IDX 18 1 17 2 16 3 15 4 13 5 14 6 12 8 10 9 11 10 90 11 88 12
REMARK SMILES IDX 89 13 9 14 3 15 4 16 5 17 8 18 6 19 7 20 2 21 1 22 19 23
REMARK SMILES IDX 20 24 21 25 22 26 23 27 24 29 25 30 26 31 87 32 27 33 86 34
REMARK SMILES IDX 28 35 29 36 30 37 80 38 31 39 85 40 79 41 81 42 32 43 84 44
REMARK SMILES IDX 78 45 77 46 33 48 65 49 45 50 64 51 46 52 49 53 63 54 82 55
REMARK SMILES IDX 47 56 48 57 62 59 83 60 50 61 34 62 35 63 43 64 36 65 37 66
REMARK SMILES IDX 41 67 44 68 38 69 39 70 42 71 40 72 66 73 67 74 75 75 68 76
REMARK SMILES IDX 69 77 73 78 76 79 70 80 71 81 74 82 72 83 51 84 52 85 60 86
REMARK SMILES IDX 53 87 54 88 58 89 61 90 55 91 56 92 59 93 57 94
REMARK H PARENT 15 7 22 28 81 47 49 58
REMARK Flexibility Score: inf
ROOT
ATOM      1  C   UNL A   1      32.336  30.299  26.758  1.00  0.00     0.002 C 
ENDROOT
BRANCH   1   2
ATOM      2  C   UNL A   1      32.310  28.827  26.329  1.00  0.00     0.021 C 
BRANCH   2   3
ATOM      3  C   UNL A   1      32.301  27.847  27.506  1.00  0.00     0.116 C 
BRANCH   3   4
ATOM      4  N   UNL A   1      31.425  26.745  27.198  1.00  0.00    -0.351 N 
ATOM      5  C   UNL A   1      31.522  25.648  26.392  1.00  0.00     0.269 C 
ATOM      6  O   UNL A   1      30.497  24.959  26.364  1.00  0.00    -0.268 OA
ATOM      7  H   UNL A   1      30.565  26.793  27.675  1.00  0.00     0.163 HD
BRANCH   5   8
ATOM      8  C   UNL A   1      32.714  25.231  25.686  1.00  0.00     0.126 A 
ATOM      9  C   UNL A   1      34.570  24.036  25.226  1.00  0.00     0.097 A 
ATOM     10  C   UNL A   1      33.523  24.199  26.151  1.00  0.00     0.064 A 
ATOM     11  N   UNL A   1      34.496  24.975  24.279  1.00  0.00    -0.172 NA
ATOM     12  N   UNL A   1      33.283  25.542  24.473  1.00  0.00    -0.262 N 
ATOM     13  C   UNL A   1      32.718  26.182  23.310  1.00  0.00     0.174 C 
BRANCH   9  14
ATOM     14  C   UNL A   1      35.605  23.016  25.231  1.00  0.00     0.047 A 
ATOM     15  C   UNL A   1      35.309  21.686  24.869  1.00  0.00     0.128 A 
ATOM     16  C   UNL A   1      36.322  20.720  24.879  1.00  0.00     0.050 A 
ATOM     17  C   UNL A   1      37.614  21.072  25.274  1.00  0.00     0.043 A 
ATOM     18  C   UNL A   1      36.906  23.361  25.613  1.00  0.00     0.053 A 
ATOM     19  C   UNL A   1      37.893  22.385  25.637  1.00  0.00     0.124 A 
ATOM     20  F   UNL A   1      39.137  22.713  26.007  1.00  0.00    -0.207 F 
BRANCH  15  21
ATOM     21  O   UNL A   1      34.046  21.410  24.408  1.00  0.00    -0.496 OA
ATOM     22  C   UNL A   1      33.605  20.076  24.636  1.00  0.00     0.278 C 
ENDBRANCH  15  21
ENDBRANCH   9  14
ENDBRANCH   5   8
ENDBRANCH   3   4
ENDBRANCH   2   3
ENDBRANCH   1   2
BRANCH   1  23
ATOM     23  C   UNL A   1      31.335  31.196  26.022  1.00  0.00     0.002 C 
BRANCH  23  24
ATOM     24  C   UNL A   1      31.296  32.650  26.501  1.00  0.00     0.021 C 
BRANCH  24  25
ATOM     25  C   UNL A   1      32.500  33.071  27.341  1.00  0.00     0.116 C 
BRANCH  25  26
ATOM     26  N   UNL A   1      32.409  34.465  27.744  1.00  0.00    -0.352 N 
ATOM     27  C   UNL A   1      33.035  35.111  28.776  1.00  0.00     0.251 C 
ATOM     28  H   UNL A   1      31.813  35.025  27.195  1.00  0.00     0.163 HD
ATOM     29  O   UNL A   1      32.660  36.230  29.122  1.00  0.00    -0.269 OA
BRANCH  27  30
ATOM     30  C   UNL A   1      34.163  34.468  29.482  1.00  0.00     0.039 A 
ATOM     31  C   UNL A   1      35.460  34.651  28.993  1.00  0.00     0.014 A 
ATOM     32  C   UNL A   1      33.940  33.648  30.592  1.00  0.00     0.014 A 
ATOM     33  C   UNL A   1      36.536  34.039  29.638  1.00  0.00     0.010 A 
ATOM     34  C   UNL A   1      35.020  33.091  31.272  1.00  0.00     0.010 A 
ATOM     35  C   UNL A   1      36.326  33.268  30.792  1.00  0.00    -0.014 A 
BRANCH  35  36
ATOM     36  C   UNL A   1      37.458  32.609  31.489  1.00  0.00     0.031 A 
ATOM     37  C   UNL A   1      38.160  31.445  30.847  1.00  0.00     0.074 A 
ATOM     38  C   UNL A   1      37.827  33.031  32.714  1.00  0.00     0.049 A 
ATOM     39  N   UNL A   1      39.123  30.696  31.320  1.00  0.00    -0.248 NA
ATOM     40  C   UNL A   1      37.703  31.054  29.504  1.00  0.00     0.031 C 
ATOM     41  C   UNL A   1      37.201  34.129  33.452  1.00  0.00     0.029 A 
ATOM     42  N   UNL A   1      38.814  32.583  33.556  1.00  0.00    -0.354 N 
ATOM     43  C   UNL A   1      39.376  29.742  30.343  1.00  0.00     0.074 A 
ATOM     44  C   UNL A   1      38.435  29.975  29.270  1.00  0.00     0.031 C 
ATOM     45  C   UNL A   1      37.835  34.285  34.626  1.00  0.00     0.029 A 
ATOM     46  C   UNL A   1      38.887  33.279  34.738  1.00  0.00     0.049 A 
ATOM     47  H   UNL A   1      39.412  31.833  33.334  1.00  0.00     0.167 HD
ATOM     48  C   UNL A   1      40.324  28.776  30.333  1.00  0.00     0.037 A 
ATOM     49  C   UNL A   1      39.711  33.121  35.793  1.00  0.00     0.037 A 
ATOM     50  C   UNL A   1      41.283  28.573  31.386  1.00  0.00     0.049 A 
ATOM     51  C   UNL A   1      40.761  32.044  35.752  1.00  0.00     0.074 A 
ATOM     52  C   UNL A   1      42.311  27.648  31.447  1.00  0.00     0.029 A 
ATOM     53  N   UNL A   1      41.337  29.312  32.558  1.00  0.00    -0.354 N 
ATOM     54  N   UNL A   1      41.015  31.175  34.805  1.00  0.00    -0.248 NA
ATOM     55  C   UNL A   1      41.643  31.930  36.922  1.00  0.00     0.031 C 
ATOM     56  C   UNL A   1      42.966  27.805  32.672  1.00  0.00     0.029 A 
ATOM     57  C   UNL A   1      42.376  28.857  33.353  1.00  0.00     0.049 A 
ATOM     58  H   UNL A   1      40.728  30.050  32.791  1.00  0.00     0.167 HD
ATOM     59  C   UNL A   1      42.099  30.432  35.250  1.00  0.00     0.074 A 
ATOM     60  C   UNL A   1      42.463  30.958  36.549  1.00  0.00     0.031 C 
ATOM     61  C   UNL A   1      42.735  29.406  34.635  1.00  0.00     0.037 A 
BRANCH  48  62
ATOM     62  C   UNL A   1      40.392  27.872  29.139  1.00  0.00     0.064 A 
ATOM     63  C   UNL A   1      41.182  28.213  28.031  1.00  0.00     0.173 A 
ATOM     64  C   UNL A   1      39.617  26.706  29.060  1.00  0.00     0.173 A 
ATOM     65  F   UNL A   1      41.938  29.321  28.054  1.00  0.00    -0.203 F 
ATOM     66  C   UNL A   1      41.180  27.427  26.881  1.00  0.00     0.198 A 
ATOM     67  C   UNL A   1      39.638  25.908  27.919  1.00  0.00     0.198 A 
ATOM     68  F   UNL A   1      38.855  26.329  30.098  1.00  0.00    -0.203 F 
ATOM     69  F   UNL A   1      41.916  27.790  25.822  1.00  0.00    -0.200 F 
ATOM     70  C   UNL A   1      40.411  26.275  26.828  1.00  0.00     0.200 A 
ATOM     71  F   UNL A   1      38.912  24.782  27.878  1.00  0.00    -0.200 F 
ATOM     72  F   UNL A   1      40.415  25.515  25.723  1.00  0.00    -0.200 F 
ENDBRANCH  48  62
BRANCH  49  73
ATOM     73  C   UNL A   1      39.596  34.035  36.958  1.00  0.00     0.064 A 
ATOM     74  C   UNL A   1      40.276  35.261  36.995  1.00  0.00     0.173 A 
ATOM     75  C   UNL A   1      38.818  33.686  38.069  1.00  0.00     0.173 A 
ATOM     76  F   UNL A   1      41.038  35.639  35.959  1.00  0.00    -0.203 F 
ATOM     77  C   UNL A   1      40.191  36.097  38.107  1.00  0.00     0.198 A 
ATOM     78  C   UNL A   1      38.713  34.533  39.169  1.00  0.00     0.198 A 
ATOM     79  F   UNL A   1      38.135  32.531  38.071  1.00  0.00    -0.203 F 
ATOM     80  F   UNL A   1      40.873  37.250  38.130  1.00  0.00    -0.200 F 
ATOM     81  C   UNL A   1      39.405  35.735  39.191  1.00  0.00     0.200 A 
ATOM     82  F   UNL A   1      37.934  34.190  40.205  1.00  0.00    -0.200 F 
ATOM     83  F   UNL A   1      39.312  36.545  40.254  1.00  0.00    -0.200 F 
ENDBRANCH  49  73
BRANCH  61  84
ATOM     84  C   UNL A   1      43.915  28.797  35.334  1.00  0.00     0.064 A 
ATOM     85  C   UNL A   1      45.217  29.211  35.014  1.00  0.00     0.173 A 
ATOM     86  C   UNL A   1      43.763  27.750  36.253  1.00  0.00     0.173 A 
ATOM     87  F   UNL A   1      45.414  30.204  34.133  1.00  0.00    -0.203 F 
ATOM     88  C   UNL A   1      46.325  28.585  35.576  1.00  0.00     0.198 A 
ATOM     89  C   UNL A   1      44.874  27.143  36.834  1.00  0.00     0.198 A 
ATOM     90  F   UNL A   1      42.537  27.328  36.598  1.00  0.00    -0.203 F 
ATOM     91  F   UNL A   1      47.560  28.972  35.230  1.00  0.00    -0.200 F 
ATOM     92  C   UNL A   1      46.153  27.554  36.488  1.00  0.00     0.200 A 
ATOM     93  F   UNL A   1      44.706  26.162  37.730  1.00  0.00    -0.200 F 
ATOM     94  F   UNL A   1      47.220  26.956  37.034  1.00  0.00    -0.200 F 
ENDBRANCH  61  84
ENDBRANCH  35  36
ENDBRANCH  27  30
ENDBRANCH  25  26
ENDBRANCH  24  25
ENDBRANCH  23  24
ENDBRANCH   1  23
TORSDOF 15
ENDMDL
MODEL 2
REMARK VINA RESULT:     -11.5      1.046      7.439
REMARK SMILES COc1ccc(F)cc1-c1cc(C(=O)NCCCCCCNC(=O)c2ccc(-c3c4nc(c(-c5c(F)c(F)c(F)c(F)c5F)c5ccc([nH]5)c(-c5c(F)c(F)c(F)c(F)c5F)c5nc(c(-c6c(F)c(F)c(F)c(F)c6F)c6ccc3[nH]6)C=C5)C=C4)cc2)n(C)n1
REMARK SMILES IDX 18 1 17 2 16 3 15 4 13 5 14 6 12 8 10 9 11 10 90 11 88 12
REMARK SMILES IDX 89 13 9 14 3 15 4 16 5 17 8 18 6 19 7 20 2 21 1 22 19 23
REMARK SMILES IDX 20 24 21 25 22 26 23 27 24 29 25 30 26 31 87 32 27 33 86 34
REMARK SMILES IDX 28 35 29 36 30 37 80 38 31 39 85 40 79 41 81 42 32 43 84 44
REMARK SMILES IDX 78 45 77 46 33 48 65 49 45 50 64 51 46 52 49 53 63 54 82 55
REMARK SMILES IDX 47 56 48 57 62 59 83 60 50 61 34 62 35 63 43 64 36 65 37 66
REMARK SMILES IDX 41 67 44 68 38 69 39 70 42 71 40 72 66 73 67 74 75 75 68 76
REMARK SMILES IDX 69 77 73 78 76 79 70 80 71 81 74 82 72 83 51 84 52 85 60 86
REMARK SMILES IDX 53 87 54 88 58 89 61 90 55 91 56 92 59 93 57 94
REMARK H PARENT 15 7 22 28 81 47 49 58
REMARK Flexibility Score: inf
ROOT
ATOM      1  C   UNL A   1      32.220  29.952  27.060  1.00  0.00     0.002 C 
ENDROOT
BRANCH   1   2
ATOM      2  C   UNL A   1      31.757  28.504  27.257  1.00  0.00     0.021 C 
BRANCH   2   3
ATOM      3  C   UNL A   1      32.372  27.523  26.257  1.00  0.00     0.116 C 
BRANCH   3   4
ATOM      4  N   UNL A   1      31.374  27.144  25.289  1.00  0.00    -0.351 N 
ATOM      5  C   UNL A   1      31.377  26.355  24.176  1.00  0.00     0.269 C 
ATOM      6  O   UNL A   1      30.298  26.338  23.575  1.00  0.00    -0.268 OA
ATOM      7  H   UNL A   1      30.492  27.543  25.472  1.00  0.00     0.163 HD
BRANCH   5   8
ATOM      8  C   UNL A   1      32.479  25.523  23.743  1.00  0.00     0.126 A 
ATOM      9  C   UNL A   1      34.077  23.937  23.848  1.00  0.00     0.097 A 
ATOM     10  C   UNL A   1      33.065  24.581  24.582  1.00  0.00     0.064 A 
ATOM     11  N   UNL A   1      34.203  24.504  22.645  1.00  0.00    -0.172 NA
ATOM     12  N   UNL A   1      33.119  25.306  22.545  1.00  0.00    -0.262 N 
ATOM     13  C   UNL A   1      32.709  25.610  21.195  1.00  0.00     0.174 C 
BRANCH   9  14
ATOM     14  C   UNL A   1      34.896  22.812  24.267  1.00  0.00     0.047 A 
ATOM     15  C   UNL A   1      34.334  21.529  24.424  1.00  0.00     0.128 A 
ATOM     16  C   UNL A   1      35.140  20.459  24.828  1.00  0.00     0.050 A 
ATOM     17  C   UNL A   1      36.493  20.674  25.100  1.00  0.00     0.043 A 
ATOM     18  C   UNL A   1      36.255  23.014  24.531  1.00  0.00     0.053 A 
ATOM     19  C   UNL A   1      37.036  21.945  24.950  1.00  0.00     0.124 A 
ATOM     20  F   UNL A   1      38.336  22.138  25.208  1.00  0.00    -0.207 F 
BRANCH  15  21
ATOM     21  O   UNL A   1      33.021  21.353  24.062  1.00  0.00    -0.496 OA
ATOM     22  C   UNL A   1      32.175  20.870  25.100  1.00  0.00     0.278 C 
ENDBRANCH  15  21
ENDBRANCH   9  14
ENDBRANCH   5   8
ENDBRANCH   3   4
ENDBRANCH   2   3
ENDBRANCH   1   2
BRANCH   1  23
ATOM     23  C   UNL A   1      31.282  30.814  26.209  1.00  0.00     0.002 C 
BRANCH  23  24
ATOM     24  C   UNL A   1      31.326  32.314  26.514  1.00  0.00     0.021 C 
BRANCH  24  25
ATOM     25  C   UNL A   1      32.657  32.805  27.079  1.00  0.00     0.116 C 
BRANCH  25  26
ATOM     26  N   UNL A   1      32.536  34.135  27.652  1.00  0.00    -0.352 N 
ATOM     27  C   UNL A   1      33.177  34.672  28.736  1.00  0.00     0.251 C 
ATOM     28  H   UNL A   1      31.904  34.736  27.195  1.00  0.00     0.163 HD
ATOM     29  O   UNL A   1      32.779  35.728  29.229  1.00  0.00    -0.269 OA
BRANCH  27  30
ATOM     30  C   UNL A   1      34.348  33.989  29.323  1.00  0.00     0.039 A 
ATOM     31  C   UNL A   1      34.140  32.961  30.246  1.00  0.00     0.014 A 
ATOM     32  C   UNL A   1      35.648  34.393  29.002  1.00  0.00     0.014 A 
ATOM     33  C   UNL A   1      35.235  32.314  30.822  1.00  0.00     0.010 A 
ATOM     34  C   UNL A   1      36.739  33.705  29.529  1.00  0.00     0.010 A 
ATOM     35  C   UNL A   1      36.542  32.670  30.455  1.00  0.00    -0.014 A 
BRANCH  35  36
ATOM     36  C   UNL A   1      37.717  31.995  31.059  1.00  0.00     0.031 A 
ATOM     37  C   UNL A   1      38.176  32.377  32.440  1.00  0.00     0.074 A 
ATOM     38  C   UNL A   1      38.395  31.071  30.352  1.00  0.00     0.049 A 
ATOM     39  N   UNL A   1      39.215  31.953  33.113  1.00  0.00    -0.248 NA
ATOM     40  C   UNL A   1      37.375  33.388  33.148  1.00  0.00     0.031 C 
ATOM     41  C   UNL A   1      38.065  30.640  28.993  1.00  0.00     0.029 A 
ATOM     42  N   UNL A   1      39.504  30.330  30.677  1.00  0.00    -0.354 N 
ATOM     43  C   UNL A   1      39.199  32.652  34.312  1.00  0.00     0.074 A 
ATOM     44  C   UNL A   1      38.077  33.562  34.259  1.00  0.00     0.031 C 
ATOM     45  C   UNL A   1      38.937  29.693  28.609  1.00  0.00     0.029 A 
ATOM     46  C   UNL A   1      39.906  29.475  29.679  1.00  0.00     0.049 A 
ATOM     47  H   UNL A   1      39.967  30.405  31.541  1.00  0.00     0.167 HD
ATOM     48  C   UNL A   1      40.032  32.527  35.372  1.00  0.00     0.037 A 
ATOM     49  C   UNL A   1      40.941  28.613  29.635  1.00  0.00     0.037 A 
ATOM     50  C   UNL A   1      41.124  31.593  35.437  1.00  0.00     0.049 A 
ATOM     51  C   UNL A   1      41.846  28.488  30.830  1.00  0.00     0.074 A 
ATOM     52  C   UNL A   1      41.997  31.361  36.485  1.00  0.00     0.029 A 
ATOM     53  N   UNL A   1      41.487  30.730  34.414  1.00  0.00    -0.354 N 
ATOM     54  N   UNL A   1      41.796  29.127  31.974  1.00  0.00    -0.248 NA
ATOM     55  C   UNL A   1      42.948  27.519  30.733  1.00  0.00     0.031 C 
ATOM     56  C   UNL A   1      42.910  30.381  36.084  1.00  0.00     0.029 A 
ATOM     57  C   UNL A   1      42.577  29.971  34.804  1.00  0.00     0.049 A 
ATOM     58  H   UNL A   1      41.037  30.667  33.540  1.00  0.00     0.167 HD
ATOM     59  C   UNL A   1      42.837  28.619  32.739  1.00  0.00     0.074 A 
ATOM     60  C   UNL A   1      43.497  27.612  31.935  1.00  0.00     0.031 C 
ATOM     61  C   UNL A   1      43.209  28.959  33.997  1.00  0.00     0.037 A 
BRANCH  48  62
ATOM     62  C   UNL A   1      39.789  33.404  36.563  1.00  0.00     0.064 A 
ATOM     63  C   UNL A   1      38.872  33.023  37.555  1.00  0.00     0.173 A 
ATOM     64  C   UNL A   1      40.407  34.658  36.686  1.00  0.00     0.173 A 
ATOM     65  F   UNL A   1      38.250  31.836  37.481  1.00  0.00    -0.203 F 
ATOM     66  C   UNL A   1      38.571  33.873  38.616  1.00  0.00     0.198 A 
ATOM     67  C   UNL A   1      40.123  35.493  37.764  1.00  0.00     0.198 A 
ATOM     68  F   UNL A   1      41.301  35.063  35.772  1.00  0.00    -0.203 F 
ATOM     69  F   UNL A   1      37.667  33.502  39.533  1.00  0.00    -0.200 F 
ATOM     70  C   UNL A   1      39.198  35.104  38.721  1.00  0.00     0.200 A 
ATOM     71  F   UNL A   1      40.748  36.673  37.876  1.00  0.00    -0.200 F 
ATOM     72  F   UNL A   1      38.913  35.918  39.747  1.00  0.00    -0.200 F 
ENDBRANCH  48  62
BRANCH  49  73
ATOM     73  C   UNL A   1      41.147  27.773  28.427  1.00  0.00     0.064 A 
ATOM     74  C   UNL A   1      42.016  28.170  27.400  1.00  0.00     0.173 A 
ATOM     75  C   UNL A   1      40.460  26.563  28.270  1.00  0.00     0.173 A 
ATOM     76  F   UNL A   1      42.693  29.323  27.500  1.00  0.00    -0.203 F 
ATOM     77  C   UNL A   1      42.177  27.393  26.255  1.00  0.00     0.198 A 
ATOM     78  C   UNL A   1      40.641  25.774  27.137  1.00  0.00     0.198 A 
ATOM     79  F   UNL A   1      39.633  26.133  29.235  1.00  0.00    -0.203 F 
ATOM     80  F   UNL A   1      42.990  27.808  25.274  1.00  0.00    -0.200 F 
ATOM     81  C   UNL A   1      41.494  26.192  26.127  1.00  0.00     0.200 A 
ATOM     82  F   UNL A   1      39.997  24.604  27.027  1.00  0.00    -0.200 F 
ATOM     83  F   UNL A   1      41.660  25.439  25.031  1.00  0.00    -0.200 F 
ENDBRANCH  49  73
BRANCH  61  84
ATOM     84  C   UNL A   1      44.362  28.218  34.607  1.00  0.00     0.064 A 
ATOM     85  C   UNL A   1      44.140  27.042  35.339  1.00  0.00     0.173 A 
ATOM     86  C   UNL A   1      45.671  28.716  34.541  1.00  0.00     0.173 A 
ATOM     87  F   UNL A   1      42.903  26.532  35.438  1.00  0.00    -0.203 F 
ATOM     88  C   UNL A   1      45.184  26.400  35.997  1.00  0.00     0.198 A 
ATOM     89  C   UNL A   1      46.718  28.057  35.179  1.00  0.00     0.198 A 
ATOM     90  F   UNL A   1      45.934  29.831  33.843  1.00  0.00    -0.203 F 
ATOM     91  F   UNL A   1      44.943  25.298  36.720  1.00  0.00    -0.200 F 
ATOM     92  C   UNL A   1      46.472  26.906  35.915  1.00  0.00     0.200 A 
ATOM     93  F   UNL A   1      47.966  28.534  35.081  1.00  0.00    -0.200 F 
ATOM     94  F   UNL A   1      47.479  26.285  36.543  1.00  0.00    -0.200 F 
ENDBRANCH  61  84
ENDBRANCH  35  36
ENDBRANCH  27  30
ENDBRANCH  25  26
ENDBRANCH  24  25
ENDBRANCH  23  24
ENDBRANCH   1  23
TORSDOF 15
ENDMDL
MODEL 3
REMARK VINA RESULT:     -11.4      5.469     11.290
REMARK SMILES COc1ccc(F)cc1-c1cc(C(=O)NCCCCCCNC(=O)c2ccc(-c3c4nc(c(-c5c(F)c(F)c(F)c(F)c5F)c5ccc([nH]5)c(-c5c(F)c(F)c(F)c(F)c5F)c5nc(c(-c6c(F)c(F)c(F)c(F)c6F)c6ccc3[nH]6)C=C5)C=C4)cc2)n(C)n1
REMARK SMILES IDX 18 1 17 2 16 3 15 4 13 5 14 6 12 8 10 9 11 10 90 11 88 12
REMARK SMILES IDX 89 13 9 14 3 15 4 16 5 17 8 18 6 19 7 20 2 21 1 22 19 23
REMARK SMILES IDX 20 24 21 25 22 26 23 27 24 29 25 30 26 31 87 32 27 33 86 34
REMARK SMILES IDX 28 35 29 36 30 37 80 38 31 39 85 40 79 41 81 42 32 43 84 44
REMARK SMILES IDX 78 45 77 46 33 48 65 49 45 50 64 51 46 52 49 53 63 54 82 55
REMARK SMILES IDX 47 56 48 57 62 59 83 60 50 61 34 62 35 63 43 64 36 65 37 66
REMARK SMILES IDX 41 67 44 68 38 69 39 70 42 71 40 72 66 73 67 74 75 75 68 76
REMARK SMILES IDX 69 77 73 78 76 79 70 80 71 81 74 82 72 83 51 84 52 85 60 86
REMARK SMILES IDX 53 87 54 88 58 89 61 90 55 91 56 92 59 93 57 94
REMARK H PARENT 15 7 22 28 81 47 49 58
REMARK Flexibility Score: inf
ROOT
ATOM      1  C   UNL A   1      35.882  20.530  25.007  1.00  0.00     0.002 C 
ENDROOT
BRANCH   1   2
ATOM      2  C   UNL A   1      35.281  21.415  26.106  1.00  0.00     0.021 C 
BRANCH   2   3
ATOM      3  C   UNL A   1      33.775  21.214  26.297  1.00  0.00     0.116 C 
BRANCH   3   4
ATOM      4  N   UNL A   1      33.099  21.486  25.053  1.00  0.00    -0.351 N 
ATOM      5  C   UNL A   1      32.249  22.463  24.624  1.00  0.00     0.269 C 
ATOM      6  O   UNL A   1      31.837  22.294  23.472  1.00  0.00    -0.268 OA
ATOM      7  H   UNL A   1      33.295  20.817  24.356  1.00  0.00     0.163 HD
BRANCH   5   8
ATOM      8  C   UNL A   1      31.898  23.652  25.369  1.00  0.00     0.126 A 
ATOM      9  C   UNL A   1      31.838  25.835  25.929  1.00  0.00     0.097 A 
ATOM     10  C   UNL A   1      32.390  24.908  25.027  1.00  0.00     0.064 A 
ATOM     11  N   UNL A   1      31.119  25.200  26.858  1.00  0.00    -0.172 NA
ATOM     12  N   UNL A   1      31.017  23.936  26.387  1.00  0.00    -0.262 N 
ATOM     13  C   UNL A   1      29.881  23.194  26.877  1.00  0.00     0.174 C 
BRANCH   9  14
ATOM     14  C   UNL A   1      31.980  27.282  25.909  1.00  0.00     0.047 A 
ATOM     15  C   UNL A   1      31.252  28.065  24.989  1.00  0.00     0.128 A 
ATOM     16  C   UNL A   1      31.402  29.456  24.987  1.00  0.00     0.050 A 
ATOM     17  C   UNL A   1      32.292  30.060  25.878  1.00  0.00     0.043 A 
ATOM     18  C   UNL A   1      32.860  27.898  26.806  1.00  0.00     0.053 A 
ATOM     19  C   UNL A   1      33.010  29.278  26.776  1.00  0.00     0.124 A 
ATOM     20  F   UNL A   1      33.855  29.868  27.630  1.00  0.00    -0.207 F 
BRANCH  15  21
ATOM     21  O   UNL A   1      30.329  27.432  24.194  1.00  0.00    -0.496 OA
ATOM     22  C   UNL A   1      30.613  27.475  22.800  1.00  0.00     0.278 C 
ENDBRANCH  15  21
ENDBRANCH   9  14
ENDBRANCH   5   8
ENDBRANCH   3   4
ENDBRANCH   2   3
ENDBRANCH   1   2
BRANCH   1  23
ATOM     23  C   UNL A   1      37.343  20.839  24.666  1.00  0.00     0.002 C 
BRANCH  23  24
ATOM     24  C   UNL A   1      38.335  19.720  24.997  1.00  0.00     0.021 C 
BRANCH  24  25
ATOM     25  C   UNL A   1      39.322  20.059  26.111  1.00  0.00     0.116 C 
BRANCH  25  26
ATOM     26  N   UNL A   1      40.445  19.137  26.129  1.00  0.00    -0.352 N 
ATOM     27  C   UNL A   1      41.787  19.407  26.112  1.00  0.00     0.251 C 
ATOM     28  H   UNL A   1      40.207  18.182  26.159  1.00  0.00     0.163 HD
ATOM     29  O   UNL A   1      42.596  18.507  25.887  1.00  0.00    -0.269 OA
BRANCH  27  30
ATOM     30  C   UNL A   1      42.274  20.780  26.362  1.00  0.00     0.039 A 
ATOM     31  C   UNL A   1      42.534  21.177  27.676  1.00  0.00     0.014 A 
ATOM     32  C   UNL A   1      42.427  21.688  25.309  1.00  0.00     0.014 A 
ATOM     33  C   UNL A   1      42.981  22.475  27.933  1.00  0.00     0.010 A 
ATOM     34  C   UNL A   1      42.933  22.961  25.559  1.00  0.00     0.010 A 
ATOM     35  C   UNL A   1      43.200  23.371  26.874  1.00  0.00    -0.014 A 
BRANCH  35  36
ATOM     36  C   UNL A   1      43.671  24.755  27.129  1.00  0.00     0.031 A 
ATOM     37  C   UNL A   1      42.712  25.794  27.640  1.00  0.00     0.074 A 
ATOM     38  C   UNL A   1      44.949  25.086  26.862  1.00  0.00     0.049 A 
ATOM     39  N   UNL A   1      42.913  27.068  27.861  1.00  0.00    -0.248 NA
ATOM     40  C   UNL A   1      41.337  25.347  27.916  1.00  0.00     0.031 C 
ATOM     41  C   UNL A   1      45.964  24.173  26.333  1.00  0.00     0.029 A 
ATOM     42  N   UNL A   1      45.611  26.281  26.994  1.00  0.00    -0.354 N 
ATOM     43  C   UNL A   1      41.693  27.575  28.287  1.00  0.00     0.074 A 
ATOM     44  C   UNL A   1      40.743  26.484  28.250  1.00  0.00     0.031 C 
ATOM     45  C   UNL A   1      47.126  24.835  26.209  1.00  0.00     0.029 A 
ATOM     46  C   UNL A   1      46.931  26.224  26.616  1.00  0.00     0.049 A 
ATOM     47  H   UNL A   1      45.181  27.101  27.326  1.00  0.00     0.167 HD
ATOM     48  C   UNL A   1      41.398  28.831  28.696  1.00  0.00     0.037 A 
ATOM     49  C   UNL A   1      47.875  27.185  26.600  1.00  0.00     0.037 A 
ATOM     50  C   UNL A   1      42.354  29.903  28.769  1.00  0.00     0.049 A 
ATOM     51  C   UNL A   1      47.523  28.571  27.068  1.00  0.00     0.074 A 
ATOM     52  C   UNL A   1      42.162  31.200  29.213  1.00  0.00     0.029 A 
ATOM     53  N   UNL A   1      43.686  29.799  28.397  1.00  0.00    -0.354 N 
ATOM     54  N   UNL A   1      46.375  29.027  27.506  1.00  0.00    -0.248 NA
ATOM     55  C   UNL A   1      48.597  29.574  27.046  1.00  0.00     0.031 C 
ATOM     56  C   UNL A   1      43.368  31.891  29.078  1.00  0.00     0.029 A 
ATOM     57  C   UNL A   1      44.324  31.013  28.593  1.00  0.00     0.049 A 
ATOM     58  H   UNL A   1      44.114  28.986  28.046  1.00  0.00     0.167 HD
ATOM     59  C   UNL A   1      46.594  30.357  27.837  1.00  0.00     0.074 A 
ATOM     60  C   UNL A   1      47.988  30.634  27.559  1.00  0.00     0.031 C 
ATOM     61  C   UNL A   1      45.717  31.265  28.328  1.00  0.00     0.037 A 
BRANCH  48  62
ATOM     62  C   UNL A   1      39.989  29.119  29.120  1.00  0.00     0.064 A 
ATOM     63  C   UNL A   1      39.619  29.034  30.471  1.00  0.00     0.173 A 
ATOM     64  C   UNL A   1      38.987  29.404  28.181  1.00  0.00     0.173 A 
ATOM     65  F   UNL A   1      40.538  28.758  31.408  1.00  0.00    -0.203 F 
ATOM     66  C   UNL A   1      38.294  29.209  30.863  1.00  0.00     0.198 A 
ATOM     67  C   UNL A   1      37.668  29.605  28.580  1.00  0.00     0.198 A 
ATOM     68  F   UNL A   1      39.292  29.510  26.879  1.00  0.00    -0.203 F 
ATOM     69  F   UNL A   1      37.958  29.090  32.155  1.00  0.00    -0.200 F 
ATOM     70  C   UNL A   1      37.322  29.497  29.918  1.00  0.00     0.200 A 
ATOM     71  F   UNL A   1      36.734  29.907  27.668  1.00  0.00    -0.200 F 
ATOM     72  F   UNL A   1      36.048  29.672  30.297  1.00  0.00    -0.200 F 
ENDBRANCH  48  62
BRANCH  49  73
ATOM     73  C   UNL A   1      49.255  26.853  26.160  1.00  0.00     0.064 A 
ATOM     74  C   UNL A   1      49.654  27.008  24.825  1.00  0.00     0.173 A 
ATOM     75  C   UNL A   1      50.195  26.353  27.070  1.00  0.00     0.173 A 
ATOM     76  F   UNL A   1      48.790  27.478  23.914  1.00  0.00    -0.203 F 
ATOM     77  C   UNL A   1      50.940  26.662  24.415  1.00  0.00     0.198 A 
ATOM     78  C   UNL A   1      51.488  26.031  26.665  1.00  0.00     0.198 A 
ATOM     79  F   UNL A   1      49.864  26.206  28.362  1.00  0.00    -0.203 F 
ATOM     80  F   UNL A   1      51.289  26.792  23.128  1.00  0.00    -0.200 F 
ATOM     81  C   UNL A   1      51.858  26.179  25.336  1.00  0.00     0.200 A 
ATOM     82  F   UNL A   1      52.379  25.586  27.562  1.00  0.00    -0.200 F 
ATOM     83  F   UNL A   1      53.099  25.859  24.943  1.00  0.00    -0.200 F 
ENDBRANCH  49  73
BRANCH  61  84
ATOM     84  C   UNL A   1      46.235  32.640  28.635  1.00  0.00     0.064 A 
ATOM     85  C   UNL A   1      46.704  32.948  29.920  1.00  0.00     0.173 A 
ATOM     86  C   UNL A   1      46.186  33.670  27.685  1.00  0.00     0.173 A 
ATOM     87  F   UNL A   1      46.761  31.998  30.865  1.00  0.00    -0.203 F 
ATOM     88  C   UNL A   1      47.090  34.244  30.249  1.00  0.00     0.198 A 
ATOM     89  C   UNL A   1      46.598  34.959  28.010  1.00  0.00     0.198 A 
ATOM     90  F   UNL A   1      45.755  33.419  26.439  1.00  0.00    -0.203 F 
ATOM     91  F   UNL A   1      47.502  34.525  31.493  1.00  0.00    -0.200 F 
ATOM     92  C   UNL A   1      47.040  35.248  29.293  1.00  0.00     0.200 A 
ATOM     93  F   UNL A   1      46.569  35.923  27.080  1.00  0.00    -0.200 F 
ATOM     94  F   UNL A   1      47.417  36.494  29.608  1.00  0.00    -0.200 F 
ENDBRANCH  61  84
ENDBRANCH  35  36
ENDBRANCH  27  30
ENDBRANCH  25  26
ENDBRANCH  24  25
ENDBRANCH  23  24
ENDBRANCH   1  23
TORSDOF 15
ENDMDL
