MODEL 1
REMARK VINA RESULT:     -11.6      0.000      0.000
REMARK SMILES CCOc1ccc([C@H](C)[C@](O)(C(=O)NCCCCCCNC(=O)c2ccc(-c3c4nc(c(-c5c(F)c(F)c(F)c(F)c5F)c5ccc([nH]5)c(-c5c(F)c(F)c(F)c(F)c5F)c5nc(c(-c6c(F)c(F)c(F)c(F)c6F)c6ccc3[nH]6)C=C5)C=C4)cc2)C(C)C)cc1
REMARK SMILES IDX 16 1 15 2 14 3 12 4 13 5 10 7 8 8 9 9 7 10 4 11 5 12 91 13
REMARK SMILES IDX 6 14 90 15 3 16 2 17 1 18 87 19 88 20 89 21 11 22 17 24
REMARK SMILES IDX 18 25 19 26 20 27 21 28 22 29 23 31 24 32 25 33 86 34 26 35
REMARK SMILES IDX 85 36 27 37 28 38 29 39 79 40 30 41 84 42 78 43 80 44 31 45
REMARK SMILES IDX 83 46 77 47 76 48 32 50 64 51 44 52 63 53 45 54 48 55 62 56
REMARK SMILES IDX 81 57 46 58 47 59 61 61 82 62 49 63 33 64 34 65 42 66 35 67
REMARK SMILES IDX 36 68 40 69 43 70 37 71 38 72 41 73 39 74 65 75 66 76 74 77
REMARK SMILES IDX 67 78 68 79 72 80 75 81 69 82 70 83 73 84 71 85 50 86 51 87
REMARK SMILES IDX 59 88 52 89 53 90 57 91 60 92 54 93 55 94 58 95 56 96
REMARK H PARENT 14 6 11 23 21 30 80 49 48 60
REMARK Flexibility Score: inf
ROOT
ATOM      1  C   UNL A   1      33.365  28.595  27.304  1.00  0.00     0.021 C 
ENDROOT
BRANCH   1   2
ATOM      2  C   UNL A   1      33.070  27.376  26.439  1.00  0.00     0.116 C 
BRANCH   2   3
ATOM      3  N   UNL A   1      31.730  26.853  26.658  1.00  0.00    -0.354 N 
ATOM      4  C   UNL A   1      31.159  25.681  26.234  1.00  0.00     0.252 C 
ATOM      5  O   UNL A   1      30.010  25.447  26.616  1.00  0.00    -0.272 OA
ATOM      6  H   UNL A   1      31.141  27.431  27.194  1.00  0.00     0.163 HD
BRANCH   4   7
ATOM      7  C   UNL A   1      31.963  24.695  25.318  1.00  0.00     0.151 C 
BRANCH   7   8
ATOM      8  C   UNL A   1      31.507  25.021  23.823  1.00  0.00     0.058 C 
ATOM      9  C   UNL A   1      30.551  23.907  23.321  1.00  0.00     0.016 C 
BRANCH   8  10
ATOM     10  C   UNL A   1      31.008  26.437  23.484  1.00  0.00    -0.041 A 
ATOM     11  C   UNL A   1      30.053  29.032  22.880  1.00  0.00     0.119 A 
ATOM     12  C   UNL A   1      31.407  28.753  22.783  1.00  0.00     0.047 A 
ATOM     13  C   UNL A   1      29.161  28.012  23.171  1.00  0.00     0.047 A 
ATOM     14  C   UNL A   1      31.872  27.463  23.064  1.00  0.00     0.008 A 
ATOM     15  C   UNL A   1      29.633  26.736  23.482  1.00  0.00     0.008 A 
BRANCH  11  16
ATOM     16  O   UNL A   1      29.618  30.292  22.588  1.00  0.00    -0.494 OA
BRANCH  16  17
ATOM     17  C   UNL A   1      29.107  30.972  23.744  1.00  0.00     0.226 C 
ATOM     18  C   UNL A   1      27.786  31.666  23.449  1.00  0.00     0.049 C 
ENDBRANCH  16  17
ENDBRANCH  11  16
ENDBRANCH   8  10
ENDBRANCH   7   8
BRANCH   7  19
ATOM     19  C   UNL A   1      33.511  24.835  25.553  1.00  0.00     0.025 C 
ATOM     20  C   UNL A   1      34.083  23.744  26.480  1.00  0.00     0.011 C 
ATOM     21  C   UNL A   1      34.332  24.789  24.256  1.00  0.00     0.011 C 
ENDBRANCH   7  19
BRANCH   7  22
ATOM     22  O   UNL A   1      31.568  23.381  25.753  1.00  0.00    -0.379 OA
ATOM     23  H   UNL A   1      31.706  23.302  26.709  1.00  0.00     0.212 HD
ENDBRANCH   7  22
ENDBRANCH   4   7
ENDBRANCH   2   3
ENDBRANCH   1   2
BRANCH   1  24
ATOM     24  C   UNL A   1      33.246  29.936  26.574  1.00  0.00     0.002 C 
BRANCH  24  25
ATOM     25  C   UNL A   1      31.815  30.420  26.321  1.00  0.00     0.002 C 
BRANCH  25  26
ATOM     26  C   UNL A   1      31.556  31.894  26.641  1.00  0.00     0.021 C 
BRANCH  26  27
ATOM     27  C   UNL A   1      32.699  32.609  27.354  1.00  0.00     0.116 C 
BRANCH  27  28
ATOM     28  N   UNL A   1      32.403  34.011  27.607  1.00  0.00    -0.352 N 
ATOM     29  C   UNL A   1      32.969  34.875  28.509  1.00  0.00     0.251 C 
ATOM     30  H   UNL A   1      31.691  34.398  27.046  1.00  0.00     0.163 HD
ATOM     31  O   UNL A   1      32.470  35.980  28.707  1.00  0.00    -0.269 OA
BRANCH  29  32
ATOM     32  C   UNL A   1      34.165  34.462  29.271  1.00  0.00     0.039 A 
ATOM     33  C   UNL A   1      33.994  33.904  30.541  1.00  0.00     0.014 A 
ATOM     34  C   UNL A   1      35.445  34.607  28.732  1.00  0.00     0.014 A 
ATOM     35  C   UNL A   1      35.103  33.411  31.232  1.00  0.00     0.010 A 
ATOM     36  C   UNL A   1      36.539  34.052  29.389  1.00  0.00     0.010 A 
ATOM     37  C   UNL A   1      36.375  33.435  30.639  1.00  0.00    -0.014 A 
BRANCH  37  38
ATOM     38  C   UNL A   1      37.536  32.772  31.285  1.00  0.00     0.031 A 
ATOM     39  C   UNL A   1      38.215  31.607  30.624  1.00  0.00     0.074 A 
ATOM     40  C   UNL A   1      37.926  33.173  32.511  1.00  0.00     0.049 A 
ATOM     41  N   UNL A   1      39.181  30.846  31.076  1.00  0.00    -0.248 NA
ATOM     42  C   UNL A   1      37.728  31.231  29.288  1.00  0.00     0.031 C 
ATOM     43  C   UNL A   1      37.316  34.262  33.274  1.00  0.00     0.029 A 
ATOM     44  N   UNL A   1      38.913  32.700  33.339  1.00  0.00    -0.354 N 
ATOM     45  C   UNL A   1      39.416  29.905  30.083  1.00  0.00     0.074 A 
ATOM     46  C   UNL A   1      38.453  30.153  29.031  1.00  0.00     0.031 C 
ATOM     47  C   UNL A   1      37.947  34.382  34.452  1.00  0.00     0.029 A 
ATOM     48  C   UNL A   1      38.973  33.348  34.549  1.00  0.00     0.049 A 
ATOM     49  H   UNL A   1      39.520  31.965  33.090  1.00  0.00     0.167 HD
ATOM     50  C   UNL A   1      40.364  28.937  30.045  1.00  0.00     0.037 A 
ATOM     51  C   UNL A   1      39.750  33.122  35.625  1.00  0.00     0.037 A 
ATOM     52  C   UNL A   1      41.317  28.695  31.097  1.00  0.00     0.049 A 
ATOM     53  C   UNL A   1      40.764  32.012  35.577  1.00  0.00     0.074 A 
ATOM     54  C   UNL A   1      42.345  27.770  31.134  1.00  0.00     0.029 A 
ATOM     55  N   UNL A   1      41.348  29.374  32.308  1.00  0.00    -0.354 N 
ATOM     56  N   UNL A   1      41.027  31.174  34.604  1.00  0.00    -0.248 NA
ATOM     57  C   UNL A   1      41.591  31.817  36.775  1.00  0.00     0.031 C 
ATOM     58  C   UNL A   1      42.962  27.850  32.387  1.00  0.00     0.029 A 
ATOM     59  C   UNL A   1      42.358  28.864  33.111  1.00  0.00     0.049 A 
ATOM     60  H   UNL A   1      40.743  30.109  32.559  1.00  0.00     0.167 HD
ATOM     61  C   UNL A   1      42.058  30.366  35.063  1.00  0.00     0.074 A 
ATOM     62  C   UNL A   1      42.390  30.830  36.394  1.00  0.00     0.031 C 
ATOM     63  C   UNL A   1      42.672  29.332  34.438  1.00  0.00     0.037 A 
BRANCH  50  64
ATOM     64  C   UNL A   1      40.412  28.064  28.824  1.00  0.00     0.064 A 
ATOM     65  C   UNL A   1      41.177  28.413  27.700  1.00  0.00     0.173 A 
ATOM     66  C   UNL A   1      39.714  26.847  28.787  1.00  0.00     0.173 A 
ATOM     67  F   UNL A   1      41.858  29.568  27.679  1.00  0.00    -0.203 F 
ATOM     68  C   UNL A   1      41.212  27.595  26.572  1.00  0.00     0.198 A 
ATOM     69  C   UNL A   1      39.779  26.016  27.671  1.00  0.00     0.198 A 
ATOM     70  F   UNL A   1      38.974  26.459  29.836  1.00  0.00    -0.203 F 
ATOM     71  F   UNL A   1      41.906  27.978  25.491  1.00  0.00    -0.200 F 
ATOM     72  C   UNL A   1      40.519  26.395  26.562  1.00  0.00     0.200 A 
ATOM     73  F   UNL A   1      39.121  24.848  27.669  1.00  0.00    -0.200 F 
ATOM     74  F   UNL A   1      40.559  25.606  25.479  1.00  0.00    -0.200 F 
ENDBRANCH  50  64
BRANCH  51  75
ATOM     75  C   UNL A   1      39.591  33.964  36.840  1.00  0.00     0.064 A 
ATOM     76  C   UNL A   1      40.235  35.204  36.948  1.00  0.00     0.173 A 
ATOM     77  C   UNL A   1      38.789  33.549  37.914  1.00  0.00     0.173 A 
ATOM     78  F   UNL A   1      41.029  35.636  35.958  1.00  0.00    -0.203 F 
ATOM     79  C   UNL A   1      40.096  35.990  38.091  1.00  0.00     0.198 A 
ATOM     80  C   UNL A   1      38.625  34.350  39.042  1.00  0.00     0.198 A 
ATOM     81  F   UNL A   1      38.147  32.374  37.858  1.00  0.00    -0.203 F 
ATOM     82  F   UNL A   1      40.757  37.152  38.188  1.00  0.00    -0.200 F 
ATOM     83  C   UNL A   1      39.285  35.566  39.133  1.00  0.00     0.200 A 
ATOM     84  F   UNL A   1      37.826  33.944  40.038  1.00  0.00    -0.200 F 
ATOM     85  F   UNL A   1      39.145  36.326  40.228  1.00  0.00    -0.200 F 
ENDBRANCH  51  75
BRANCH  63  86
ATOM     86  C   UNL A   1      43.779  28.637  35.180  1.00  0.00     0.064 A 
ATOM     87  C   UNL A   1      45.106  29.089  35.111  1.00  0.00     0.173 A 
ATOM     88  C   UNL A   1      43.502  27.537  36.006  1.00  0.00     0.173 A 
ATOM     89  F   UNL A   1      45.426  30.126  34.323  1.00  0.00    -0.203 F 
ATOM     90  C   UNL A   1      46.118  28.451  35.825  1.00  0.00     0.198 A 
ATOM     91  C   UNL A   1      44.511  26.922  36.744  1.00  0.00     0.198 A 
ATOM     92  F   UNL A   1      42.250  27.068  36.111  1.00  0.00    -0.203 F 
ATOM     93  F   UNL A   1      47.384  28.871  35.708  1.00  0.00    -0.200 F 
ATOM     94  C   UNL A   1      45.817  27.376  36.647  1.00  0.00     0.200 A 
ATOM     95  F   UNL A   1      44.217  25.893  37.550  1.00  0.00    -0.200 F 
ATOM     96  F   UNL A   1      46.790  26.771  37.344  1.00  0.00    -0.200 F 
ENDBRANCH  63  86
ENDBRANCH  37  38
ENDBRANCH  29  32
ENDBRANCH  27  28
ENDBRANCH  26  27
ENDBRANCH  25  26
ENDBRANCH  24  25
ENDBRANCH   1  24
TORSDOF 19
ENDMDL
MODEL 2
REMARK VINA RESULT:     -11.6      0.497      7.331
REMARK SMILES CCOc1ccc([C@H](C)[C@](O)(C(=O)NCCCCCCNC(=O)c2ccc(-c3c4nc(c(-c5c(F)c(F)c(F)c(F)c5F)c5ccc([nH]5)c(-c5c(F)c(F)c(F)c(F)c5F)c5nc(c(-c6c(F)c(F)c(F)c(F)c6F)c6ccc3[nH]6)C=C5)C=C4)cc2)C(C)C)cc1
REMARK SMILES IDX 16 1 15 2 14 3 12 4 13 5 10 7 8 8 9 9 7 10 4 11 5 12 91 13
REMARK SMILES IDX 6 14 90 15 3 16 2 17 1 18 87 19 88 20 89 21 11 22 17 24
REMARK SMILES IDX 18 25 19 26 20 27 21 28 22 29 23 31 24 32 25 33 86 34 26 35
REMARK SMILES IDX 85 36 27 37 28 38 29 39 79 40 30 41 84 42 78 43 80 44 31 45
REMARK SMILES IDX 83 46 77 47 76 48 32 50 64 51 44 52 63 53 45 54 48 55 62 56
REMARK SMILES IDX 81 57 46 58 47 59 61 61 82 62 49 63 33 64 34 65 42 66 35 67
REMARK SMILES IDX 36 68 40 69 43 70 37 71 38 72 41 73 39 74 65 75 66 76 74 77
REMARK SMILES IDX 67 78 68 79 72 80 75 81 69 82 70 83 73 84 71 85 50 86 51 87
REMARK SMILES IDX 59 88 52 89 53 90 57 91 60 92 54 93 55 94 58 95 56 96
REMARK H PARENT 14 6 11 23 21 30 80 49 48 60
REMARK Flexibility Score: inf
ROOT
ATOM      1  C   UNL A   1      32.962  28.771  27.272  1.00  0.00     0.021 C 
ENDROOT
BRANCH   1   2
ATOM      2  C   UNL A   1      32.841  27.455  26.513  1.00  0.00     0.116 C 
BRANCH   2   3
ATOM      3  N   UNL A   1      31.547  26.818  26.712  1.00  0.00    -0.354 N 
ATOM      4  C   UNL A   1      31.076  25.614  26.257  1.00  0.00     0.252 C 
ATOM      5  O   UNL A   1      29.950  25.276  26.628  1.00  0.00    -0.272 OA
ATOM      6  H   UNL A   1      30.911  27.333  27.260  1.00  0.00     0.163 HD
BRANCH   4   7
ATOM      7  C   UNL A   1      31.962  24.720  25.321  1.00  0.00     0.151 C 
BRANCH   7   8
ATOM      8  C   UNL A   1      31.501  25.062  23.831  1.00  0.00     0.058 C 
ATOM      9  C   UNL A   1      30.581  23.930  23.303  1.00  0.00     0.016 C 
BRANCH   8  10
ATOM     10  C   UNL A   1      30.960  26.469  23.519  1.00  0.00    -0.041 A 
ATOM     11  C   UNL A   1      29.928  29.045  22.964  1.00  0.00     0.119 A 
ATOM     12  C   UNL A   1      31.289  28.807  22.855  1.00  0.00     0.047 A 
ATOM     13  C   UNL A   1      29.067  27.995  23.241  1.00  0.00     0.047 A 
ATOM     14  C   UNL A   1      31.792  27.527  23.112  1.00  0.00     0.008 A 
ATOM     15  C   UNL A   1      29.577  26.728  23.529  1.00  0.00     0.008 A 
BRANCH  11  16
ATOM     16  O   UNL A   1      29.455  30.297  22.695  1.00  0.00    -0.494 OA
BRANCH  16  17
ATOM     17  C   UNL A   1      28.031  30.385  22.853  1.00  0.00     0.226 C 
ATOM     18  C   UNL A   1      27.624  31.663  23.571  1.00  0.00     0.049 C 
ENDBRANCH  16  17
ENDBRANCH  11  16
ENDBRANCH   8  10
ENDBRANCH   7   8
BRANCH   7  19
ATOM     19  C   UNL A   1      33.492  24.964  25.584  1.00  0.00     0.025 C 
ATOM     20  C   UNL A   1      34.137  23.876  26.464  1.00  0.00     0.011 C 
ATOM     21  C   UNL A   1      34.327  25.045  24.297  1.00  0.00     0.011 C 
ENDBRANCH   7  19
BRANCH   7  22
ATOM     22  O   UNL A   1      31.658  23.367  25.707  1.00  0.00    -0.379 OA
ATOM     23  H   UNL A   1      30.993  23.374  26.413  1.00  0.00     0.212 HD
ENDBRANCH   7  22
ENDBRANCH   4   7
ENDBRANCH   2   3
ENDBRANCH   1   2
BRANCH   1  24
ATOM     24  C   UNL A   1      32.980  30.017  26.383  1.00  0.00     0.002 C 
BRANCH  24  25
ATOM     25  C   UNL A   1      31.607  30.621  26.073  1.00  0.00     0.002 C 
BRANCH  25  26
ATOM     26  C   UNL A   1      31.388  32.048  26.582  1.00  0.00     0.021 C 
BRANCH  26  27
ATOM     27  C   UNL A   1      32.591  32.675  27.278  1.00  0.00     0.116 C 
BRANCH  27  28
ATOM     28  N   UNL A   1      32.381  34.081  27.588  1.00  0.00    -0.352 N 
ATOM     29  C   UNL A   1      32.985  34.867  28.536  1.00  0.00     0.251 C 
ATOM     30  H   UNL A   1      31.705  34.536  27.035  1.00  0.00     0.163 HD
ATOM     31  O   UNL A   1      32.554  35.991  28.775  1.00  0.00    -0.269 OA
BRANCH  29  32
ATOM     32  C   UNL A   1      34.140  34.345  29.296  1.00  0.00     0.039 A 
ATOM     33  C   UNL A   1      33.909  33.706  30.517  1.00  0.00     0.014 A 
ATOM     34  C   UNL A   1      35.440  34.468  28.800  1.00  0.00     0.014 A 
ATOM     35  C   UNL A   1      34.974  33.114  31.198  1.00  0.00     0.010 A 
ATOM     36  C   UNL A   1      36.489  33.818  29.443  1.00  0.00     0.010 A 
ATOM     37  C   UNL A   1      36.263  33.121  30.640  1.00  0.00    -0.014 A 
BRANCH  37  38
ATOM     38  C   UNL A   1      37.374  32.360  31.264  1.00  0.00     0.031 A 
ATOM     39  C   UNL A   1      37.903  32.747  32.615  1.00  0.00     0.074 A 
ATOM     40  C   UNL A   1      37.961  31.364  30.571  1.00  0.00     0.049 A 
ATOM     41  N   UNL A   1      38.923  32.261  33.277  1.00  0.00    -0.248 NA
ATOM     42  C   UNL A   1      37.207  33.845  33.305  1.00  0.00     0.031 C 
ATOM     43  C   UNL A   1      37.568  30.925  29.232  1.00  0.00     0.029 A 
ATOM     44  N   UNL A   1      39.025  30.556  30.886  1.00  0.00    -0.354 N 
ATOM     45  C   UNL A   1      38.992  32.989  34.456  1.00  0.00     0.074 A 
ATOM     46  C   UNL A   1      37.947  33.991  34.393  1.00  0.00     0.031 C 
ATOM     47  C   UNL A   1      38.370  29.922  28.844  1.00  0.00     0.029 A 
ATOM     48  C   UNL A   1      39.364  29.679  29.884  1.00  0.00     0.049 A 
ATOM     49  H   UNL A   1      39.499  30.601  31.747  1.00  0.00     0.167 HD
ATOM     50  C   UNL A   1      39.834  32.823  35.503  1.00  0.00     0.037 A 
ATOM     51  C   UNL A   1      40.376  28.794  29.802  1.00  0.00     0.037 A 
ATOM     52  C   UNL A   1      40.873  31.826  35.557  1.00  0.00     0.049 A 
ATOM     53  C   UNL A   1      41.328  28.659  30.959  1.00  0.00     0.074 A 
ATOM     54  C   UNL A   1      41.748  31.546  36.591  1.00  0.00     0.029 A 
ATOM     55  N   UNL A   1      41.185  30.953  34.524  1.00  0.00    -0.354 N 
ATOM     56  N   UNL A   1      41.339  29.304  32.101  1.00  0.00    -0.248 NA
ATOM     57  C   UNL A   1      42.406  27.671  30.819  1.00  0.00     0.031 C 
ATOM     58  C   UNL A   1      42.627  30.545  36.163  1.00  0.00     0.029 A 
ATOM     59  C   UNL A   1      42.263  30.157  34.885  1.00  0.00     0.049 A 
ATOM     60  H   UNL A   1      40.712  30.906  33.661  1.00  0.00     0.167 HD
ATOM     61  C   UNL A   1      42.410  28.791  32.819  1.00  0.00     0.074 A 
ATOM     62  C   UNL A   1      43.010  27.763  31.995  1.00  0.00     0.031 C 
ATOM     63  C   UNL A   1      42.855  29.142  34.051  1.00  0.00     0.037 A 
BRANCH  50  64
ATOM     64  C   UNL A   1      39.671  33.746  36.677  1.00  0.00     0.064 A 
ATOM     65  C   UNL A   1      40.292  35.004  36.716  1.00  0.00     0.173 A 
ATOM     66  C   UNL A   1      38.858  33.385  37.763  1.00  0.00     0.173 A 
ATOM     67  F   UNL A   1      41.087  35.396  35.709  1.00  0.00    -0.203 F 
ATOM     68  C   UNL A   1      40.135  35.850  37.812  1.00  0.00     0.198 A 
ATOM     69  C   UNL A   1      38.675  34.247  38.840  1.00  0.00     0.198 A 
ATOM     70  F   UNL A   1      38.232  32.198  37.775  1.00  0.00    -0.203 F 
ATOM     71  F   UNL A   1      40.784  37.022  37.849  1.00  0.00    -0.200 F 
ATOM     72  C   UNL A   1      39.321  35.474  38.869  1.00  0.00     0.200 A 
ATOM     73  F   UNL A   1      37.876  33.890  39.855  1.00  0.00    -0.200 F 
ATOM     74  F   UNL A   1      39.166  36.291  39.920  1.00  0.00    -0.200 F 
ENDBRANCH  50  64
BRANCH  51  75
ATOM     75  C   UNL A   1      40.539  27.972  28.575  1.00  0.00     0.064 A 
ATOM     76  C   UNL A   1      39.920  26.721  28.454  1.00  0.00     0.173 A 
ATOM     77  C   UNL A   1      41.313  28.424  27.494  1.00  0.00     0.173 A 
ATOM     78  F   UNL A   1      39.188  26.236  29.467  1.00  0.00    -0.203 F 
ATOM     79  C   UNL A   1      40.081  25.945  27.308  1.00  0.00     0.198 A 
ATOM     80  C   UNL A   1      41.447  27.661  26.336  1.00  0.00     0.198 A 
ATOM     81  F   UNL A   1      41.921  29.616  27.556  1.00  0.00    -0.203 F 
ATOM     82  F   UNL A   1      39.515  24.733  27.236  1.00  0.00    -0.200 F 
ATOM     83  C   UNL A   1      40.838  26.419  26.246  1.00  0.00     0.200 A 
ATOM     84  F   UNL A   1      42.164  28.132  25.306  1.00  0.00    -0.200 F 
ATOM     85  F   UNL A   1      40.986  25.676  25.141  1.00  0.00    -0.200 F 
ENDBRANCH  51  75
BRANCH  63  86
ATOM     86  C   UNL A   1      44.043  28.399  34.592  1.00  0.00     0.064 A 
ATOM     87  C   UNL A   1      43.898  27.190  35.290  1.00  0.00     0.173 A 
ATOM     88  C   UNL A   1      45.344  28.875  34.368  1.00  0.00     0.173 A 
ATOM     89  F   UNL A   1      42.675  26.700  35.544  1.00  0.00    -0.203 F 
ATOM     90  C   UNL A   1      45.011  26.498  35.763  1.00  0.00     0.198 A 
ATOM     91  C   UNL A   1      46.456  28.164  34.814  1.00  0.00     0.198 A 
ATOM     92  F   UNL A   1      45.539  30.023  33.703  1.00  0.00    -0.203 F 
ATOM     93  F   UNL A   1      44.846  25.370  36.467  1.00  0.00    -0.200 F 
ATOM     94  C   UNL A   1      46.287  26.981  35.516  1.00  0.00     0.200 A 
ATOM     95  F   UNL A   1      47.689  28.624  34.562  1.00  0.00    -0.200 F 
ATOM     96  F   UNL A   1      47.357  26.307  35.961  1.00  0.00    -0.200 F 
ENDBRANCH  63  86
ENDBRANCH  37  38
ENDBRANCH  29  32
ENDBRANCH  27  28
ENDBRANCH  26  27
ENDBRANCH  25  26
ENDBRANCH  24  25
ENDBRANCH   1  24
TORSDOF 19
ENDMDL
MODEL 3
REMARK VINA RESULT:     -11.1      1.290      3.032
REMARK SMILES CCOc1ccc([C@H](C)[C@](O)(C(=O)NCCCCCCNC(=O)c2ccc(-c3c4nc(c(-c5c(F)c(F)c(F)c(F)c5F)c5ccc([nH]5)c(-c5c(F)c(F)c(F)c(F)c5F)c5nc(c(-c6c(F)c(F)c(F)c(F)c6F)c6ccc3[nH]6)C=C5)C=C4)cc2)C(C)C)cc1
REMARK SMILES IDX 16 1 15 2 14 3 12 4 13 5 10 7 8 8 9 9 7 10 4 11 5 12 91 13
REMARK SMILES IDX 6 14 90 15 3 16 2 17 1 18 87 19 88 20 89 21 11 22 17 24
REMARK SMILES IDX 18 25 19 26 20 27 21 28 22 29 23 31 24 32 25 33 86 34 26 35
REMARK SMILES IDX 85 36 27 37 28 38 29 39 79 40 30 41 84 42 78 43 80 44 31 45
REMARK SMILES IDX 83 46 77 47 76 48 32 50 64 51 44 52 63 53 45 54 48 55 62 56
REMARK SMILES IDX 81 57 46 58 47 59 61 61 82 62 49 63 33 64 34 65 42 66 35 67
REMARK SMILES IDX 36 68 40 69 43 70 37 71 38 72 41 73 39 74 65 75 66 76 74 77
REMARK SMILES IDX 67 78 68 79 72 80 75 81 69 82 70 83 73 84 71 85 50 86 51 87
REMARK SMILES IDX 59 88 52 89 53 90 57 91 60 92 54 93 55 94 58 95 56 96
REMARK H PARENT 14 6 11 23 21 30 80 49 48 60
REMARK Flexibility Score: inf
ROOT
ATOM      1  C   UNL A   1      33.294  28.720  27.394  1.00  0.00     0.021 C 
ENDROOT
BRANCH   1   2
ATOM      2  C   UNL A   1      33.201  27.466  26.533  1.00  0.00     0.116 C 
BRANCH   2   3
ATOM      3  N   UNL A   1      31.851  27.229  26.043  1.00  0.00    -0.354 N 
ATOM      4  C   UNL A   1      31.421  26.765  24.828  1.00  0.00     0.252 C 
ATOM      5  O   UNL A   1      30.208  26.594  24.690  1.00  0.00    -0.272 OA
ATOM      6  H   UNL A   1      31.134  27.435  26.687  1.00  0.00     0.163 HD
BRANCH   4   7
ATOM      7  C   UNL A   1      32.453  26.458  23.688  1.00  0.00     0.151 C 
BRANCH   7   8
ATOM      8  C   UNL A   1      31.833  25.245  22.856  1.00  0.00     0.058 C 
ATOM      9  C   UNL A   1      32.335  25.315  21.390  1.00  0.00     0.016 C 
BRANCH   8  10
ATOM     10  C   UNL A   1      31.897  23.823  23.443  1.00  0.00    -0.041 A 
ATOM     11  C   UNL A   1      32.046  21.201  24.496  1.00  0.00     0.119 A 
ATOM     12  C   UNL A   1      31.388  22.194  25.205  1.00  0.00     0.047 A 
ATOM     13  C   UNL A   1      32.536  21.471  23.229  1.00  0.00     0.047 A 
ATOM     14  C   UNL A   1      31.300  23.485  24.671  1.00  0.00     0.008 A 
ATOM     15  C   UNL A   1      32.475  22.768  22.716  1.00  0.00     0.008 A 
BRANCH  11  16
ATOM     16  O   UNL A   1      32.108  19.945  25.027  1.00  0.00    -0.494 OA
BRANCH  16  17
ATOM     17  C   UNL A   1      33.348  19.289  24.727  1.00  0.00     0.226 C 
ATOM     18  C   UNL A   1      33.235  17.779  24.871  1.00  0.00     0.049 C 
ENDBRANCH  16  17
ENDBRANCH  11  16
ENDBRANCH   8  10
ENDBRANCH   7   8
BRANCH   7  19
ATOM     19  C   UNL A   1      32.742  27.738  22.823  1.00  0.00     0.025 C 
ATOM     20  C   UNL A   1      31.636  28.807  22.934  1.00  0.00     0.011 C 
ATOM     21  C   UNL A   1      34.065  28.431  23.181  1.00  0.00     0.011 C 
ENDBRANCH   7  19
BRANCH   7  22
ATOM     22  O   UNL A   1      33.668  26.106  24.374  1.00  0.00    -0.379 OA
ATOM     23  H   UNL A   1      34.429  26.441  23.875  1.00  0.00     0.212 HD
ENDBRANCH   7  22
ENDBRANCH   4   7
ENDBRANCH   2   3
ENDBRANCH   1   2
BRANCH   1  24
ATOM     24  C   UNL A   1      33.201  30.033  26.614  1.00  0.00     0.002 C 
BRANCH  24  25
ATOM     25  C   UNL A   1      31.780  30.540  26.350  1.00  0.00     0.002 C 
BRANCH  25  26
ATOM     26  C   UNL A   1      31.553  32.029  26.622  1.00  0.00     0.021 C 
BRANCH  26  27
ATOM     27  C   UNL A   1      32.687  32.728  27.365  1.00  0.00     0.116 C 
BRANCH  27  28
ATOM     28  N   UNL A   1      32.392  34.127  27.636  1.00  0.00    -0.352 N 
ATOM     29  C   UNL A   1      32.957  34.977  28.552  1.00  0.00     0.251 C 
ATOM     30  H   UNL A   1      31.683  34.521  27.079  1.00  0.00     0.163 HD
ATOM     31  O   UNL A   1      32.459  36.080  28.763  1.00  0.00    -0.269 OA
BRANCH  29  32
ATOM     32  C   UNL A   1      34.151  34.552  29.311  1.00  0.00     0.039 A 
ATOM     33  C   UNL A   1      33.983  34.059  30.608  1.00  0.00     0.014 A 
ATOM     34  C   UNL A   1      35.425  34.623  28.744  1.00  0.00     0.014 A 
ATOM     35  C   UNL A   1      35.084  33.554  31.302  1.00  0.00     0.010 A 
ATOM     36  C   UNL A   1      36.509  34.056  29.407  1.00  0.00     0.010 A 
ATOM     37  C   UNL A   1      36.346  33.502  30.686  1.00  0.00    -0.014 A 
BRANCH  37  38
ATOM     38  C   UNL A   1      37.492  32.823  31.341  1.00  0.00     0.031 A 
ATOM     39  C   UNL A   1      38.150  31.638  30.695  1.00  0.00     0.074 A 
ATOM     40  C   UNL A   1      37.888  33.231  32.563  1.00  0.00     0.049 A 
ATOM     41  N   UNL A   1      39.099  30.864  31.157  1.00  0.00    -0.248 NA
ATOM     42  C   UNL A   1      37.657  31.257  29.362  1.00  0.00     0.031 C 
ATOM     43  C   UNL A   1      37.298  34.340  33.313  1.00  0.00     0.029 A 
ATOM     44  N   UNL A   1      38.865  32.748  33.399  1.00  0.00    -0.354 N 
ATOM     45  C   UNL A   1      39.318  29.907  30.175  1.00  0.00     0.074 A 
ATOM     46  C   UNL A   1      38.362  30.163  29.118  1.00  0.00     0.031 C 
ATOM     47  C   UNL A   1      37.929  34.461  34.491  1.00  0.00     0.029 A 
ATOM     48  C   UNL A   1      38.935  33.409  34.601  1.00  0.00     0.049 A 
ATOM     49  H   UNL A   1      39.457  31.999  33.159  1.00  0.00     0.167 HD
ATOM     50  C   UNL A   1      40.246  28.921  30.150  1.00  0.00     0.037 A 
ATOM     51  C   UNL A   1      39.706  33.179  35.681  1.00  0.00     0.037 A 
ATOM     52  C   UNL A   1      41.193  28.672  31.206  1.00  0.00     0.049 A 
ATOM     53  C   UNL A   1      40.698  32.049  35.647  1.00  0.00     0.074 A 
ATOM     54  C   UNL A   1      42.203  27.728  31.255  1.00  0.00     0.029 A 
ATOM     55  N   UNL A   1      41.236  29.364  32.409  1.00  0.00    -0.354 N 
ATOM     56  N   UNL A   1      40.946  31.195  34.684  1.00  0.00    -0.248 NA
ATOM     57  C   UNL A   1      41.520  31.852  36.849  1.00  0.00     0.031 C 
ATOM     58  C   UNL A   1      42.819  27.809  32.509  1.00  0.00     0.029 A 
ATOM     59  C   UNL A   1      42.234  28.843  33.220  1.00  0.00     0.049 A 
ATOM     60  H   UNL A   1      40.644  30.113  32.651  1.00  0.00     0.167 HD
ATOM     61  C   UNL A   1      41.961  30.373  35.154  1.00  0.00     0.074 A 
ATOM     62  C   UNL A   1      42.299  30.845  36.480  1.00  0.00     0.031 C 
ATOM     63  C   UNL A   1      42.556  29.319  34.542  1.00  0.00     0.037 A 
BRANCH  50  64
ATOM     64  C   UNL A   1      40.280  28.033  28.938  1.00  0.00     0.064 A 
ATOM     65  C   UNL A   1      41.027  28.371  27.799  1.00  0.00     0.173 A 
ATOM     66  C   UNL A   1      39.584  26.814  28.926  1.00  0.00     0.173 A 
ATOM     67  F   UNL A   1      41.704  29.528  27.754  1.00  0.00    -0.203 F 
ATOM     68  C   UNL A   1      41.048  27.539  26.681  1.00  0.00     0.198 A 
ATOM     69  C   UNL A   1      39.636  25.970  27.820  1.00  0.00     0.198 A 
ATOM     70  F   UNL A   1      38.861  26.436  29.990  1.00  0.00    -0.203 F 
ATOM     71  F   UNL A   1      41.725  27.911  25.585  1.00  0.00    -0.200 F 
ATOM     72  C   UNL A   1      40.358  26.337  26.695  1.00  0.00     0.200 A 
ATOM     73  F   UNL A   1      38.981  24.800  27.841  1.00  0.00    -0.200 F 
ATOM     74  F   UNL A   1      40.384  25.536  25.621  1.00  0.00    -0.200 F 
ENDBRANCH  50  64
BRANCH  51  75
ATOM     75  C   UNL A   1      39.562  34.038  36.886  1.00  0.00     0.064 A 
ATOM     76  C   UNL A   1      40.208  35.279  36.971  1.00  0.00     0.173 A 
ATOM     77  C   UNL A   1      38.772  33.639  37.974  1.00  0.00     0.173 A 
ATOM     78  F   UNL A   1      40.991  35.696  35.966  1.00  0.00    -0.203 F 
ATOM     79  C   UNL A   1      40.083  36.080  38.104  1.00  0.00     0.198 A 
ATOM     80  C   UNL A   1      38.621  34.455  39.093  1.00  0.00     0.198 A 
ATOM     81  F   UNL A   1      38.128  32.463  37.942  1.00  0.00    -0.203 F 
ATOM     82  F   UNL A   1      40.746  37.242  38.178  1.00  0.00    -0.200 F 
ATOM     83  C   UNL A   1      39.283  35.671  39.161  1.00  0.00     0.200 A 
ATOM     84  F   UNL A   1      37.833  34.063  40.104  1.00  0.00    -0.200 F 
ATOM     85  F   UNL A   1      39.156  36.446  40.247  1.00  0.00    -0.200 F 
ENDBRANCH  51  75
BRANCH  63  86
ATOM     86  C   UNL A   1      43.647  28.612  35.293  1.00  0.00     0.064 A 
ATOM     87  C   UNL A   1      44.997  28.958  35.126  1.00  0.00     0.173 A 
ATOM     88  C   UNL A   1      43.337  27.610  36.226  1.00  0.00     0.173 A 
ATOM     89  F   UNL A   1      45.348  29.897  34.235  1.00  0.00    -0.203 F 
ATOM     90  C   UNL A   1      45.997  28.311  35.849  1.00  0.00     0.198 A 
ATOM     91  C   UNL A   1      44.336  26.989  36.971  1.00  0.00     0.198 A 
ATOM     92  F   UNL A   1      42.062  27.245  36.427  1.00  0.00    -0.203 F 
ATOM     93  F   UNL A   1      47.282  28.625  35.639  1.00  0.00    -0.200 F 
ATOM     94  C   UNL A   1      45.664  27.335  36.777  1.00  0.00     0.200 A 
ATOM     95  F   UNL A   1      44.012  26.057  37.878  1.00  0.00    -0.200 F 
ATOM     96  F   UNL A   1      46.627  26.722  37.481  1.00  0.00    -0.200 F 
ENDBRANCH  63  86
ENDBRANCH  37  38
ENDBRANCH  29  32
ENDBRANCH  27  28
ENDBRANCH  26  27
ENDBRANCH  25  26
ENDBRANCH  24  25
ENDBRANCH   1  24
TORSDOF 19
ENDMDL
