MODEL 1
REMARK VINA RESULT:     -13.1      0.000      0.000
REMARK SMILES CCc1cc(N2CCC[C@H](C(=O)NCCCCCCNC(=O)c3ccc(-c4c5nc(c(-c6c(F)c(F)c(F)c(F)c6F)c6ccc([nH]6)c(-c6c(F)c(F)c(F)c(F)c6F)c6nc(c(-c7c(F)c(F)c(F)c(F)c7F)c7ccc4[nH]7)C=C6)C=C5)cc3)C2)nc(-c2ccc(Cl)cc2)n1
REMARK SMILES IDX 16 1 15 2 14 3 13 4 11 5 12 6 10 8 6 9 7 10 86 11 8 12 9 13
REMARK SMILES IDX 5 14 3 15 4 16 96 17 88 18 87 19 2 20 1 21 89 22 90 23 95 24
REMARK SMILES IDX 91 25 94 26 92 27 93 28 17 29 18 30 19 31 20 32 21 33 22 35
REMARK SMILES IDX 23 36 24 37 85 38 25 39 84 40 26 41 27 42 28 43 78 44 29 45
REMARK SMILES IDX 83 46 77 47 79 48 30 49 82 50 76 51 75 52 31 54 63 55 43 56
REMARK SMILES IDX 62 57 44 58 47 59 61 60 80 61 45 62 46 63 60 65 81 66 48 67
REMARK SMILES IDX 32 68 33 69 41 70 34 71 35 72 39 73 42 74 36 75 37 76 40 77
REMARK SMILES IDX 38 78 64 79 65 80 73 81 66 82 67 83 71 84 74 85 68 86 69 87
REMARK SMILES IDX 72 88 70 89 49 90 50 91 58 92 51 93 52 94 56 95 59 96 53 97
REMARK SMILES IDX 54 98 57 99 55 100
REMARK H PARENT 13 7 20 34 79 53 47 64
REMARK Flexibility Score: inf
ROOT
ATOM      1  C   UNL A   1      32.269  29.733  26.860  1.00  0.00     0.002 C 
ENDROOT
BRANCH   1   2
ATOM      2  C   UNL A   1      33.388  29.018  26.102  1.00  0.00     0.021 C 
BRANCH   2   3
ATOM      3  C   UNL A   1      33.188  28.996  24.590  1.00  0.00     0.116 C 
BRANCH   3   4
ATOM      4  N   UNL A   1      33.812  27.890  23.910  1.00  0.00    -0.356 N 
ATOM      5  C   UNL A   1      33.267  26.679  23.619  1.00  0.00     0.224 C 
ATOM      6  O   UNL A   1      33.713  26.093  22.625  1.00  0.00    -0.275 OA
ATOM      7  H   UNL A   1      34.743  28.027  23.623  1.00  0.00     0.163 HD
BRANCH   5   8
ATOM      8  C   UNL A   1      32.168  26.014  24.456  1.00  0.00     0.098 C 
ATOM      9  N   UNL A   1      32.568  23.601  24.610  1.00  0.00    -0.356 N 
ATOM     10  C   UNL A   1      31.264  23.178  24.124  1.00  0.00     0.118 C 
ATOM     11  C   UNL A   1      32.662  24.864  25.323  1.00  0.00     0.131 C 
ATOM     12  C   UNL A   1      30.582  24.286  23.302  1.00  0.00     0.022 C 
ATOM     13  C   UNL A   1      30.843  25.733  23.739  1.00  0.00     0.017 C 
BRANCH   9  14
ATOM     14  C   UNL A   1      33.592  22.687  24.792  1.00  0.00     0.132 A 
ATOM     15  C   UNL A   1      35.879  22.073  24.681  1.00  0.00     0.046 A 
ATOM     16  C   UNL A   1      34.916  23.069  24.668  1.00  0.00     0.070 A 
ATOM     17  N   UNL A   1      35.553  20.777  24.834  1.00  0.00    -0.233 NA
ATOM     18  C   UNL A   1      34.250  20.490  24.937  1.00  0.00     0.161 A 
ATOM     19  N   UNL A   1      33.252  21.395  24.940  1.00  0.00    -0.211 NA
BRANCH  15  20
ATOM     20  C   UNL A   1      37.351  22.321  24.486  1.00  0.00     0.053 C 
ATOM     21  C   UNL A   1      38.289  21.751  25.537  1.00  0.00     0.011 C 
ENDBRANCH  15  20
BRANCH  18  22
ATOM     22  C   UNL A   1      33.894  19.069  24.935  1.00  0.00     0.019 A 
ATOM     23  C   UNL A   1      34.778  18.097  24.434  1.00  0.00     0.013 A 
ATOM     24  C   UNL A   1      32.661  18.637  25.460  1.00  0.00     0.013 A 
ATOM     25  C   UNL A   1      34.477  16.734  24.534  1.00  0.00     0.021 A 
ATOM     26  C   UNL A   1      32.356  17.274  25.556  1.00  0.00     0.021 A 
ATOM     27  C   UNL A   1      33.276  16.328  25.111  1.00  0.00     0.041 A 
ATOM     28  Cl  UNL A   1      32.942  14.653  25.309  1.00  0.00    -0.084 Cl
ENDBRANCH  18  22
ENDBRANCH   9  14
ENDBRANCH   5   8
ENDBRANCH   3   4
ENDBRANCH   2   3
ENDBRANCH   1   2
BRANCH   1  29
ATOM     29  C   UNL A   1      31.530  30.797  26.049  1.00  0.00     0.002 C 
BRANCH  29  30
ATOM     30  C   UNL A   1      31.354  32.155  26.717  1.00  0.00     0.021 C 
BRANCH  30  31
ATOM     31  C   UNL A   1      32.652  32.770  27.201  1.00  0.00     0.116 C 
BRANCH  31  32
ATOM     32  N   UNL A   1      32.487  34.173  27.567  1.00  0.00    -0.352 N 
ATOM     33  C   UNL A   1      33.048  34.898  28.585  1.00  0.00     0.251 C 
ATOM     34  H   UNL A   1      31.873  34.680  26.988  1.00  0.00     0.163 HD
ATOM     35  O   UNL A   1      32.610  36.003  28.874  1.00  0.00    -0.269 OA
BRANCH  33  36
ATOM     36  C   UNL A   1      34.186  34.336  29.336  1.00  0.00     0.039 A 
ATOM     37  C   UNL A   1      33.937  33.478  30.410  1.00  0.00     0.014 A 
ATOM     38  C   UNL A   1      35.495  34.669  28.986  1.00  0.00     0.014 A 
ATOM     39  C   UNL A   1      35.010  32.911  31.096  1.00  0.00     0.010 A 
ATOM     40  C   UNL A   1      36.557  34.017  29.591  1.00  0.00     0.010 A 
ATOM     41  C   UNL A   1      36.325  33.149  30.666  1.00  0.00    -0.014 A 
BRANCH  41  42
ATOM     42  C   UNL A   1      37.486  32.530  31.343  1.00  0.00     0.031 A 
ATOM     43  C   UNL A   1      38.216  31.397  30.677  1.00  0.00     0.074 A 
ATOM     44  C   UNL A   1      37.828  32.936  32.579  1.00  0.00     0.049 A 
ATOM     45  N   UNL A   1      39.199  30.662  31.132  1.00  0.00    -0.248 NA
ATOM     46  C   UNL A   1      37.756  31.015  29.331  1.00  0.00     0.031 C 
ATOM     47  C   UNL A   1      37.158  33.994  33.337  1.00  0.00     0.029 A 
ATOM     48  N   UNL A   1      38.821  32.503  33.418  1.00  0.00    -0.354 N 
ATOM     49  C   UNL A   1      39.459  29.728  30.138  1.00  0.00     0.074 A 
ATOM     50  C   UNL A   1      38.484  29.936  29.092  1.00  0.00     0.031 C 
ATOM     51  C   UNL A   1      37.784  34.155  34.513  1.00  0.00     0.029 A 
ATOM     52  C   UNL A   1      38.866  33.182  34.611  1.00  0.00     0.049 A 
ATOM     53  H   UNL A   1      39.444  31.776  33.187  1.00  0.00     0.167 HD
ATOM     54  C   UNL A   1      40.445  28.801  30.090  1.00  0.00     0.037 A 
ATOM     55  C   UNL A   1      39.690  33.027  35.663  1.00  0.00     0.037 A 
ATOM     56  C   UNL A   1      41.420  28.617  31.132  1.00  0.00     0.049 A 
ATOM     57  C   UNL A   1      40.757  31.968  35.599  1.00  0.00     0.074 A 
ATOM     58  C   UNL A   1      42.489  27.743  31.170  1.00  0.00     0.029 A 
ATOM     59  N   UNL A   1      41.435  29.324  32.328  1.00  0.00    -0.354 N 
ATOM     60  N   UNL A   1      41.040  31.133  34.628  1.00  0.00    -0.248 NA
ATOM     61  C   UNL A   1      41.623  31.834  36.777  1.00  0.00     0.031 C 
ATOM     62  C   UNL A   1      43.119  27.879  32.411  1.00  0.00     0.029 A 
ATOM     63  C   UNL A   1      42.481  28.885  33.122  1.00  0.00     0.049 A 
ATOM     64  H   UNL A   1      40.797  30.032  32.575  1.00  0.00     0.167 HD
ATOM     65  C   UNL A   1      42.137  30.400  35.061  1.00  0.00     0.074 A 
ATOM     66  C   UNL A   1      42.475  30.900  36.379  1.00  0.00     0.031 C 
ATOM     67  C   UNL A   1      42.805  29.405  34.428  1.00  0.00     0.037 A 
BRANCH  54  68
ATOM     68  C   UNL A   1      40.510  27.925  28.871  1.00  0.00     0.064 A 
ATOM     69  C   UNL A   1      41.283  28.273  27.751  1.00  0.00     0.173 A 
ATOM     70  C   UNL A   1      39.796  26.719  28.821  1.00  0.00     0.173 A 
ATOM     71  F   UNL A   1      41.977  29.422  27.740  1.00  0.00    -0.203 F 
ATOM     72  C   UNL A   1      41.301  27.472  26.613  1.00  0.00     0.198 A 
ATOM     73  C   UNL A   1      39.847  25.900  27.695  1.00  0.00     0.198 A 
ATOM     74  F   UNL A   1      39.043  26.332  29.862  1.00  0.00    -0.203 F 
ATOM     75  F   UNL A   1      41.992  27.861  25.532  1.00  0.00    -0.200 F 
ATOM     76  C   UNL A   1      40.589  26.283  26.588  1.00  0.00     0.200 A 
ATOM     77  F   UNL A   1      39.170  24.743  27.678  1.00  0.00    -0.200 F 
ATOM     78  F   UNL A   1      40.610  25.511  25.493  1.00  0.00    -0.200 F 
ENDBRANCH  54  68
BRANCH  55  79
ATOM     79  C   UNL A   1      39.563  33.918  36.846  1.00  0.00     0.064 A 
ATOM     80  C   UNL A   1      40.211  35.160  36.877  1.00  0.00     0.173 A 
ATOM     81  C   UNL A   1      38.798  33.554  37.964  1.00  0.00     0.173 A 
ATOM     82  F   UNL A   1      40.968  35.546  35.839  1.00  0.00    -0.203 F 
ATOM     83  C   UNL A   1      40.119  35.995  37.989  1.00  0.00     0.198 A 
ATOM     84  C   UNL A   1      38.681  34.402  39.062  1.00  0.00     0.198 A 
ATOM     85  F   UNL A   1      38.150  32.379  37.982  1.00  0.00    -0.203 F 
ATOM     86  F   UNL A   1      40.789  37.155  38.011  1.00  0.00    -0.200 F 
ATOM     87  C   UNL A   1      39.349  35.618  39.078  1.00  0.00     0.200 A 
ATOM     88  F   UNL A   1      37.922  34.042  40.107  1.00  0.00    -0.200 F 
ATOM     89  F   UNL A   1      39.258  36.421  40.147  1.00  0.00    -0.200 F 
ENDBRANCH  55  79
BRANCH  67  90
ATOM     90  C   UNL A   1      43.997  28.822  35.131  1.00  0.00     0.064 A 
ATOM     91  C   UNL A   1      45.292  29.323  34.929  1.00  0.00     0.173 A 
ATOM     92  C   UNL A   1      43.833  27.775  36.051  1.00  0.00     0.173 A 
ATOM     93  F   UNL A   1      45.504  30.313  34.049  1.00  0.00    -0.203 F 
ATOM     94  C   UNL A   1      46.383  28.776  35.601  1.00  0.00     0.198 A 
ATOM     95  C   UNL A   1      44.920  27.256  36.748  1.00  0.00     0.198 A 
ATOM     96  F   UNL A   1      42.615  27.266  36.286  1.00  0.00    -0.203 F 
ATOM     97  F   UNL A   1      47.617  29.234  35.352  1.00  0.00    -0.200 F 
ATOM     98  C   UNL A   1      46.194  27.751  36.515  1.00  0.00     0.200 A 
ATOM     99  F   UNL A   1      44.734  26.278  37.644  1.00  0.00    -0.200 F 
ATOM    100  F   UNL A   1      47.244  27.234  37.169  1.00  0.00    -0.200 F 
ENDBRANCH  67  90
ENDBRANCH  41  42
ENDBRANCH  33  36
ENDBRANCH  31  32
ENDBRANCH  30  31
ENDBRANCH  29  30
ENDBRANCH   1  29
TORSDOF 16
ENDMDL
MODEL 2
REMARK VINA RESULT:     -13.0      0.682      1.703
REMARK SMILES CCc1cc(N2CCC[C@H](C(=O)NCCCCCCNC(=O)c3ccc(-c4c5nc(c(-c6c(F)c(F)c(F)c(F)c6F)c6ccc([nH]6)c(-c6c(F)c(F)c(F)c(F)c6F)c6nc(c(-c7c(F)c(F)c(F)c(F)c7F)c7ccc4[nH]7)C=C6)C=C5)cc3)C2)nc(-c2ccc(Cl)cc2)n1
REMARK SMILES IDX 16 1 15 2 14 3 13 4 11 5 12 6 10 8 6 9 7 10 86 11 8 12 9 13
REMARK SMILES IDX 5 14 3 15 4 16 96 17 88 18 87 19 2 20 1 21 89 22 90 23 95 24
REMARK SMILES IDX 91 25 94 26 92 27 93 28 17 29 18 30 19 31 20 32 21 33 22 35
REMARK SMILES IDX 23 36 24 37 85 38 25 39 84 40 26 41 27 42 28 43 78 44 29 45
REMARK SMILES IDX 83 46 77 47 79 48 30 49 82 50 76 51 75 52 31 54 63 55 43 56
REMARK SMILES IDX 62 57 44 58 47 59 61 60 80 61 45 62 46 63 60 65 81 66 48 67
REMARK SMILES IDX 32 68 33 69 41 70 34 71 35 72 39 73 42 74 36 75 37 76 40 77
REMARK SMILES IDX 38 78 64 79 65 80 73 81 66 82 67 83 71 84 74 85 68 86 69 87
REMARK SMILES IDX 72 88 70 89 49 90 50 91 58 92 51 93 52 94 56 95 59 96 53 97
REMARK SMILES IDX 54 98 57 99 55 100
REMARK H PARENT 13 7 20 34 79 53 47 64
REMARK Flexibility Score: inf
ROOT
ATOM      1  C   UNL A   1      32.294  29.789  27.049  1.00  0.00     0.002 C 
ENDROOT
BRANCH   1   2
ATOM      2  C   UNL A   1      31.473  28.580  27.497  1.00  0.00     0.021 C 
BRANCH   2   3
ATOM      3  C   UNL A   1      31.603  27.372  26.573  1.00  0.00     0.116 C 
BRANCH   3   4
ATOM      4  N   UNL A   1      32.835  27.304  25.832  1.00  0.00    -0.356 N 
ATOM      5  C   UNL A   1      33.007  26.929  24.537  1.00  0.00     0.224 C 
ATOM      6  O   UNL A   1      33.974  27.417  23.940  1.00  0.00    -0.275 OA
ATOM      7  H   UNL A   1      33.650  27.560  26.322  1.00  0.00     0.163 HD
BRANCH   5   8
ATOM      8  C   UNL A   1      32.094  25.938  23.808  1.00  0.00     0.098 C 
ATOM      9  N   UNL A   1      33.229  23.783  23.540  1.00  0.00    -0.356 N 
ATOM     10  C   UNL A   1      33.063  23.677  22.098  1.00  0.00     0.118 C 
ATOM     11  C   UNL A   1      32.221  24.502  24.299  1.00  0.00     0.131 C 
ATOM     12  C   UNL A   1      32.819  25.055  21.456  1.00  0.00     0.022 C 
ATOM     13  C   UNL A   1      32.023  26.073  22.283  1.00  0.00     0.017 C 
BRANCH   9  14
ATOM     14  C   UNL A   1      34.038  22.897  24.230  1.00  0.00     0.132 A 
ATOM     15  C   UNL A   1      36.136  22.266  25.136  1.00  0.00     0.046 A 
ATOM     16  C   UNL A   1      35.319  23.254  24.614  1.00  0.00     0.070 A 
ATOM     17  N   UNL A   1      35.704  21.001  25.294  1.00  0.00    -0.233 NA
ATOM     18  C   UNL A   1      34.457  20.735  24.888  1.00  0.00     0.161 A 
ATOM     19  N   UNL A   1      33.595  21.636  24.377  1.00  0.00    -0.211 NA
BRANCH  15  20
ATOM     20  C   UNL A   1      37.572  22.481  25.532  1.00  0.00     0.053 C 
ATOM     21  C   UNL A   1      38.467  21.254  25.568  1.00  0.00     0.011 C 
ENDBRANCH  15  20
BRANCH  18  22
ATOM     22  C   UNL A   1      34.053  19.327  24.907  1.00  0.00     0.019 A 
ATOM     23  C   UNL A   1      34.849  18.332  24.314  1.00  0.00     0.013 A 
ATOM     24  C   UNL A   1      32.862  18.930  25.547  1.00  0.00     0.013 A 
ATOM     25  C   UNL A   1      34.512  16.978  24.431  1.00  0.00     0.021 A 
ATOM     26  C   UNL A   1      32.521  17.577  25.659  1.00  0.00     0.021 A 
ATOM     27  C   UNL A   1      33.359  16.607  25.118  1.00  0.00     0.041 A 
ATOM     28  Cl  UNL A   1      32.988  14.941  25.333  1.00  0.00    -0.084 Cl
ENDBRANCH  18  22
ENDBRANCH   9  14
ENDBRANCH   5   8
ENDBRANCH   3   4
ENDBRANCH   2   3
ENDBRANCH   1   2
BRANCH   1  29
ATOM     29  C   UNL A   1      31.547  30.765  26.141  1.00  0.00     0.002 C 
BRANCH  29  30
ATOM     30  C   UNL A   1      31.370  32.182  26.672  1.00  0.00     0.021 C 
BRANCH  30  31
ATOM     31  C   UNL A   1      32.647  32.796  27.211  1.00  0.00     0.116 C 
BRANCH  31  32
ATOM     32  N   UNL A   1      32.460  34.189  27.601  1.00  0.00    -0.352 N 
ATOM     33  C   UNL A   1      33.015  34.906  28.627  1.00  0.00     0.251 C 
ATOM     34  H   UNL A   1      31.833  34.695  27.035  1.00  0.00     0.163 HD
ATOM     35  O   UNL A   1      32.560  35.999  28.937  1.00  0.00    -0.269 OA
BRANCH  33  36
ATOM     36  C   UNL A   1      34.169  34.353  29.360  1.00  0.00     0.039 A 
ATOM     37  C   UNL A   1      33.945  33.610  30.522  1.00  0.00     0.014 A 
ATOM     38  C   UNL A   1      35.469  34.580  28.906  1.00  0.00     0.014 A 
ATOM     39  C   UNL A   1      35.030  33.048  31.194  1.00  0.00     0.010 A 
ATOM     40  C   UNL A   1      36.533  33.929  29.507  1.00  0.00     0.010 A 
ATOM     41  C   UNL A   1      36.326  33.175  30.670  1.00  0.00    -0.014 A 
BRANCH  41  42
ATOM     42  C   UNL A   1      37.495  32.556  31.333  1.00  0.00     0.031 A 
ATOM     43  C   UNL A   1      38.219  31.424  30.658  1.00  0.00     0.074 A 
ATOM     44  C   UNL A   1      37.851  32.962  32.565  1.00  0.00     0.049 A 
ATOM     45  N   UNL A   1      39.207  30.690  31.102  1.00  0.00    -0.248 NA
ATOM     46  C   UNL A   1      37.744  31.042  29.317  1.00  0.00     0.031 C 
ATOM     47  C   UNL A   1      37.188  34.019  33.331  1.00  0.00     0.029 A 
ATOM     48  N   UNL A   1      38.853  32.530  33.392  1.00  0.00    -0.354 N 
ATOM     49  C   UNL A   1      39.456  29.756  30.105  1.00  0.00     0.074 A 
ATOM     50  C   UNL A   1      38.469  29.964  29.070  1.00  0.00     0.031 C 
ATOM     51  C   UNL A   1      37.828  34.180  34.500  1.00  0.00     0.029 A 
ATOM     52  C   UNL A   1      38.912  33.208  34.585  1.00  0.00     0.049 A 
ATOM     53  H   UNL A   1      39.474  31.803  33.154  1.00  0.00     0.167 HD
ATOM     54  C   UNL A   1      40.442  28.830  30.045  1.00  0.00     0.037 A 
ATOM     55  C   UNL A   1      39.747  33.053  35.628  1.00  0.00     0.037 A 
ATOM     56  C   UNL A   1      41.429  28.646  31.076  1.00  0.00     0.049 A 
ATOM     57  C   UNL A   1      40.814  31.995  35.552  1.00  0.00     0.074 A 
ATOM     58  C   UNL A   1      42.500  27.773  31.101  1.00  0.00     0.029 A 
ATOM     59  N   UNL A   1      41.457  29.352  32.272  1.00  0.00    -0.354 N 
ATOM     60  N   UNL A   1      41.087  31.161  34.577  1.00  0.00    -0.248 NA
ATOM     61  C   UNL A   1      41.694  31.861  36.719  1.00  0.00     0.031 C 
ATOM     62  C   UNL A   1      43.143  27.909  32.335  1.00  0.00     0.029 A 
ATOM     63  C   UNL A   1      42.513  28.914  33.054  1.00  0.00     0.049 A 
ATOM     64  H   UNL A   1      40.822  30.060  32.526  1.00  0.00     0.167 HD
ATOM     65  C   UNL A   1      42.189  30.428  34.997  1.00  0.00     0.074 A 
ATOM     66  C   UNL A   1      42.541  30.928  36.311  1.00  0.00     0.031 C 
ATOM     67  C   UNL A   1      42.851  29.433  34.356  1.00  0.00     0.037 A 
BRANCH  54  68
ATOM     68  C   UNL A   1      40.494  27.954  28.825  1.00  0.00     0.064 A 
ATOM     69  C   UNL A   1      39.786  26.743  28.754  1.00  0.00     0.173 A 
ATOM     70  C   UNL A   1      41.258  28.328  27.710  1.00  0.00     0.173 A 
ATOM     71  F   UNL A   1      39.049  26.329  29.797  1.00  0.00    -0.203 F 
ATOM     72  C   UNL A   1      39.876  25.922  27.634  1.00  0.00     0.198 A 
ATOM     73  C   UNL A   1      41.315  27.523  26.575  1.00  0.00     0.198 A 
ATOM     74  F   UNL A   1      41.953  29.476  27.719  1.00  0.00    -0.203 F 
ATOM     75  F   UNL A   1      39.245  24.739  27.619  1.00  0.00    -0.200 F 
ATOM     76  C   UNL A   1      40.635  26.315  26.543  1.00  0.00     0.200 A 
ATOM     77  F   UNL A   1      42.037  27.912  25.515  1.00  0.00    -0.200 F 
ATOM     78  F   UNL A   1      40.719  25.526  25.464  1.00  0.00    -0.200 F 
ENDBRANCH  54  68
BRANCH  55  79
ATOM     79  C   UNL A   1      39.633  33.943  36.812  1.00  0.00     0.064 A 
ATOM     80  C   UNL A   1      38.875  33.559  37.926  1.00  0.00     0.173 A 
ATOM     81  C   UNL A   1      40.275  35.190  36.861  1.00  0.00     0.173 A 
ATOM     82  F   UNL A   1      38.228  32.383  37.921  1.00  0.00    -0.203 F 
ATOM     83  C   UNL A   1      38.742  34.394  39.033  1.00  0.00     0.198 A 
ATOM     84  C   UNL A   1      40.168  36.011  37.980  1.00  0.00     0.198 A 
ATOM     85  F   UNL A   1      41.021  35.603  35.825  1.00  0.00    -0.203 F 
ATOM     86  F   UNL A   1      37.970  34.021  40.063  1.00  0.00    -0.200 F 
ATOM     87  C   UNL A   1      39.394  35.617  39.062  1.00  0.00     0.200 A 
ATOM     88  F   UNL A   1      40.813  37.186  38.011  1.00  0.00    -0.200 F 
ATOM     89  F   UNL A   1      39.269  36.421  40.127  1.00  0.00    -0.200 F 
ENDBRANCH  55  79
BRANCH  67  90
ATOM     90  C   UNL A   1      44.051  28.851  35.045  1.00  0.00     0.064 A 
ATOM     91  C   UNL A   1      45.339  29.375  34.856  1.00  0.00     0.173 A 
ATOM     92  C   UNL A   1      43.902  27.781  35.940  1.00  0.00     0.173 A 
ATOM     93  F   UNL A   1      45.536  30.390  34.000  1.00  0.00    -0.203 F 
ATOM     94  C   UNL A   1      46.437  28.829  35.515  1.00  0.00     0.198 A 
ATOM     95  C   UNL A   1      44.996  27.261  36.624  1.00  0.00     0.198 A 
ATOM     96  F   UNL A   1      42.692  27.248  36.163  1.00  0.00    -0.203 F 
ATOM     97  F   UNL A   1      47.664  29.310  35.278  1.00  0.00    -0.200 F 
ATOM     98  C   UNL A   1      46.264  27.779  36.404  1.00  0.00     0.200 A 
ATOM     99  F   UNL A   1      44.825  26.259  37.497  1.00  0.00    -0.200 F 
ATOM    100  F   UNL A   1      47.320  27.262  37.046  1.00  0.00    -0.200 F 
ENDBRANCH  67  90
ENDBRANCH  41  42
ENDBRANCH  33  36
ENDBRANCH  31  32
ENDBRANCH  30  31
ENDBRANCH  29  30
ENDBRANCH   1  29
TORSDOF 16
ENDMDL
MODEL 3
REMARK VINA RESULT:     -12.7      1.283      2.429
REMARK SMILES CCc1cc(N2CCC[C@H](C(=O)NCCCCCCNC(=O)c3ccc(-c4c5nc(c(-c6c(F)c(F)c(F)c(F)c6F)c6ccc([nH]6)c(-c6c(F)c(F)c(F)c(F)c6F)c6nc(c(-c7c(F)c(F)c(F)c(F)c7F)c7ccc4[nH]7)C=C6)C=C5)cc3)C2)nc(-c2ccc(Cl)cc2)n1
REMARK SMILES IDX 16 1 15 2 14 3 13 4 11 5 12 6 10 8 6 9 7 10 86 11 8 12 9 13
REMARK SMILES IDX 5 14 3 15 4 16 96 17 88 18 87 19 2 20 1 21 89 22 90 23 95 24
REMARK SMILES IDX 91 25 94 26 92 27 93 28 17 29 18 30 19 31 20 32 21 33 22 35
REMARK SMILES IDX 23 36 24 37 85 38 25 39 84 40 26 41 27 42 28 43 78 44 29 45
REMARK SMILES IDX 83 46 77 47 79 48 30 49 82 50 76 51 75 52 31 54 63 55 43 56
REMARK SMILES IDX 62 57 44 58 47 59 61 60 80 61 45 62 46 63 60 65 81 66 48 67
REMARK SMILES IDX 32 68 33 69 41 70 34 71 35 72 39 73 42 74 36 75 37 76 40 77
REMARK SMILES IDX 38 78 64 79 65 80 73 81 66 82 67 83 71 84 74 85 68 86 69 87
REMARK SMILES IDX 72 88 70 89 49 90 50 91 58 92 51 93 52 94 56 95 59 96 53 97
REMARK SMILES IDX 54 98 57 99 55 100
REMARK H PARENT 13 7 20 34 79 53 47 64
REMARK Flexibility Score: inf
ROOT
ATOM      1  C   UNL A   1      31.404  30.091  25.175  1.00  0.00     0.002 C 
ENDROOT
BRANCH   1   2
ATOM      2  C   UNL A   1      32.657  29.266  24.880  1.00  0.00     0.021 C 
BRANCH   2   3
ATOM      3  C   UNL A   1      33.118  28.409  26.056  1.00  0.00     0.116 C 
BRANCH   3   4
ATOM      4  N   UNL A   1      33.937  27.279  25.699  1.00  0.00    -0.356 N 
ATOM      5  C   UNL A   1      33.539  26.109  25.135  1.00  0.00     0.224 C 
ATOM      6  O   UNL A   1      34.372  25.514  24.441  1.00  0.00    -0.275 OA
ATOM      7  H   UNL A   1      34.900  27.366  25.887  1.00  0.00     0.163 HD
BRANCH   5   8
ATOM      8  C   UNL A   1      32.148  25.496  25.332  1.00  0.00     0.098 C 
ATOM      9  N   UNL A   1      32.095  23.216  24.436  1.00  0.00    -0.356 N 
ATOM     10  C   UNL A   1      30.949  23.401  23.558  1.00  0.00     0.118 C 
ATOM     11  C   UNL A   1      32.167  24.007  25.652  1.00  0.00     0.131 C 
ATOM     12  C   UNL A   1      30.732  24.887  23.221  1.00  0.00     0.022 C 
ATOM     13  C   UNL A   1      31.075  25.904  24.317  1.00  0.00     0.017 C 
BRANCH   9  14
ATOM     14  C   UNL A   1      32.857  22.062  24.378  1.00  0.00     0.132 A 
ATOM     15  C   UNL A   1      33.062  19.700  24.377  1.00  0.00     0.046 A 
ATOM     16  C   UNL A   1      32.259  20.821  24.246  1.00  0.00     0.070 A 
ATOM     17  N   UNL A   1      34.385  19.801  24.601  1.00  0.00    -0.233 NA
ATOM     18  C   UNL A   1      34.883  21.036  24.727  1.00  0.00     0.161 A 
ATOM     19  N   UNL A   1      34.177  22.177  24.607  1.00  0.00    -0.211 NA
BRANCH  15  20
ATOM     20  C   UNL A   1      32.550  18.286  24.331  1.00  0.00     0.053 C 
ATOM     21  C   UNL A   1      33.165  17.366  23.290  1.00  0.00     0.011 C 
ENDBRANCH  15  20
BRANCH  18  22
ATOM     22  C   UNL A   1      36.287  21.134  25.135  1.00  0.00     0.019 A 
ATOM     23  C   UNL A   1      37.169  20.050  24.977  1.00  0.00     0.013 A 
ATOM     24  C   UNL A   1      36.797  22.330  25.675  1.00  0.00     0.013 A 
ATOM     25  C   UNL A   1      38.532  20.184  25.267  1.00  0.00     0.021 A 
ATOM     26  C   UNL A   1      38.159  22.465  25.972  1.00  0.00     0.021 A 
ATOM     27  C   UNL A   1      39.023  21.397  25.746  1.00  0.00     0.041 A 
ATOM     28  Cl  UNL A   1      40.709  21.589  26.026  1.00  0.00    -0.084 Cl
ENDBRANCH  18  22
ENDBRANCH   9  14
ENDBRANCH   5   8
ENDBRANCH   3   4
ENDBRANCH   2   3
ENDBRANCH   1   2
BRANCH   1  29
ATOM     29  C   UNL A   1      31.378  30.733  26.563  1.00  0.00     0.002 C 
BRANCH  29  30
ATOM     30  C   UNL A   1      31.390  32.256  26.604  1.00  0.00     0.021 C 
BRANCH  30  31
ATOM     31  C   UNL A   1      32.633  32.839  27.249  1.00  0.00     0.116 C 
BRANCH  31  32
ATOM     32  N   UNL A   1      32.440  34.230  27.642  1.00  0.00    -0.352 N 
ATOM     33  C   UNL A   1      32.989  34.946  28.674  1.00  0.00     0.251 C 
ATOM     34  H   UNL A   1      31.815  34.736  27.075  1.00  0.00     0.163 HD
ATOM     35  O   UNL A   1      32.530  36.037  28.985  1.00  0.00    -0.269 OA
BRANCH  33  36
ATOM     36  C   UNL A   1      34.140  34.392  29.410  1.00  0.00     0.039 A 
ATOM     37  C   UNL A   1      33.916  33.692  30.598  1.00  0.00     0.014 A 
ATOM     38  C   UNL A   1      35.439  34.579  28.934  1.00  0.00     0.014 A 
ATOM     39  C   UNL A   1      34.997  33.130  31.276  1.00  0.00     0.010 A 
ATOM     40  C   UNL A   1      36.496  33.925  29.543  1.00  0.00     0.010 A 
ATOM     41  C   UNL A   1      36.289  33.213  30.732  1.00  0.00    -0.014 A 
BRANCH  41  42
ATOM     42  C   UNL A   1      37.454  32.593  31.401  1.00  0.00     0.031 A 
ATOM     43  C   UNL A   1      38.176  31.457  30.732  1.00  0.00     0.074 A 
ATOM     44  C   UNL A   1      37.805  33.000  32.634  1.00  0.00     0.049 A 
ATOM     45  N   UNL A   1      39.160  30.721  31.181  1.00  0.00    -0.248 NA
ATOM     46  C   UNL A   1      37.706  31.074  29.390  1.00  0.00     0.031 C 
ATOM     47  C   UNL A   1      37.142  34.060  33.396  1.00  0.00     0.029 A 
ATOM     48  N   UNL A   1      38.803  32.566  33.467  1.00  0.00    -0.354 N 
ATOM     49  C   UNL A   1      39.411  29.785  30.186  1.00  0.00     0.074 A 
ATOM     50  C   UNL A   1      38.430  29.993  29.147  1.00  0.00     0.031 C 
ATOM     51  C   UNL A   1      37.777  34.221  34.567  1.00  0.00     0.029 A 
ATOM     52  C   UNL A   1      38.858  33.246  34.659  1.00  0.00     0.049 A 
ATOM     53  H   UNL A   1      39.422  31.837  33.232  1.00  0.00     0.167 HD
ATOM     54  C   UNL A   1      40.395  28.856  30.133  1.00  0.00     0.037 A 
ATOM     55  C   UNL A   1      39.689  33.090  35.705  1.00  0.00     0.037 A 
ATOM     56  C   UNL A   1      41.377  28.671  31.168  1.00  0.00     0.049 A 
ATOM     57  C   UNL A   1      40.753  32.029  35.635  1.00  0.00     0.074 A 
ATOM     58  C   UNL A   1      42.445  27.794  31.199  1.00  0.00     0.029 A 
ATOM     59  N   UNL A   1      41.402  29.379  32.363  1.00  0.00    -0.354 N 
ATOM     60  N   UNL A   1      41.027  31.192  34.663  1.00  0.00    -0.248 NA
ATOM     61  C   UNL A   1      41.627  31.894  36.807  1.00  0.00     0.031 C 
ATOM     62  C   UNL A   1      43.084  27.931  32.436  1.00  0.00     0.029 A 
ATOM     63  C   UNL A   1      42.453  28.939  33.150  1.00  0.00     0.049 A 
ATOM     64  H   UNL A   1      40.768  30.089  32.613  1.00  0.00     0.167 HD
ATOM     65  C   UNL A   1      42.126  30.458  35.089  1.00  0.00     0.074 A 
ATOM     66  C   UNL A   1      42.474  30.958  36.404  1.00  0.00     0.031 C 
ATOM     67  C   UNL A   1      42.787  29.460  34.452  1.00  0.00     0.037 A 
BRANCH  54  68
ATOM     68  C   UNL A   1      40.449  27.977  28.914  1.00  0.00     0.064 A 
ATOM     69  C   UNL A   1      39.762  26.753  28.855  1.00  0.00     0.173 A 
ATOM     70  C   UNL A   1      41.194  28.362  27.790  1.00  0.00     0.173 A 
ATOM     71  F   UNL A   1      39.044  26.329  29.906  1.00  0.00    -0.203 F 
ATOM     72  C   UNL A   1      39.855  25.931  27.736  1.00  0.00     0.198 A 
ATOM     73  C   UNL A   1      41.253  27.555  26.657  1.00  0.00     0.198 A 
ATOM     74  F   UNL A   1      41.868  29.522  27.788  1.00  0.00    -0.203 F 
ATOM     75  F   UNL A   1      39.246  24.737  27.731  1.00  0.00    -0.200 F 
ATOM     76  C   UNL A   1      40.595  26.335  26.635  1.00  0.00     0.200 A 
ATOM     77  F   UNL A   1      41.957  27.953  25.588  1.00  0.00    -0.200 F 
ATOM     78  F   UNL A   1      40.682  25.544  25.557  1.00  0.00    -0.200 F 
ENDBRANCH  54  68
BRANCH  55  79
ATOM     79  C   UNL A   1      39.573  33.983  36.887  1.00  0.00     0.064 A 
ATOM     80  C   UNL A   1      40.219  35.227  36.910  1.00  0.00     0.173 A 
ATOM     81  C   UNL A   1      38.819  33.620  38.013  1.00  0.00     0.173 A 
ATOM     82  F   UNL A   1      40.966  35.612  35.864  1.00  0.00    -0.203 F 
ATOM     83  C   UNL A   1      40.136  36.063  38.021  1.00  0.00     0.198 A 
ATOM     84  C   UNL A   1      38.711  34.471  39.111  1.00  0.00     0.198 A 
ATOM     85  F   UNL A   1      38.173  32.445  38.040  1.00  0.00    -0.203 F 
ATOM     86  F   UNL A   1      40.805  37.224  38.035  1.00  0.00    -0.200 F 
ATOM     87  C   UNL A   1      39.378  35.687  39.118  1.00  0.00     0.200 A 
ATOM     88  F   UNL A   1      37.963  34.111  40.164  1.00  0.00    -0.200 F 
ATOM     89  F   UNL A   1      39.296  36.492  40.187  1.00  0.00    -0.200 F 
ENDBRANCH  55  79
BRANCH  67  90
ATOM     90  C   UNL A   1      43.983  28.875  35.148  1.00  0.00     0.064 A 
ATOM     91  C   UNL A   1      45.266  29.425  35.000  1.00  0.00     0.173 A 
ATOM     92  C   UNL A   1      43.834  27.776  36.007  1.00  0.00     0.173 A 
ATOM     93  F   UNL A   1      45.464  30.468  34.179  1.00  0.00    -0.203 F 
ATOM     94  C   UNL A   1      46.359  28.875  35.664  1.00  0.00     0.198 A 
ATOM     95  C   UNL A   1      44.922  27.252  36.697  1.00  0.00     0.198 A 
ATOM     96  F   UNL A   1      42.628  27.218  36.188  1.00  0.00    -0.203 F 
ATOM     97  F   UNL A   1      47.583  29.382  35.467  1.00  0.00    -0.200 F 
ATOM     98  C   UNL A   1      46.185  27.796  36.518  1.00  0.00     0.200 A 
ATOM     99  F   UNL A   1      44.750  26.221  37.535  1.00  0.00    -0.200 F 
ATOM    100  F   UNL A   1      47.237  27.277  37.165  1.00  0.00    -0.200 F 
ENDBRANCH  67  90
ENDBRANCH  41  42
ENDBRANCH  33  36
ENDBRANCH  31  32
ENDBRANCH  30  31
ENDBRANCH  29  30
ENDBRANCH   1  29
TORSDOF 16
ENDMDL
