MODEL 1
REMARK VINA RESULT:     -12.1      0.000      0.000
REMARK SMILES O=C(NCCCCCCNC(=O)[C@@]1([NH2+]C2CC2)CCC[C@@H](Sc2ncn[nH]2)C1)c1ccc(-c2c3nc(c(-c4c(F)c(F)c(F)c(F)c4F)c4ccc([nH]4)c(-c4c(F)c(F)c(F)c(F)c4F)c4nc(c(-c5c(F)c(F)c(F)c(F)c5F)c5ccc2[nH]5)C=C4)C=C3)cc1
REMARK SMILES IDX 6 1 5 2 4 3 3 4 1 5 2 6 29 8 30 9 91 10 31 11 90 12 32 13
REMARK SMILES IDX 33 14 34 15 84 16 35 17 89 18 83 19 85 20 36 21 88 22 82 23
REMARK SMILES IDX 81 24 37 26 69 27 49 28 68 29 50 30 53 31 67 32 86 33 51 34
REMARK SMILES IDX 52 35 66 37 87 38 54 39 38 40 39 41 47 42 40 43 41 44 45 45
REMARK SMILES IDX 48 46 42 47 43 48 46 49 44 50 70 51 71 52 79 53 72 54 73 55
REMARK SMILES IDX 77 56 80 57 74 58 75 59 78 60 76 61 55 62 56 63 64 64 57 65
REMARK SMILES IDX 58 66 62 67 65 68 59 69 60 70 63 71 61 72 7 73 8 74 9 75
REMARK SMILES IDX 10 76 11 77 12 79 13 80 18 81 28 82 19 83 21 84 20 85 14 86
REMARK SMILES IDX 15 89 16 90 17 91 22 92 23 93 24 94 27 95 25 96 26 97
REMARK H PARENT 3 7 85 25 53 36 10 78 14 87 14 88 27 98
REMARK Flexibility Score: inf
ROOT
ATOM      1  C   UNL A   1      31.519  30.704  26.104  1.00  0.00     0.002 C 
ENDROOT
BRANCH   1   2
ATOM      2  C   UNL A   1      31.381  32.170  26.516  1.00  0.00     0.021 C 
BRANCH   2   3
ATOM      3  C   UNL A   1      32.611  32.735  27.206  1.00  0.00     0.116 C 
BRANCH   3   4
ATOM      4  N   UNL A   1      32.414  34.112  27.623  1.00  0.00    -0.352 N 
ATOM      5  O   UNL A   1      32.639  35.893  28.996  1.00  0.00    -0.269 OA
ATOM      6  C   UNL A   1      33.054  34.808  28.623  1.00  0.00     0.251 C 
ATOM      7  H   UNL A   1      31.730  34.616  27.125  1.00  0.00     0.163 HD
BRANCH   6   8
ATOM      8  C   UNL A   1      34.257  34.215  29.249  1.00  0.00     0.039 A 
ATOM      9  C   UNL A   1      34.122  33.272  30.270  1.00  0.00     0.014 A 
ATOM     10  C   UNL A   1      35.525  34.600  28.805  1.00  0.00     0.014 A 
ATOM     11  C   UNL A   1      35.249  32.816  30.936  1.00  0.00     0.010 A 
ATOM     12  C   UNL A   1      36.663  34.060  29.411  1.00  0.00     0.010 A 
ATOM     13  C   UNL A   1      36.533  33.176  30.492  1.00  0.00    -0.014 A 
BRANCH  13  14
ATOM     14  C   UNL A   1      37.706  32.514  31.117  1.00  0.00     0.031 A 
ATOM     15  C   UNL A   1      38.158  32.856  32.506  1.00  0.00     0.074 A 
ATOM     16  C   UNL A   1      38.327  31.547  30.413  1.00  0.00     0.049 A 
ATOM     17  N   UNL A   1      39.127  32.322  33.208  1.00  0.00    -0.248 NA
ATOM     18  C   UNL A   1      37.444  33.939  33.199  1.00  0.00     0.031 C 
ATOM     19  C   UNL A   1      37.984  31.155  29.043  1.00  0.00     0.029 A 
ATOM     20  N   UNL A   1      39.347  30.697  30.753  1.00  0.00    -0.354 N 
ATOM     21  C   UNL A   1      39.143  33.004  34.417  1.00  0.00     0.074 A 
ATOM     22  C   UNL A   1      38.109  34.013  34.344  1.00  0.00     0.031 C 
ATOM     23  C   UNL A   1      38.733  30.105  28.683  1.00  0.00     0.029 A 
ATOM     24  C   UNL A   1      39.656  29.793  29.767  1.00  0.00     0.049 A 
ATOM     25  H   UNL A   1      39.812  30.732  31.621  1.00  0.00     0.167 HD
ATOM     26  C   UNL A   1      39.946  32.794  35.489  1.00  0.00     0.037 A 
ATOM     27  C   UNL A   1      40.590  28.827  29.730  1.00  0.00     0.037 A 
ATOM     28  C   UNL A   1      40.971  31.781  35.551  1.00  0.00     0.049 A 
ATOM     29  C   UNL A   1      41.465  28.626  30.933  1.00  0.00     0.074 A 
ATOM     30  C   UNL A   1      41.831  31.483  36.593  1.00  0.00     0.029 A 
ATOM     31  N   UNL A   1      41.274  30.899  34.522  1.00  0.00    -0.354 N 
ATOM     32  N   UNL A   1      41.453  29.263  32.079  1.00  0.00    -0.248 NA
ATOM     33  C   UNL A   1      42.484  27.575  30.838  1.00  0.00     0.031 C 
ATOM     34  C   UNL A   1      42.679  30.448  36.184  1.00  0.00     0.029 A 
ATOM     35  C   UNL A   1      42.317  30.067  34.902  1.00  0.00     0.049 A 
ATOM     36  H   UNL A   1      40.816  30.868  33.650  1.00  0.00     0.167 HD
ATOM     37  C   UNL A   1      42.457  28.689  32.842  1.00  0.00     0.074 A 
ATOM     38  C   UNL A   1      43.030  27.624  32.044  1.00  0.00     0.031 C 
ATOM     39  C   UNL A   1      42.878  29.020  34.087  1.00  0.00     0.037 A 
BRANCH  26  40
ATOM     40  C   UNL A   1      39.759  33.676  36.689  1.00  0.00     0.064 A 
ATOM     41  C   UNL A   1      40.376  34.933  36.779  1.00  0.00     0.173 A 
ATOM     42  C   UNL A   1      38.895  33.295  37.728  1.00  0.00     0.173 A 
ATOM     43  F   UNL A   1      41.218  35.342  35.818  1.00  0.00    -0.203 F 
ATOM     44  C   UNL A   1      40.145  35.769  37.869  1.00  0.00     0.198 A 
ATOM     45  C   UNL A   1      38.646  34.144  38.803  1.00  0.00     0.198 A 
ATOM     46  F   UNL A   1      38.274  32.106  37.689  1.00  0.00    -0.203 F 
ATOM     47  F   UNL A   1      40.767  36.953  37.947  1.00  0.00    -0.200 F 
ATOM     48  C   UNL A   1      39.273  35.378  38.875  1.00  0.00     0.200 A 
ATOM     49  F   UNL A   1      37.793  33.771  39.768  1.00  0.00    -0.200 F 
ATOM     50  F   UNL A   1      39.039  36.191  39.914  1.00  0.00    -0.200 F 
ENDBRANCH  26  40
BRANCH  27  51
ATOM     51  C   UNL A   1      40.751  27.998  28.510  1.00  0.00     0.064 A 
ATOM     52  C   UNL A   1      40.107  26.759  28.381  1.00  0.00     0.173 A 
ATOM     53  C   UNL A   1      41.556  28.428  27.443  1.00  0.00     0.173 A 
ATOM     54  F   UNL A   1      39.341  26.296  29.380  1.00  0.00    -0.203 F 
ATOM     55  C   UNL A   1      40.281  25.973  27.244  1.00  0.00     0.198 A 
ATOM     56  C   UNL A   1      41.700  27.658  26.293  1.00  0.00     0.198 A 
ATOM     57  F   UNL A   1      42.189  29.609  27.513  1.00  0.00    -0.203 F 
ATOM     58  F   UNL A   1      39.696  24.771  27.169  1.00  0.00    -0.200 F 
ATOM     59  C   UNL A   1      41.071  26.426  26.198  1.00  0.00     0.200 A 
ATOM     60  F   UNL A   1      42.448  28.110  25.277  1.00  0.00    -0.200 F 
ATOM     61  F   UNL A   1      41.234  25.672  25.103  1.00  0.00    -0.200 F 
ENDBRANCH  27  51
BRANCH  39  62
ATOM     62  C   UNL A   1      44.007  28.208  34.652  1.00  0.00     0.064 A 
ATOM     63  C   UNL A   1      45.342  28.619  34.518  1.00  0.00     0.173 A 
ATOM     64  C   UNL A   1      43.751  27.008  35.329  1.00  0.00     0.173 A 
ATOM     65  F   UNL A   1      45.638  29.751  33.863  1.00  0.00    -0.203 F 
ATOM     66  C   UNL A   1      46.383  27.835  35.007  1.00  0.00     0.198 A 
ATOM     67  C   UNL A   1      44.793  26.242  35.844  1.00  0.00     0.198 A 
ATOM     68  F   UNL A   1      42.491  26.575  35.488  1.00  0.00    -0.203 F 
ATOM     69  F   UNL A   1      47.653  28.213  34.810  1.00  0.00    -0.200 F 
ATOM     70  C   UNL A   1      46.107  26.650  35.673  1.00  0.00     0.200 A 
ATOM     71  F   UNL A   1      44.525  25.102  36.497  1.00  0.00    -0.200 F 
ATOM     72  F   UNL A   1      47.110  25.892  36.138  1.00  0.00    -0.200 F 
ENDBRANCH  39  62
ENDBRANCH  13  14
ENDBRANCH   6   8
ENDBRANCH   3   4
ENDBRANCH   2   3
ENDBRANCH   1   2
BRANCH   1  73
ATOM     73  C   UNL A   1      32.384  29.846  27.039  1.00  0.00     0.002 C 
BRANCH  73  74
ATOM     74  C   UNL A   1      31.745  28.523  27.486  1.00  0.00     0.021 C 
BRANCH  74  75
ATOM     75  C   UNL A   1      31.329  27.624  26.319  1.00  0.00     0.116 C 
BRANCH  75  76
ATOM     76  N   UNL A   1      30.961  26.306  26.802  1.00  0.00    -0.351 N 
ATOM     77  C   UNL A   1      31.119  25.038  26.339  1.00  0.00     0.281 C 
ATOM     78  H   UNL A   1      30.487  26.338  27.665  1.00  0.00     0.163 HD
ATOM     79  O   UNL A   1      30.229  24.278  26.748  1.00  0.00    -0.268 OA
BRANCH  77  80
ATOM     80  C   UNL A   1      32.287  24.515  25.402  1.00  0.00     0.176 C 
ATOM     81  C   UNL A   1      33.467  25.518  25.420  1.00  0.00     0.079 C 
ATOM     82  C   UNL A   1      32.867  23.164  25.876  1.00  0.00     0.094 C 
ATOM     83  C   UNL A   1      34.677  25.056  24.597  1.00  0.00     0.008 C 
ATOM     84  C   UNL A   1      34.114  22.653  25.149  1.00  0.00     0.061 C 
ATOM     85  C   UNL A   1      35.216  23.712  25.079  1.00  0.00     0.015 C 
BRANCH  80  86
ATOM     86  N   UNL A   1      31.766  24.295  24.025  1.00  0.00    -0.331 N 
ATOM     87  H   UNL A   1      31.080  23.543  24.101  1.00  0.00     0.347 HD
ATOM     88  H   UNL A   1      32.629  24.146  23.503  1.00  0.00     0.347 HD
BRANCH  86  89
ATOM     89  C   UNL A   1      31.122  25.354  23.236  1.00  0.00     0.183 C 
ATOM     90  C   UNL A   1      31.608  26.742  22.936  1.00  0.00     0.071 C 
ATOM     91  C   UNL A   1      31.744  25.686  21.893  1.00  0.00     0.071 C 
ENDBRANCH  86  89
ENDBRANCH  80  86
BRANCH  84  92
ATOM     92  S   UNL A   1      34.753  21.089  25.886  1.00  0.00    -0.083 SA
BRANCH  92  93
ATOM     93  C   UNL A   1      33.674  19.884  25.293  1.00  0.00     0.183 A 
ATOM     94  N   UNL A   1      33.393  19.568  24.052  1.00  0.00    -0.210 NA
ATOM     95  N   UNL A   1      32.978  19.078  26.140  1.00  0.00    -0.254 N 
ATOM     96  C   UNL A   1      32.474  18.567  24.196  1.00  0.00     0.247 A 
ATOM     97  N   UNL A   1      32.182  18.234  25.456  1.00  0.00    -0.162 NA
ATOM     98  H   UNL A   1      33.047  19.108  27.121  1.00  0.00     0.192 HD
ENDBRANCH  92  93
ENDBRANCH  84  92
ENDBRANCH  77  80
ENDBRANCH  75  76
ENDBRANCH  74  75
ENDBRANCH  73  74
ENDBRANCH   1  73
TORSDOF 17
ENDMDL
MODEL 2
REMARK VINA RESULT:     -12.0      0.341      1.689
REMARK SMILES O=C(NCCCCCCNC(=O)[C@@]1([NH2+]C2CC2)CCC[C@@H](Sc2ncn[nH]2)C1)c1ccc(-c2c3nc(c(-c4c(F)c(F)c(F)c(F)c4F)c4ccc([nH]4)c(-c4c(F)c(F)c(F)c(F)c4F)c4nc(c(-c5c(F)c(F)c(F)c(F)c5F)c5ccc2[nH]5)C=C4)C=C3)cc1
REMARK SMILES IDX 6 1 5 2 4 3 3 4 1 5 2 6 29 8 30 9 91 10 31 11 90 12 32 13
REMARK SMILES IDX 33 14 34 15 84 16 35 17 89 18 83 19 85 20 36 21 88 22 82 23
REMARK SMILES IDX 81 24 37 26 69 27 49 28 68 29 50 30 53 31 67 32 86 33 51 34
REMARK SMILES IDX 52 35 66 37 87 38 54 39 38 40 39 41 47 42 40 43 41 44 45 45
REMARK SMILES IDX 48 46 42 47 43 48 46 49 44 50 70 51 71 52 79 53 72 54 73 55
REMARK SMILES IDX 77 56 80 57 74 58 75 59 78 60 76 61 55 62 56 63 64 64 57 65
REMARK SMILES IDX 58 66 62 67 65 68 59 69 60 70 63 71 61 72 7 73 8 74 9 75
REMARK SMILES IDX 10 76 11 77 12 79 13 80 18 81 28 82 19 83 21 84 20 85 14 86
REMARK SMILES IDX 15 89 16 90 17 91 22 92 23 93 24 94 27 95 25 96 26 97
REMARK H PARENT 3 7 85 25 53 36 10 78 14 87 14 88 27 98
REMARK Flexibility Score: inf
ROOT
ATOM      1  C   UNL A   1      31.419  30.943  26.180  1.00  0.00     0.002 C 
ENDROOT
BRANCH   1   2
ATOM      2  C   UNL A   1      31.369  32.433  26.519  1.00  0.00     0.021 C 
BRANCH   2   3
ATOM      3  C   UNL A   1      32.628  32.954  27.193  1.00  0.00     0.116 C 
BRANCH   3   4
ATOM      4  N   UNL A   1      32.448  34.301  27.708  1.00  0.00    -0.352 N 
ATOM      5  O   UNL A   1      32.675  35.967  29.216  1.00  0.00    -0.269 OA
ATOM      6  C   UNL A   1      33.077  34.905  28.773  1.00  0.00     0.251 C 
ATOM      7  H   UNL A   1      31.788  34.856  27.233  1.00  0.00     0.163 HD
BRANCH   6   8
ATOM      8  C   UNL A   1      34.251  34.238  29.381  1.00  0.00     0.039 A 
ATOM      9  C   UNL A   1      35.542  34.624  29.015  1.00  0.00     0.014 A 
ATOM     10  C   UNL A   1      34.055  33.228  30.327  1.00  0.00     0.014 A 
ATOM     11  C   UNL A   1      36.632  33.912  29.492  1.00  0.00     0.010 A 
ATOM     12  C   UNL A   1      35.162  32.580  30.884  1.00  0.00     0.010 A 
ATOM     13  C   UNL A   1      36.457  32.906  30.459  1.00  0.00    -0.014 A 
BRANCH  13  14
ATOM     14  C   UNL A   1      37.666  32.306  31.075  1.00  0.00     0.031 A 
ATOM     15  C   UNL A   1      38.117  32.679  32.457  1.00  0.00     0.074 A 
ATOM     16  C   UNL A   1      38.326  31.364  30.372  1.00  0.00     0.049 A 
ATOM     17  N   UNL A   1      39.117  32.197  33.152  1.00  0.00    -0.248 NA
ATOM     18  C   UNL A   1      37.359  33.732  33.150  1.00  0.00     0.031 C 
ATOM     19  C   UNL A   1      37.987  30.945  29.009  1.00  0.00     0.029 A 
ATOM     20  N   UNL A   1      39.388  30.566  30.707  1.00  0.00    -0.354 N 
ATOM     21  C   UNL A   1      39.114  32.888  34.356  1.00  0.00     0.074 A 
ATOM     22  C   UNL A   1      38.032  33.847  34.287  1.00  0.00     0.031 C 
ATOM     23  C   UNL A   1      38.781  29.929  28.648  1.00  0.00     0.029 A 
ATOM     24  C   UNL A   1      39.729  29.669  29.725  1.00  0.00     0.049 A 
ATOM     25  H   UNL A   1      39.860  30.629  31.569  1.00  0.00     0.167 HD
ATOM     26  C   UNL A   1      39.937  32.725  35.421  1.00  0.00     0.037 A 
ATOM     27  C   UNL A   1      40.708  28.749  29.685  1.00  0.00     0.037 A 
ATOM     28  C   UNL A   1      41.009  31.762  35.479  1.00  0.00     0.049 A 
ATOM     29  C   UNL A   1      41.604  28.599  30.880  1.00  0.00     0.074 A 
ATOM     30  C   UNL A   1      41.894  31.514  36.514  1.00  0.00     0.029 A 
ATOM     31  N   UNL A   1      41.343  30.888  34.453  1.00  0.00    -0.354 N 
ATOM     32  N   UNL A   1      41.574  29.243  32.021  1.00  0.00    -0.248 NA
ATOM     33  C   UNL A   1      42.670  27.596  30.781  1.00  0.00     0.031 C 
ATOM     34  C   UNL A   1      42.785  30.517  36.103  1.00  0.00     0.029 A 
ATOM     35  C   UNL A   1      42.428  30.110  34.828  1.00  0.00     0.049 A 
ATOM     36  H   UNL A   1      40.878  30.828  33.587  1.00  0.00     0.167 HD
ATOM     37  C   UNL A   1      42.612  28.724  32.777  1.00  0.00     0.074 A 
ATOM     38  C   UNL A   1      43.226  27.681  31.981  1.00  0.00     0.031 C 
ATOM     39  C   UNL A   1      43.030  29.084  34.015  1.00  0.00     0.037 A 
BRANCH  26  40
ATOM     40  C   UNL A   1      39.720  33.607  36.617  1.00  0.00     0.064 A 
ATOM     41  C   UNL A   1      40.335  34.864  36.722  1.00  0.00     0.173 A 
ATOM     42  C   UNL A   1      38.831  33.225  37.633  1.00  0.00     0.173 A 
ATOM     43  F   UNL A   1      41.201  35.272  35.782  1.00  0.00    -0.203 F 
ATOM     44  C   UNL A   1      40.078  35.700  37.806  1.00  0.00     0.198 A 
ATOM     45  C   UNL A   1      38.556  34.075  38.702  1.00  0.00     0.198 A 
ATOM     46  F   UNL A   1      38.211  32.037  37.578  1.00  0.00    -0.203 F 
ATOM     47  F   UNL A   1      40.699  36.883  37.900  1.00  0.00    -0.200 F 
ATOM     48  C   UNL A   1      39.182  35.309  38.790  1.00  0.00     0.200 A 
ATOM     49  F   UNL A   1      37.680  33.701  39.646  1.00  0.00    -0.200 F 
ATOM     50  F   UNL A   1      38.923  36.121  39.824  1.00  0.00    -0.200 F 
ENDBRANCH  26  40
BRANCH  27  51
ATOM     51  C   UNL A   1      40.895  27.918  28.468  1.00  0.00     0.064 A 
ATOM     52  C   UNL A   1      41.726  28.339  27.421  1.00  0.00     0.173 A 
ATOM     53  C   UNL A   1      40.245  26.683  28.329  1.00  0.00     0.173 A 
ATOM     54  F   UNL A   1      42.357  29.520  27.499  1.00  0.00    -0.203 F 
ATOM     55  C   UNL A   1      41.881  27.567  26.271  1.00  0.00     0.198 A 
ATOM     56  C   UNL A   1      40.427  25.896  27.194  1.00  0.00     0.198 A 
ATOM     57  F   UNL A   1      39.444  26.230  29.305  1.00  0.00    -0.203 F 
ATOM     58  F   UNL A   1      42.639  28.017  25.263  1.00  0.00    -0.200 F 
ATOM     59  C   UNL A   1      41.236  26.344  26.162  1.00  0.00     0.200 A 
ATOM     60  F   UNL A   1      39.819  24.705  27.103  1.00  0.00    -0.200 F 
ATOM     61  F   UNL A   1      41.389  25.600  25.058  1.00  0.00    -0.200 F 
ENDBRANCH  27  51
BRANCH  39  62
ATOM     62  C   UNL A   1      44.202  28.331  34.574  1.00  0.00     0.064 A 
ATOM     63  C   UNL A   1      44.028  27.142  35.299  1.00  0.00     0.173 A 
ATOM     64  C   UNL A   1      45.508  28.805  34.387  1.00  0.00     0.173 A 
ATOM     65  F   UNL A   1      42.797  26.659  35.519  1.00  0.00    -0.203 F 
ATOM     66  C   UNL A   1      45.119  26.477  35.851  1.00  0.00     0.198 A 
ATOM     67  C   UNL A   1      46.599  28.120  34.914  1.00  0.00     0.198 A 
ATOM     68  F   UNL A   1      45.726  29.934  33.697  1.00  0.00    -0.203 F 
ATOM     69  F   UNL A   1      44.925  25.379  36.595  1.00  0.00    -0.200 F 
ATOM     70  C   UNL A   1      46.403  26.963  35.654  1.00  0.00     0.200 A 
ATOM     71  F   UNL A   1      47.840  28.586  34.715  1.00  0.00    -0.200 F 
ATOM     72  F   UNL A   1      47.452  26.326  36.192  1.00  0.00    -0.200 F 
ENDBRANCH  39  62
ENDBRANCH  13  14
ENDBRANCH   6   8
ENDBRANCH   3   4
ENDBRANCH   2   3
ENDBRANCH   1   2
BRANCH   1  73
ATOM     73  C   UNL A   1      32.542  30.158  26.872  1.00  0.00     0.002 C 
BRANCH  73  74
ATOM     74  C   UNL A   1      32.211  28.692  27.191  1.00  0.00     0.021 C 
BRANCH  74  75
ATOM     75  C   UNL A   1      31.415  27.994  26.086  1.00  0.00     0.116 C 
BRANCH  75  76
ATOM     76  N   UNL A   1      30.825  26.766  26.586  1.00  0.00    -0.351 N 
ATOM     77  C   UNL A   1      30.935  25.450  26.262  1.00  0.00     0.281 C 
ATOM     78  H   UNL A   1      30.202  26.922  27.333  1.00  0.00     0.163 HD
ATOM     79  O   UNL A   1      29.909  24.814  26.544  1.00  0.00    -0.268 OA
BRANCH  77  80
ATOM     80  C   UNL A   1      32.199  24.739  25.620  1.00  0.00     0.176 C 
ATOM     81  C   UNL A   1      33.467  25.595  25.863  1.00  0.00     0.079 C 
ATOM     82  C   UNL A   1      32.488  23.359  26.252  1.00  0.00     0.094 C 
ATOM     83  C   UNL A   1      34.754  24.946  25.338  1.00  0.00     0.008 C 
ATOM     84  C   UNL A   1      33.785  22.663  25.830  1.00  0.00     0.061 C 
ATOM     85  C   UNL A   1      35.003  23.579  25.969  1.00  0.00     0.015 C 
BRANCH  80  86
ATOM     86  N   UNL A   1      31.959  24.501  24.171  1.00  0.00    -0.331 N 
ATOM     87  H   UNL A   1      31.343  23.689  24.117  1.00  0.00     0.347 HD
ATOM     88  H   UNL A   1      32.912  24.441  23.814  1.00  0.00     0.347 HD
BRANCH  86  89
ATOM     89  C   UNL A   1      31.373  25.513  23.281  1.00  0.00     0.183 C 
ATOM     90  C   UNL A   1      32.014  26.727  22.674  1.00  0.00     0.071 C 
ATOM     91  C   UNL A   1      31.833  25.508  21.836  1.00  0.00     0.071 C 
ENDBRANCH  86  89
ENDBRANCH  80  86
BRANCH  84  92
ATOM     92  S   UNL A   1      34.049  21.081  26.739  1.00  0.00    -0.083 SA
BRANCH  92  93
ATOM     93  C   UNL A   1      33.261  19.906  25.754  1.00  0.00     0.183 A 
ATOM     94  N   UNL A   1      32.956  19.969  24.481  1.00  0.00    -0.210 NA
ATOM     95  N   UNL A   1      32.875  18.703  26.260  1.00  0.00    -0.254 N 
ATOM     96  C   UNL A   1      32.340  18.770  24.260  1.00  0.00     0.247 A 
ATOM     97  N   UNL A   1      32.261  17.961  25.319  1.00  0.00    -0.162 NA
ATOM     98  H   UNL A   1      33.025  18.414  27.189  1.00  0.00     0.192 HD
ENDBRANCH  92  93
ENDBRANCH  84  92
ENDBRANCH  77  80
ENDBRANCH  75  76
ENDBRANCH  74  75
ENDBRANCH  73  74
ENDBRANCH   1  73
TORSDOF 17
ENDMDL
MODEL 3
REMARK VINA RESULT:     -11.9      1.938      3.728
REMARK SMILES O=C(NCCCCCCNC(=O)[C@@]1([NH2+]C2CC2)CCC[C@@H](Sc2ncn[nH]2)C1)c1ccc(-c2c3nc(c(-c4c(F)c(F)c(F)c(F)c4F)c4ccc([nH]4)c(-c4c(F)c(F)c(F)c(F)c4F)c4nc(c(-c5c(F)c(F)c(F)c(F)c5F)c5ccc2[nH]5)C=C4)C=C3)cc1
REMARK SMILES IDX 6 1 5 2 4 3 3 4 1 5 2 6 29 8 30 9 91 10 31 11 90 12 32 13
REMARK SMILES IDX 33 14 34 15 84 16 35 17 89 18 83 19 85 20 36 21 88 22 82 23
REMARK SMILES IDX 81 24 37 26 69 27 49 28 68 29 50 30 53 31 67 32 86 33 51 34
REMARK SMILES IDX 52 35 66 37 87 38 54 39 38 40 39 41 47 42 40 43 41 44 45 45
REMARK SMILES IDX 48 46 42 47 43 48 46 49 44 50 70 51 71 52 79 53 72 54 73 55
REMARK SMILES IDX 77 56 80 57 74 58 75 59 78 60 76 61 55 62 56 63 64 64 57 65
REMARK SMILES IDX 58 66 62 67 65 68 59 69 60 70 63 71 61 72 7 73 8 74 9 75
REMARK SMILES IDX 10 76 11 77 12 79 13 80 18 81 28 82 19 83 21 84 20 85 14 86
REMARK SMILES IDX 15 89 16 90 17 91 22 92 23 93 24 94 27 95 25 96 26 97
REMARK H PARENT 3 7 85 25 53 36 10 78 14 87 14 88 27 98
REMARK Flexibility Score: inf
ROOT
ATOM      1  C   UNL A   1      31.612  30.411  25.955  1.00  0.00     0.002 C 
ENDROOT
BRANCH   1   2
ATOM      2  C   UNL A   1      31.403  31.824  26.501  1.00  0.00     0.021 C 
BRANCH   2   3
ATOM      3  C   UNL A   1      32.662  32.457  27.070  1.00  0.00     0.116 C 
BRANCH   3   4
ATOM      4  N   UNL A   1      32.436  33.829  27.490  1.00  0.00    -0.352 N 
ATOM      5  O   UNL A   1      32.614  35.607  28.873  1.00  0.00    -0.269 OA
ATOM      6  C   UNL A   1      33.053  34.532  28.500  1.00  0.00     0.251 C 
ATOM      7  H   UNL A   1      31.749  34.323  26.987  1.00  0.00     0.163 HD
BRANCH   6   8
ATOM      8  C   UNL A   1      34.259  33.957  29.137  1.00  0.00     0.039 A 
ATOM      9  C   UNL A   1      34.131  32.963  30.110  1.00  0.00     0.014 A 
ATOM     10  C   UNL A   1      35.523  34.411  28.753  1.00  0.00     0.014 A 
ATOM     11  C   UNL A   1      35.254  32.520  30.791  1.00  0.00     0.010 A 
ATOM     12  C   UNL A   1      36.663  33.887  29.371  1.00  0.00     0.010 A 
ATOM     13  C   UNL A   1      36.536  32.950  30.405  1.00  0.00    -0.014 A 
BRANCH  13  14
ATOM     14  C   UNL A   1      37.714  32.305  31.037  1.00  0.00     0.031 A 
ATOM     15  C   UNL A   1      38.148  32.646  32.432  1.00  0.00     0.074 A 
ATOM     16  C   UNL A   1      38.359  31.354  30.333  1.00  0.00     0.049 A 
ATOM     17  N   UNL A   1      39.119  32.126  33.140  1.00  0.00    -0.248 NA
ATOM     18  C   UNL A   1      37.407  33.712  33.125  1.00  0.00     0.031 C 
ATOM     19  C   UNL A   1      38.035  30.964  28.958  1.00  0.00     0.029 A 
ATOM     20  N   UNL A   1      39.390  30.520  30.678  1.00  0.00    -0.354 N 
ATOM     21  C   UNL A   1      39.112  32.800  34.353  1.00  0.00     0.074 A 
ATOM     22  C   UNL A   1      38.060  33.791  34.277  1.00  0.00     0.031 C 
ATOM     23  C   UNL A   1      38.806  29.929  28.599  1.00  0.00     0.029 A 
ATOM     24  C   UNL A   1      39.725  29.627  29.690  1.00  0.00     0.049 A 
ATOM     25  H   UNL A   1      39.847  30.558  31.550  1.00  0.00     0.167 HD
ATOM     26  C   UNL A   1      39.909  32.598  35.431  1.00  0.00     0.037 A 
ATOM     27  C   UNL A   1      40.676  28.678  29.656  1.00  0.00     0.037 A 
ATOM     28  C   UNL A   1      40.951  31.603  35.496  1.00  0.00     0.049 A 
ATOM     29  C   UNL A   1      41.543  28.486  30.866  1.00  0.00     0.074 A 
ATOM     30  C   UNL A   1      41.807  31.315  36.545  1.00  0.00     0.029 A 
ATOM     31  N   UNL A   1      41.280  30.733  34.465  1.00  0.00    -0.354 N 
ATOM     32  N   UNL A   1      41.510  29.115  32.015  1.00  0.00    -0.248 NA
ATOM     33  C   UNL A   1      42.582  27.453  30.773  1.00  0.00     0.031 C 
ATOM     34  C   UNL A   1      42.677  30.297  36.137  1.00  0.00     0.029 A 
ATOM     35  C   UNL A   1      42.333  29.918  34.851  1.00  0.00     0.049 A 
ATOM     36  H   UNL A   1      40.830  30.699  33.590  1.00  0.00     0.167 HD
ATOM     37  C   UNL A   1      42.517  28.555  32.784  1.00  0.00     0.074 A 
ATOM     38  C   UNL A   1      43.116  27.505  31.985  1.00  0.00     0.031 C 
ATOM     39  C   UNL A   1      42.921  28.886  34.035  1.00  0.00     0.037 A 
BRANCH  26  40
ATOM     40  C   UNL A   1      39.694  33.469  36.635  1.00  0.00     0.064 A 
ATOM     41  C   UNL A   1      40.316  34.722  36.754  1.00  0.00     0.173 A 
ATOM     42  C   UNL A   1      38.801  33.083  37.646  1.00  0.00     0.173 A 
ATOM     43  F   UNL A   1      41.186  35.135  35.819  1.00  0.00    -0.203 F 
ATOM     44  C   UNL A   1      40.061  35.549  37.845  1.00  0.00     0.198 A 
ATOM     45  C   UNL A   1      38.529  33.923  38.723  1.00  0.00     0.198 A 
ATOM     46  F   UNL A   1      38.175  31.899  37.579  1.00  0.00    -0.203 F 
ATOM     47  F   UNL A   1      40.688  36.728  37.952  1.00  0.00    -0.200 F 
ATOM     48  C   UNL A   1      39.161  35.153  38.824  1.00  0.00     0.200 A 
ATOM     49  F   UNL A   1      37.648  33.546  39.661  1.00  0.00    -0.200 F 
ATOM     50  F   UNL A   1      38.904  35.957  39.864  1.00  0.00    -0.200 F 
ENDBRANCH  26  40
BRANCH  27  51
ATOM     51  C   UNL A   1      40.864  27.859  28.432  1.00  0.00     0.064 A 
ATOM     52  C   UNL A   1      41.688  28.294  27.385  1.00  0.00     0.173 A 
ATOM     53  C   UNL A   1      40.219  26.621  28.284  1.00  0.00     0.173 A 
ATOM     54  F   UNL A   1      42.312  29.478  27.470  1.00  0.00    -0.203 F 
ATOM     55  C   UNL A   1      41.842  27.532  26.227  1.00  0.00     0.198 A 
ATOM     56  C   UNL A   1      40.402  25.845  27.143  1.00  0.00     0.198 A 
ATOM     57  F   UNL A   1      39.425  26.156  29.260  1.00  0.00    -0.203 F 
ATOM     58  F   UNL A   1      42.593  27.995  25.220  1.00  0.00    -0.200 F 
ATOM     59  C   UNL A   1      41.204  26.306  26.110  1.00  0.00     0.200 A 
ATOM     60  F   UNL A   1      39.800  24.652  27.044  1.00  0.00    -0.200 F 
ATOM     61  F   UNL A   1      41.356  25.573  25.000  1.00  0.00    -0.200 F 
ENDBRANCH  27  51
BRANCH  39  62
ATOM     62  C   UNL A   1      44.058  28.091  34.605  1.00  0.00     0.064 A 
ATOM     63  C   UNL A   1      45.390  28.510  34.460  1.00  0.00     0.173 A 
ATOM     64  C   UNL A   1      43.816  26.897  35.299  1.00  0.00     0.173 A 
ATOM     65  F   UNL A   1      45.674  29.636  33.788  1.00  0.00    -0.203 F 
ATOM     66  C   UNL A   1      46.439  27.741  34.954  1.00  0.00     0.198 A 
ATOM     67  C   UNL A   1      44.866  26.147  35.820  1.00  0.00     0.198 A 
ATOM     68  F   UNL A   1      42.560  26.457  35.470  1.00  0.00    -0.203 F 
ATOM     69  F   UNL A   1      47.706  28.127  34.746  1.00  0.00    -0.200 F 
ATOM     70  C   UNL A   1      46.176  26.563  35.638  1.00  0.00     0.200 A 
ATOM     71  F   UNL A   1      44.610  25.014  36.489  1.00  0.00    -0.200 F 
ATOM     72  F   UNL A   1      47.187  25.820  36.108  1.00  0.00    -0.200 F 
ENDBRANCH  39  62
ENDBRANCH  13  14
ENDBRANCH   6   8
ENDBRANCH   3   4
ENDBRANCH   2   3
ENDBRANCH   1   2
BRANCH   1  73
ATOM     73  C   UNL A   1      31.780  29.322  27.024  1.00  0.00     0.002 C 
BRANCH  73  74
ATOM     74  C   UNL A   1      33.210  28.784  27.186  1.00  0.00     0.021 C 
BRANCH  74  75
ATOM     75  C   UNL A   1      33.621  27.807  26.083  1.00  0.00     0.116 C 
BRANCH  75  76
ATOM     76  N   UNL A   1      33.109  26.479  26.366  1.00  0.00    -0.351 N 
ATOM     77  C   UNL A   1      31.984  25.795  26.028  1.00  0.00     0.281 C 
ATOM     78  H   UNL A   1      33.716  25.952  26.934  1.00  0.00     0.163 HD
ATOM     79  O   UNL A   1      31.685  24.941  26.875  1.00  0.00    -0.268 OA
BRANCH  77  80
ATOM     80  C   UNL A   1      31.118  25.995  24.715  1.00  0.00     0.176 C 
ATOM     81  C   UNL A   1      29.615  26.078  25.081  1.00  0.00     0.079 C 
ATOM     82  C   UNL A   1      31.450  27.311  23.978  1.00  0.00     0.094 C 
ATOM     83  C   UNL A   1      28.704  26.345  23.876  1.00  0.00     0.008 C 
ATOM     84  C   UNL A   1      30.553  27.689  22.796  1.00  0.00     0.061 C 
ATOM     85  C   UNL A   1      29.068  27.642  23.161  1.00  0.00     0.015 C 
BRANCH  80  86
ATOM     86  N   UNL A   1      31.395  24.889  23.757  1.00  0.00    -0.331 N 
ATOM     87  H   UNL A   1      30.607  24.874  23.109  1.00  0.00     0.347 HD
ATOM     88  H   UNL A   1      31.549  24.105  24.390  1.00  0.00     0.347 HD
BRANCH  86  89
ATOM     89  C   UNL A   1      32.605  24.838  22.924  1.00  0.00     0.183 C 
ATOM     90  C   UNL A   1      34.027  24.588  23.333  1.00  0.00     0.071 C 
ATOM     91  C   UNL A   1      33.244  23.478  22.722  1.00  0.00     0.071 C 
ENDBRANCH  86  89
ENDBRANCH  80  86
BRANCH  84  92
ATOM     92  S   UNL A   1      31.003  29.328  22.082  1.00  0.00    -0.083 SA
BRANCH  92  93
ATOM     93  C   UNL A   1      29.527  30.217  22.134  1.00  0.00     0.183 A 
ATOM     94  N   UNL A   1      28.558  30.256  21.252  1.00  0.00    -0.210 NA
ATOM     95  N   UNL A   1      29.213  31.005  23.198  1.00  0.00    -0.254 N 
ATOM     96  C   UNL A   1      27.672  31.128  21.818  1.00  0.00     0.247 A 
ATOM     97  N   UNL A   1      28.029  31.619  23.007  1.00  0.00    -0.162 NA
ATOM     98  H   UNL A   1      29.775  31.112  23.998  1.00  0.00     0.192 HD
ENDBRANCH  92  93
ENDBRANCH  84  92
ENDBRANCH  77  80
ENDBRANCH  75  76
ENDBRANCH  74  75
ENDBRANCH  73  74
ENDBRANCH   1  73
TORSDOF 17
ENDMDL
