MODEL 1
REMARK VINA RESULT:     -11.7      0.000      0.000
REMARK SMILES Cc1cc(S[C@@H](C)c2ccc(C(=O)NCCCCCCNC(=O)c3ccc(-c4c5nc(c(-c6c(F)c(F)c(F)c(F)c6F)c6ccc([nH]6)c(-c6c(F)c(F)c(F)c(F)c6F)c6nc(c(-c7c(F)c(F)c(F)c(F)c7F)c7ccc4[nH]7)C=C6)C=C5)cc3)o2)n(C)n1
REMARK SMILES IDX 17 1 16 2 15 3 14 4 12 5 13 6 11 8 8 9 9 10 87 11 10 12 6 13
REMARK SMILES IDX 7 14 5 15 4 16 1 17 2 18 3 19 90 20 88 21 89 22 18 23 19 24
REMARK SMILES IDX 20 25 21 26 22 27 23 29 24 30 25 31 86 32 26 33 85 34 27 35
REMARK SMILES IDX 28 36 29 37 79 38 30 39 84 40 78 41 80 42 31 43 83 44 77 45
REMARK SMILES IDX 76 46 32 48 64 49 44 50 63 51 45 52 48 53 62 54 81 55 46 56
REMARK SMILES IDX 47 57 61 59 82 60 49 61 33 62 34 63 42 64 35 65 36 66 40 67
REMARK SMILES IDX 43 68 37 69 38 70 41 71 39 72 65 73 66 74 74 75 67 76 68 77
REMARK SMILES IDX 72 78 75 79 69 80 70 81 73 82 71 83 50 84 51 85 59 86 52 87
REMARK SMILES IDX 53 88 57 89 60 90 54 91 55 92 58 93 56 94
REMARK H PARENT 14 7 21 28 80 47 48 58
REMARK Flexibility Score: inf
ROOT
ATOM      1  C   UNL A   1      37.327  21.890  24.490  1.00  0.00     0.002 C 
ENDROOT
BRANCH   1   2
ATOM      2  C   UNL A   1      37.600  22.889  25.625  1.00  0.00     0.021 C 
BRANCH   2   3
ATOM      3  C   UNL A   1      36.359  23.665  26.067  1.00  0.00     0.116 C 
BRANCH   3   4
ATOM      4  N   UNL A   1      35.503  22.837  26.883  1.00  0.00    -0.349 N 
ATOM      5  C   UNL A   1      34.286  22.251  26.642  1.00  0.00     0.286 C 
ATOM      6  O   UNL A   1      33.833  21.593  27.583  1.00  0.00    -0.266 OA
ATOM      7  H   UNL A   1      35.859  22.661  27.783  1.00  0.00     0.163 HD
BRANCH   5   8
ATOM      8  C   UNL A   1      33.589  22.388  25.375  1.00  0.00     0.191 A 
ATOM      9  C   UNL A   1      32.341  23.580  23.966  1.00  0.00     0.118 A 
ATOM     10  C   UNL A   1      32.607  22.382  23.337  1.00  0.00     0.047 A 
ATOM     11  O   UNL A   1      32.910  23.566  25.199  1.00  0.00    -0.455 OA
ATOM     12  C   UNL A   1      33.433  21.638  24.221  1.00  0.00     0.056 A 
BRANCH   9  13
ATOM     13  C   UNL A   1      31.607  24.810  23.523  1.00  0.00     0.116 C 
ATOM     14  C   UNL A   1      32.407  25.613  22.497  1.00  0.00     0.028 C 
BRANCH  13  15
ATOM     15  S   UNL A   1      30.917  25.856  24.846  1.00  0.00    -0.096 SA
BRANCH  15  16
ATOM     16  C   UNL A   1      30.260  27.287  24.106  1.00  0.00     0.095 A 
ATOM     17  C   UNL A   1      28.255  29.646  22.132  1.00  0.00     0.069 C 
ATOM     18  C   UNL A   1      29.194  28.889  22.994  1.00  0.00     0.061 A 
ATOM     19  C   UNL A   1      29.140  27.523  23.341  1.00  0.00     0.060 A 
ATOM     20  N   UNL A   1      30.252  29.494  23.539  1.00  0.00    -0.178 NA
ATOM     21  N   UNL A   1      30.912  28.496  24.171  1.00  0.00    -0.262 N 
ATOM     22  C   UNL A   1      32.175  28.831  24.785  1.00  0.00     0.175 C 
ENDBRANCH  15  16
ENDBRANCH  13  15
ENDBRANCH   9  13
ENDBRANCH   5   8
ENDBRANCH   3   4
ENDBRANCH   2   3
ENDBRANCH   1   2
BRANCH   1  23
ATOM     23  C   UNL A   1      37.119  20.436  24.935  1.00  0.00     0.002 C 
BRANCH  23  24
ATOM     24  C   UNL A   1      38.369  19.553  24.886  1.00  0.00     0.021 C 
BRANCH  24  25
ATOM     25  C   UNL A   1      39.419  19.882  25.943  1.00  0.00     0.116 C 
BRANCH  25  26
ATOM     26  N   UNL A   1      40.502  18.912  25.955  1.00  0.00    -0.352 N 
ATOM     27  C   UNL A   1      41.856  19.118  26.030  1.00  0.00     0.251 C 
ATOM     28  H   UNL A   1      40.223  17.969  25.900  1.00  0.00     0.163 HD
ATOM     29  O   UNL A   1      42.634  18.193  25.826  1.00  0.00    -0.269 OA
BRANCH  27  30
ATOM     30  C   UNL A   1      42.384  20.464  26.343  1.00  0.00     0.039 A 
ATOM     31  C   UNL A   1      42.895  21.246  25.303  1.00  0.00     0.014 A 
ATOM     32  C   UNL A   1      42.401  20.943  27.655  1.00  0.00     0.014 A 
ATOM     33  C   UNL A   1      43.370  22.531  25.571  1.00  0.00     0.010 A 
ATOM     34  C   UNL A   1      42.817  22.247  27.912  1.00  0.00     0.010 A 
ATOM     35  C   UNL A   1      43.308  23.052  26.873  1.00  0.00    -0.014 A 
BRANCH  35  36
ATOM     36  C   UNL A   1      43.752  24.438  27.164  1.00  0.00     0.031 A 
ATOM     37  C   UNL A   1      42.777  25.451  27.692  1.00  0.00     0.074 A 
ATOM     38  C   UNL A   1      45.021  24.799  26.892  1.00  0.00     0.049 A 
ATOM     39  N   UNL A   1      42.960  26.721  27.950  1.00  0.00    -0.248 NA
ATOM     40  C   UNL A   1      41.405  24.980  27.940  1.00  0.00     0.031 C 
ATOM     41  C   UNL A   1      46.047  23.919  26.333  1.00  0.00     0.029 A 
ATOM     42  N   UNL A   1      45.660  26.005  27.040  1.00  0.00    -0.354 N 
ATOM     43  C   UNL A   1      41.729  27.203  28.374  1.00  0.00     0.074 A 
ATOM     44  C   UNL A   1      40.794  26.102  28.294  1.00  0.00     0.031 C 
ATOM     45  C   UNL A   1      47.193  24.608  26.201  1.00  0.00     0.029 A 
ATOM     46  C   UNL A   1      46.973  25.984  26.638  1.00  0.00     0.049 A 
ATOM     47  H   UNL A   1      45.219  26.808  27.401  1.00  0.00     0.167 HD
ATOM     48  C   UNL A   1      41.413  28.445  28.811  1.00  0.00     0.037 A 
ATOM     49  C   UNL A   1      47.894  26.967  26.618  1.00  0.00     0.037 A 
ATOM     50  C   UNL A   1      42.353  29.530  28.918  1.00  0.00     0.049 A 
ATOM     51  C   UNL A   1      47.519  28.335  27.114  1.00  0.00     0.074 A 
ATOM     52  C   UNL A   1      42.147  30.805  29.414  1.00  0.00     0.029 A 
ATOM     53  N   UNL A   1      43.681  29.465  28.521  1.00  0.00    -0.354 N 
ATOM     54  N   UNL A   1      46.370  28.760  27.581  1.00  0.00    -0.248 NA
ATOM     55  C   UNL A   1      48.572  29.361  27.089  1.00  0.00     0.031 C 
ATOM     56  C   UNL A   1      43.339  31.526  29.279  1.00  0.00     0.029 A 
ATOM     57  C   UNL A   1      44.300  30.685  28.741  1.00  0.00     0.049 A 
ATOM     58  H   UNL A   1      44.118  28.670  28.140  1.00  0.00     0.167 HD
ATOM     59  C   UNL A   1      46.566  30.089  27.928  1.00  0.00     0.074 A 
ATOM     60  C   UNL A   1      47.949  30.400  27.630  1.00  0.00     0.031 C 
ATOM     61  C   UNL A   1      45.680  30.973  28.446  1.00  0.00     0.037 A 
BRANCH  48  62
ATOM     62  C   UNL A   1      39.990  28.698  29.215  1.00  0.00     0.064 A 
ATOM     63  C   UNL A   1      39.040  29.171  28.298  1.00  0.00     0.173 A 
ATOM     64  C   UNL A   1      39.562  28.427  30.523  1.00  0.00     0.173 A 
ATOM     65  F   UNL A   1      39.401  29.455  27.037  1.00  0.00    -0.203 F 
ATOM     66  C   UNL A   1      37.719  29.389  28.683  1.00  0.00     0.198 A 
ATOM     67  C   UNL A   1      38.235  28.620  30.898  1.00  0.00     0.198 A 
ATOM     68  F   UNL A   1      40.431  27.968  31.438  1.00  0.00    -0.203 F 
ATOM     69  F   UNL A   1      36.839  29.884  27.802  1.00  0.00    -0.200 F 
ATOM     70  C   UNL A   1      37.317  29.107  29.980  1.00  0.00     0.200 A 
ATOM     71  F   UNL A   1      37.845  28.336  32.148  1.00  0.00    -0.200 F 
ATOM     72  F   UNL A   1      36.044  29.311  30.347  1.00  0.00    -0.200 F 
ENDBRANCH  48  62
BRANCH  49  73
ATOM     73  C   UNL A   1      49.270  26.680  26.137  1.00  0.00     0.064 A 
ATOM     74  C   UNL A   1      50.238  26.157  27.005  1.00  0.00     0.173 A 
ATOM     75  C   UNL A   1      49.643  26.917  24.807  1.00  0.00     0.173 A 
ATOM     76  F   UNL A   1      49.933  25.932  28.291  1.00  0.00    -0.203 F 
ATOM     77  C   UNL A   1      51.534  25.896  26.563  1.00  0.00     0.198 A 
ATOM     78  C   UNL A   1      50.932  26.633  24.361  1.00  0.00     0.198 A 
ATOM     79  F   UNL A   1      48.751  27.413  23.937  1.00  0.00    -0.203 F 
ATOM     80  F   UNL A   1      52.451  25.433  27.423  1.00  0.00    -0.200 F 
ATOM     81  C   UNL A   1      51.878  26.130  25.241  1.00  0.00     0.200 A 
ATOM     82  F   UNL A   1      51.257  26.847  23.078  1.00  0.00    -0.200 F 
ATOM     83  F   UNL A   1      53.123  25.875  24.816  1.00  0.00    -0.200 F 
ENDBRANCH  49  73
BRANCH  61  84
ATOM     84  C   UNL A   1      46.183  32.352  28.754  1.00  0.00     0.064 A 
ATOM     85  C   UNL A   1      46.760  32.663  29.993  1.00  0.00     0.173 A 
ATOM     86  C   UNL A   1      46.131  33.360  27.780  1.00  0.00     0.173 A 
ATOM     87  F   UNL A   1      46.818  31.737  30.962  1.00  0.00    -0.203 F 
ATOM     88  C   UNL A   1      47.251  33.940  30.253  1.00  0.00     0.198 A 
ATOM     89  C   UNL A   1      46.647  34.628  28.033  1.00  0.00     0.198 A 
ATOM     90  F   UNL A   1      45.593  33.110  26.576  1.00  0.00    -0.203 F 
ATOM     91  F   UNL A   1      47.763  34.226  31.458  1.00  0.00    -0.200 F 
ATOM     92  C   UNL A   1      47.201  34.918  29.271  1.00  0.00     0.200 A 
ATOM     93  F   UNL A   1      46.608  35.568  27.080  1.00  0.00    -0.200 F 
ATOM     94  F   UNL A   1      47.682  36.144  29.519  1.00  0.00    -0.200 F 
ENDBRANCH  61  84
ENDBRANCH  35  36
ENDBRANCH  27  30
ENDBRANCH  25  26
ENDBRANCH  24  25
ENDBRANCH  23  24
ENDBRANCH   1  23
TORSDOF 16
ENDMDL
MODEL 2
REMARK VINA RESULT:     -11.7      5.150     10.279
REMARK SMILES Cc1cc(S[C@@H](C)c2ccc(C(=O)NCCCCCCNC(=O)c3ccc(-c4c5nc(c(-c6c(F)c(F)c(F)c(F)c6F)c6ccc([nH]6)c(-c6c(F)c(F)c(F)c(F)c6F)c6nc(c(-c7c(F)c(F)c(F)c(F)c7F)c7ccc4[nH]7)C=C6)C=C5)cc3)o2)n(C)n1
REMARK SMILES IDX 17 1 16 2 15 3 14 4 12 5 13 6 11 8 8 9 9 10 87 11 10 12 6 13
REMARK SMILES IDX 7 14 5 15 4 16 1 17 2 18 3 19 90 20 88 21 89 22 18 23 19 24
REMARK SMILES IDX 20 25 21 26 22 27 23 29 24 30 25 31 86 32 26 33 85 34 27 35
REMARK SMILES IDX 28 36 29 37 79 38 30 39 84 40 78 41 80 42 31 43 83 44 77 45
REMARK SMILES IDX 76 46 32 48 64 49 44 50 63 51 45 52 48 53 62 54 81 55 46 56
REMARK SMILES IDX 47 57 61 59 82 60 49 61 33 62 34 63 42 64 35 65 36 66 40 67
REMARK SMILES IDX 43 68 37 69 38 70 41 71 39 72 65 73 66 74 74 75 67 76 68 77
REMARK SMILES IDX 72 78 75 79 69 80 70 81 73 82 71 83 50 84 51 85 59 86 52 87
REMARK SMILES IDX 53 88 57 89 60 90 54 91 55 92 58 93 56 94
REMARK H PARENT 14 7 21 28 80 47 48 58
REMARK Flexibility Score: inf
ROOT
ATOM      1  C   UNL A   1      33.158  34.764  28.796  1.00  0.00     0.002 C 
ENDROOT
BRANCH   1   2
ATOM      2  C   UNL A   1      32.754  35.775  29.880  1.00  0.00     0.021 C 
BRANCH   2   3
ATOM      3  C   UNL A   1      33.640  37.020  29.914  1.00  0.00     0.116 C 
BRANCH   3   4
ATOM      4  N   UNL A   1      33.650  37.604  31.234  1.00  0.00    -0.349 N 
ATOM      5  C   UNL A   1      33.898  37.073  32.475  1.00  0.00     0.286 C 
ATOM      6  O   UNL A   1      33.823  37.878  33.407  1.00  0.00    -0.266 OA
ATOM      7  H   UNL A   1      33.437  38.565  31.247  1.00  0.00     0.163 HD
BRANCH   5   8
ATOM      8  C   UNL A   1      34.231  35.672  32.674  1.00  0.00     0.191 A 
ATOM      9  C   UNL A   1      35.741  34.056  32.939  1.00  0.00     0.118 A 
ATOM     10  C   UNL A   1      34.503  33.452  33.011  1.00  0.00     0.047 A 
ATOM     11  O   UNL A   1      35.571  35.384  32.710  1.00  0.00    -0.455 OA
ATOM     12  C   UNL A   1      33.542  34.490  32.879  1.00  0.00     0.056 A 
BRANCH   9  13
ATOM     13  C   UNL A   1      37.133  33.523  33.094  1.00  0.00     0.116 C 
ATOM     14  C   UNL A   1      37.664  32.922  31.792  1.00  0.00     0.028 C 
BRANCH  13  15
ATOM     15  S   UNL A   1      37.427  32.442  34.532  1.00  0.00    -0.096 SA
BRANCH  15  16
ATOM     16  C   UNL A   1      38.655  31.290  34.093  1.00  0.00     0.095 A 
ATOM     17  C   UNL A   1      40.455  28.269  33.041  1.00  0.00     0.069 C 
ATOM     18  C   UNL A   1      39.948  29.587  33.490  1.00  0.00     0.061 A 
ATOM     19  C   UNL A   1      38.609  30.022  33.559  1.00  0.00     0.060 A 
ATOM     20  N   UNL A   1      40.796  30.532  33.909  1.00  0.00    -0.178 NA
ATOM     21  N   UNL A   1      39.989  31.540  34.314  1.00  0.00    -0.262 N 
ATOM     22  C   UNL A   1      40.625  32.686  34.920  1.00  0.00     0.175 C 
ENDBRANCH  15  16
ENDBRANCH  13  15
ENDBRANCH   9  13
ENDBRANCH   5   8
ENDBRANCH   3   4
ENDBRANCH   2   3
ENDBRANCH   1   2
BRANCH   1  23
ATOM     23  C   UNL A   1      34.644  34.774  28.413  1.00  0.00     0.002 C 
BRANCH  23  24
ATOM     24  C   UNL A   1      35.293  33.394  28.273  1.00  0.00     0.021 C 
BRANCH  24  25
ATOM     25  C   UNL A   1      34.793  32.355  29.272  1.00  0.00     0.116 C 
BRANCH  25  26
ATOM     26  N   UNL A   1      34.200  31.205  28.609  1.00  0.00    -0.352 N 
ATOM     27  C   UNL A   1      34.806  30.086  28.095  1.00  0.00     0.251 C 
ATOM     28  H   UNL A   1      33.220  31.233  28.515  1.00  0.00     0.163 HD
ATOM     29  O   UNL A   1      34.172  29.308  27.391  1.00  0.00    -0.269 OA
BRANCH  27  30
ATOM     30  C   UNL A   1      36.234  29.823  28.375  1.00  0.00     0.039 A 
ATOM     31  C   UNL A   1      36.597  29.343  29.637  1.00  0.00     0.014 A 
ATOM     32  C   UNL A   1      37.214  30.073  27.411  1.00  0.00     0.014 A 
ATOM     33  C   UNL A   1      37.936  29.059  29.912  1.00  0.00     0.010 A 
ATOM     34  C   UNL A   1      38.540  29.732  27.664  1.00  0.00     0.010 A 
ATOM     35  C   UNL A   1      38.914  29.225  28.918  1.00  0.00    -0.014 A 
BRANCH  35  36
ATOM     36  C   UNL A   1      40.332  28.870  29.175  1.00  0.00     0.031 A 
ATOM     37  C   UNL A   1      41.236  29.834  29.889  1.00  0.00     0.074 A 
ATOM     38  C   UNL A   1      40.820  27.705  28.708  1.00  0.00     0.049 A 
ATOM     39  N   UNL A   1      42.515  29.730  30.153  1.00  0.00    -0.248 NA
ATOM     40  C   UNL A   1      40.630  31.095  30.346  1.00  0.00     0.031 C 
ATOM     41  C   UNL A   1      40.053  26.709  27.959  1.00  0.00     0.029 A 
ATOM     42  N   UNL A   1      42.080  27.166  28.786  1.00  0.00    -0.354 N 
ATOM     43  C   UNL A   1      42.868  30.912  30.790  1.00  0.00     0.074 A 
ATOM     44  C   UNL A   1      41.681  31.740  30.831  1.00  0.00     0.031 C 
ATOM     45  C   UNL A   1      40.852  25.671  27.662  1.00  0.00     0.029 A 
ATOM     46  C   UNL A   1      42.194  25.943  28.172  1.00  0.00     0.049 A 
ATOM     47  H   UNL A   1      42.830  27.613  29.240  1.00  0.00     0.167 HD
ATOM     48  C   UNL A   1      44.066  31.265  31.312  1.00  0.00     0.037 A 
ATOM     49  C   UNL A   1      43.262  25.135  28.031  1.00  0.00     0.037 A 
ATOM     50  C   UNL A   1      45.236  30.427  31.296  1.00  0.00     0.049 A 
ATOM     51  C   UNL A   1      44.579  25.547  28.625  1.00  0.00     0.074 A 
ATOM     52  C   UNL A   1      46.477  30.666  31.859  1.00  0.00     0.029 A 
ATOM     53  N   UNL A   1      45.307  29.184  30.683  1.00  0.00    -0.354 N 
ATOM     54  N   UNL A   1      44.883  26.637  29.289  1.00  0.00    -0.248 NA
ATOM     55  C   UNL A   1      45.703  24.614  28.459  1.00  0.00     0.031 C 
ATOM     56  C   UNL A   1      47.312  29.585  31.552  1.00  0.00     0.029 A 
ATOM     57  C   UNL A   1      46.578  28.654  30.836  1.00  0.00     0.049 A 
ATOM     58  H   UNL A   1      44.564  28.744  30.210  1.00  0.00     0.167 HD
ATOM     59  C   UNL A   1      46.219  26.511  29.640  1.00  0.00     0.074 A 
ATOM     60  C   UNL A   1      46.668  25.233  29.127  1.00  0.00     0.031 C 
ATOM     61  C   UNL A   1      47.004  27.376  30.326  1.00  0.00     0.037 A 
BRANCH  48  62
ATOM     62  C   UNL A   1      44.173  32.618  31.953  1.00  0.00     0.064 A 
ATOM     63  C   UNL A   1      44.404  33.774  31.195  1.00  0.00     0.173 A 
ATOM     64  C   UNL A   1      44.001  32.764  33.338  1.00  0.00     0.173 A 
ATOM     65  F   UNL A   1      44.584  33.686  29.868  1.00  0.00    -0.203 F 
ATOM     66  C   UNL A   1      44.487  35.025  31.802  1.00  0.00     0.198 A 
ATOM     67  C   UNL A   1      44.058  34.019  33.939  1.00  0.00     0.198 A 
ATOM     68  F   UNL A   1      43.773  31.690  34.109  1.00  0.00    -0.203 F 
ATOM     69  F   UNL A   1      44.754  36.110  31.061  1.00  0.00    -0.200 F 
ATOM     70  C   UNL A   1      44.308  35.147  33.172  1.00  0.00     0.200 A 
ATOM     71  F   UNL A   1      43.873  34.137  35.261  1.00  0.00    -0.200 F 
ATOM     72  F   UNL A   1      44.382  36.352  33.752  1.00  0.00    -0.200 F 
ENDBRANCH  48  62
BRANCH  49  73
ATOM     73  C   UNL A   1      43.118  23.838  27.320  1.00  0.00     0.064 A 
ATOM     74  C   UNL A   1      42.605  22.712  27.979  1.00  0.00     0.173 A 
ATOM     75  C   UNL A   1      43.484  23.699  25.975  1.00  0.00     0.173 A 
ATOM     76  F   UNL A   1      42.259  22.793  29.272  1.00  0.00    -0.203 F 
ATOM     77  C   UNL A   1      42.478  21.490  27.322  1.00  0.00     0.198 A 
ATOM     78  C   UNL A   1      43.334  22.482  25.312  1.00  0.00     0.198 A 
ATOM     79  F   UNL A   1      43.976  24.748  25.299  1.00  0.00    -0.203 F 
ATOM     80  F   UNL A   1      42.022  20.420  27.986  1.00  0.00    -0.200 F 
ATOM     81  C   UNL A   1      42.838  21.378  25.987  1.00  0.00     0.200 A 
ATOM     82  F   UNL A   1      43.669  22.381  24.017  1.00  0.00    -0.200 F 
ATOM     83  F   UNL A   1      42.712  20.204  25.354  1.00  0.00    -0.200 F 
ENDBRANCH  49  73
BRANCH  61  84
ATOM     84  C   UNL A   1      48.421  26.960  30.589  1.00  0.00     0.064 A 
ATOM     85  C   UNL A   1      49.469  27.350  29.744  1.00  0.00     0.173 A 
ATOM     86  C   UNL A   1      48.738  26.203  31.727  1.00  0.00     0.173 A 
ATOM     87  F   UNL A   1      49.213  28.060  28.635  1.00  0.00    -0.203 F 
ATOM     88  C   UNL A   1      50.783  26.982  30.018  1.00  0.00     0.198 A 
ATOM     89  C   UNL A   1      50.056  25.859  32.013  1.00  0.00     0.198 A 
ATOM     90  F   UNL A   1      47.770  25.811  32.569  1.00  0.00    -0.203 F 
ATOM     91  F   UNL A   1      51.765  27.332  29.176  1.00  0.00    -0.200 F 
ATOM     92  C   UNL A   1      51.077  26.244  31.156  1.00  0.00     0.200 A 
ATOM     93  F   UNL A   1      50.339  25.157  33.118  1.00  0.00    -0.200 F 
ATOM     94  F   UNL A   1      52.343  25.898  31.424  1.00  0.00    -0.200 F 
ENDBRANCH  61  84
ENDBRANCH  35  36
ENDBRANCH  27  30
ENDBRANCH  25  26
ENDBRANCH  24  25
ENDBRANCH  23  24
ENDBRANCH   1  23
TORSDOF 16
ENDMDL
MODEL 3
REMARK VINA RESULT:     -11.7      5.436     11.103
REMARK SMILES Cc1cc(S[C@@H](C)c2ccc(C(=O)NCCCCCCNC(=O)c3ccc(-c4c5nc(c(-c6c(F)c(F)c(F)c(F)c6F)c6ccc([nH]6)c(-c6c(F)c(F)c(F)c(F)c6F)c6nc(c(-c7c(F)c(F)c(F)c(F)c7F)c7ccc4[nH]7)C=C6)C=C5)cc3)o2)n(C)n1
REMARK SMILES IDX 17 1 16 2 15 3 14 4 12 5 13 6 11 8 8 9 9 10 87 11 10 12 6 13
REMARK SMILES IDX 7 14 5 15 4 16 1 17 2 18 3 19 90 20 88 21 89 22 18 23 19 24
REMARK SMILES IDX 20 25 21 26 22 27 23 29 24 30 25 31 86 32 26 33 85 34 27 35
REMARK SMILES IDX 28 36 29 37 79 38 30 39 84 40 78 41 80 42 31 43 83 44 77 45
REMARK SMILES IDX 76 46 32 48 64 49 44 50 63 51 45 52 48 53 62 54 81 55 46 56
REMARK SMILES IDX 47 57 61 59 82 60 49 61 33 62 34 63 42 64 35 65 36 66 40 67
REMARK SMILES IDX 43 68 37 69 38 70 41 71 39 72 65 73 66 74 74 75 67 76 68 77
REMARK SMILES IDX 72 78 75 79 69 80 70 81 73 82 71 83 50 84 51 85 59 86 52 87
REMARK SMILES IDX 53 88 57 89 60 90 54 91 55 92 58 93 56 94
REMARK H PARENT 14 7 21 28 80 47 48 58
REMARK Flexibility Score: inf
ROOT
ATOM      1  C   UNL A   1      32.028  29.803  27.066  1.00  0.00     0.002 C 
ENDROOT
BRANCH   1   2
ATOM      2  C   UNL A   1      33.555  29.624  27.062  1.00  0.00     0.021 C 
BRANCH   2   3
ATOM      3  C   UNL A   1      34.025  28.420  26.247  1.00  0.00     0.116 C 
BRANCH   3   4
ATOM      4  N   UNL A   1      34.059  28.738  24.839  1.00  0.00    -0.349 N 
ATOM      5  C   UNL A   1      33.198  28.453  23.809  1.00  0.00     0.286 C 
ATOM      6  O   UNL A   1      33.543  28.894  22.709  1.00  0.00    -0.266 OA
ATOM      7  H   UNL A   1      34.849  29.257  24.566  1.00  0.00     0.163 HD
BRANCH   5   8
ATOM      8  C   UNL A   1      31.971  27.698  24.001  1.00  0.00     0.191 A 
ATOM      9  C   UNL A   1      30.920  25.783  24.436  1.00  0.00     0.118 A 
ATOM     10  C   UNL A   1      29.941  26.742  24.285  1.00  0.00     0.047 A 
ATOM     11  O   UNL A   1      32.135  26.358  24.238  1.00  0.00    -0.455 OA
ATOM     12  C   UNL A   1      30.614  27.969  24.045  1.00  0.00     0.056 A 
BRANCH   9  13
ATOM     13  C   UNL A   1      30.860  24.328  24.790  1.00  0.00     0.116 C 
ATOM     14  C   UNL A   1      31.513  24.041  26.143  1.00  0.00     0.028 C 
BRANCH  13  15
ATOM     15  S   UNL A   1      31.393  23.161  23.496  1.00  0.00    -0.096 SA
BRANCH  15  16
ATOM     16  C   UNL A   1      33.071  22.788  23.771  1.00  0.00     0.095 A 
ATOM     17  C   UNL A   1      36.741  22.745  23.705  1.00  0.00     0.069 C 
ATOM     18  C   UNL A   1      35.279  22.573  23.882  1.00  0.00     0.061 A 
ATOM     19  C   UNL A   1      34.245  23.400  23.397  1.00  0.00     0.060 A 
ATOM     20  N   UNL A   1      34.797  21.528  24.560  1.00  0.00    -0.178 NA
ATOM     21  N   UNL A   1      33.455  21.651  24.442  1.00  0.00    -0.262 N 
ATOM     22  C   UNL A   1      32.648  20.592  25.002  1.00  0.00     0.175 C 
ENDBRANCH  15  16
ENDBRANCH  13  15
ENDBRANCH   9  13
ENDBRANCH   5   8
ENDBRANCH   3   4
ENDBRANCH   2   3
ENDBRANCH   1   2
BRANCH   1  23
ATOM     23  C   UNL A   1      31.498  30.908  26.143  1.00  0.00     0.002 C 
BRANCH  23  24
ATOM     24  C   UNL A   1      31.355  32.289  26.790  1.00  0.00     0.021 C 
BRANCH  24  25
ATOM     25  C   UNL A   1      32.667  33.053  26.947  1.00  0.00     0.116 C 
BRANCH  25  26
ATOM     26  N   UNL A   1      32.477  34.324  27.626  1.00  0.00    -0.352 N 
ATOM     27  C   UNL A   1      33.072  34.800  28.768  1.00  0.00     0.251 C 
ATOM     28  H   UNL A   1      31.827  34.933  27.207  1.00  0.00     0.163 HD
ATOM     29  O   UNL A   1      32.646  35.812  29.311  1.00  0.00    -0.269 OA
BRANCH  27  30
ATOM     30  C   UNL A   1      34.223  34.081  29.357  1.00  0.00     0.039 A 
ATOM     31  C   UNL A   1      35.514  34.414  28.937  1.00  0.00     0.014 A 
ATOM     32  C   UNL A   1      34.031  33.066  30.299  1.00  0.00     0.014 A 
ATOM     33  C   UNL A   1      36.615  33.770  29.503  1.00  0.00     0.010 A 
ATOM     34  C   UNL A   1      35.131  32.468  30.908  1.00  0.00     0.010 A 
ATOM     35  C   UNL A   1      36.433  32.811  30.513  1.00  0.00    -0.014 A 
BRANCH  35  36
ATOM     36  C   UNL A   1      37.595  32.161  31.168  1.00  0.00     0.031 A 
ATOM     37  C   UNL A   1      38.348  31.068  30.463  1.00  0.00     0.074 A 
ATOM     38  C   UNL A   1      37.932  32.512  32.424  1.00  0.00     0.049 A 
ATOM     39  N   UNL A   1      39.349  30.342  30.893  1.00  0.00    -0.248 NA
ATOM     40  C   UNL A   1      37.901  30.729  29.103  1.00  0.00     0.031 C 
ATOM     41  C   UNL A   1      37.248  33.525  33.229  1.00  0.00     0.029 A 
ATOM     42  N   UNL A   1      38.929  32.049  33.246  1.00  0.00    -0.354 N 
ATOM     43  C   UNL A   1      39.641  29.453  29.867  1.00  0.00     0.074 A 
ATOM     44  C   UNL A   1      38.681  29.698  28.812  1.00  0.00     0.031 C 
ATOM     45  C   UNL A   1      37.855  33.621  34.423  1.00  0.00     0.029 A 
ATOM     46  C   UNL A   1      38.950  32.656  34.478  1.00  0.00     0.049 A 
ATOM     47  H   UNL A   1      39.568  31.350  32.979  1.00  0.00     0.167 HD
ATOM     48  C   UNL A   1      40.631  28.533  29.803  1.00  0.00     0.037 A 
ATOM     49  C   UNL A   1      39.760  32.453  35.536  1.00  0.00     0.037 A 
ATOM     50  C   UNL A   1      41.603  28.314  30.842  1.00  0.00     0.049 A 
ATOM     51  C   UNL A   1      40.856  31.429  35.436  1.00  0.00     0.074 A 
ATOM     52  C   UNL A   1      42.687  27.453  30.843  1.00  0.00     0.029 A 
ATOM     53  N   UNL A   1      41.606  28.963  32.068  1.00  0.00    -0.354 N 
ATOM     54  N   UNL A   1      41.166  30.644  34.433  1.00  0.00    -0.248 NA
ATOM     55  C   UNL A   1      41.720  31.267  36.614  1.00  0.00     0.031 C 
ATOM     56  C   UNL A   1      43.323  27.552  32.086  1.00  0.00     0.029 A 
ATOM     57  C   UNL A   1      42.661  28.506  32.842  1.00  0.00     0.049 A 
ATOM     58  H   UNL A   1      40.955  29.647  32.346  1.00  0.00     0.167 HD
ATOM     59  C   UNL A   1      42.273  29.917  34.845  1.00  0.00     0.074 A 
ATOM     60  C   UNL A   1      42.590  30.360  36.187  1.00  0.00     0.031 C 
ATOM     61  C   UNL A   1      42.965  28.966  34.172  1.00  0.00     0.037 A 
BRANCH  48  62
ATOM     62  C   UNL A   1      40.721  27.695  28.561  1.00  0.00     0.064 A 
ATOM     63  C   UNL A   1      40.018  26.488  28.437  1.00  0.00     0.173 A 
ATOM     64  C   UNL A   1      41.488  28.124  27.466  1.00  0.00     0.173 A 
ATOM     65  F   UNL A   1      39.279  26.030  29.459  1.00  0.00    -0.203 F 
ATOM     66  C   UNL A   1      40.100  25.727  27.274  1.00  0.00     0.198 A 
ATOM     67  C   UNL A   1      41.546  27.374  26.294  1.00  0.00     0.198 A 
ATOM     68  F   UNL A   1      42.176  29.274  27.531  1.00  0.00    -0.203 F 
ATOM     69  F   UNL A   1      39.454  24.555  27.195  1.00  0.00    -0.200 F 
ATOM     70  C   UNL A   1      40.858  26.173  26.202  1.00  0.00     0.200 A 
ATOM     71  F   UNL A   1      42.269  27.813  25.255  1.00  0.00    -0.200 F 
ATOM     72  F   UNL A   1      40.930  25.443  25.081  1.00  0.00    -0.200 F 
ENDBRANCH  48  62
BRANCH  49  73
ATOM     73  C   UNL A   1      39.579  33.259  36.770  1.00  0.00     0.064 A 
ATOM     74  C   UNL A   1      38.671  32.860  37.761  1.00  0.00     0.173 A 
ATOM     75  C   UNL A   1      40.308  34.436  36.987  1.00  0.00     0.173 A 
ATOM     76  F   UNL A   1      37.936  31.751  37.588  1.00  0.00    -0.203 F 
ATOM     77  C   UNL A   1      38.488  33.618  38.916  1.00  0.00     0.198 A 
ATOM     78  C   UNL A   1      40.142  35.179  38.154  1.00  0.00     0.198 A 
ATOM     79  F   UNL A   1      41.193  34.857  36.071  1.00  0.00    -0.203 F 
ATOM     80  F   UNL A   1      37.585  33.235  39.828  1.00  0.00    -0.200 F 
ATOM     81  C   UNL A   1      39.227  34.774  39.114  1.00  0.00     0.200 A 
ATOM     82  F   UNL A   1      40.870  36.289  38.348  1.00  0.00    -0.200 F 
ATOM     83  F   UNL A   1      39.054  35.499  40.226  1.00  0.00    -0.200 F 
ENDBRANCH  49  73
BRANCH  61  84
ATOM     84  C   UNL A   1      44.152  28.360  34.862  1.00  0.00     0.064 A 
ATOM     85  C   UNL A   1      44.038  27.190  35.625  1.00  0.00     0.173 A 
ATOM     86  C   UNL A   1      45.424  28.932  34.718  1.00  0.00     0.173 A 
ATOM     87  F   UNL A   1      42.839  26.616  35.806  1.00  0.00    -0.203 F 
ATOM     88  C   UNL A   1      45.154  26.622  36.234  1.00  0.00     0.198 A 
ATOM     89  C   UNL A   1      46.543  28.347  35.306  1.00  0.00     0.198 A 
ATOM     90  F   UNL A   1      45.585  30.049  33.993  1.00  0.00    -0.203 F 
ATOM     91  F   UNL A   1      45.016  25.525  36.991  1.00  0.00    -0.200 F 
ATOM     92  C   UNL A   1      46.406  27.196  36.068  1.00  0.00     0.200 A 
ATOM     93  F   UNL A   1      47.752  28.897  35.134  1.00  0.00    -0.200 F 
ATOM     94  F   UNL A   1      47.480  26.644  36.647  1.00  0.00    -0.200 F 
ENDBRANCH  61  84
ENDBRANCH  35  36
ENDBRANCH  27  30
ENDBRANCH  25  26
ENDBRANCH  24  25
ENDBRANCH  23  24
ENDBRANCH   1  23
TORSDOF 16
ENDMDL
