MODEL 1
REMARK VINA RESULT:     -12.2      0.000      0.000
REMARK SMILES O=C(NCCCCCCNC(=O)c1ccccc1-c1ccc(/C=C2/SC(=S)N(Cc3ccccc3)C2=O)o1)c1ccc(-c2c3nc(c(-c4c(F)c(F)c(F)c(F)c4F)c4ccc([nH]4)c(-c4c(F)c(F)c(F)c(F)c4F)c4nc(c(-c5c(F)c(F)c(F)c(F)c5F)c5ccc2[nH]5)C=C4)C=C3)cc1
REMARK SMILES IDX 7 1 6 2 5 3 4 4 3 5 1 6 2 7 39 9 40 10 101 11 41 12 100 13
REMARK SMILES IDX 42 14 43 15 44 16 94 17 45 18 99 19 93 20 95 21 46 22 98 23
REMARK SMILES IDX 92 24 91 25 47 27 79 28 59 29 78 30 60 31 63 32 77 33 96 34
REMARK SMILES IDX 61 35 62 36 76 38 97 39 64 40 48 41 49 42 57 43 50 44 51 45
REMARK SMILES IDX 55 46 58 47 52 48 53 49 56 50 54 51 80 52 81 53 89 54 82 55
REMARK SMILES IDX 83 56 87 57 90 58 84 59 85 60 88 61 86 62 65 63 66 64 74 65
REMARK SMILES IDX 67 66 68 67 72 68 75 69 69 70 70 71 73 72 71 73 8 74 9 75
REMARK SMILES IDX 10 76 11 77 12 79 13 80 14 81 18 82 15 83 17 84 16 85 19 86
REMARK SMILES IDX 20 87 38 88 21 89 22 90 23 91 24 92 25 93 36 94 26 95 28 96
REMARK SMILES IDX 37 97 27 98 29 99 30 100 31 101 35 102 32 103 34 104 33 105
REMARK H PARENT 3 8 95 26 63 37 10 78
REMARK Flexibility Score: inf
ROOT
ATOM      1  C   UNL A   1      38.431  22.445  25.898  1.00  0.00     0.002 C 
ENDROOT
BRANCH   1   2
ATOM      2  C   UNL A   1      37.858  21.359  24.981  1.00  0.00     0.002 C 
BRANCH   2   3
ATOM      3  C   UNL A   1      38.552  19.997  25.040  1.00  0.00     0.021 C 
BRANCH   3   4
ATOM      4  C   UNL A   1      39.358  19.722  26.304  1.00  0.00     0.116 C 
BRANCH   4   5
ATOM      5  N   UNL A   1      40.503  18.862  26.067  1.00  0.00    -0.352 N 
ATOM      6  O   UNL A   1      42.647  18.321  25.644  1.00  0.00    -0.269 OA
ATOM      7  C   UNL A   1      41.836  19.175  25.987  1.00  0.00     0.251 C 
ATOM      8  H   UNL A   1      40.290  17.908  25.944  1.00  0.00     0.163 HD
BRANCH   7   9
ATOM      9  C   UNL A   1      42.302  20.547  26.288  1.00  0.00     0.039 A 
ATOM     10  C   UNL A   1      42.544  21.475  25.271  1.00  0.00     0.014 A 
ATOM     11  C   UNL A   1      42.458  20.917  27.626  1.00  0.00     0.014 A 
ATOM     12  C   UNL A   1      43.047  22.735  25.586  1.00  0.00     0.010 A 
ATOM     13  C   UNL A   1      42.897  22.203  27.944  1.00  0.00     0.010 A 
ATOM     14  C   UNL A   1      43.215  23.115  26.926  1.00  0.00    -0.014 A 
BRANCH  14  15
ATOM     15  C   UNL A   1      43.669  24.485  27.271  1.00  0.00     0.031 A 
ATOM     16  C   UNL A   1      42.692  25.512  27.763  1.00  0.00     0.074 A 
ATOM     17  C   UNL A   1      44.960  24.814  27.084  1.00  0.00     0.049 A 
ATOM     18  N   UNL A   1      42.879  26.785  28.002  1.00  0.00    -0.248 NA
ATOM     19  C   UNL A   1      41.317  25.049  28.005  1.00  0.00     0.031 C 
ATOM     20  C   UNL A   1      45.998  23.900  26.605  1.00  0.00     0.029 A 
ATOM     21  N   UNL A   1      45.615  26.007  27.253  1.00  0.00    -0.354 N 
ATOM     22  C   UNL A   1      41.644  27.282  28.397  1.00  0.00     0.074 A 
ATOM     23  C   UNL A   1      40.709  26.177  28.345  1.00  0.00     0.031 C 
ATOM     24  C   UNL A   1      47.159  24.566  26.514  1.00  0.00     0.029 A 
ATOM     25  C   UNL A   1      46.933  25.963  26.871  1.00  0.00     0.049 A 
ATOM     26  H   UNL A   1      45.183  26.815  27.612  1.00  0.00     0.167 HD
ATOM     27  C   UNL A   1      41.325  28.545  28.770  1.00  0.00     0.037 A 
ATOM     28  C   UNL A   1      47.849  26.944  26.777  1.00  0.00     0.037 A 
ATOM     29  C   UNL A   1      42.267  29.635  28.822  1.00  0.00     0.049 A 
ATOM     30  C   UNL A   1      47.467  28.344  27.160  1.00  0.00     0.074 A 
ATOM     31  C   UNL A   1      42.056  30.940  29.234  1.00  0.00     0.029 A 
ATOM     32  N   UNL A   1      43.598  29.549  28.435  1.00  0.00    -0.354 N 
ATOM     33  N   UNL A   1      46.309  28.797  27.576  1.00  0.00    -0.248 NA
ATOM     34  C   UNL A   1      48.514  29.369  27.065  1.00  0.00     0.031 C 
ATOM     35  C   UNL A   1      43.243  31.655  29.043  1.00  0.00     0.029 A 
ATOM     36  C   UNL A   1      44.211  30.784  28.571  1.00  0.00     0.049 A 
ATOM     37  H   UNL A   1      44.039  28.731  28.113  1.00  0.00     0.167 HD
ATOM     38  C   UNL A   1      46.491  30.151  27.815  1.00  0.00     0.074 A 
ATOM     39  C   UNL A   1      47.874  30.447  27.501  1.00  0.00     0.031 C 
ATOM     40  C   UNL A   1      45.593  31.062  28.262  1.00  0.00     0.037 A 
BRANCH  27  41
ATOM     41  C   UNL A   1      39.890  28.824  29.116  1.00  0.00     0.064 A 
ATOM     42  C   UNL A   1      39.381  28.605  30.405  1.00  0.00     0.173 A 
ATOM     43  C   UNL A   1      39.012  29.331  28.144  1.00  0.00     0.173 A 
ATOM     44  F   UNL A   1      40.173  28.115  31.370  1.00  0.00    -0.203 F 
ATOM     45  C   UNL A   1      38.040  28.847  30.698  1.00  0.00     0.198 A 
ATOM     46  C   UNL A   1      37.681  29.601  28.449  1.00  0.00     0.198 A 
ATOM     47  F   UNL A   1      39.447  29.568  26.898  1.00  0.00    -0.203 F 
ATOM     48  F   UNL A   1      37.565  28.577  31.923  1.00  0.00    -0.200 F 
ATOM     49  C   UNL A   1      37.193  29.348  29.722  1.00  0.00     0.200 A 
ATOM     50  F   UNL A   1      36.868  30.101  27.508  1.00  0.00    -0.200 F 
ATOM     51  F   UNL A   1      35.904  29.582  30.006  1.00  0.00    -0.200 F 
ENDBRANCH  27  41
BRANCH  28  52
ATOM     52  C   UNL A   1      49.210  26.614  26.285  1.00  0.00     0.064 A 
ATOM     53  C   UNL A   1      49.553  26.792  24.939  1.00  0.00     0.173 A 
ATOM     54  C   UNL A   1      50.211  26.176  27.164  1.00  0.00     0.173 A 
ATOM     55  F   UNL A   1      48.625  27.193  24.059  1.00  0.00    -0.203 F 
ATOM     56  C   UNL A   1      50.849  26.544  24.491  1.00  0.00     0.198 A 
ATOM     57  C   UNL A   1      51.513  25.955  26.721  1.00  0.00     0.198 A 
ATOM     58  F   UNL A   1      49.933  26.000  28.465  1.00  0.00    -0.203 F 
ATOM     59  F   UNL A   1      51.148  26.703  23.195  1.00  0.00    -0.200 F 
ATOM     60  C   UNL A   1      51.831  26.137  25.383  1.00  0.00     0.200 A 
ATOM     61  F   UNL A   1      52.461  25.582  27.591  1.00  0.00    -0.200 F 
ATOM     62  F   UNL A   1      53.081  25.922  24.955  1.00  0.00    -0.200 F 
ENDBRANCH  28  52
BRANCH  40  63
ATOM     63  C   UNL A   1      46.079  32.463  28.483  1.00  0.00     0.064 A 
ATOM     64  C   UNL A   1      46.650  32.864  29.699  1.00  0.00     0.173 A 
ATOM     65  C   UNL A   1      46.039  33.397  27.435  1.00  0.00     0.173 A 
ATOM     66  F   UNL A   1      46.696  32.014  30.735  1.00  0.00    -0.203 F 
ATOM     67  C   UNL A   1      47.158  34.151  29.860  1.00  0.00     0.198 A 
ATOM     68  C   UNL A   1      46.570  34.674  27.591  1.00  0.00     0.198 A 
ATOM     69  F   UNL A   1      45.504  33.061  26.251  1.00  0.00    -0.203 F 
ATOM     70  F   UNL A   1      47.674  34.523  31.039  1.00  0.00    -0.200 F 
ATOM     71  C   UNL A   1      47.127  35.050  28.804  1.00  0.00     0.200 A 
ATOM     72  F   UNL A   1      46.552  35.536  26.566  1.00  0.00    -0.200 F 
ATOM     73  F   UNL A   1      47.634  36.281  28.955  1.00  0.00    -0.200 F 
ENDBRANCH  40  63
ENDBRANCH  14  15
ENDBRANCH   7   9
ENDBRANCH   4   5
ENDBRANCH   3   4
ENDBRANCH   2   3
ENDBRANCH   1   2
BRANCH   1  74
ATOM     74  C   UNL A   1      37.581  23.710  26.076  1.00  0.00     0.021 C 
BRANCH  74  75
ATOM     75  C   UNL A   1      36.077  23.504  25.955  1.00  0.00     0.116 C 
BRANCH  75  76
ATOM     76  N   UNL A   1      35.556  23.826  24.640  1.00  0.00    -0.352 N 
ATOM     77  C   UNL A   1      34.570  23.183  23.930  1.00  0.00     0.252 C 
ATOM     78  H   UNL A   1      35.962  24.606  24.198  1.00  0.00     0.163 HD
ATOM     79  O   UNL A   1      34.235  23.600  22.825  1.00  0.00    -0.269 OA
BRANCH  77  80
ATOM     80  C   UNL A   1      33.934  21.960  24.465  1.00  0.00     0.050 A 
ATOM     81  C   UNL A   1      34.556  20.742  24.151  1.00  0.00     0.014 A 
ATOM     82  C   UNL A   1      32.752  21.980  25.225  1.00  0.00     0.030 A 
ATOM     83  C   UNL A   1      34.028  19.544  24.627  1.00  0.00     0.001 A 
ATOM     84  C   UNL A   1      32.242  20.765  25.709  1.00  0.00     0.013 A 
ATOM     85  C   UNL A   1      32.877  19.556  25.412  1.00  0.00     0.001 A 
BRANCH  82  86
ATOM     86  C   UNL A   1      32.041  23.213  25.509  1.00  0.00     0.135 A 
ATOM     87  C   UNL A   1      31.952  24.029  26.613  1.00  0.00     0.051 A 
ATOM     88  O   UNL A   1      31.185  23.642  24.537  1.00  0.00    -0.457 OA
ATOM     89  C   UNL A   1      30.966  24.990  26.305  1.00  0.00     0.051 A 
ATOM     90  C   UNL A   1      30.520  24.745  25.010  1.00  0.00     0.128 A 
BRANCH  90  91
ATOM     91  C   UNL A   1      29.528  25.449  24.276  1.00  0.00     0.068 C 
ATOM     92  C   UNL A   1      29.815  26.605  23.667  1.00  0.00     0.084 C 
ATOM     93  S   UNL A   1      28.646  27.743  23.127  1.00  0.00    -0.054 SA
ATOM     94  C   UNL A   1      31.169  27.185  23.508  1.00  0.00     0.266 C 
ATOM     95  C   UNL A   1      29.824  29.065  23.178  1.00  0.00     0.148 C 
ATOM     96  N   UNL A   1      31.082  28.557  23.415  1.00  0.00    -0.288 N 
ATOM     97  O   UNL A   1      32.196  26.522  23.426  1.00  0.00    -0.268 OA
ATOM     98  S   UNL A   1      29.371  30.655  22.957  1.00  0.00    -0.052 S 
BRANCH  96  99
ATOM     99  C   UNL A   1      32.319  29.328  23.514  1.00  0.00     0.163 C 
BRANCH  99 100
ATOM    100  C   UNL A   1      32.799  29.481  24.947  1.00  0.00    -0.028 A 
ATOM    101  C   UNL A   1      33.870  28.713  25.421  1.00  0.00     0.005 A 
ATOM    102  C   UNL A   1      32.152  30.347  25.847  1.00  0.00     0.005 A 
ATOM    103  C   UNL A   1      34.282  28.812  26.754  1.00  0.00     0.000 A 
ATOM    104  C   UNL A   1      32.578  30.461  27.171  1.00  0.00     0.000 A 
ATOM    105  C   UNL A   1      33.641  29.690  27.626  1.00  0.00     0.000 A 
ENDBRANCH  99 100
ENDBRANCH  96  99
ENDBRANCH  90  91
ENDBRANCH  82  86
ENDBRANCH  77  80
ENDBRANCH  75  76
ENDBRANCH  74  75
ENDBRANCH   1  74
TORSDOF 17
ENDMDL
MODEL 2
REMARK VINA RESULT:     -12.1      5.202     10.833
REMARK SMILES O=C(NCCCCCCNC(=O)c1ccccc1-c1ccc(/C=C2/SC(=S)N(Cc3ccccc3)C2=O)o1)c1ccc(-c2c3nc(c(-c4c(F)c(F)c(F)c(F)c4F)c4ccc([nH]4)c(-c4c(F)c(F)c(F)c(F)c4F)c4nc(c(-c5c(F)c(F)c(F)c(F)c5F)c5ccc2[nH]5)C=C4)C=C3)cc1
REMARK SMILES IDX 7 1 6 2 5 3 4 4 3 5 1 6 2 7 39 9 40 10 101 11 41 12 100 13
REMARK SMILES IDX 42 14 43 15 44 16 94 17 45 18 99 19 93 20 95 21 46 22 98 23
REMARK SMILES IDX 92 24 91 25 47 27 79 28 59 29 78 30 60 31 63 32 77 33 96 34
REMARK SMILES IDX 61 35 62 36 76 38 97 39 64 40 48 41 49 42 57 43 50 44 51 45
REMARK SMILES IDX 55 46 58 47 52 48 53 49 56 50 54 51 80 52 81 53 89 54 82 55
REMARK SMILES IDX 83 56 87 57 90 58 84 59 85 60 88 61 86 62 65 63 66 64 74 65
REMARK SMILES IDX 67 66 68 67 72 68 75 69 69 70 70 71 73 72 71 73 8 74 9 75
REMARK SMILES IDX 10 76 11 77 12 79 13 80 14 81 18 82 15 83 17 84 16 85 19 86
REMARK SMILES IDX 20 87 38 88 21 89 22 90 23 91 24 92 25 93 36 94 26 95 28 96
REMARK SMILES IDX 37 97 27 98 29 99 30 100 31 101 35 102 32 103 34 104 33 105
REMARK H PARENT 3 8 95 26 63 37 10 78
REMARK Flexibility Score: inf
ROOT
ATOM      1  C   UNL A   1      33.767  30.300  27.305  1.00  0.00     0.002 C 
ENDROOT
BRANCH   1   2
ATOM      2  C   UNL A   1      32.270  30.473  27.027  1.00  0.00     0.002 C 
BRANCH   2   3
ATOM      3  C   UNL A   1      31.744  31.908  27.056  1.00  0.00     0.021 C 
BRANCH   3   4
ATOM      4  C   UNL A   1      32.799  33.001  26.924  1.00  0.00     0.116 C 
BRANCH   4   5
ATOM      5  N   UNL A   1      32.445  34.215  27.635  1.00  0.00    -0.352 N 
ATOM      6  O   UNL A   1      32.484  35.747  29.284  1.00  0.00    -0.269 OA
ATOM      7  C   UNL A   1      33.013  34.779  28.748  1.00  0.00     0.251 C 
ATOM      8  H   UNL A   1      31.680  34.710  27.261  1.00  0.00     0.163 HD
BRANCH   7   9
ATOM      9  C   UNL A   1      34.251  34.210  29.326  1.00  0.00     0.039 A 
ATOM     10  C   UNL A   1      35.516  34.616  28.888  1.00  0.00     0.014 A 
ATOM     11  C   UNL A   1      34.135  33.278  30.360  1.00  0.00     0.014 A 
ATOM     12  C   UNL A   1      36.658  34.012  29.407  1.00  0.00     0.010 A 
ATOM     13  C   UNL A   1      35.282  32.721  30.926  1.00  0.00     0.010 A 
ATOM     14  C   UNL A   1      36.552  33.068  30.440  1.00  0.00    -0.014 A 
BRANCH  14  15
ATOM     15  C   UNL A   1      37.769  32.482  31.055  1.00  0.00     0.031 A 
ATOM     16  C   UNL A   1      38.517  31.380  30.365  1.00  0.00     0.074 A 
ATOM     17  C   UNL A   1      38.162  32.912  32.267  1.00  0.00     0.049 A 
ATOM     18  N   UNL A   1      39.527  30.668  30.799  1.00  0.00    -0.248 NA
ATOM     19  C   UNL A   1      38.062  31.020  29.014  1.00  0.00     0.031 C 
ATOM     20  C   UNL A   1      37.508  33.973  33.034  1.00  0.00     0.029 A 
ATOM     21  N   UNL A   1      39.189  32.498  33.076  1.00  0.00    -0.354 N 
ATOM     22  C   UNL A   1      39.812  29.760  29.787  1.00  0.00     0.074 A 
ATOM     23  C   UNL A   1      38.854  29.997  28.726  1.00  0.00     0.031 C 
ATOM     24  C   UNL A   1      38.146  34.125  34.204  1.00  0.00     0.029 A 
ATOM     25  C   UNL A   1      39.214  33.134  34.293  1.00  0.00     0.049 A 
ATOM     26  H   UNL A   1      39.844  31.813  32.811  1.00  0.00     0.167 HD
ATOM     27  C   UNL A   1      40.786  28.819  29.751  1.00  0.00     0.037 A 
ATOM     28  C   UNL A   1      39.982  32.918  35.376  1.00  0.00     0.037 A 
ATOM     29  C   UNL A   1      41.737  28.597  30.811  1.00  0.00     0.049 A 
ATOM     30  C   UNL A   1      41.032  31.846  35.330  1.00  0.00     0.074 A 
ATOM     31  C   UNL A   1      42.792  27.703  30.852  1.00  0.00     0.029 A 
ATOM     32  N   UNL A   1      41.735  29.269  32.027  1.00  0.00    -0.354 N 
ATOM     33  N   UNL A   1      41.324  31.022  34.353  1.00  0.00    -0.248 NA
ATOM     34  C   UNL A   1      41.859  31.673  36.530  1.00  0.00     0.031 C 
ATOM     35  C   UNL A   1      43.394  27.795  32.111  1.00  0.00     0.029 A 
ATOM     36  C   UNL A   1      42.753  28.788  32.835  1.00  0.00     0.049 A 
ATOM     37  H   UNL A   1      41.104  29.981  32.277  1.00  0.00     0.167 HD
ATOM     38  C   UNL A   1      42.383  30.250  34.808  1.00  0.00     0.074 A 
ATOM     39  C   UNL A   1      42.685  30.706  36.151  1.00  0.00     0.031 C 
ATOM     40  C   UNL A   1      43.047  29.258  34.167  1.00  0.00     0.037 A 
BRANCH  27  41
ATOM     41  C   UNL A   1      40.849  27.933  28.538  1.00  0.00     0.064 A 
ATOM     42  C   UNL A   1      41.558  28.302  27.386  1.00  0.00     0.173 A 
ATOM     43  C   UNL A   1      40.200  26.688  28.536  1.00  0.00     0.173 A 
ATOM     44  F   UNL A   1      42.191  29.483  27.331  1.00  0.00    -0.203 F 
ATOM     45  C   UNL A   1      41.583  27.476  26.263  1.00  0.00     0.198 A 
ATOM     46  C   UNL A   1      40.252  25.852  27.425  1.00  0.00     0.198 A 
ATOM     47  F   UNL A   1      39.515  26.281  29.615  1.00  0.00    -0.203 F 
ATOM     48  F   UNL A   1      42.220  27.876  25.154  1.00  0.00    -0.200 F 
ATOM     49  C   UNL A   1      40.934  26.251  26.285  1.00  0.00     0.200 A 
ATOM     50  F   UNL A   1      39.639  24.661  27.454  1.00  0.00    -0.200 F 
ATOM     51  F   UNL A   1      40.960  25.457  25.205  1.00  0.00    -0.200 F 
ENDBRANCH  27  41
BRANCH  28  52
ATOM     52  C   UNL A   1      39.759  33.740  36.592  1.00  0.00     0.064 A 
ATOM     53  C   UNL A   1      40.352  35.001  36.729  1.00  0.00     0.173 A 
ATOM     54  C   UNL A   1      38.897  33.307  37.610  1.00  0.00     0.173 A 
ATOM     55  F   UNL A   1      41.196  35.450  35.789  1.00  0.00    -0.203 F 
ATOM     56  C   UNL A   1      40.090  35.800  37.840  1.00  0.00     0.198 A 
ATOM     57  C   UNL A   1      38.614  34.117  38.707  1.00  0.00     0.198 A 
ATOM     58  F   UNL A   1      38.298  32.109  37.520  1.00  0.00    -0.203 F 
ATOM     59  F   UNL A   1      40.684  36.994  37.958  1.00  0.00    -0.200 F 
ATOM     60  C   UNL A   1      39.213  35.362  38.823  1.00  0.00     0.200 A 
ATOM     61  F   UNL A   1      37.751  33.698  39.643  1.00  0.00    -0.200 F 
ATOM     62  F   UNL A   1      38.944  36.141  39.879  1.00  0.00    -0.200 F 
ENDBRANCH  28  52
BRANCH  40  63
ATOM     63  C   UNL A   1      44.199  28.619  34.884  1.00  0.00     0.064 A 
ATOM     64  C   UNL A   1      44.037  27.462  35.658  1.00  0.00     0.173 A 
ATOM     65  C   UNL A   1      45.497  29.133  34.732  1.00  0.00     0.173 A 
ATOM     66  F   UNL A   1      42.815  26.942  35.848  1.00  0.00    -0.203 F 
ATOM     67  C   UNL A   1      45.131  26.845  36.260  1.00  0.00     0.198 A 
ATOM     68  C   UNL A   1      46.591  28.500  35.313  1.00  0.00     0.198 A 
ATOM     69  F   UNL A   1      45.704  30.237  33.998  1.00  0.00    -0.203 F 
ATOM     70  F   UNL A   1      44.951  25.756  37.019  1.00  0.00    -0.200 F 
ATOM     71  C   UNL A   1      46.407  27.358  36.078  1.00  0.00     0.200 A 
ATOM     72  F   UNL A   1      47.824  28.989  35.125  1.00  0.00    -0.200 F 
ATOM     73  F   UNL A   1      47.461  26.753  36.642  1.00  0.00    -0.200 F 
ENDBRANCH  40  63
ENDBRANCH  14  15
ENDBRANCH   7   9
ENDBRANCH   4   5
ENDBRANCH   3   4
ENDBRANCH   2   3
ENDBRANCH   1   2
BRANCH   1  74
ATOM     74  C   UNL A   1      34.333  28.882  27.155  1.00  0.00     0.021 C 
BRANCH  74  75
ATOM     75  C   UNL A   1      33.775  28.080  25.987  1.00  0.00     0.116 C 
BRANCH  75  76
ATOM     76  N   UNL A   1      32.728  27.153  26.372  1.00  0.00    -0.352 N 
ATOM     77  C   UNL A   1      31.540  26.891  25.732  1.00  0.00     0.252 C 
ATOM     78  H   UNL A   1      32.889  26.646  27.200  1.00  0.00     0.163 HD
ATOM     79  O   UNL A   1      30.765  26.056  26.189  1.00  0.00    -0.269 OA
BRANCH  77  80
ATOM     80  C   UNL A   1      31.161  27.640  24.514  1.00  0.00     0.050 A 
ATOM     81  C   UNL A   1      30.372  28.785  24.703  1.00  0.00     0.014 A 
ATOM     82  C   UNL A   1      31.530  27.235  23.219  1.00  0.00     0.030 A 
ATOM     83  C   UNL A   1      29.983  29.554  23.608  1.00  0.00     0.001 A 
ATOM     84  C   UNL A   1      31.141  28.030  22.130  1.00  0.00     0.013 A 
ATOM     85  C   UNL A   1      30.373  29.182  22.324  1.00  0.00     0.001 A 
BRANCH  82  86
ATOM     86  C   UNL A   1      32.283  26.019  22.979  1.00  0.00     0.135 A 
ATOM     87  C   UNL A   1      33.607  25.755  22.715  1.00  0.00     0.051 A 
ATOM     88  O   UNL A   1      31.549  24.873  22.887  1.00  0.00    -0.457 OA
ATOM     89  C   UNL A   1      33.675  24.377  22.418  1.00  0.00     0.051 A 
ATOM     90  C   UNL A   1      32.396  23.848  22.550  1.00  0.00     0.128 A 
BRANCH  90  91
ATOM     91  C   UNL A   1      31.976  22.507  22.344  1.00  0.00     0.068 C 
ATOM     92  C   UNL A   1      32.224  21.561  23.257  1.00  0.00     0.084 C 
ATOM     93  S   UNL A   1      32.160  19.870  22.957  1.00  0.00    -0.054 SA
ATOM     94  C   UNL A   1      32.762  21.793  24.618  1.00  0.00     0.266 C 
ATOM     95  C   UNL A   1      33.240  19.527  24.318  1.00  0.00     0.148 C 
ATOM     96  N   UNL A   1      33.446  20.678  25.047  1.00  0.00    -0.288 N 
ATOM     97  O   UNL A   1      32.573  22.816  25.267  1.00  0.00    -0.268 OA
ATOM     98  S   UNL A   1      33.859  18.003  24.588  1.00  0.00    -0.052 S 
BRANCH  96  99
ATOM     99  C   UNL A   1      34.266  20.800  26.251  1.00  0.00     0.163 C 
BRANCH  99 100
ATOM    100  C   UNL A   1      35.578  21.519  25.992  1.00  0.00    -0.028 A 
ATOM    101  C   UNL A   1      35.731  22.866  26.346  1.00  0.00     0.005 A 
ATOM    102  C   UNL A   1      36.650  20.876  25.346  1.00  0.00     0.005 A 
ATOM    103  C   UNL A   1      36.919  23.547  26.063  1.00  0.00     0.000 A 
ATOM    104  C   UNL A   1      37.844  21.550  25.084  1.00  0.00     0.000 A 
ATOM    105  C   UNL A   1      37.976  22.888  25.438  1.00  0.00     0.000 A 
ENDBRANCH  99 100
ENDBRANCH  96  99
ENDBRANCH  90  91
ENDBRANCH  82  86
ENDBRANCH  77  80
ENDBRANCH  75  76
ENDBRANCH  74  75
ENDBRANCH   1  74
TORSDOF 17
ENDMDL
MODEL 3
REMARK VINA RESULT:     -12.0      0.456      1.563
REMARK SMILES O=C(NCCCCCCNC(=O)c1ccccc1-c1ccc(/C=C2/SC(=S)N(Cc3ccccc3)C2=O)o1)c1ccc(-c2c3nc(c(-c4c(F)c(F)c(F)c(F)c4F)c4ccc([nH]4)c(-c4c(F)c(F)c(F)c(F)c4F)c4nc(c(-c5c(F)c(F)c(F)c(F)c5F)c5ccc2[nH]5)C=C4)C=C3)cc1
REMARK SMILES IDX 7 1 6 2 5 3 4 4 3 5 1 6 2 7 39 9 40 10 101 11 41 12 100 13
REMARK SMILES IDX 42 14 43 15 44 16 94 17 45 18 99 19 93 20 95 21 46 22 98 23
REMARK SMILES IDX 92 24 91 25 47 27 79 28 59 29 78 30 60 31 63 32 77 33 96 34
REMARK SMILES IDX 61 35 62 36 76 38 97 39 64 40 48 41 49 42 57 43 50 44 51 45
REMARK SMILES IDX 55 46 58 47 52 48 53 49 56 50 54 51 80 52 81 53 89 54 82 55
REMARK SMILES IDX 83 56 87 57 90 58 84 59 85 60 88 61 86 62 65 63 66 64 74 65
REMARK SMILES IDX 67 66 68 67 72 68 75 69 69 70 70 71 73 72 71 73 8 74 9 75
REMARK SMILES IDX 10 76 11 77 12 79 13 80 14 81 18 82 15 83 17 84 16 85 19 86
REMARK SMILES IDX 20 87 38 88 21 89 22 90 23 91 24 92 25 93 36 94 26 95 28 96
REMARK SMILES IDX 37 97 27 98 29 99 30 100 31 101 35 102 32 103 34 104 33 105
REMARK H PARENT 3 8 95 26 63 37 10 78
REMARK Flexibility Score: inf
ROOT
ATOM      1  C   UNL A   1      37.606  22.057  24.797  1.00  0.00     0.002 C 
ENDROOT
BRANCH   1   2
ATOM      2  C   UNL A   1      37.198  20.586  24.931  1.00  0.00     0.002 C 
BRANCH   2   3
ATOM      3  C   UNL A   1      38.345  19.579  25.028  1.00  0.00     0.021 C 
BRANCH   3   4
ATOM      4  C   UNL A   1      39.447  19.927  26.023  1.00  0.00     0.116 C 
BRANCH   4   5
ATOM      5  N   UNL A   1      40.601  19.053  25.916  1.00  0.00    -0.352 N 
ATOM      6  O   UNL A   1      42.772  18.485  25.741  1.00  0.00    -0.269 OA
ATOM      7  C   UNL A   1      41.937  19.348  25.992  1.00  0.00     0.251 C 
ATOM      8  H   UNL A   1      40.391  18.102  25.766  1.00  0.00     0.163 HD
BRANCH   7   9
ATOM      9  C   UNL A   1      42.383  20.713  26.349  1.00  0.00     0.039 A 
ATOM     10  C   UNL A   1      42.667  21.670  25.369  1.00  0.00     0.014 A 
ATOM     11  C   UNL A   1      42.477  21.048  27.703  1.00  0.00     0.014 A 
ATOM     12  C   UNL A   1      43.148  22.923  25.740  1.00  0.00     0.010 A 
ATOM     13  C   UNL A   1      42.895  22.327  28.074  1.00  0.00     0.010 A 
ATOM     14  C   UNL A   1      43.254  23.267  27.096  1.00  0.00    -0.014 A 
BRANCH  14  15
ATOM     15  C   UNL A   1      43.686  24.629  27.498  1.00  0.00     0.031 A 
ATOM     16  C   UNL A   1      42.685  25.631  27.993  1.00  0.00     0.074 A 
ATOM     17  C   UNL A   1      44.978  24.974  27.359  1.00  0.00     0.049 A 
ATOM     18  N   UNL A   1      42.854  26.898  28.278  1.00  0.00    -0.248 NA
ATOM     19  C   UNL A   1      41.309  25.149  28.181  1.00  0.00     0.031 C 
ATOM     20  C   UNL A   1      46.038  24.085  26.882  1.00  0.00     0.029 A 
ATOM     21  N   UNL A   1      45.618  26.166  27.584  1.00  0.00    -0.354 N 
ATOM     22  C   UNL A   1      41.604  27.372  28.653  1.00  0.00     0.074 A 
ATOM     23  C   UNL A   1      40.681  26.261  28.539  1.00  0.00     0.031 C 
ATOM     24  C   UNL A   1      47.195  24.762  26.845  1.00  0.00     0.029 A 
ATOM     25  C   UNL A   1      46.946  26.145  27.239  1.00  0.00     0.049 A 
ATOM     26  H   UNL A   1      45.168  26.959  27.957  1.00  0.00     0.167 HD
ATOM     27  C   UNL A   1      41.263  28.620  29.057  1.00  0.00     0.037 A 
ATOM     28  C   UNL A   1      47.856  27.136  27.203  1.00  0.00     0.037 A 
ATOM     29  C   UNL A   1      42.193  29.715  29.171  1.00  0.00     0.049 A 
ATOM     30  C   UNL A   1      47.450  28.520  27.620  1.00  0.00     0.074 A 
ATOM     31  C   UNL A   1      41.959  31.004  29.617  1.00  0.00     0.029 A 
ATOM     32  N   UNL A   1      43.535  29.652  28.820  1.00  0.00    -0.354 N 
ATOM     33  N   UNL A   1      46.276  28.950  28.016  1.00  0.00    -0.248 NA
ATOM     34  C   UNL A   1      48.490  29.556  27.588  1.00  0.00     0.031 C 
ATOM     35  C   UNL A   1      43.144  31.734  29.485  1.00  0.00     0.029 A 
ATOM     36  C   UNL A   1      44.133  30.887  29.013  1.00  0.00     0.049 A 
ATOM     37  H   UNL A   1      43.993  28.848  28.485  1.00  0.00     0.167 HD
ATOM     38  C   UNL A   1      46.440  30.297  28.304  1.00  0.00     0.074 A 
ATOM     39  C   UNL A   1      47.829  30.615  28.039  1.00  0.00     0.031 C 
ATOM     40  C   UNL A   1      45.521  31.186  28.753  1.00  0.00     0.037 A 
BRANCH  27  41
ATOM     41  C   UNL A   1      39.816  28.875  29.370  1.00  0.00     0.064 A 
ATOM     42  C   UNL A   1      39.274  28.617  30.638  1.00  0.00     0.173 A 
ATOM     43  C   UNL A   1      38.961  29.401  28.388  1.00  0.00     0.173 A 
ATOM     44  F   UNL A   1      40.044  28.107  31.611  1.00  0.00    -0.203 F 
ATOM     45  C   UNL A   1      37.923  28.838  30.900  1.00  0.00     0.198 A 
ATOM     46  C   UNL A   1      37.619  29.650  28.663  1.00  0.00     0.198 A 
ATOM     47  F   UNL A   1      39.428  29.677  27.162  1.00  0.00    -0.203 F 
ATOM     48  F   UNL A   1      37.416  28.530  32.102  1.00  0.00    -0.200 F 
ATOM     49  C   UNL A   1      37.098  29.358  29.914  1.00  0.00     0.200 A 
ATOM     50  F   UNL A   1      36.828  30.169  27.714  1.00  0.00    -0.200 F 
ATOM     51  F   UNL A   1      35.799  29.572  30.168  1.00  0.00    -0.200 F 
ENDBRANCH  27  41
BRANCH  28  52
ATOM     52  C   UNL A   1      49.233  26.833  26.740  1.00  0.00     0.064 A 
ATOM     53  C   UNL A   1      50.222  26.418  27.640  1.00  0.00     0.173 A 
ATOM     54  C   UNL A   1      49.567  26.890  25.379  1.00  0.00     0.173 A 
ATOM     55  F   UNL A   1      49.953  26.364  28.952  1.00  0.00    -0.203 F 
ATOM     56  C   UNL A   1      51.496  26.070  27.196  1.00  0.00     0.198 A 
ATOM     57  C   UNL A   1      50.832  26.516  24.932  1.00  0.00     0.198 A 
ATOM     58  F   UNL A   1      48.651  27.273  24.477  1.00  0.00    -0.203 F 
ATOM     59  F   UNL A   1      52.431  25.695  28.078  1.00  0.00    -0.200 F 
ATOM     60  C   UNL A   1      51.797  26.109  25.841  1.00  0.00     0.200 A 
ATOM     61  F   UNL A   1      51.112  26.536  23.622  1.00  0.00    -0.200 F 
ATOM     62  F   UNL A   1      53.015  25.752  25.413  1.00  0.00    -0.200 F 
ENDBRANCH  28  52
BRANCH  40  63
ATOM     63  C   UNL A   1      45.988  32.584  29.033  1.00  0.00     0.064 A 
ATOM     64  C   UNL A   1      45.918  33.594  28.064  1.00  0.00     0.173 A 
ATOM     65  C   UNL A   1      46.444  32.931  30.315  1.00  0.00     0.173 A 
ATOM     66  F   UNL A   1      45.505  33.308  26.820  1.00  0.00    -0.203 F 
ATOM     67  C   UNL A   1      46.293  34.901  28.366  1.00  0.00     0.198 A 
ATOM     68  C   UNL A   1      46.793  34.243  30.620  1.00  0.00     0.198 A 
ATOM     69  F   UNL A   1      46.527  32.000  31.277  1.00  0.00    -0.203 F 
ATOM     70  F   UNL A   1      46.244  35.846  27.418  1.00  0.00    -0.200 F 
ATOM     71  C   UNL A   1      46.719  35.226  29.645  1.00  0.00     0.200 A 
ATOM     72  F   UNL A   1      47.192  34.557  31.860  1.00  0.00    -0.200 F 
ATOM     73  F   UNL A   1      47.062  36.488  29.939  1.00  0.00    -0.200 F 
ENDBRANCH  40  63
ENDBRANCH  14  15
ENDBRANCH   7   9
ENDBRANCH   4   5
ENDBRANCH   3   4
ENDBRANCH   2   3
ENDBRANCH   1   2
BRANCH   1  74
ATOM     74  C   UNL A   1      37.171  22.995  25.931  1.00  0.00     0.021 C 
BRANCH  74  75
ATOM     75  C   UNL A   1      35.732  23.488  25.850  1.00  0.00     0.116 C 
BRANCH  75  76
ATOM     76  N   UNL A   1      35.302  23.789  24.498  1.00  0.00    -0.352 N 
ATOM     77  C   UNL A   1      34.352  23.147  23.740  1.00  0.00     0.252 C 
ATOM     78  H   UNL A   1      35.748  24.553  24.067  1.00  0.00     0.163 HD
ATOM     79  O   UNL A   1      34.094  23.545  22.608  1.00  0.00    -0.269 OA
BRANCH  77  80
ATOM     80  C   UNL A   1      33.661  21.946  24.260  1.00  0.00     0.050 A 
ATOM     81  C   UNL A   1      34.218  20.705  23.913  1.00  0.00     0.014 A 
ATOM     82  C   UNL A   1      32.491  22.010  25.036  1.00  0.00     0.030 A 
ATOM     83  C   UNL A   1      33.635  19.526  24.373  1.00  0.00     0.001 A 
ATOM     84  C   UNL A   1      31.926  20.813  25.502  1.00  0.00     0.013 A 
ATOM     85  C   UNL A   1      32.496  19.579  25.173  1.00  0.00     0.001 A 
BRANCH  82  86
ATOM     86  C   UNL A   1      31.846  23.271  25.352  1.00  0.00     0.135 A 
ATOM     87  C   UNL A   1      31.865  24.101  26.449  1.00  0.00     0.051 A 
ATOM     88  O   UNL A   1      30.940  23.721  24.438  1.00  0.00    -0.457 OA
ATOM     89  C   UNL A   1      30.895  25.094  26.199  1.00  0.00     0.051 A 
ATOM     90  C   UNL A   1      30.349  24.853  24.942  1.00  0.00     0.128 A 
BRANCH  90  91
ATOM     91  C   UNL A   1      29.335  25.585  24.271  1.00  0.00     0.068 C 
ATOM     92  C   UNL A   1      29.608  26.750  23.673  1.00  0.00     0.084 C 
ATOM     93  S   UNL A   1      28.431  27.914  23.212  1.00  0.00    -0.054 SA
ATOM     94  C   UNL A   1      30.961  27.316  23.463  1.00  0.00     0.266 C 
ATOM     95  C   UNL A   1      29.628  29.220  23.236  1.00  0.00     0.148 C 
ATOM     96  N   UNL A   1      30.889  28.691  23.403  1.00  0.00    -0.288 N 
ATOM     97  O   UNL A   1      31.974  26.642  23.319  1.00  0.00    -0.268 OA
ATOM     98  S   UNL A   1      29.187  30.819  23.071  1.00  0.00    -0.052 S 
BRANCH  96  99
ATOM     99  C   UNL A   1      32.139  29.444  23.460  1.00  0.00     0.163 C 
BRANCH  99 100
ATOM    100  C   UNL A   1      32.730  29.490  24.859  1.00  0.00    -0.028 A 
ATOM    101  C   UNL A   1      33.844  28.705  25.184  1.00  0.00     0.005 A 
ATOM    102  C   UNL A   1      32.148  30.271  25.874  1.00  0.00     0.005 A 
ATOM    103  C   UNL A   1      34.359  28.704  26.484  1.00  0.00     0.000 A 
ATOM    104  C   UNL A   1      32.676  30.286  27.165  1.00  0.00     0.000 A 
ATOM    105  C   UNL A   1      33.780  29.498  27.472  1.00  0.00     0.000 A 
ENDBRANCH  99 100
ENDBRANCH  96  99
ENDBRANCH  90  91
ENDBRANCH  82  86
ENDBRANCH  77  80
ENDBRANCH  75  76
ENDBRANCH  74  75
ENDBRANCH   1  74
TORSDOF 17
ENDMDL
