MODEL 1
REMARK VINA RESULT:     -11.6      0.000      0.000
REMARK SMILES CC1(C)CC[NH+](CC[C@H]2CCC[C@]2([NH3+])C(=O)NCCCCCCNC(=O)c2ccc(-c3c4nc(c(-c5c(F)c(F)c(F)c(F)c5F)c5ccc([nH]5)c(-c5c(F)c(F)c(F)c(F)c5F)c5nc(c(-c6c(F)c(F)c(F)c(F)c6F)c6ccc3[nH]6)C=C5)C=C4)cc2)CC1
REMARK SMILES IDX 20 1 19 2 18 3 17 4 15 5 16 6 13 8 9 9 10 10 11 11 12 12
REMARK SMILES IDX 8 13 7 14 6 15 1 16 2 17 3 18 4 19 91 20 5 21 90 22 14 24
REMARK SMILES IDX 21 28 22 29 23 30 24 31 25 32 26 34 27 35 28 36 89 37 29 38
REMARK SMILES IDX 88 39 30 40 31 41 32 42 82 43 33 44 87 45 81 46 83 47 34 48
REMARK SMILES IDX 86 49 80 50 79 51 35 53 67 54 47 55 66 56 48 57 51 58 65 59
REMARK SMILES IDX 84 60 49 61 50 62 64 64 85 65 52 66 36 67 37 68 45 69 38 70
REMARK SMILES IDX 39 71 43 72 46 73 40 74 41 75 44 76 42 77 68 78 69 79 77 80
REMARK SMILES IDX 70 81 71 82 75 83 78 84 72 85 73 86 76 87 74 88 53 89 54 90
REMARK SMILES IDX 62 91 55 92 56 93 60 94 63 95 57 96 58 97 61 98 59 99
REMARK H PARENT 17 7 6 23 14 25 14 26 14 27 24 33 83 52 51 63
REMARK Flexibility Score: inf
ROOT
ATOM      1  C   UNL A   1      32.872  30.193  27.254  1.00  0.00     0.002 C 
ENDROOT
BRANCH   1   2
ATOM      2  C   UNL A   1      33.021  28.664  27.209  1.00  0.00     0.021 C 
BRANCH   2   3
ATOM      3  C   UNL A   1      34.054  28.179  26.183  1.00  0.00     0.116 C 
BRANCH   3   4
ATOM      4  N   UNL A   1      33.861  28.895  24.951  1.00  0.00    -0.351 N 
ATOM      5  C   UNL A   1      33.280  28.494  23.800  1.00  0.00     0.281 C 
ATOM      6  O   UNL A   1      33.570  29.171  22.805  1.00  0.00    -0.268 OA
ATOM      7  H   UNL A   1      34.204  29.818  24.946  1.00  0.00     0.163 HD
BRANCH   5   8
ATOM      8  C   UNL A   1      32.196  27.344  23.773  1.00  0.00     0.177 C 
ATOM      9  C   UNL A   1      32.614  26.026  24.489  1.00  0.00     0.066 C 
ATOM     10  C   UNL A   1      33.520  25.309  23.460  1.00  0.00     0.011 C 
ATOM     11  C   UNL A   1      33.255  25.946  22.096  1.00  0.00     0.008 C 
ATOM     12  C   UNL A   1      32.116  26.948  22.289  1.00  0.00     0.079 C 
BRANCH   9  13
ATOM     13  C   UNL A   1      31.670  25.047  25.297  1.00  0.00     0.072 C 
BRANCH  13  14
ATOM     14  C   UNL A   1      31.261  23.579  24.976  1.00  0.00     0.262 C 
BRANCH  14  15
ATOM     15  N   UNL A   1      31.892  22.360  25.499  1.00  0.00    -0.335 N 
ATOM     16  C   UNL A   1      35.265  20.429  25.000  1.00  0.00     0.011 C 
ATOM     17  C   UNL A   1      34.720  21.829  24.679  1.00  0.00    -0.025 C 
ATOM     18  C   UNL A   1      35.783  22.590  23.857  1.00  0.00     0.011 C 
ATOM     19  C   UNL A   1      33.480  21.635  23.810  1.00  0.00     0.068 C 
ATOM     20  C   UNL A   1      34.377  22.665  25.939  1.00  0.00     0.068 C 
ATOM     21  C   UNL A   1      32.214  21.298  24.577  1.00  0.00     0.262 C 
ATOM     22  C   UNL A   1      32.956  22.493  26.496  1.00  0.00     0.262 C 
ATOM     23  H   UNL A   1      31.056  22.065  26.004  1.00  0.00     0.348 HD
ENDBRANCH  14  15
ENDBRANCH  13  14
ENDBRANCH   9  13
BRANCH   8  24
ATOM     24  N   UNL A   1      30.976  27.971  24.297  1.00  0.00    -0.345 N 
ATOM     25  H   UNL A   1      30.516  28.494  23.551  1.00  0.00     0.345 HD
ATOM     26  H   UNL A   1      31.220  28.607  25.057  1.00  0.00     0.345 HD
ATOM     27  H   UNL A   1      30.345  27.250  24.645  1.00  0.00     0.345 HD
ENDBRANCH   8  24
ENDBRANCH   5   8
ENDBRANCH   3   4
ENDBRANCH   2   3
ENDBRANCH   1   2
BRANCH   1  28
ATOM     28  C   UNL A   1      31.529  30.709  26.731  1.00  0.00     0.002 C 
BRANCH  28  29
ATOM     29  C   UNL A   1      31.413  32.231  26.728  1.00  0.00     0.021 C 
BRANCH  29  30
ATOM     30  C   UNL A   1      32.722  32.930  27.048  1.00  0.00     0.116 C 
BRANCH  30  31
ATOM     31  N   UNL A   1      32.484  34.255  27.592  1.00  0.00    -0.352 N 
ATOM     32  C   UNL A   1      33.031  34.818  28.713  1.00  0.00     0.251 C 
ATOM     33  H   UNL A   1      31.850  34.818  27.094  1.00  0.00     0.163 HD
ATOM     34  O   UNL A   1      32.540  35.819  29.218  1.00  0.00    -0.269 OA
BRANCH  32  35
ATOM     35  C   UNL A   1      34.228  34.191  29.302  1.00  0.00     0.039 A 
ATOM     36  C   UNL A   1      34.061  33.215  30.282  1.00  0.00     0.014 A 
ATOM     37  C   UNL A   1      35.507  34.571  28.878  1.00  0.00     0.014 A 
ATOM     38  C   UNL A   1      35.186  32.606  30.829  1.00  0.00     0.010 A 
ATOM     39  C   UNL A   1      36.620  33.897  29.356  1.00  0.00     0.010 A 
ATOM     40  C   UNL A   1      36.470  32.931  30.360  1.00  0.00    -0.014 A 
BRANCH  40  41
ATOM     41  C   UNL A   1      37.665  32.283  30.945  1.00  0.00     0.031 A 
ATOM     42  C   UNL A   1      38.128  32.664  32.323  1.00  0.00     0.074 A 
ATOM     43  C   UNL A   1      38.331  31.364  30.225  1.00  0.00     0.049 A 
ATOM     44  N   UNL A   1      39.114  32.172  33.027  1.00  0.00    -0.248 NA
ATOM     45  C   UNL A   1      37.404  33.758  32.991  1.00  0.00     0.031 C 
ATOM     46  C   UNL A   1      38.009  30.971  28.851  1.00  0.00     0.029 A 
ATOM     47  N   UNL A   1      39.409  30.584  30.551  1.00  0.00    -0.354 N 
ATOM     48  C   UNL A   1      39.131  32.897  34.211  1.00  0.00     0.074 A 
ATOM     49  C   UNL A   1      38.104  33.908  34.105  1.00  0.00     0.031 C 
ATOM     50  C   UNL A   1      38.842  29.991  28.469  1.00  0.00     0.029 A 
ATOM     51  C   UNL A   1      39.772  29.709  29.557  1.00  0.00     0.049 A 
ATOM     52  H   UNL A   1      39.878  30.644  31.415  1.00  0.00     0.167 HD
ATOM     53  C   UNL A   1      39.913  32.712  35.301  1.00  0.00     0.037 A 
ATOM     54  C   UNL A   1      40.740  28.774  29.538  1.00  0.00     0.037 A 
ATOM     55  C   UNL A   1      40.918  31.688  35.402  1.00  0.00     0.049 A 
ATOM     56  C   UNL A   1      41.581  28.576  30.770  1.00  0.00     0.074 A 
ATOM     57  C   UNL A   1      41.727  31.374  36.478  1.00  0.00     0.029 A 
ATOM     58  N   UNL A   1      41.253  30.810  34.380  1.00  0.00    -0.354 N 
ATOM     59  N   UNL A   1      41.531  29.209  31.918  1.00  0.00    -0.248 NA
ATOM     60  C   UNL A   1      42.600  27.522  30.708  1.00  0.00     0.031 C 
ATOM     61  C   UNL A   1      42.586  30.338  36.092  1.00  0.00     0.029 A 
ATOM     62  C   UNL A   1      42.273  29.969  34.793  1.00  0.00     0.049 A 
ATOM     63  H   UNL A   1      40.828  30.788  33.491  1.00  0.00     0.167 HD
ATOM     64  C   UNL A   1      42.495  28.617  32.721  1.00  0.00     0.074 A 
ATOM     65  C   UNL A   1      43.093  27.556  31.937  1.00  0.00     0.031 C 
ATOM     66  C   UNL A   1      42.857  28.923  33.993  1.00  0.00     0.037 A 
BRANCH  53  67
ATOM     67  C   UNL A   1      39.705  33.633  36.469  1.00  0.00     0.064 A 
ATOM     68  C   UNL A   1      38.875  33.283  37.545  1.00  0.00     0.173 A 
ATOM     69  C   UNL A   1      40.364  34.871  36.526  1.00  0.00     0.173 A 
ATOM     70  F   UNL A   1      38.208  32.118  37.534  1.00  0.00    -0.203 F 
ATOM     71  C   UNL A   1      38.691  34.148  38.622  1.00  0.00     0.198 A 
ATOM     72  C   UNL A   1      40.204  35.718  37.619  1.00  0.00     0.198 A 
ATOM     73  F   UNL A   1      41.170  35.255  35.525  1.00  0.00    -0.203 F 
ATOM     74  F   UNL A   1      37.853  33.814  39.613  1.00  0.00    -0.200 F 
ATOM     75  C   UNL A   1      39.362  35.361  38.662  1.00  0.00     0.200 A 
ATOM     76  F   UNL A   1      40.862  36.885  37.662  1.00  0.00    -0.200 F 
ATOM     77  F   UNL A   1      39.191  36.189  39.701  1.00  0.00    -0.200 F 
ENDBRANCH  53  67
BRANCH  54  78
ATOM     78  C   UNL A   1      40.932  27.930  28.331  1.00  0.00     0.064 A 
ATOM     79  C   UNL A   1      40.268  26.702  28.195  1.00  0.00     0.173 A 
ATOM     80  C   UNL A   1      41.781  28.331  27.290  1.00  0.00     0.173 A 
ATOM     81  F   UNL A   1      39.457  26.269  29.171  1.00  0.00    -0.203 F 
ATOM     82  C   UNL A   1      40.466  25.897  27.075  1.00  0.00     0.198 A 
ATOM     83  C   UNL A   1      41.954  27.539  26.157  1.00  0.00     0.198 A 
ATOM     84  F   UNL A   1      42.432  29.501  27.366  1.00  0.00    -0.203 F 
ATOM     85  F   UNL A   1      39.856  24.706  26.994  1.00  0.00    -0.200 F 
ATOM     86  C   UNL A   1      41.305  26.319  26.055  1.00  0.00     0.200 A 
ATOM     87  F   UNL A   1      42.752  27.958  25.165  1.00  0.00    -0.200 F 
ATOM     88  F   UNL A   1      41.491  25.545  24.977  1.00  0.00    -0.200 F 
ENDBRANCH  54  78
BRANCH  66  89
ATOM     89  C   UNL A   1      43.933  28.080  34.614  1.00  0.00     0.064 A 
ATOM     90  C   UNL A   1      45.279  28.474  34.594  1.00  0.00     0.173 A 
ATOM     91  C   UNL A   1      43.612  26.870  35.246  1.00  0.00     0.173 A 
ATOM     92  F   UNL A   1      45.640  29.617  33.990  1.00  0.00    -0.203 F 
ATOM     93  C   UNL A   1      46.268  27.666  35.147  1.00  0.00     0.198 A 
ATOM     94  C   UNL A   1      44.599  26.082  35.830  1.00  0.00     0.198 A 
ATOM     95  F   UNL A   1      42.338  26.452  35.301  1.00  0.00    -0.203 F 
ATOM     96  F   UNL A   1      47.555  28.031  35.059  1.00  0.00    -0.200 F 
ATOM     97  C   UNL A   1      45.927  26.475  35.769  1.00  0.00     0.200 A 
ATOM     98  F   UNL A   1      44.266  24.938  36.444  1.00  0.00    -0.200 F 
ATOM     99  F   UNL A   1      46.881  25.697  36.300  1.00  0.00    -0.200 F 
ENDBRANCH  66  89
ENDBRANCH  40  41
ENDBRANCH  32  35
ENDBRANCH  30  31
ENDBRANCH  29  30
ENDBRANCH  28  29
ENDBRANCH   1  28
TORSDOF 17
ENDMDL
MODEL 2
REMARK VINA RESULT:     -11.5      0.746      1.893
REMARK SMILES CC1(C)CC[NH+](CC[C@H]2CCC[C@]2([NH3+])C(=O)NCCCCCCNC(=O)c2ccc(-c3c4nc(c(-c5c(F)c(F)c(F)c(F)c5F)c5ccc([nH]5)c(-c5c(F)c(F)c(F)c(F)c5F)c5nc(c(-c6c(F)c(F)c(F)c(F)c6F)c6ccc3[nH]6)C=C5)C=C4)cc2)CC1
REMARK SMILES IDX 20 1 19 2 18 3 17 4 15 5 16 6 13 8 9 9 10 10 11 11 12 12
REMARK SMILES IDX 8 13 7 14 6 15 1 16 2 17 3 18 4 19 91 20 5 21 90 22 14 24
REMARK SMILES IDX 21 28 22 29 23 30 24 31 25 32 26 34 27 35 28 36 89 37 29 38
REMARK SMILES IDX 88 39 30 40 31 41 32 42 82 43 33 44 87 45 81 46 83 47 34 48
REMARK SMILES IDX 86 49 80 50 79 51 35 53 67 54 47 55 66 56 48 57 51 58 65 59
REMARK SMILES IDX 84 60 49 61 50 62 64 64 85 65 52 66 36 67 37 68 45 69 38 70
REMARK SMILES IDX 39 71 43 72 46 73 40 74 41 75 44 76 42 77 68 78 69 79 77 80
REMARK SMILES IDX 70 81 71 82 75 83 78 84 72 85 73 86 76 87 74 88 53 89 54 90
REMARK SMILES IDX 62 91 55 92 56 93 60 94 63 95 57 96 58 97 61 98 59 99
REMARK H PARENT 17 7 6 23 14 25 14 26 14 27 24 33 83 52 51 63
REMARK Flexibility Score: inf
ROOT
ATOM      1  C   UNL A   1      32.731  30.239  26.228  1.00  0.00     0.002 C 
ENDROOT
BRANCH   1   2
ATOM      2  C   UNL A   1      32.835  28.947  25.403  1.00  0.00     0.021 C 
BRANCH   2   3
ATOM      3  C   UNL A   1      31.552  28.105  25.419  1.00  0.00     0.116 C 
BRANCH   3   4
ATOM      4  N   UNL A   1      31.107  27.907  24.066  1.00  0.00    -0.351 N 
ATOM      5  C   UNL A   1      31.262  26.839  23.252  1.00  0.00     0.281 C 
ATOM      6  O   UNL A   1      31.102  27.074  22.048  1.00  0.00    -0.268 OA
ATOM      7  H   UNL A   1      30.613  28.663  23.673  1.00  0.00     0.163 HD
BRANCH   5   8
ATOM      8  C   UNL A   1      31.478  25.383  23.825  1.00  0.00     0.177 C 
ATOM      9  C   UNL A   1      32.471  25.283  25.021  1.00  0.00     0.066 C 
ATOM     10  C   UNL A   1      33.867  25.317  24.354  1.00  0.00     0.011 C 
ATOM     11  C   UNL A   1      33.674  24.987  22.874  1.00  0.00     0.008 C 
ATOM     12  C   UNL A   1      32.197  24.641  22.686  1.00  0.00     0.079 C 
BRANCH   9  13
ATOM     13  C   UNL A   1      32.377  24.292  26.250  1.00  0.00     0.072 C 
BRANCH  13  14
ATOM     14  C   UNL A   1      31.794  22.850  26.316  1.00  0.00     0.262 C 
BRANCH  14  15
ATOM     15  N   UNL A   1      32.558  21.602  26.443  1.00  0.00    -0.335 N 
ATOM     16  C   UNL A   1      35.841  20.078  24.943  1.00  0.00     0.011 C 
ATOM     17  C   UNL A   1      35.193  21.468  25.033  1.00  0.00    -0.025 C 
ATOM     18  C   UNL A   1      36.050  22.460  24.216  1.00  0.00     0.011 C 
ATOM     19  C   UNL A   1      33.818  21.361  24.381  1.00  0.00     0.068 C 
ATOM     20  C   UNL A   1      35.069  22.002  26.484  1.00  0.00     0.068 C 
ATOM     21  C   UNL A   1      32.737  20.778  25.273  1.00  0.00     0.262 C 
ATOM     22  C   UNL A   1      33.788  21.610  27.237  1.00  0.00     0.262 C 
ATOM     23  H   UNL A   1      31.847  21.147  27.016  1.00  0.00     0.348 HD
ENDBRANCH  14  15
ENDBRANCH  13  14
ENDBRANCH   9  13
BRANCH   8  24
ATOM     24  N   UNL A   1      30.123  24.889  24.106  1.00  0.00    -0.345 N 
ATOM     25  H   UNL A   1      30.129  24.358  24.977  1.00  0.00     0.345 HD
ATOM     26  H   UNL A   1      29.817  24.285  23.342  1.00  0.00     0.345 HD
ATOM     27  H   UNL A   1      29.484  25.678  24.193  1.00  0.00     0.345 HD
ENDBRANCH   8  24
ENDBRANCH   5   8
ENDBRANCH   3   4
ENDBRANCH   2   3
ENDBRANCH   1   2
BRANCH   1  28
ATOM     28  C   UNL A   1      31.350  30.901  26.187  1.00  0.00     0.002 C 
BRANCH  28  29
ATOM     29  C   UNL A   1      31.374  32.395  26.500  1.00  0.00     0.021 C 
BRANCH  29  30
ATOM     30  C   UNL A   1      32.636  32.834  27.220  1.00  0.00     0.116 C 
BRANCH  30  31
ATOM     31  N   UNL A   1      32.518  34.203  27.688  1.00  0.00    -0.352 N 
ATOM     32  C   UNL A   1      33.157  34.793  28.744  1.00  0.00     0.251 C 
ATOM     33  H   UNL A   1      31.901  34.780  27.183  1.00  0.00     0.163 HD
ATOM     34  O   UNL A   1      32.761  35.855  29.206  1.00  0.00    -0.269 OA
BRANCH  32  35
ATOM     35  C   UNL A   1      34.335  34.118  29.319  1.00  0.00     0.039 A 
ATOM     36  C   UNL A   1      35.603  34.494  28.884  1.00  0.00     0.014 A 
ATOM     37  C   UNL A   1      34.174  33.119  30.287  1.00  0.00     0.014 A 
ATOM     38  C   UNL A   1      36.720  33.874  29.436  1.00  0.00     0.010 A 
ATOM     39  C   UNL A   1      35.289  32.570  30.901  1.00  0.00     0.010 A 
ATOM     40  C   UNL A   1      36.571  32.920  30.457  1.00  0.00    -0.014 A 
BRANCH  40  41
ATOM     41  C   UNL A   1      37.761  32.260  31.040  1.00  0.00     0.031 A 
ATOM     42  C   UNL A   1      38.221  32.624  32.423  1.00  0.00     0.074 A 
ATOM     43  C   UNL A   1      38.423  31.343  30.313  1.00  0.00     0.049 A 
ATOM     44  N   UNL A   1      39.203  32.120  33.125  1.00  0.00    -0.248 NA
ATOM     45  C   UNL A   1      37.502  33.716  33.099  1.00  0.00     0.031 C 
ATOM     46  C   UNL A   1      38.103  30.965  28.935  1.00  0.00     0.029 A 
ATOM     47  N   UNL A   1      39.496  30.554  30.635  1.00  0.00    -0.354 N 
ATOM     48  C   UNL A   1      39.221  32.834  34.316  1.00  0.00     0.074 A 
ATOM     49  C   UNL A   1      38.199  33.851  34.217  1.00  0.00     0.031 C 
ATOM     50  C   UNL A   1      38.932  29.984  28.546  1.00  0.00     0.029 A 
ATOM     51  C   UNL A   1      39.857  29.686  29.634  1.00  0.00     0.049 A 
ATOM     52  H   UNL A   1      39.963  30.603  31.501  1.00  0.00     0.167 HD
ATOM     53  C   UNL A   1      39.998  32.634  35.407  1.00  0.00     0.037 A 
ATOM     54  C   UNL A   1      40.819  28.746  29.609  1.00  0.00     0.037 A 
ATOM     55  C   UNL A   1      40.997  31.604  35.500  1.00  0.00     0.049 A 
ATOM     56  C   UNL A   1      41.655  28.532  30.841  1.00  0.00     0.074 A 
ATOM     57  C   UNL A   1      41.801  31.274  36.576  1.00  0.00     0.029 A 
ATOM     58  N   UNL A   1      41.330  30.733  34.471  1.00  0.00    -0.354 N 
ATOM     59  N   UNL A   1      41.606  29.154  31.995  1.00  0.00    -0.248 NA
ATOM     60  C   UNL A   1      42.669  27.473  30.772  1.00  0.00     0.031 C 
ATOM     61  C   UNL A   1      42.655  30.238  36.183  1.00  0.00     0.029 A 
ATOM     62  C   UNL A   1      42.344  29.882  34.879  1.00  0.00     0.049 A 
ATOM     63  H   UNL A   1      40.907  30.722  33.582  1.00  0.00     0.167 HD
ATOM     64  C   UNL A   1      42.564  28.549  32.796  1.00  0.00     0.074 A 
ATOM     65  C   UNL A   1      43.159  27.492  32.003  1.00  0.00     0.031 C 
ATOM     66  C   UNL A   1      42.924  28.840  34.071  1.00  0.00     0.037 A 
BRANCH  53  67
ATOM     67  C   UNL A   1      39.792  33.545  36.582  1.00  0.00     0.064 A 
ATOM     68  C   UNL A   1      40.479  34.763  36.700  1.00  0.00     0.173 A 
ATOM     69  C   UNL A   1      38.875  33.211  37.591  1.00  0.00     0.173 A 
ATOM     70  F   UNL A   1      41.379  35.124  35.772  1.00  0.00    -0.203 F 
ATOM     71  C   UNL A   1      40.278  35.599  37.796  1.00  0.00     0.198 A 
ATOM     72  C   UNL A   1      38.652  34.064  38.668  1.00  0.00     0.198 A 
ATOM     73  F   UNL A   1      38.190  32.060  37.528  1.00  0.00    -0.203 F 
ATOM     74  F   UNL A   1      40.985  36.731  37.913  1.00  0.00    -0.200 F 
ATOM     75  C   UNL A   1      39.359  35.253  38.775  1.00  0.00     0.200 A 
ATOM     76  F   UNL A   1      37.755  33.734  39.608  1.00  0.00    -0.200 F 
ATOM     77  F   UNL A   1      39.161  36.061  39.825  1.00  0.00    -0.200 F 
ENDBRANCH  53  67
BRANCH  54  78
ATOM     78  C   UNL A   1      41.010  27.912  28.395  1.00  0.00     0.064 A 
ATOM     79  C   UNL A   1      40.308  26.710  28.226  1.00  0.00     0.173 A 
ATOM     80  C   UNL A   1      41.896  28.298  27.378  1.00  0.00     0.173 A 
ATOM     81  F   UNL A   1      39.461  26.291  29.177  1.00  0.00    -0.203 F 
ATOM     82  C   UNL A   1      40.504  25.914  27.100  1.00  0.00     0.198 A 
ATOM     83  C   UNL A   1      42.068  27.517  26.238  1.00  0.00     0.198 A 
ATOM     84  F   UNL A   1      42.585  29.444  27.486  1.00  0.00    -0.203 F 
ATOM     85  F   UNL A   1      39.856  24.746  26.988  1.00  0.00    -0.200 F 
ATOM     86  C   UNL A   1      41.380  26.320  26.105  1.00  0.00     0.200 A 
ATOM     87  F   UNL A   1      42.901  27.921  25.270  1.00  0.00    -0.200 F 
ATOM     88  F   UNL A   1      41.565  25.555  25.020  1.00  0.00    -0.200 F 
ENDBRANCH  54  78
BRANCH  66  89
ATOM     89  C   UNL A   1      43.993  27.986  34.687  1.00  0.00     0.064 A 
ATOM     90  C   UNL A   1      43.689  26.775  35.328  1.00  0.00     0.173 A 
ATOM     91  C   UNL A   1      45.339  28.377  34.627  1.00  0.00     0.173 A 
ATOM     92  F   UNL A   1      42.416  26.363  35.425  1.00  0.00    -0.203 F 
ATOM     93  C   UNL A   1      44.689  26.010  35.921  1.00  0.00     0.198 A 
ATOM     94  C   UNL A   1      46.340  27.591  35.189  1.00  0.00     0.198 A 
ATOM     95  F   UNL A   1      45.684  29.521  34.016  1.00  0.00    -0.203 F 
ATOM     96  F   UNL A   1      44.368  24.891  36.586  1.00  0.00    -0.200 F 
ATOM     97  C   UNL A   1      46.013  26.416  35.847  1.00  0.00     0.200 A 
ATOM     98  F   UNL A   1      47.621  27.977  35.103  1.00  0.00    -0.200 F 
ATOM     99  F   UNL A   1      46.974  25.678  36.420  1.00  0.00    -0.200 F 
ENDBRANCH  66  89
ENDBRANCH  40  41
ENDBRANCH  32  35
ENDBRANCH  30  31
ENDBRANCH  29  30
ENDBRANCH  28  29
ENDBRANCH   1  28
TORSDOF 17
ENDMDL
MODEL 3
REMARK VINA RESULT:     -11.4      1.094      7.426
REMARK SMILES CC1(C)CC[NH+](CC[C@H]2CCC[C@]2([NH3+])C(=O)NCCCCCCNC(=O)c2ccc(-c3c4nc(c(-c5c(F)c(F)c(F)c(F)c5F)c5ccc([nH]5)c(-c5c(F)c(F)c(F)c(F)c5F)c5nc(c(-c6c(F)c(F)c(F)c(F)c6F)c6ccc3[nH]6)C=C5)C=C4)cc2)CC1
REMARK SMILES IDX 20 1 19 2 18 3 17 4 15 5 16 6 13 8 9 9 10 10 11 11 12 12
REMARK SMILES IDX 8 13 7 14 6 15 1 16 2 17 3 18 4 19 91 20 5 21 90 22 14 24
REMARK SMILES IDX 21 28 22 29 23 30 24 31 25 32 26 34 27 35 28 36 89 37 29 38
REMARK SMILES IDX 88 39 30 40 31 41 32 42 82 43 33 44 87 45 81 46 83 47 34 48
REMARK SMILES IDX 86 49 80 50 79 51 35 53 67 54 47 55 66 56 48 57 51 58 65 59
REMARK SMILES IDX 84 60 49 61 50 62 64 64 85 65 52 66 36 67 37 68 45 69 38 70
REMARK SMILES IDX 39 71 43 72 46 73 40 74 41 75 44 76 42 77 68 78 69 79 77 80
REMARK SMILES IDX 70 81 71 82 75 83 78 84 72 85 73 86 76 87 74 88 53 89 54 90
REMARK SMILES IDX 62 91 55 92 56 93 60 94 63 95 57 96 58 97 61 98 59 99
REMARK H PARENT 17 7 6 23 14 25 14 26 14 27 24 33 83 52 51 63
REMARK Flexibility Score: inf
ROOT
ATOM      1  C   UNL A   1      32.293  30.365  26.940  1.00  0.00     0.002 C 
ENDROOT
BRANCH   1   2
ATOM      2  C   UNL A   1      31.904  28.879  26.920  1.00  0.00     0.021 C 
BRANCH   2   3
ATOM      3  C   UNL A   1      32.258  28.170  25.606  1.00  0.00     0.116 C 
BRANCH   3   4
ATOM      4  N   UNL A   1      31.089  28.123  24.770  1.00  0.00    -0.351 N 
ATOM      5  C   UNL A   1      30.496  27.066  24.172  1.00  0.00     0.281 C 
ATOM      6  O   UNL A   1      29.738  27.354  23.238  1.00  0.00    -0.268 OA
ATOM      7  H   UNL A   1      30.654  28.991  24.610  1.00  0.00     0.163 HD
BRANCH   5   8
ATOM      8  C   UNL A   1      30.650  25.598  24.737  1.00  0.00     0.177 C 
ATOM      9  C   UNL A   1      32.071  25.239  25.264  1.00  0.00     0.066 C 
ATOM     10  C   UNL A   1      32.879  24.920  23.983  1.00  0.00     0.011 C 
ATOM     11  C   UNL A   1      31.873  24.662  22.862  1.00  0.00     0.008 C 
ATOM     12  C   UNL A   1      30.482  24.706  23.495  1.00  0.00     0.079 C 
BRANCH   9  13
ATOM     13  C   UNL A   1      32.417  24.296  26.486  1.00  0.00     0.072 C 
BRANCH  13  14
ATOM     14  C   UNL A   1      31.967  22.831  26.763  1.00  0.00     0.262 C 
BRANCH  14  15
ATOM     15  N   UNL A   1      32.833  21.646  26.823  1.00  0.00    -0.335 N 
ATOM     16  C   UNL A   1      35.951  20.264  24.894  1.00  0.00     0.011 C 
ATOM     17  C   UNL A   1      35.223  21.611  25.024  1.00  0.00    -0.025 C 
ATOM     18  C   UNL A   1      35.867  22.611  24.039  1.00  0.00     0.011 C 
ATOM     19  C   UNL A   1      33.775  21.376  24.601  1.00  0.00     0.068 C 
ATOM     20  C   UNL A   1      35.283  22.214  26.451  1.00  0.00     0.068 C 
ATOM     21  C   UNL A   1      32.890  20.773  25.677  1.00  0.00     0.262 C 
ATOM     22  C   UNL A   1      34.166  21.780  27.413  1.00  0.00     0.262 C 
ATOM     23  H   UNL A   1      32.253  21.176  27.519  1.00  0.00     0.348 HD
ENDBRANCH  14  15
ENDBRANCH  13  14
ENDBRANCH   9  13
BRANCH   8  24
ATOM     24  N   UNL A   1      29.573  25.465  25.726  1.00  0.00    -0.345 N 
ATOM     25  H   UNL A   1      28.683  25.335  25.243  1.00  0.00     0.345 HD
ATOM     26  H   UNL A   1      29.530  26.309  26.297  1.00  0.00     0.345 HD
ATOM     27  H   UNL A   1      29.756  24.659  26.322  1.00  0.00     0.345 HD
ENDBRANCH   8  24
ENDBRANCH   5   8
ENDBRANCH   3   4
ENDBRANCH   2   3
ENDBRANCH   1   2
BRANCH   1  28
ATOM     28  C   UNL A   1      31.388  31.263  26.091  1.00  0.00     0.002 C 
BRANCH  28  29
ATOM     29  C   UNL A   1      31.321  32.707  26.580  1.00  0.00     0.021 C 
BRANCH  29  30
ATOM     30  C   UNL A   1      32.508  33.102  27.441  1.00  0.00     0.116 C 
BRANCH  30  31
ATOM     31  N   UNL A   1      32.467  34.516  27.766  1.00  0.00    -0.352 N 
ATOM     32  C   UNL A   1      33.102  35.166  28.789  1.00  0.00     0.251 C 
ATOM     33  H   UNL A   1      31.913  35.078  27.178  1.00  0.00     0.163 HD
ATOM     34  O   UNL A   1      32.764  36.294  29.124  1.00  0.00    -0.269 OA
BRANCH  32  35
ATOM     35  C   UNL A   1      34.205  34.477  29.482  1.00  0.00     0.039 A 
ATOM     36  C   UNL A   1      33.922  33.747  30.635  1.00  0.00     0.014 A 
ATOM     37  C   UNL A   1      35.511  34.555  28.985  1.00  0.00     0.014 A 
ATOM     38  C   UNL A   1      34.955  33.078  31.283  1.00  0.00     0.010 A 
ATOM     39  C   UNL A   1      36.520  33.813  29.579  1.00  0.00     0.010 A 
ATOM     40  C   UNL A   1      36.257  33.094  30.752  1.00  0.00    -0.014 A 
BRANCH  40  41
ATOM     41  C   UNL A   1      37.354  32.385  31.446  1.00  0.00     0.031 A 
ATOM     42  C   UNL A   1      38.062  31.246  30.768  1.00  0.00     0.074 A 
ATOM     43  C   UNL A   1      37.698  32.766  32.689  1.00  0.00     0.049 A 
ATOM     44  N   UNL A   1      39.079  30.539  31.188  1.00  0.00    -0.248 NA
ATOM     45  C   UNL A   1      37.543  30.826  29.455  1.00  0.00     0.031 C 
ATOM     46  C   UNL A   1      37.032  33.813  33.467  1.00  0.00     0.029 A 
ATOM     47  N   UNL A   1      38.701  32.327  33.512  1.00  0.00    -0.354 N 
ATOM     48  C   UNL A   1      39.317  29.595  30.198  1.00  0.00     0.074 A 
ATOM     49  C   UNL A   1      38.297  29.771  29.189  1.00  0.00     0.031 C 
ATOM     50  C   UNL A   1      37.673  33.966  34.636  1.00  0.00     0.029 A 
ATOM     51  C   UNL A   1      38.774  33.011  34.700  1.00  0.00     0.049 A 
ATOM     52  H   UNL A   1      39.311  31.591  33.275  1.00  0.00     0.167 HD
ATOM     53  C   UNL A   1      40.317  28.686  30.124  1.00  0.00     0.037 A 
ATOM     54  C   UNL A   1      39.645  32.887  35.718  1.00  0.00     0.037 A 
ATOM     55  C   UNL A   1      41.338  28.535  31.125  1.00  0.00     0.049 A 
ATOM     56  C   UNL A   1      40.758  31.882  35.602  1.00  0.00     0.074 A 
ATOM     57  C   UNL A   1      42.431  27.687  31.125  1.00  0.00     0.029 A 
ATOM     58  N   UNL A   1      41.390  29.253  32.313  1.00  0.00    -0.354 N 
ATOM     59  N   UNL A   1      41.027  31.053  34.622  1.00  0.00    -0.248 NA
ATOM     60  C   UNL A   1      41.699  31.809  36.726  1.00  0.00     0.031 C 
ATOM     61  C   UNL A   1      43.115  27.856  32.334  1.00  0.00     0.029 A 
ATOM     62  C   UNL A   1      42.482  28.850  33.063  1.00  0.00     0.049 A 
ATOM     63  H   UNL A   1      40.744  29.946  32.582  1.00  0.00     0.167 HD
ATOM     64  C   UNL A   1      42.178  30.376  34.999  1.00  0.00     0.074 A 
ATOM     65  C   UNL A   1      42.571  30.914  36.286  1.00  0.00     0.031 C 
ATOM     66  C   UNL A   1      42.851  29.396  34.345  1.00  0.00     0.037 A 
BRANCH  53  67
ATOM     67  C   UNL A   1      40.354  27.791  28.918  1.00  0.00     0.064 A 
ATOM     68  C   UNL A   1      41.087  28.133  27.770  1.00  0.00     0.173 A 
ATOM     69  C   UNL A   1      39.673  26.565  28.919  1.00  0.00     0.173 A 
ATOM     70  F   UNL A   1      41.744  29.301  27.709  1.00  0.00    -0.203 F 
ATOM     71  C   UNL A   1      41.112  27.293  26.658  1.00  0.00     0.198 A 
ATOM     72  C   UNL A   1      39.727  25.714  27.819  1.00  0.00     0.198 A 
ATOM     73  F   UNL A   1      38.959  26.189  29.990  1.00  0.00    -0.203 F 
ATOM     74  F   UNL A   1      41.775  27.665  25.554  1.00  0.00    -0.200 F 
ATOM     75  C   UNL A   1      40.439  26.081  26.686  1.00  0.00     0.200 A 
ATOM     76  F   UNL A   1      39.086  24.537  27.851  1.00  0.00    -0.200 F 
ATOM     77  F   UNL A   1      40.470  25.271  25.619  1.00  0.00    -0.200 F 
ENDBRANCH  53  67
BRANCH  54  78
ATOM     78  C   UNL A   1      39.522  33.764  36.911  1.00  0.00     0.064 A 
ATOM     79  C   UNL A   1      40.094  35.045  36.926  1.00  0.00     0.173 A 
ATOM     80  C   UNL A   1      38.832  33.344  38.056  1.00  0.00     0.173 A 
ATOM     81  F   UNL A   1      40.777  35.486  35.860  1.00  0.00    -0.203 F 
ATOM     82  C   UNL A   1      40.002  35.860  38.053  1.00  0.00     0.198 A 
ATOM     83  C   UNL A   1      38.714  34.173  39.170  1.00  0.00     0.198 A 
ATOM     84  F   UNL A   1      38.258  32.132  38.089  1.00  0.00    -0.203 F 
ATOM     85  F   UNL A   1      40.600  37.059  38.058  1.00  0.00    -0.200 F 
ATOM     86  C   UNL A   1      39.307  35.425  39.171  1.00  0.00     0.200 A 
ATOM     87  F   UNL A   1      38.027  33.757  40.243  1.00  0.00    -0.200 F 
ATOM     88  F   UNL A   1      39.216  36.212  40.252  1.00  0.00    -0.200 F 
ENDBRANCH  54  78
BRANCH  66  89
ATOM     89  C   UNL A   1      44.090  28.866  35.004  1.00  0.00     0.064 A 
ATOM     90  C   UNL A   1      45.349  29.443  34.778  1.00  0.00     0.173 A 
ATOM     91  C   UNL A   1      44.016  27.773  35.881  1.00  0.00     0.173 A 
ATOM     92  F   UNL A   1      45.474  30.481  33.937  1.00  0.00    -0.203 F 
ATOM     93  C   UNL A   1      46.492  28.919  35.373  1.00  0.00     0.198 A 
ATOM     94  C   UNL A   1      45.157  27.275  36.503  1.00  0.00     0.198 A 
ATOM     95  F   UNL A   1      42.835  27.191  36.140  1.00  0.00    -0.203 F 
ATOM     96  F   UNL A   1      47.693  29.445  35.091  1.00  0.00    -0.200 F 
ATOM     97  C   UNL A   1      46.395  27.840  36.238  1.00  0.00     0.200 A 
ATOM     98  F   UNL A   1      45.059  26.242  37.351  1.00  0.00    -0.200 F 
ATOM     99  F   UNL A   1      47.498  27.336  36.810  1.00  0.00    -0.200 F 
ENDBRANCH  66  89
ENDBRANCH  40  41
ENDBRANCH  32  35
ENDBRANCH  30  31
ENDBRANCH  29  30
ENDBRANCH  28  29
ENDBRANCH   1  28
TORSDOF 17
ENDMDL
