MODEL 1
REMARK VINA RESULT:     -11.2      0.000      0.000
REMARK SMILES CC(=O)[C@@H]1CCCC[N@H+]1CC(C)(C)C(=O)NCCCCCCNC(=O)c1ccc(-c2c3nc(c(-c4c(F)c(F)c(F)c(F)c4F)c4ccc([nH]4)c(-c4c(F)c(F)c(F)c(F)c4F)c4nc(c(-c5c(F)c(F)c(F)c(F)c5F)c5ccc2[nH]5)C=C4)C=C3)cc1
REMARK SMILES IDX 19 1 18 2 17 3 16 4 14 5 15 6 11 8 12 9 13 10 10 11 9 12
REMARK SMILES IDX 4 13 5 14 6 15 8 16 7 18 2 19 1 20 3 21 20 22 21 23 22 24
REMARK SMILES IDX 23 25 24 26 25 28 26 29 27 30 88 31 28 32 87 33 29 34 30 35
REMARK SMILES IDX 31 36 81 37 32 38 86 39 80 40 82 41 33 42 85 43 79 44 78 45
REMARK SMILES IDX 34 47 66 48 46 49 65 50 47 51 50 52 64 53 83 54 48 55 49 56
REMARK SMILES IDX 63 58 84 59 51 60 35 61 36 62 44 63 37 64 38 65 42 66 45 67
REMARK SMILES IDX 39 68 40 69 43 70 41 71 67 72 68 73 76 74 69 75 70 76 74 77
REMARK SMILES IDX 77 78 71 79 72 80 75 81 73 82 52 83 53 84 61 85 54 86 55 87
REMARK SMILES IDX 59 88 62 89 56 90 57 91 60 92 58 93
REMARK H PARENT 16 7 9 17 23 27 82 46 50 57
REMARK Flexibility Score: inf
ROOT
ATOM      1  C   UNL A   1      32.530  29.924  27.050  1.00  0.00     0.002 C 
ENDROOT
BRANCH   1   2
ATOM      2  C   UNL A   1      31.940  28.592  27.527  1.00  0.00     0.021 C 
BRANCH   2   3
ATOM      3  C   UNL A   1      31.891  27.511  26.451  1.00  0.00     0.116 C 
BRANCH   3   4
ATOM      4  N   UNL A   1      31.018  26.440  26.870  1.00  0.00    -0.355 N 
ATOM      5  C   UNL A   1      30.531  25.404  26.142  1.00  0.00     0.231 C 
ATOM      6  O   UNL A   1      29.370  25.077  26.403  1.00  0.00    -0.274 OA
ATOM      7  H   UNL A   1      30.738  26.465  27.813  1.00  0.00     0.163 HD
BRANCH   5   8
ATOM      8  C   UNL A   1      31.352  24.719  25.036  1.00  0.00     0.092 C 
ATOM      9  C   UNL A   1      31.194  23.192  24.963  1.00  0.00     0.027 C 
ATOM     10  C   UNL A   1      32.833  25.042  25.336  1.00  0.00     0.027 C 
BRANCH   8  11
ATOM     11  C   UNL A   1      30.986  25.375  23.648  1.00  0.00     0.279 C 
BRANCH  11  12
ATOM     12  N   UNL A   1      30.871  26.844  23.440  1.00  0.00    -0.325 N 
ATOM     13  C   UNL A   1      31.657  27.452  22.345  1.00  0.00     0.251 C 
ATOM     14  C   UNL A   1      31.497  28.984  22.296  1.00  0.00     0.074 C 
ATOM     15  C   UNL A   1      30.037  29.404  22.265  1.00  0.00     0.012 C 
ATOM     16  C   UNL A   1      29.473  27.294  23.469  1.00  0.00     0.262 C 
ATOM     17  H   UNL A   1      31.351  27.222  24.256  1.00  0.00     0.348 HD
ATOM     18  C   UNL A   1      29.324  28.813  23.466  1.00  0.00     0.062 C 
BRANCH  13  19
ATOM     19  C   UNL A   1      33.174  27.163  22.456  1.00  0.00     0.186 C 
ATOM     20  C   UNL A   1      33.938  28.007  23.450  1.00  0.00     0.094 C 
ATOM     21  O   UNL A   1      33.768  26.287  21.826  1.00  0.00    -0.293 OA
ENDBRANCH  13  19
ENDBRANCH  11  12
ENDBRANCH   8  11
ENDBRANCH   5   8
ENDBRANCH   3   4
ENDBRANCH   2   3
ENDBRANCH   1   2
BRANCH   1  22
ATOM     22  C   UNL A   1      31.608  30.746  26.144  1.00  0.00     0.002 C 
BRANCH  22  23
ATOM     23  C   UNL A   1      31.400  32.194  26.589  1.00  0.00     0.021 C 
BRANCH  23  24
ATOM     24  C   UNL A   1      32.601  32.811  27.293  1.00  0.00     0.116 C 
BRANCH  24  25
ATOM     25  N   UNL A   1      32.381  34.209  27.617  1.00  0.00    -0.352 N 
ATOM     26  C   UNL A   1      32.966  34.966  28.600  1.00  0.00     0.251 C 
ATOM     27  H   UNL A   1      31.724  34.678  27.054  1.00  0.00     0.163 HD
ATOM     28  O   UNL A   1      32.524  36.074  28.878  1.00  0.00    -0.269 OA
BRANCH  26  29
ATOM     29  C   UNL A   1      34.124  34.422  29.337  1.00  0.00     0.039 A 
ATOM     30  C   UNL A   1      33.904  33.764  30.548  1.00  0.00     0.014 A 
ATOM     31  C   UNL A   1      35.419  34.555  28.828  1.00  0.00     0.014 A 
ATOM     32  C   UNL A   1      34.981  33.193  31.226  1.00  0.00     0.010 A 
ATOM     33  C   UNL A   1      36.479  33.914  29.461  1.00  0.00     0.010 A 
ATOM     34  C   UNL A   1      36.272  33.237  30.672  1.00  0.00    -0.014 A 
BRANCH  34  35
ATOM     35  C   UNL A   1      37.419  32.587  31.353  1.00  0.00     0.031 A 
ATOM     36  C   UNL A   1      38.138  31.444  30.693  1.00  0.00     0.074 A 
ATOM     37  C   UNL A   1      37.777  32.990  32.586  1.00  0.00     0.049 A 
ATOM     38  N   UNL A   1      39.128  30.716  31.145  1.00  0.00    -0.248 NA
ATOM     39  C   UNL A   1      37.661  31.046  29.359  1.00  0.00     0.031 C 
ATOM     40  C   UNL A   1      37.128  34.058  33.347  1.00  0.00     0.029 A 
ATOM     41  N   UNL A   1      38.770  32.544  33.421  1.00  0.00    -0.354 N 
ATOM     42  C   UNL A   1      39.381  29.771  30.159  1.00  0.00     0.074 A 
ATOM     43  C   UNL A   1      38.402  29.977  29.114  1.00  0.00     0.031 C 
ATOM     44  C   UNL A   1      37.758  34.207  34.522  1.00  0.00     0.029 A 
ATOM     45  C   UNL A   1      38.826  33.216  34.617  1.00  0.00     0.049 A 
ATOM     46  H   UNL A   1      39.385  31.813  33.185  1.00  0.00     0.167 HD
ATOM     47  C   UNL A   1      40.358  28.834  30.117  1.00  0.00     0.037 A 
ATOM     48  C   UNL A   1      39.644  33.047  35.673  1.00  0.00     0.037 A 
ATOM     49  C   UNL A   1      41.338  28.646  31.155  1.00  0.00     0.049 A 
ATOM     50  C   UNL A   1      40.706  31.984  35.614  1.00  0.00     0.074 A 
ATOM     51  C   UNL A   1      42.406  27.766  31.185  1.00  0.00     0.029 A 
ATOM     52  N   UNL A   1      41.363  29.345  32.354  1.00  0.00    -0.354 N 
ATOM     53  N   UNL A   1      40.987  31.145  34.646  1.00  0.00    -0.248 NA
ATOM     54  C   UNL A   1      41.571  31.848  36.793  1.00  0.00     0.031 C 
ATOM     55  C   UNL A   1      43.039  27.889  32.426  1.00  0.00     0.029 A 
ATOM     56  C   UNL A   1      42.409  28.892  33.144  1.00  0.00     0.049 A 
ATOM     57  H   UNL A   1      40.733  30.057  32.606  1.00  0.00     0.167 HD
ATOM     58  C   UNL A   1      42.075  30.403  35.085  1.00  0.00     0.074 A 
ATOM     59  C   UNL A   1      42.414  30.902  36.402  1.00  0.00     0.031 C 
ATOM     60  C   UNL A   1      42.735  29.401  34.454  1.00  0.00     0.037 A 
BRANCH  47  61
ATOM     61  C   UNL A   1      40.406  27.934  28.915  1.00  0.00     0.064 A 
ATOM     62  C   UNL A   1      41.152  28.263  27.772  1.00  0.00     0.173 A 
ATOM     63  C   UNL A   1      39.708  26.716  28.910  1.00  0.00     0.173 A 
ATOM     64  F   UNL A   1      41.829  29.420  27.718  1.00  0.00    -0.203 F 
ATOM     65  C   UNL A   1      41.165  27.428  26.657  1.00  0.00     0.198 A 
ATOM     66  C   UNL A   1      39.754  25.866  27.808  1.00  0.00     0.198 A 
ATOM     67  F   UNL A   1      38.983  26.346  29.977  1.00  0.00    -0.203 F 
ATOM     68  F   UNL A   1      41.833  27.796  25.555  1.00  0.00    -0.200 F 
ATOM     69  C   UNL A   1      40.472  26.227  26.679  1.00  0.00     0.200 A 
ATOM     70  F   UNL A   1      39.096  24.699  27.836  1.00  0.00    -0.200 F 
ATOM     71  F   UNL A   1      40.489  25.424  25.606  1.00  0.00    -0.200 F 
ENDBRANCH  47  61
BRANCH  48  72
ATOM     72  C   UNL A   1      39.506  33.926  36.864  1.00  0.00     0.064 A 
ATOM     73  C   UNL A   1      38.753  33.520  37.975  1.00  0.00     0.173 A 
ATOM     74  C   UNL A   1      40.127  35.183  36.923  1.00  0.00     0.173 A 
ATOM     75  F   UNL A   1      38.125  32.335  37.959  1.00  0.00    -0.203 F 
ATOM     76  C   UNL A   1      38.611  34.343  39.089  1.00  0.00     0.198 A 
ATOM     77  C   UNL A   1      40.010  35.992  38.050  1.00  0.00     0.198 A 
ATOM     78  F   UNL A   1      40.865  35.616  35.890  1.00  0.00    -0.203 F 
ATOM     79  F   UNL A   1      37.850  33.948  40.119  1.00  0.00    -0.200 F 
ATOM     80  C   UNL A   1      39.246  35.575  39.130  1.00  0.00     0.200 A 
ATOM     81  F   UNL A   1      40.641  37.174  38.092  1.00  0.00    -0.200 F 
ATOM     82  F   UNL A   1      39.117  36.363  40.205  1.00  0.00    -0.200 F 
ENDBRANCH  48  72
BRANCH  60  83
ATOM     83  C   UNL A   1      43.916  28.799  35.163  1.00  0.00     0.064 A 
ATOM     84  C   UNL A   1      43.785  27.680  35.999  1.00  0.00     0.173 A 
ATOM     85  C   UNL A   1      45.202  29.327  34.969  1.00  0.00     0.173 A 
ATOM     86  F   UNL A   1      42.576  27.147  36.229  1.00  0.00    -0.203 F 
ATOM     87  C   UNL A   1      44.893  27.131  36.638  1.00  0.00     0.198 A 
ATOM     88  C   UNL A   1      46.313  28.752  35.582  1.00  0.00     0.198 A 
ATOM     89  F   UNL A   1      45.385  30.391  34.174  1.00  0.00    -0.203 F 
ATOM     90  F   UNL A   1      44.737  26.096  37.477  1.00  0.00    -0.200 F 
ATOM     91  C   UNL A   1      46.157  27.662  36.423  1.00  0.00     0.200 A 
ATOM     92  F   UNL A   1      47.535  29.257  35.358  1.00  0.00    -0.200 F 
ATOM     93  F   UNL A   1      47.223  27.126  37.032  1.00  0.00    -0.200 F 
ENDBRANCH  60  83
ENDBRANCH  34  35
ENDBRANCH  26  29
ENDBRANCH  24  25
ENDBRANCH  23  24
ENDBRANCH  22  23
ENDBRANCH   1  22
TORSDOF 16
ENDMDL
MODEL 2
REMARK VINA RESULT:     -11.2      1.358      3.161
REMARK SMILES CC(=O)[C@@H]1CCCC[N@H+]1CC(C)(C)C(=O)NCCCCCCNC(=O)c1ccc(-c2c3nc(c(-c4c(F)c(F)c(F)c(F)c4F)c4ccc([nH]4)c(-c4c(F)c(F)c(F)c(F)c4F)c4nc(c(-c5c(F)c(F)c(F)c(F)c5F)c5ccc2[nH]5)C=C4)C=C3)cc1
REMARK SMILES IDX 19 1 18 2 17 3 16 4 14 5 15 6 11 8 12 9 13 10 10 11 9 12
REMARK SMILES IDX 4 13 5 14 6 15 8 16 7 18 2 19 1 20 3 21 20 22 21 23 22 24
REMARK SMILES IDX 23 25 24 26 25 28 26 29 27 30 88 31 28 32 87 33 29 34 30 35
REMARK SMILES IDX 31 36 81 37 32 38 86 39 80 40 82 41 33 42 85 43 79 44 78 45
REMARK SMILES IDX 34 47 66 48 46 49 65 50 47 51 50 52 64 53 83 54 48 55 49 56
REMARK SMILES IDX 63 58 84 59 51 60 35 61 36 62 44 63 37 64 38 65 42 66 45 67
REMARK SMILES IDX 39 68 40 69 43 70 41 71 67 72 68 73 76 74 69 75 70 76 74 77
REMARK SMILES IDX 77 78 71 79 72 80 75 81 73 82 52 83 53 84 61 85 54 86 55 87
REMARK SMILES IDX 59 88 62 89 56 90 57 91 60 92 58 93
REMARK H PARENT 16 7 9 17 23 27 82 46 50 57
REMARK Flexibility Score: inf
ROOT
ATOM      1  C   UNL A   1      32.067  29.885  25.582  1.00  0.00     0.002 C 
ENDROOT
BRANCH   1   2
ATOM      2  C   UNL A   1      31.037  29.411  24.549  1.00  0.00     0.021 C 
BRANCH   2   3
ATOM      3  C   UNL A   1      31.072  27.910  24.278  1.00  0.00     0.116 C 
BRANCH   3   4
ATOM      4  N   UNL A   1      30.902  27.184  25.514  1.00  0.00    -0.355 N 
ATOM      5  C   UNL A   1      31.423  25.984  25.877  1.00  0.00     0.231 C 
ATOM      6  O   UNL A   1      30.673  25.264  26.542  1.00  0.00    -0.274 OA
ATOM      7  H   UNL A   1      30.328  27.618  26.186  1.00  0.00     0.163 HD
BRANCH   5   8
ATOM      8  C   UNL A   1      32.830  25.537  25.447  1.00  0.00     0.092 C 
ATOM      9  C   UNL A   1      33.931  26.595  25.631  1.00  0.00     0.027 C 
ATOM     10  C   UNL A   1      32.733  25.191  23.945  1.00  0.00     0.027 C 
BRANCH   8  11
ATOM     11  C   UNL A   1      33.205  24.215  26.224  1.00  0.00     0.279 C 
BRANCH  11  12
ATOM     12  N   UNL A   1      33.338  22.888  25.566  1.00  0.00    -0.325 N 
ATOM     13  C   UNL A   1      34.597  22.138  25.768  1.00  0.00     0.251 C 
ATOM     14  C   UNL A   1      34.622  20.820  24.971  1.00  0.00     0.074 C 
ATOM     15  C   UNL A   1      33.391  19.969  25.235  1.00  0.00     0.012 C 
ATOM     16  C   UNL A   1      32.137  22.062  25.749  1.00  0.00     0.262 C 
ATOM     17  H   UNL A   1      33.416  23.135  24.580  1.00  0.00     0.348 HD
ATOM     18  C   UNL A   1      32.149  20.781  24.920  1.00  0.00     0.062 C 
BRANCH  13  19
ATOM     19  C   UNL A   1      35.853  22.940  25.349  1.00  0.00     0.186 C 
ATOM     20  C   UNL A   1      35.977  23.255  23.876  1.00  0.00     0.094 C 
ATOM     21  O   UNL A   1      36.712  23.355  26.129  1.00  0.00    -0.293 OA
ENDBRANCH  13  19
ENDBRANCH  11  12
ENDBRANCH   8  11
ENDBRANCH   5   8
ENDBRANCH   3   4
ENDBRANCH   2   3
ENDBRANCH   1   2
BRANCH   1  22
ATOM     22  C   UNL A   1      31.474  30.618  26.789  1.00  0.00     0.002 C 
BRANCH  22  23
ATOM     23  C   UNL A   1      31.471  32.143  26.672  1.00  0.00     0.021 C 
BRANCH  23  24
ATOM     24  C   UNL A   1      32.709  32.817  27.249  1.00  0.00     0.116 C 
BRANCH  24  25
ATOM     25  N   UNL A   1      32.454  34.200  27.610  1.00  0.00    -0.352 N 
ATOM     26  C   UNL A   1      32.996  34.935  28.634  1.00  0.00     0.251 C 
ATOM     27  H   UNL A   1      31.805  34.675  27.043  1.00  0.00     0.163 HD
ATOM     28  O   UNL A   1      32.526  36.026  28.934  1.00  0.00    -0.269 OA
BRANCH  26  29
ATOM     29  C   UNL A   1      34.142  34.388  29.387  1.00  0.00     0.039 A 
ATOM     30  C   UNL A   1      33.894  33.615  30.522  1.00  0.00     0.014 A 
ATOM     31  C   UNL A   1      35.453  34.630  28.968  1.00  0.00     0.014 A 
ATOM     32  C   UNL A   1      34.964  33.042  31.210  1.00  0.00     0.010 A 
ATOM     33  C   UNL A   1      36.511  33.991  29.604  1.00  0.00     0.010 A 
ATOM     34  C   UNL A   1      36.278  33.199  30.738  1.00  0.00    -0.014 A 
BRANCH  34  35
ATOM     35  C   UNL A   1      37.422  32.551  31.426  1.00  0.00     0.031 A 
ATOM     36  C   UNL A   1      38.134  31.397  30.779  1.00  0.00     0.074 A 
ATOM     37  C   UNL A   1      37.781  32.966  32.655  1.00  0.00     0.049 A 
ATOM     38  N   UNL A   1      39.120  30.668  31.239  1.00  0.00    -0.248 NA
ATOM     39  C   UNL A   1      37.655  30.986  29.450  1.00  0.00     0.031 C 
ATOM     40  C   UNL A   1      37.138  34.046  33.404  1.00  0.00     0.029 A 
ATOM     41  N   UNL A   1      38.773  32.524  33.495  1.00  0.00    -0.354 N 
ATOM     42  C   UNL A   1      39.369  29.711  30.264  1.00  0.00     0.074 A 
ATOM     43  C   UNL A   1      38.391  29.910  29.217  1.00  0.00     0.031 C 
ATOM     44  C   UNL A   1      37.770  34.204  34.577  1.00  0.00     0.029 A 
ATOM     45  C   UNL A   1      38.832  33.209  34.683  1.00  0.00     0.049 A 
ATOM     46  H   UNL A   1      39.383  31.787  33.267  1.00  0.00     0.167 HD
ATOM     47  C   UNL A   1      40.340  28.768  30.233  1.00  0.00     0.037 A 
ATOM     48  C   UNL A   1      39.649  33.048  35.741  1.00  0.00     0.037 A 
ATOM     49  C   UNL A   1      41.319  28.587  31.273  1.00  0.00     0.049 A 
ATOM     50  C   UNL A   1      40.706  31.978  35.694  1.00  0.00     0.074 A 
ATOM     51  C   UNL A   1      42.383  27.702  31.313  1.00  0.00     0.029 A 
ATOM     52  N   UNL A   1      41.348  29.299  32.464  1.00  0.00    -0.354 N 
ATOM     53  N   UNL A   1      40.982  31.127  34.736  1.00  0.00    -0.248 NA
ATOM     54  C   UNL A   1      41.570  31.851  36.875  1.00  0.00     0.031 C 
ATOM     55  C   UNL A   1      43.016  27.835  32.553  1.00  0.00     0.029 A 
ATOM     56  C   UNL A   1      42.391  28.850  33.259  1.00  0.00     0.049 A 
ATOM     57  H   UNL A   1      40.721  30.018  32.708  1.00  0.00     0.167 HD
ATOM     58  C   UNL A   1      42.066  30.384  35.183  1.00  0.00     0.074 A 
ATOM     59  C   UNL A   1      42.408  30.896  36.494  1.00  0.00     0.031 C 
ATOM     60  C   UNL A   1      42.721  29.371  34.563  1.00  0.00     0.037 A 
BRANCH  47  61
ATOM     61  C   UNL A   1      40.383  27.855  29.041  1.00  0.00     0.064 A 
ATOM     62  C   UNL A   1      39.648  26.659  28.997  1.00  0.00     0.173 A 
ATOM     63  C   UNL A   1      41.156  28.187  27.918  1.00  0.00     0.173 A 
ATOM     64  F   UNL A   1      38.900  26.287  30.048  1.00  0.00    -0.203 F 
ATOM     65  C   UNL A   1      39.718  25.813  27.893  1.00  0.00     0.198 A 
ATOM     66  C   UNL A   1      41.194  27.356  26.801  1.00  0.00     0.198 A 
ATOM     67  F   UNL A   1      41.873  29.320  27.900  1.00  0.00    -0.203 F 
ATOM     68  F   UNL A   1      39.058  24.646  27.903  1.00  0.00    -0.200 F 
ATOM     69  C   UNL A   1      40.485  26.165  26.793  1.00  0.00     0.200 A 
ATOM     70  F   UNL A   1      41.924  27.706  25.732  1.00  0.00    -0.200 F 
ATOM     71  F   UNL A   1      40.549  25.351  25.731  1.00  0.00    -0.200 F 
ENDBRANCH  47  61
BRANCH  48  72
ATOM     72  C   UNL A   1      39.516  33.941  36.922  1.00  0.00     0.064 A 
ATOM     73  C   UNL A   1      40.145  35.194  36.951  1.00  0.00     0.173 A 
ATOM     74  C   UNL A   1      38.755  33.568  38.040  1.00  0.00     0.173 A 
ATOM     75  F   UNL A   1      40.898  35.588  35.915  1.00  0.00    -0.203 F 
ATOM     76  C   UNL A   1      40.033  36.030  38.060  1.00  0.00     0.198 A 
ATOM     77  C   UNL A   1      38.619  34.418  39.135  1.00  0.00     0.198 A 
ATOM     78  F   UNL A   1      38.127  32.383  38.060  1.00  0.00    -0.203 F 
ATOM     79  F   UNL A   1      40.681  37.204  38.078  1.00  0.00    -0.200 F 
ATOM     80  C   UNL A   1      39.264  35.645  39.147  1.00  0.00     0.200 A 
ATOM     81  F   UNL A   1      37.860  34.050  40.176  1.00  0.00    -0.200 F 
ATOM     82  F   UNL A   1      39.149  36.454  40.209  1.00  0.00    -0.200 F 
ENDBRANCH  48  72
BRANCH  60  83
ATOM     83  C   UNL A   1      43.898  28.772  35.279  1.00  0.00     0.064 A 
ATOM     84  C   UNL A   1      45.200  29.262  35.100  1.00  0.00     0.173 A 
ATOM     85  C   UNL A   1      43.713  27.717  36.187  1.00  0.00     0.173 A 
ATOM     86  F   UNL A   1      45.433  30.259  34.233  1.00  0.00    -0.203 F 
ATOM     87  C   UNL A   1      46.276  28.700  35.781  1.00  0.00     0.198 A 
ATOM     88  C   UNL A   1      44.788  27.181  36.893  1.00  0.00     0.198 A 
ATOM     89  F   UNL A   1      42.488  27.215  36.402  1.00  0.00    -0.203 F 
ATOM     90  F   UNL A   1      47.520  29.148  35.553  1.00  0.00    -0.200 F 
ATOM     91  C   UNL A   1      46.068  27.666  36.683  1.00  0.00     0.200 A 
ATOM     92  F   UNL A   1      44.581  26.194  37.776  1.00  0.00    -0.200 F 
ATOM     93  F   UNL A   1      47.105  27.133  37.343  1.00  0.00    -0.200 F 
ENDBRANCH  60  83
ENDBRANCH  34  35
ENDBRANCH  26  29
ENDBRANCH  24  25
ENDBRANCH  23  24
ENDBRANCH  22  23
ENDBRANCH   1  22
TORSDOF 16
ENDMDL
MODEL 3
REMARK VINA RESULT:     -11.2      1.361      2.725
REMARK SMILES CC(=O)[C@@H]1CCCC[N@H+]1CC(C)(C)C(=O)NCCCCCCNC(=O)c1ccc(-c2c3nc(c(-c4c(F)c(F)c(F)c(F)c4F)c4ccc([nH]4)c(-c4c(F)c(F)c(F)c(F)c4F)c4nc(c(-c5c(F)c(F)c(F)c(F)c5F)c5ccc2[nH]5)C=C4)C=C3)cc1
REMARK SMILES IDX 19 1 18 2 17 3 16 4 14 5 15 6 11 8 12 9 13 10 10 11 9 12
REMARK SMILES IDX 4 13 5 14 6 15 8 16 7 18 2 19 1 20 3 21 20 22 21 23 22 24
REMARK SMILES IDX 23 25 24 26 25 28 26 29 27 30 88 31 28 32 87 33 29 34 30 35
REMARK SMILES IDX 31 36 81 37 32 38 86 39 80 40 82 41 33 42 85 43 79 44 78 45
REMARK SMILES IDX 34 47 66 48 46 49 65 50 47 51 50 52 64 53 83 54 48 55 49 56
REMARK SMILES IDX 63 58 84 59 51 60 35 61 36 62 44 63 37 64 38 65 42 66 45 67
REMARK SMILES IDX 39 68 40 69 43 70 41 71 67 72 68 73 76 74 69 75 70 76 74 77
REMARK SMILES IDX 77 78 71 79 72 80 75 81 73 82 52 83 53 84 61 85 54 86 55 87
REMARK SMILES IDX 59 88 62 89 56 90 57 91 60 92 58 93
REMARK H PARENT 16 7 9 17 23 27 82 46 50 57
REMARK Flexibility Score: inf
ROOT
ATOM      1  C   UNL A   1      32.090  29.881  25.693  1.00  0.00     0.002 C 
ENDROOT
BRANCH   1   2
ATOM      2  C   UNL A   1      31.063  29.421  24.651  1.00  0.00     0.021 C 
BRANCH   2   3
ATOM      3  C   UNL A   1      31.100  27.924  24.358  1.00  0.00     0.116 C 
BRANCH   3   4
ATOM      4  N   UNL A   1      30.955  27.179  25.587  1.00  0.00    -0.355 N 
ATOM      5  C   UNL A   1      31.473  25.968  25.916  1.00  0.00     0.231 C 
ATOM      6  O   UNL A   1      30.734  25.246  26.590  1.00  0.00    -0.274 OA
ATOM      7  H   UNL A   1      30.406  27.609  26.282  1.00  0.00     0.163 HD
BRANCH   5   8
ATOM      8  C   UNL A   1      32.862  25.513  25.440  1.00  0.00     0.092 C 
ATOM      9  C   UNL A   1      33.972  26.569  25.573  1.00  0.00     0.027 C 
ATOM     10  C   UNL A   1      32.710  25.151  23.945  1.00  0.00     0.027 C 
BRANCH   8  11
ATOM     11  C   UNL A   1      33.262  24.198  26.216  1.00  0.00     0.279 C 
BRANCH  11  12
ATOM     12  N   UNL A   1      33.410  22.871  25.559  1.00  0.00    -0.325 N 
ATOM     13  C   UNL A   1      34.707  22.173  25.694  1.00  0.00     0.251 C 
ATOM     14  C   UNL A   1      34.740  20.850  24.904  1.00  0.00     0.074 C 
ATOM     15  C   UNL A   1      33.560  19.954  25.241  1.00  0.00     0.012 C 
ATOM     16  C   UNL A   1      32.254  22.000  25.813  1.00  0.00     0.262 C 
ATOM     17  H   UNL A   1      33.423  23.113  24.569  1.00  0.00     0.348 HD
ATOM     18  C   UNL A   1      32.272  20.714  24.992  1.00  0.00     0.062 C 
BRANCH  13  19
ATOM     19  C   UNL A   1      35.905  23.020  25.201  1.00  0.00     0.186 C 
ATOM     20  C   UNL A   1      35.969  23.272  23.712  1.00  0.00     0.094 C 
ATOM     21  O   UNL A   1      36.762  23.516  25.934  1.00  0.00    -0.293 OA
ENDBRANCH  13  19
ENDBRANCH  11  12
ENDBRANCH   8  11
ENDBRANCH   5   8
ENDBRANCH   3   4
ENDBRANCH   2   3
ENDBRANCH   1   2
BRANCH   1  22
ATOM     22  C   UNL A   1      31.506  30.680  26.862  1.00  0.00     0.002 C 
BRANCH  22  23
ATOM     23  C   UNL A   1      31.519  32.197  26.668  1.00  0.00     0.021 C 
BRANCH  23  24
ATOM     24  C   UNL A   1      32.758  32.887  27.221  1.00  0.00     0.116 C 
BRANCH  24  25
ATOM     25  N   UNL A   1      32.486  34.259  27.611  1.00  0.00    -0.352 N 
ATOM     26  C   UNL A   1      33.020  34.980  28.649  1.00  0.00     0.251 C 
ATOM     27  H   UNL A   1      31.830  34.737  27.055  1.00  0.00     0.163 HD
ATOM     28  O   UNL A   1      32.537  36.058  28.972  1.00  0.00    -0.269 OA
BRANCH  26  29
ATOM     29  C   UNL A   1      34.174  34.432  29.389  1.00  0.00     0.039 A 
ATOM     30  C   UNL A   1      33.944  33.737  30.577  1.00  0.00     0.014 A 
ATOM     31  C   UNL A   1      35.476  34.598  28.906  1.00  0.00     0.014 A 
ATOM     32  C   UNL A   1      35.019  33.163  31.257  1.00  0.00     0.010 A 
ATOM     33  C   UNL A   1      36.534  33.955  29.539  1.00  0.00     0.010 A 
ATOM     34  C   UNL A   1      36.317  33.241  30.726  1.00  0.00    -0.014 A 
BRANCH  34  35
ATOM     35  C   UNL A   1      37.463  32.588  31.407  1.00  0.00     0.031 A 
ATOM     36  C   UNL A   1      38.173  31.437  30.753  1.00  0.00     0.074 A 
ATOM     37  C   UNL A   1      37.827  32.998  32.637  1.00  0.00     0.049 A 
ATOM     38  N   UNL A   1      39.160  30.706  31.206  1.00  0.00    -0.248 NA
ATOM     39  C   UNL A   1      37.689  31.033  29.423  1.00  0.00     0.031 C 
ATOM     40  C   UNL A   1      37.187  34.075  33.393  1.00  0.00     0.029 A 
ATOM     41  N   UNL A   1      38.821  32.551  33.471  1.00  0.00    -0.354 N 
ATOM     42  C   UNL A   1      39.405  29.753  30.226  1.00  0.00     0.074 A 
ATOM     43  C   UNL A   1      38.424  29.958  29.183  1.00  0.00     0.031 C 
ATOM     44  C   UNL A   1      37.823  34.227  34.565  1.00  0.00     0.029 A 
ATOM     45  C   UNL A   1      38.885  33.231  34.662  1.00  0.00     0.049 A 
ATOM     46  H   UNL A   1      39.430  31.815  33.238  1.00  0.00     0.167 HD
ATOM     47  C   UNL A   1      40.376  28.810  30.187  1.00  0.00     0.037 A 
ATOM     48  C   UNL A   1      39.705  33.064  35.717  1.00  0.00     0.037 A 
ATOM     49  C   UNL A   1      41.359  28.623  31.223  1.00  0.00     0.049 A 
ATOM     50  C   UNL A   1      40.761  31.994  35.662  1.00  0.00     0.074 A 
ATOM     51  C   UNL A   1      42.422  27.737  31.255  1.00  0.00     0.029 A 
ATOM     52  N   UNL A   1      41.392  29.330  32.417  1.00  0.00    -0.354 N 
ATOM     53  N   UNL A   1      41.034  31.147  34.699  1.00  0.00    -0.248 NA
ATOM     54  C   UNL A   1      41.629  31.861  36.839  1.00  0.00     0.031 C 
ATOM     55  C   UNL A   1      43.059  27.865  32.494  1.00  0.00     0.029 A 
ATOM     56  C   UNL A   1      42.437  28.876  33.207  1.00  0.00     0.049 A 
ATOM     57  H   UNL A   1      40.766  30.047  32.666  1.00  0.00     0.167 HD
ATOM     58  C   UNL A   1      42.119  30.402  35.138  1.00  0.00     0.074 A 
ATOM     59  C   UNL A   1      42.465  30.908  36.451  1.00  0.00     0.031 C 
ATOM     60  C   UNL A   1      42.771  29.391  34.512  1.00  0.00     0.037 A 
BRANCH  47  61
ATOM     61  C   UNL A   1      40.414  27.902  28.991  1.00  0.00     0.064 A 
ATOM     62  C   UNL A   1      41.210  28.187  27.869  1.00  0.00     0.173 A 
ATOM     63  C   UNL A   1      39.657  26.721  28.969  1.00  0.00     0.173 A 
ATOM     64  F   UNL A   1      41.946  29.308  27.831  1.00  0.00    -0.203 F 
ATOM     65  C   UNL A   1      41.215  27.345  26.759  1.00  0.00     0.198 A 
ATOM     66  C   UNL A   1      39.692  25.863  27.873  1.00  0.00     0.198 A 
ATOM     67  F   UNL A   1      38.883  26.394  30.016  1.00  0.00    -0.203 F 
ATOM     68  F   UNL A   1      41.933  27.673  25.676  1.00  0.00    -0.200 F 
ATOM     69  C   UNL A   1      40.462  26.181  26.765  1.00  0.00     0.200 A 
ATOM     70  F   UNL A   1      38.976  24.731  27.886  1.00  0.00    -0.200 F 
ATOM     71  F   UNL A   1      40.470  25.371  25.697  1.00  0.00    -0.200 F 
ENDBRANCH  47  61
BRANCH  48  72
ATOM     72  C   UNL A   1      39.577  33.952  36.903  1.00  0.00     0.064 A 
ATOM     73  C   UNL A   1      40.218  35.198  36.942  1.00  0.00     0.173 A 
ATOM     74  C   UNL A   1      38.808  33.580  38.015  1.00  0.00     0.173 A 
ATOM     75  F   UNL A   1      40.980  35.590  35.910  1.00  0.00    -0.203 F 
ATOM     76  C   UNL A   1      40.110  36.029  38.054  1.00  0.00     0.198 A 
ATOM     77  C   UNL A   1      38.675  34.426  39.114  1.00  0.00     0.198 A 
ATOM     78  F   UNL A   1      38.167  32.402  38.026  1.00  0.00    -0.203 F 
ATOM     79  F   UNL A   1      40.770  37.195  38.082  1.00  0.00    -0.200 F 
ATOM     80  C   UNL A   1      39.333  35.646  39.137  1.00  0.00     0.200 A 
ATOM     81  F   UNL A   1      37.908  34.060  40.150  1.00  0.00    -0.200 F 
ATOM     82  F   UNL A   1      39.222  36.450  40.202  1.00  0.00    -0.200 F 
ENDBRANCH  48  72
BRANCH  60  83
ATOM     83  C   UNL A   1      43.950  28.788  35.221  1.00  0.00     0.064 A 
ATOM     84  C   UNL A   1      43.809  27.703  36.100  1.00  0.00     0.173 A 
ATOM     85  C   UNL A   1      45.245  29.277  34.986  1.00  0.00     0.173 A 
ATOM     86  F   UNL A   1      42.592  27.206  36.370  1.00  0.00    -0.203 F 
ATOM     87  C   UNL A   1      44.916  27.151  36.738  1.00  0.00     0.198 A 
ATOM     88  C   UNL A   1      46.353  28.699  35.599  1.00  0.00     0.198 A 
ATOM     89  F   UNL A   1      45.438  30.308  34.149  1.00  0.00    -0.203 F 
ATOM     90  F   UNL A   1      44.752  26.150  37.616  1.00  0.00    -0.200 F 
ATOM     91  C   UNL A   1      46.188  27.643  36.481  1.00  0.00     0.200 A 
ATOM     92  F   UNL A   1      47.582  29.166  35.335  1.00  0.00    -0.200 F 
ATOM     93  F   UNL A   1      47.252  27.104  37.090  1.00  0.00    -0.200 F 
ENDBRANCH  60  83
ENDBRANCH  34  35
ENDBRANCH  26  29
ENDBRANCH  24  25
ENDBRANCH  23  24
ENDBRANCH  22  23
ENDBRANCH   1  22
TORSDOF 16
ENDMDL
