MODEL 1
REMARK VINA RESULT:     -10.2      0.000      0.000
REMARK SMILES C[C@@H](C(=O)NCCCCCCNC(=O)c1ccc(-c2c3nc(c(-c4c(F)c(F)c(F)c(F)c4F)c4ccc([nH]4)c(-c4c(F)c(F)c(F)c(F)c4F)c4nc(c(-c5c(F)c(F)c(F)c(F)c5F)c5ccc2[nH]5)C=C4)C=C3)cc1)[C@H](C)[S@](C)=O
REMARK SMILES IDX 8 1 7 2 6 3 5 4 3 5 4 6 2 8 1 9 78 10 79 11 80 12 82 13
REMARK SMILES IDX 81 14 9 15 10 16 11 17 12 18 13 19 14 21 15 22 16 23 77 24
REMARK SMILES IDX 17 25 76 26 18 27 19 28 20 29 70 30 21 31 75 32 69 33 71 34
REMARK SMILES IDX 22 35 74 36 68 37 67 38 23 40 55 41 35 42 54 43 36 44 39 45
REMARK SMILES IDX 53 46 72 47 37 48 38 49 52 51 73 52 40 53 24 54 25 55 33 56
REMARK SMILES IDX 26 57 27 58 31 59 34 60 28 61 29 62 32 63 30 64 56 65 57 66
REMARK SMILES IDX 65 67 58 68 59 69 63 70 66 71 60 72 61 73 64 74 62 75 41 76
REMARK SMILES IDX 42 77 50 78 43 79 44 80 48 81 51 82 45 83 46 84 49 85 47 86
REMARK H PARENT 5 7 12 20 71 39 39 50
REMARK Flexibility Score: inf
ROOT
ATOM      1  C   UNL A   1      32.837  29.872  25.980  1.00  0.00     0.002 C 
ENDROOT
BRANCH   1   2
ATOM      2  C   UNL A   1      32.869  28.739  27.013  1.00  0.00     0.021 C 
BRANCH   2   3
ATOM      3  C   UNL A   1      31.498  28.170  27.380  1.00  0.00     0.116 C 
BRANCH   3   4
ATOM      4  N   UNL A   1      31.404  26.760  27.043  1.00  0.00    -0.356 N 
ATOM      5  C   UNL A   1      30.951  26.160  25.905  1.00  0.00     0.224 C 
ATOM      6  O   UNL A   1      30.882  24.931  25.883  1.00  0.00    -0.275 OA
ATOM      7  H   UNL A   1      31.714  26.142  27.745  1.00  0.00     0.163 HD
BRANCH   5   8
ATOM      8  C   UNL A   1      30.522  27.016  24.715  1.00  0.00     0.090 C 
ATOM      9  C   UNL A   1      29.247  26.397  24.128  1.00  0.00     0.019 C 
BRANCH   8  10
ATOM     10  C   UNL A   1      31.671  27.110  23.673  1.00  0.00     0.088 C 
ATOM     11  C   UNL A   1      31.568  28.374  22.806  1.00  0.00     0.023 C 
BRANCH  10  12
ATOM     12  S   UNL A   1      31.660  25.590  22.619  1.00  0.00     0.022 S 
ATOM     13  O   UNL A   1      31.722  26.022  21.183  1.00  0.00    -0.260 OA
ATOM     14  C   UNL A   1      33.275  24.937  23.098  1.00  0.00     0.123 C 
ENDBRANCH  10  12
ENDBRANCH   8  10
ENDBRANCH   5   8
ENDBRANCH   3   4
ENDBRANCH   2   3
ENDBRANCH   1   2
BRANCH   1  15
ATOM     15  C   UNL A   1      31.481  30.557  25.794  1.00  0.00     0.002 C 
BRANCH  15  16
ATOM     16  C   UNL A   1      31.304  31.890  26.527  1.00  0.00     0.021 C 
BRANCH  16  17
ATOM     17  C   UNL A   1      32.580  32.490  27.117  1.00  0.00     0.116 C 
BRANCH  17  18
ATOM     18  N   UNL A   1      32.408  33.873  27.526  1.00  0.00    -0.352 N 
ATOM     19  C   UNL A   1      33.066  34.597  28.488  1.00  0.00     0.251 C 
ATOM     20  H   UNL A   1      31.713  34.369  27.037  1.00  0.00     0.163 HD
ATOM     21  O   UNL A   1      32.664  35.720  28.785  1.00  0.00    -0.269 OA
BRANCH  19  22
ATOM     22  C   UNL A   1      34.241  34.036  29.193  1.00  0.00     0.039 A 
ATOM     23  C   UNL A   1      34.021  33.116  30.223  1.00  0.00     0.014 A 
ATOM     24  C   UNL A   1      35.545  34.435  28.884  1.00  0.00     0.014 A 
ATOM     25  C   UNL A   1      35.105  32.555  30.902  1.00  0.00     0.010 A 
ATOM     26  C   UNL A   1      36.630  33.833  29.526  1.00  0.00     0.010 A 
ATOM     27  C   UNL A   1      36.420  32.886  30.540  1.00  0.00    -0.014 A 
BRANCH  27  28
ATOM     28  C   UNL A   1      37.576  32.232  31.204  1.00  0.00     0.031 A 
ATOM     29  C   UNL A   1      38.339  31.136  30.513  1.00  0.00     0.074 A 
ATOM     30  C   UNL A   1      37.918  32.604  32.452  1.00  0.00     0.049 A 
ATOM     31  N   UNL A   1      39.359  30.437  30.947  1.00  0.00    -0.248 NA
ATOM     32  C   UNL A   1      37.886  30.763  29.164  1.00  0.00     0.031 C 
ATOM     33  C   UNL A   1      37.228  33.619  33.249  1.00  0.00     0.029 A 
ATOM     34  N   UNL A   1      38.929  32.168  33.274  1.00  0.00    -0.354 N 
ATOM     35  C   UNL A   1      39.667  29.543  29.931  1.00  0.00     0.074 A 
ATOM     36  C   UNL A   1      38.699  29.754  28.876  1.00  0.00     0.031 C 
ATOM     37  C   UNL A   1      37.843  33.740  34.437  1.00  0.00     0.029 A 
ATOM     38  C   UNL A   1      38.955  32.796  34.495  1.00  0.00     0.049 A 
ATOM     39  H   UNL A   1      39.573  31.472  33.011  1.00  0.00     0.167 HD
ATOM     40  C   UNL A   1      40.679  28.645  29.874  1.00  0.00     0.037 A 
ATOM     41  C   UNL A   1      39.781  32.628  35.544  1.00  0.00     0.037 A 
ATOM     42  C   UNL A   1      41.654  28.444  30.914  1.00  0.00     0.049 A 
ATOM     43  C   UNL A   1      40.905  31.632  35.446  1.00  0.00     0.074 A 
ATOM     44  C   UNL A   1      42.737  27.582  30.929  1.00  0.00     0.029 A 
ATOM     45  N   UNL A   1      41.665  29.120  32.125  1.00  0.00    -0.354 N 
ATOM     46  N   UNL A   1      41.219  30.834  34.455  1.00  0.00    -0.248 NA
ATOM     47  C   UNL A   1      41.797  31.525  36.609  1.00  0.00     0.031 C 
ATOM     48  C   UNL A   1      43.387  27.715  32.161  1.00  0.00     0.029 A 
ATOM     49  C   UNL A   1      42.730  28.687  32.898  1.00  0.00     0.049 A 
ATOM     50  H   UNL A   1      41.012  29.806  32.395  1.00  0.00     0.167 HD
ATOM     51  C   UNL A   1      42.351  30.145  34.867  1.00  0.00     0.074 A 
ATOM     52  C   UNL A   1      42.683  30.634  36.187  1.00  0.00     0.031 C 
ATOM     53  C   UNL A   1      43.049  29.187  34.210  1.00  0.00     0.037 A 
BRANCH  40  54
ATOM     54  C   UNL A   1      40.798  27.813  28.632  1.00  0.00     0.064 A 
ATOM     55  C   UNL A   1      40.114  26.593  28.504  1.00  0.00     0.173 A 
ATOM     56  C   UNL A   1      41.551  28.261  27.537  1.00  0.00     0.173 A 
ATOM     57  F   UNL A   1      39.389  26.117  29.527  1.00  0.00    -0.203 F 
ATOM     58  C   UNL A   1      40.195  25.846  27.333  1.00  0.00     0.198 A 
ATOM     59  C   UNL A   1      41.610  27.523  26.358  1.00  0.00     0.198 A 
ATOM     60  F   UNL A   1      42.219  29.423  27.606  1.00  0.00    -0.203 F 
ATOM     61  F   UNL A   1      39.561  24.669  27.246  1.00  0.00    -0.200 F 
ATOM     62  C   UNL A   1      40.937  26.314  26.258  1.00  0.00     0.200 A 
ATOM     63  F   UNL A   1      42.318  27.981  25.316  1.00  0.00    -0.200 F 
ATOM     64  F   UNL A   1      41.003  25.600  25.126  1.00  0.00    -0.200 F 
ENDBRANCH  40  54
BRANCH  41  65
ATOM     65  C   UNL A   1      39.594  33.437  36.774  1.00  0.00     0.064 A 
ATOM     66  C   UNL A   1      38.724  33.016  37.789  1.00  0.00     0.173 A 
ATOM     67  C   UNL A   1      40.266  34.655  36.951  1.00  0.00     0.173 A 
ATOM     68  F   UNL A   1      38.044  31.869  37.653  1.00  0.00    -0.203 F 
ATOM     69  C   UNL A   1      38.515  33.793  38.926  1.00  0.00     0.198 A 
ATOM     70  C   UNL A   1      40.076  35.420  38.101  1.00  0.00     0.198 A 
ATOM     71  F   UNL A   1      41.111  35.100  36.010  1.00  0.00    -0.203 F 
ATOM     72  F   UNL A   1      37.642  33.390  39.858  1.00  0.00    -0.200 F 
ATOM     73  C   UNL A   1      39.194  34.993  39.082  1.00  0.00     0.200 A 
ATOM     74  F   UNL A   1      40.741  36.573  38.254  1.00  0.00    -0.200 F 
ATOM     75  F   UNL A   1      38.991  35.742  40.175  1.00  0.00    -0.200 F 
ENDBRANCH  41  65
BRANCH  53  76
ATOM     76  C   UNL A   1      44.251  28.622  34.906  1.00  0.00     0.064 A 
ATOM     77  C   UNL A   1      45.522  29.197  34.756  1.00  0.00     0.173 A 
ATOM     78  C   UNL A   1      44.128  27.505  35.747  1.00  0.00     0.173 A 
ATOM     79  F   UNL A   1      45.692  30.255  33.949  1.00  0.00    -0.203 F 
ATOM     80  C   UNL A   1      46.631  28.657  35.400  1.00  0.00     0.198 A 
ATOM     81  C   UNL A   1      45.236  26.983  36.409  1.00  0.00     0.198 A 
ATOM     82  F   UNL A   1      42.934  26.922  35.927  1.00  0.00    -0.203 F 
ATOM     83  F   UNL A   1      47.844  29.192  35.202  1.00  0.00    -0.200 F 
ATOM     84  C   UNL A   1      46.487  27.554  36.229  1.00  0.00     0.200 A 
ATOM     85  F   UNL A   1      45.094  25.923  37.217  1.00  0.00    -0.200 F 
ATOM     86  F   UNL A   1      47.557  27.035  36.847  1.00  0.00    -0.200 F 
ENDBRANCH  53  76
ENDBRANCH  27  28
ENDBRANCH  19  22
ENDBRANCH  17  18
ENDBRANCH  16  17
ENDBRANCH  15  16
ENDBRANCH   1  15
TORSDOF 15
ENDMDL
MODEL 2
REMARK VINA RESULT:     -10.1      4.176      9.897
REMARK SMILES C[C@@H](C(=O)NCCCCCCNC(=O)c1ccc(-c2c3nc(c(-c4c(F)c(F)c(F)c(F)c4F)c4ccc([nH]4)c(-c4c(F)c(F)c(F)c(F)c4F)c4nc(c(-c5c(F)c(F)c(F)c(F)c5F)c5ccc2[nH]5)C=C4)C=C3)cc1)[C@H](C)[S@](C)=O
REMARK SMILES IDX 8 1 7 2 6 3 5 4 3 5 4 6 2 8 1 9 78 10 79 11 80 12 82 13
REMARK SMILES IDX 81 14 9 15 10 16 11 17 12 18 13 19 14 21 15 22 16 23 77 24
REMARK SMILES IDX 17 25 76 26 18 27 19 28 20 29 70 30 21 31 75 32 69 33 71 34
REMARK SMILES IDX 22 35 74 36 68 37 67 38 23 40 55 41 35 42 54 43 36 44 39 45
REMARK SMILES IDX 53 46 72 47 37 48 38 49 52 51 73 52 40 53 24 54 25 55 33 56
REMARK SMILES IDX 26 57 27 58 31 59 34 60 28 61 29 62 32 63 30 64 56 65 57 66
REMARK SMILES IDX 65 67 58 68 59 69 63 70 66 71 60 72 61 73 64 74 62 75 41 76
REMARK SMILES IDX 42 77 50 78 43 79 44 80 48 81 51 82 45 83 46 84 49 85 47 86
REMARK H PARENT 5 7 12 20 71 39 39 50
REMARK Flexibility Score: inf
ROOT
ATOM      1  C   UNL A   1      37.455  32.939  29.298  1.00  0.00     0.002 C 
ENDROOT
BRANCH   1   2
ATOM      2  C   UNL A   1      37.772  34.020  30.339  1.00  0.00     0.021 C 
BRANCH   2   3
ATOM      3  C   UNL A   1      37.532  33.600  31.790  1.00  0.00     0.116 C 
BRANCH   3   4
ATOM      4  N   UNL A   1      36.284  32.869  31.929  1.00  0.00    -0.356 N 
ATOM      5  C   UNL A   1      35.040  33.318  32.265  1.00  0.00     0.224 C 
ATOM      6  O   UNL A   1      34.142  32.489  32.409  1.00  0.00    -0.275 OA
ATOM      7  H   UNL A   1      36.345  31.902  31.754  1.00  0.00     0.163 HD
BRANCH   5   8
ATOM      8  C   UNL A   1      34.804  34.812  32.478  1.00  0.00     0.090 C 
ATOM      9  C   UNL A   1      34.918  35.096  33.982  1.00  0.00     0.019 C 
BRANCH   8  10
ATOM     10  C   UNL A   1      33.425  35.231  31.897  1.00  0.00     0.088 C 
ATOM     11  C   UNL A   1      33.514  35.624  30.415  1.00  0.00     0.023 C 
BRANCH  10  12
ATOM     12  S   UNL A   1      32.739  36.622  32.905  1.00  0.00     0.022 S 
ATOM     13  O   UNL A   1      32.868  37.882  32.101  1.00  0.00    -0.260 OA
ATOM     14  C   UNL A   1      31.008  36.107  32.904  1.00  0.00     0.123 C 
ENDBRANCH  10  12
ENDBRANCH   8  10
ENDBRANCH   5   8
ENDBRANCH   3   4
ENDBRANCH   2   3
ENDBRANCH   1   2
BRANCH   1  15
ATOM     15  C   UNL A   1      36.781  33.436  28.016  1.00  0.00     0.002 C 
BRANCH  15  16
ATOM     16  C   UNL A   1      35.252  33.511  28.055  1.00  0.00     0.021 C 
BRANCH  16  17
ATOM     17  C   UNL A   1      34.567  32.494  28.968  1.00  0.00     0.116 C 
BRANCH  17  18
ATOM     18  N   UNL A   1      33.943  31.411  28.228  1.00  0.00    -0.352 N 
ATOM     19  C   UNL A   1      34.480  30.239  27.759  1.00  0.00     0.251 C 
ATOM     20  H   UNL A   1      32.986  31.537  28.033  1.00  0.00     0.163 HD
ATOM     21  O   UNL A   1      33.814  29.518  27.018  1.00  0.00    -0.269 OA
BRANCH  19  22
ATOM     22  C   UNL A   1      35.861  29.839  28.112  1.00  0.00     0.039 A 
ATOM     23  C   UNL A   1      36.852  29.934  27.130  1.00  0.00     0.014 A 
ATOM     24  C   UNL A   1      36.181  29.332  29.376  1.00  0.00     0.014 A 
ATOM     25  C   UNL A   1      38.169  29.579  27.429  1.00  0.00     0.010 A 
ATOM     26  C   UNL A   1      37.507  29.029  29.691  1.00  0.00     0.010 A 
ATOM     27  C   UNL A   1      38.514  29.150  28.721  1.00  0.00    -0.014 A 
BRANCH  27  28
ATOM     28  C   UNL A   1      39.927  28.848  29.067  1.00  0.00     0.031 A 
ATOM     29  C   UNL A   1      40.742  29.816  29.878  1.00  0.00     0.074 A 
ATOM     30  C   UNL A   1      40.488  27.710  28.616  1.00  0.00     0.049 A 
ATOM     31  N   UNL A   1      41.994  29.730  30.256  1.00  0.00    -0.248 NA
ATOM     32  C   UNL A   1      40.069  31.051  30.308  1.00  0.00     0.031 C 
ATOM     33  C   UNL A   1      39.819  26.714  27.778  1.00  0.00     0.029 A 
ATOM     34  N   UNL A   1      41.751  27.201  28.792  1.00  0.00    -0.354 N 
ATOM     35  C   UNL A   1      42.259  30.895  30.961  1.00  0.00     0.074 A 
ATOM     36  C   UNL A   1      41.053  31.695  30.923  1.00  0.00     0.031 C 
ATOM     37  C   UNL A   1      40.672  25.707  27.527  1.00  0.00     0.029 A 
ATOM     38  C   UNL A   1      41.952  25.997  28.164  1.00  0.00     0.049 A 
ATOM     39  H   UNL A   1      42.446  27.657  29.319  1.00  0.00     0.167 HD
ATOM     40  C   UNL A   1      43.396  31.254  31.604  1.00  0.00     0.037 A 
ATOM     41  C   UNL A   1      43.047  25.215  28.107  1.00  0.00     0.037 A 
ATOM     42  C   UNL A   1      44.591  30.454  31.659  1.00  0.00     0.049 A 
ATOM     43  C   UNL A   1      44.291  25.634  28.842  1.00  0.00     0.074 A 
ATOM     44  C   UNL A   1      45.781  30.719  32.317  1.00  0.00     0.029 A 
ATOM     45  N   UNL A   1      44.747  29.225  31.034  1.00  0.00    -0.354 N 
ATOM     46  N   UNL A   1      44.508  26.712  29.553  1.00  0.00    -0.248 NA
ATOM     47  C   UNL A   1      45.438  24.717  28.774  1.00  0.00     0.031 C 
ATOM     48  C   UNL A   1      46.666  29.665  32.066  1.00  0.00     0.029 A 
ATOM     49  C   UNL A   1      46.015  28.726  31.284  1.00  0.00     0.049 A 
ATOM     50  H   UNL A   1      44.058  28.775  30.495  1.00  0.00     0.167 HD
ATOM     51  C   UNL A   1      45.806  26.596  30.032  1.00  0.00     0.074 A 
ATOM     52  C   UNL A   1      46.320  25.333  29.549  1.00  0.00     0.031 C 
ATOM     53  C   UNL A   1      46.511  27.464  30.798  1.00  0.00     0.037 A 
BRANCH  40  54
ATOM     54  C   UNL A   1      43.402  32.573  32.318  1.00  0.00     0.064 A 
ATOM     55  C   UNL A   1      43.761  33.758  31.656  1.00  0.00     0.173 A 
ATOM     56  C   UNL A   1      42.991  32.666  33.655  1.00  0.00     0.173 A 
ATOM     57  F   UNL A   1      44.171  33.718  30.380  1.00  0.00    -0.203 F 
ATOM     58  C   UNL A   1      43.724  34.984  32.313  1.00  0.00     0.198 A 
ATOM     59  C   UNL A   1      42.932  33.899  34.302  1.00  0.00     0.198 A 
ATOM     60  F   UNL A   1      42.633  31.565  34.332  1.00  0.00    -0.203 F 
ATOM     61  F   UNL A   1      44.103  36.098  31.670  1.00  0.00    -0.200 F 
ATOM     62  C   UNL A   1      43.303  35.055  33.632  1.00  0.00     0.200 A 
ATOM     63  F   UNL A   1      42.515  33.968  35.574  1.00  0.00    -0.200 F 
ATOM     64  F   UNL A   1      43.256  36.239  34.259  1.00  0.00    -0.200 F 
ENDBRANCH  40  54
BRANCH  41  65
ATOM     65  C   UNL A   1      43.011  23.942  27.344  1.00  0.00     0.064 A 
ATOM     66  C   UNL A   1      42.602  22.748  27.953  1.00  0.00     0.173 A 
ATOM     67  C   UNL A   1      43.402  23.891  25.998  1.00  0.00     0.173 A 
ATOM     68  F   UNL A   1      42.241  22.746  29.243  1.00  0.00    -0.203 F 
ATOM     69  C   UNL A   1      42.607  21.545  27.251  1.00  0.00     0.198 A 
ATOM     70  C   UNL A   1      43.382  22.691  25.290  1.00  0.00     0.198 A 
ATOM     71  F   UNL A   1      43.798  25.008  25.371  1.00  0.00    -0.203 F 
ATOM     72  F   UNL A   1      42.258  20.410  27.871  1.00  0.00    -0.200 F 
ATOM     73  C   UNL A   1      42.994  21.518  25.919  1.00  0.00     0.200 A 
ATOM     74  F   UNL A   1      43.746  22.671  24.000  1.00  0.00    -0.200 F 
ATOM     75  F   UNL A   1      43.000  20.360  25.245  1.00  0.00    -0.200 F 
ENDBRANCH  41  65
BRANCH  53  76
ATOM     76  C   UNL A   1      47.905  27.062  31.175  1.00  0.00     0.064 A 
ATOM     77  C   UNL A   1      49.013  27.455  30.409  1.00  0.00     0.173 A 
ATOM     78  C   UNL A   1      48.138  26.290  32.323  1.00  0.00     0.173 A 
ATOM     79  F   UNL A   1      48.839  28.180  29.294  1.00  0.00    -0.203 F 
ATOM     80  C   UNL A   1      50.301  27.067  30.764  1.00  0.00     0.198 A 
ATOM     81  C   UNL A   1      49.431  25.924  32.689  1.00  0.00     0.198 A 
ATOM     82  F   UNL A   1      47.113  25.893  33.091  1.00  0.00    -0.203 F 
ATOM     83  F   UNL A   1      51.340  27.412  29.991  1.00  0.00    -0.200 F 
ATOM     84  C   UNL A   1      50.510  26.306  31.906  1.00  0.00     0.200 A 
ATOM     85  F   UNL A   1      49.632  25.197  33.797  1.00  0.00    -0.200 F 
ATOM     86  F   UNL A   1      51.751  25.932  32.245  1.00  0.00    -0.200 F 
ENDBRANCH  53  76
ENDBRANCH  27  28
ENDBRANCH  19  22
ENDBRANCH  17  18
ENDBRANCH  16  17
ENDBRANCH  15  16
ENDBRANCH   1  15
TORSDOF 15
ENDMDL
MODEL 3
REMARK VINA RESULT:     -10.1      0.984      7.872
REMARK SMILES C[C@@H](C(=O)NCCCCCCNC(=O)c1ccc(-c2c3nc(c(-c4c(F)c(F)c(F)c(F)c4F)c4ccc([nH]4)c(-c4c(F)c(F)c(F)c(F)c4F)c4nc(c(-c5c(F)c(F)c(F)c(F)c5F)c5ccc2[nH]5)C=C4)C=C3)cc1)[C@H](C)[S@](C)=O
REMARK SMILES IDX 8 1 7 2 6 3 5 4 3 5 4 6 2 8 1 9 78 10 79 11 80 12 82 13
REMARK SMILES IDX 81 14 9 15 10 16 11 17 12 18 13 19 14 21 15 22 16 23 77 24
REMARK SMILES IDX 17 25 76 26 18 27 19 28 20 29 70 30 21 31 75 32 69 33 71 34
REMARK SMILES IDX 22 35 74 36 68 37 67 38 23 40 55 41 35 42 54 43 36 44 39 45
REMARK SMILES IDX 53 46 72 47 37 48 38 49 52 51 73 52 40 53 24 54 25 55 33 56
REMARK SMILES IDX 26 57 27 58 31 59 34 60 28 61 29 62 32 63 30 64 56 65 57 66
REMARK SMILES IDX 65 67 58 68 59 69 63 70 66 71 60 72 61 73 64 74 62 75 41 76
REMARK SMILES IDX 42 77 50 78 43 79 44 80 48 81 51 82 45 83 46 84 49 85 47 86
REMARK H PARENT 5 7 12 20 71 39 39 50
REMARK Flexibility Score: inf
ROOT
ATOM      1  C   UNL A   1      32.663  29.833  26.207  1.00  0.00     0.002 C 
ENDROOT
BRANCH   1   2
ATOM      2  C   UNL A   1      32.382  28.543  26.986  1.00  0.00     0.021 C 
BRANCH   2   3
ATOM      3  C   UNL A   1      31.383  27.597  26.319  1.00  0.00     0.116 C 
BRANCH   3   4
ATOM      4  N   UNL A   1      31.348  26.307  26.987  1.00  0.00    -0.356 N 
ATOM      5  C   UNL A   1      31.602  25.060  26.496  1.00  0.00     0.224 C 
ATOM      6  O   UNL A   1      31.420  24.095  27.238  1.00  0.00    -0.275 OA
ATOM      7  H   UNL A   1      31.104  26.338  27.940  1.00  0.00     0.163 HD
BRANCH   5   8
ATOM      8  C   UNL A   1      32.071  24.894  25.052  1.00  0.00     0.090 C 
ATOM      9  C   UNL A   1      30.855  24.496  24.206  1.00  0.00     0.019 C 
BRANCH   8  10
ATOM     10  C   UNL A   1      33.218  23.848  24.972  1.00  0.00     0.088 C 
ATOM     11  C   UNL A   1      34.581  24.450  25.350  1.00  0.00     0.023 C 
BRANCH  10  12
ATOM     12  S   UNL A   1      33.267  23.131  23.268  1.00  0.00     0.022 S 
ATOM     13  O   UNL A   1      34.647  23.341  22.718  1.00  0.00    -0.260 OA
ATOM     14  C   UNL A   1      33.082  21.392  23.719  1.00  0.00     0.123 C 
ENDBRANCH  10  12
ENDBRANCH   8  10
ENDBRANCH   5   8
ENDBRANCH   3   4
ENDBRANCH   2   3
ENDBRANCH   1   2
BRANCH   1  15
ATOM     15  C   UNL A   1      31.427  30.642  25.804  1.00  0.00     0.002 C 
BRANCH  15  16
ATOM     16  C   UNL A   1      31.276  32.006  26.484  1.00  0.00     0.021 C 
BRANCH  16  17
ATOM     17  C   UNL A   1      32.549  32.572  27.114  1.00  0.00     0.116 C 
BRANCH  17  18
ATOM     18  N   UNL A   1      32.385  33.940  27.572  1.00  0.00    -0.352 N 
ATOM     19  C   UNL A   1      33.068  34.636  28.537  1.00  0.00     0.251 C 
ATOM     20  H   UNL A   1      31.672  34.448  27.120  1.00  0.00     0.163 HD
ATOM     21  O   UNL A   1      32.671  35.748  28.882  1.00  0.00    -0.269 OA
BRANCH  19  22
ATOM     22  C   UNL A   1      34.266  34.058  29.188  1.00  0.00     0.039 A 
ATOM     23  C   UNL A   1      34.082  33.215  30.288  1.00  0.00     0.014 A 
ATOM     24  C   UNL A   1      35.560  34.370  28.760  1.00  0.00     0.014 A 
ATOM     25  C   UNL A   1      35.187  32.640  30.920  1.00  0.00     0.010 A 
ATOM     26  C   UNL A   1      36.661  33.752  29.357  1.00  0.00     0.010 A 
ATOM     27  C   UNL A   1      36.485  32.881  30.442  1.00  0.00    -0.014 A 
BRANCH  27  28
ATOM     28  C   UNL A   1      37.656  32.209  31.060  1.00  0.00     0.031 A 
ATOM     29  C   UNL A   1      38.136  32.606  32.428  1.00  0.00     0.074 A 
ATOM     30  C   UNL A   1      38.313  31.258  30.368  1.00  0.00     0.049 A 
ATOM     31  N   UNL A   1      39.152  32.145  33.115  1.00  0.00    -0.248 NA
ATOM     32  C   UNL A   1      37.387  33.673  33.108  1.00  0.00     0.031 C 
ATOM     33  C   UNL A   1      37.979  30.817  29.013  1.00  0.00     0.029 A 
ATOM     34  N   UNL A   1      39.403  30.494  30.705  1.00  0.00    -0.354 N 
ATOM     35  C   UNL A   1      39.167  32.865  34.301  1.00  0.00     0.074 A 
ATOM     36  C   UNL A   1      38.087  33.826  34.225  1.00  0.00     0.031 C 
ATOM     37  C   UNL A   1      38.834  29.851  28.641  1.00  0.00     0.029 A 
ATOM     38  C   UNL A   1      39.790  29.621  29.719  1.00  0.00     0.049 A 
ATOM     39  H   UNL A   1      39.863  30.566  31.573  1.00  0.00     0.167 HD
ATOM     40  C   UNL A   1      39.990  32.722  35.367  1.00  0.00     0.037 A 
ATOM     41  C   UNL A   1      40.803  28.735  29.687  1.00  0.00     0.037 A 
ATOM     42  C   UNL A   1      41.055  31.756  35.454  1.00  0.00     0.049 A 
ATOM     43  C   UNL A   1      41.694  28.588  30.891  1.00  0.00     0.074 A 
ATOM     44  C   UNL A   1      41.919  31.513  36.508  1.00  0.00     0.029 A 
ATOM     45  N   UNL A   1      41.398  30.868  34.444  1.00  0.00    -0.354 N 
ATOM     46  N   UNL A   1      41.659  29.237  32.029  1.00  0.00    -0.248 NA
ATOM     47  C   UNL A   1      42.756  27.576  30.808  1.00  0.00     0.031 C 
ATOM     48  C   UNL A   1      42.803  30.498  36.127  1.00  0.00     0.029 A 
ATOM     49  C   UNL A   1      42.466  30.083  34.849  1.00  0.00     0.049 A 
ATOM     50  H   UNL A   1      40.948  30.805  33.571  1.00  0.00     0.167 HD
ATOM     51  C   UNL A   1      42.680  28.701  32.802  1.00  0.00     0.074 A 
ATOM     52  C   UNL A   1      43.300  27.659  32.014  1.00  0.00     0.031 C 
ATOM     53  C   UNL A   1      43.070  29.047  34.053  1.00  0.00     0.037 A 
BRANCH  40  54
ATOM     54  C   UNL A   1      39.767  33.625  36.543  1.00  0.00     0.064 A 
ATOM     55  C   UNL A   1      40.366  34.893  36.612  1.00  0.00     0.173 A 
ATOM     56  C   UNL A   1      38.902  33.250  37.581  1.00  0.00     0.173 A 
ATOM     57  F   UNL A   1      41.209  35.293  35.648  1.00  0.00    -0.203 F 
ATOM     58  C   UNL A   1      40.121  35.743  37.686  1.00  0.00     0.198 A 
ATOM     59  C   UNL A   1      38.640  34.113  38.642  1.00  0.00     0.198 A 
ATOM     60  F   UNL A   1      38.300  32.051  37.561  1.00  0.00    -0.203 F 
ATOM     61  F   UNL A   1      40.730  36.936  37.747  1.00  0.00    -0.200 F 
ATOM     62  C   UNL A   1      39.253  35.356  38.696  1.00  0.00     0.200 A 
ATOM     63  F   UNL A   1      37.793  33.743  39.613  1.00  0.00    -0.200 F 
ATOM     64  F   UNL A   1      39.008  36.182  39.723  1.00  0.00    -0.200 F 
ENDBRANCH  40  54
BRANCH  41  65
ATOM     65  C   UNL A   1      41.020  27.897  28.480  1.00  0.00     0.064 A 
ATOM     66  C   UNL A   1      41.853  28.333  27.440  1.00  0.00     0.173 A 
ATOM     67  C   UNL A   1      40.385  26.656  28.335  1.00  0.00     0.173 A 
ATOM     68  F   UNL A   1      42.462  29.524  27.526  1.00  0.00    -0.203 F 
ATOM     69  C   UNL A   1      42.024  27.569  26.289  1.00  0.00     0.198 A 
ATOM     70  C   UNL A   1      40.579  25.879  27.194  1.00  0.00     0.198 A 
ATOM     71  F   UNL A   1      39.582  26.194  29.304  1.00  0.00    -0.203 F 
ATOM     72  F   UNL A   1      42.787  28.030  25.289  1.00  0.00    -0.200 F 
ATOM     73  C   UNL A   1      41.391  26.340  26.168  1.00  0.00     0.200 A 
ATOM     74  F   UNL A   1      39.974  24.689  27.086  1.00  0.00    -0.200 F 
ATOM     75  F   UNL A   1      41.555  25.606  25.060  1.00  0.00    -0.200 F 
ENDBRANCH  41  65
BRANCH  53  76
ATOM     76  C   UNL A   1      44.211  28.276  34.648  1.00  0.00     0.064 A 
ATOM     77  C   UNL A   1      43.997  27.089  35.364  1.00  0.00     0.173 A 
ATOM     78  C   UNL A   1      45.532  28.720  34.486  1.00  0.00     0.173 A 
ATOM     79  F   UNL A   1      42.750  26.634  35.560  1.00  0.00    -0.203 F 
ATOM     80  C   UNL A   1      45.063  26.388  35.920  1.00  0.00     0.198 A 
ATOM     81  C   UNL A   1      46.598  28.002  35.022  1.00  0.00     0.198 A 
ATOM     82  F   UNL A   1      45.789  29.847  33.806  1.00  0.00    -0.203 F 
ATOM     83  F   UNL A   1      44.832  25.283  36.642  1.00  0.00    -0.200 F 
ATOM     84  C   UNL A   1      46.363  26.842  35.745  1.00  0.00     0.200 A 
ATOM     85  F   UNL A   1      47.853  28.437  34.845  1.00  0.00    -0.200 F 
ATOM     86  F   UNL A   1      47.387  26.167  36.282  1.00  0.00    -0.200 F 
ENDBRANCH  53  76
ENDBRANCH  27  28
ENDBRANCH  19  22
ENDBRANCH  17  18
ENDBRANCH  16  17
ENDBRANCH  15  16
ENDBRANCH   1  15
TORSDOF 15
ENDMDL
