MODEL 1
REMARK VINA RESULT:     -10.6      0.000      0.000
REMARK SMILES CC(C)C[N@@H+](C[C@@H](C)C(=O)NCCCCCCNC(=O)c1ccc(-c2c3nc(c(-c4c(F)c(F)c(F)c(F)c4F)c4ccc([nH]4)c(-c4c(F)c(F)c(F)c(F)c4F)c4nc(c(-c5c(F)c(F)c(F)c(F)c5F)c5ccc2[nH]5)C=C4)C=C3)cc1)C1CCCC1
REMARK SMILES IDX 13 1 12 2 11 3 9 4 10 5 7 7 8 8 6 9 5 10 4 12 2 13 1 14 3 15
REMARK SMILES IDX 84 16 85 17 88 18 86 19 87 20 14 21 15 22 16 23 17 24 18 25
REMARK SMILES IDX 19 26 20 28 21 29 22 30 83 31 23 32 82 33 24 34 25 35 26 36
REMARK SMILES IDX 76 37 27 38 81 39 75 40 77 41 28 42 80 43 74 44 73 45 29 47
REMARK SMILES IDX 61 48 41 49 60 50 42 51 45 52 59 53 78 54 43 55 44 56 58 58
REMARK SMILES IDX 79 59 46 60 30 61 31 62 39 63 32 64 33 65 37 66 40 67 34 68
REMARK SMILES IDX 35 69 38 70 36 71 62 72 63 73 71 74 64 75 65 76 69 77 72 78
REMARK SMILES IDX 66 79 67 80 70 81 68 82 47 83 48 84 56 85 49 86 50 87 54 88
REMARK SMILES IDX 57 89 51 90 52 91 55 92 53 93
REMARK H PARENT 11 6 5 11 18 27 77 46 45 57
REMARK Flexibility Score: inf
ROOT
ATOM      1  C   UNL A   1      33.671  29.218  26.326  1.00  0.00     0.021 C 
ENDROOT
BRANCH   1   2
ATOM      2  C   UNL A   1      33.689  27.704  26.487  1.00  0.00     0.116 C 
BRANCH   2   3
ATOM      3  N   UNL A   1      32.521  27.109  25.874  1.00  0.00    -0.356 N 
ATOM      4  C   UNL A   1      32.386  26.501  24.661  1.00  0.00     0.228 C 
ATOM      5  O   UNL A   1      31.265  26.105  24.336  1.00  0.00    -0.275 OA
ATOM      6  H   UNL A   1      31.699  27.150  26.414  1.00  0.00     0.163 HD
BRANCH   4   7
ATOM      7  C   UNL A   1      33.598  26.267  23.761  1.00  0.00     0.130 C 
ATOM      8  C   UNL A   1      33.574  27.340  22.674  1.00  0.00     0.024 C 
BRANCH   7   9
ATOM      9  C   UNL A   1      33.697  24.767  23.367  1.00  0.00     0.275 C 
BRANCH   9  10
ATOM     10  N   UNL A   1      34.434  23.786  24.189  1.00  0.00    -0.332 N 
ATOM     11  H   UNL A   1      34.920  24.367  24.871  1.00  0.00     0.348 HD
BRANCH  10  12
ATOM     12  C   UNL A   1      35.494  23.101  23.432  1.00  0.00     0.265 C 
BRANCH  12  13
ATOM     13  C   UNL A   1      36.915  22.998  24.060  1.00  0.00     0.038 C 
ATOM     14  C   UNL A   1      37.171  23.868  25.291  1.00  0.00     0.013 C 
ATOM     15  C   UNL A   1      37.155  21.539  24.482  1.00  0.00     0.013 C 
ENDBRANCH  12  13
ENDBRANCH  10  12
BRANCH  10  16
ATOM     16  C   UNL A   1      33.690  22.996  25.170  1.00  0.00     0.184 C 
ATOM     17  C   UNL A   1      33.604  21.472  24.984  1.00  0.00     0.065 C 
ATOM     18  C   UNL A   1      34.040  23.207  26.654  1.00  0.00     0.065 C 
ATOM     19  C   UNL A   1      33.190  20.951  26.353  1.00  0.00     0.006 C 
ATOM     20  C   UNL A   1      33.911  21.852  27.341  1.00  0.00     0.006 C 
ENDBRANCH  10  16
ENDBRANCH   9  10
ENDBRANCH   7   9
ENDBRANCH   4   7
ENDBRANCH   2   3
ENDBRANCH   1   2
BRANCH   1  21
ATOM     21  C   UNL A   1      32.489  29.866  27.048  1.00  0.00     0.002 C 
BRANCH  21  22
ATOM     22  C   UNL A   1      31.573  30.688  26.132  1.00  0.00     0.002 C 
BRANCH  22  23
ATOM     23  C   UNL A   1      31.395  32.149  26.554  1.00  0.00     0.021 C 
BRANCH  23  24
ATOM     24  C   UNL A   1      32.595  32.726  27.294  1.00  0.00     0.116 C 
BRANCH  24  25
ATOM     25  N   UNL A   1      32.396  34.130  27.620  1.00  0.00    -0.352 N 
ATOM     26  C   UNL A   1      32.980  34.881  28.606  1.00  0.00     0.251 C 
ATOM     27  H   UNL A   1      31.751  34.608  27.051  1.00  0.00     0.163 HD
ATOM     28  O   UNL A   1      32.533  35.981  28.901  1.00  0.00    -0.269 OA
BRANCH  26  29
ATOM     29  C   UNL A   1      34.153  34.340  29.319  1.00  0.00     0.039 A 
ATOM     30  C   UNL A   1      33.953  33.584  30.476  1.00  0.00     0.014 A 
ATOM     31  C   UNL A   1      35.445  34.581  28.841  1.00  0.00     0.014 A 
ATOM     32  C   UNL A   1      35.052  33.025  31.127  1.00  0.00     0.010 A 
ATOM     33  C   UNL A   1      36.529  33.960  29.445  1.00  0.00     0.010 A 
ATOM     34  C   UNL A   1      36.344  33.182  30.600  1.00  0.00    -0.014 A 
BRANCH  34  35
ATOM     35  C   UNL A   1      37.519  32.546  31.244  1.00  0.00     0.031 A 
ATOM     36  C   UNL A   1      38.205  31.388  30.575  1.00  0.00     0.074 A 
ATOM     37  C   UNL A   1      37.920  32.970  32.458  1.00  0.00     0.049 A 
ATOM     38  N   UNL A   1      39.202  30.656  31.007  1.00  0.00    -0.248 NA
ATOM     39  C   UNL A   1      37.690  30.979  29.259  1.00  0.00     0.031 C 
ATOM     40  C   UNL A   1      37.302  34.055  33.222  1.00  0.00     0.029 A 
ATOM     41  N   UNL A   1      38.938  32.532  33.267  1.00  0.00    -0.354 N 
ATOM     42  C   UNL A   1      39.414  29.694  30.030  1.00  0.00     0.074 A 
ATOM     43  C   UNL A   1      38.417  29.901  29.003  1.00  0.00     0.031 C 
ATOM     44  C   UNL A   1      37.967  34.214  34.378  1.00  0.00     0.029 A 
ATOM     45  C   UNL A   1      39.028  33.214  34.457  1.00  0.00     0.049 A 
ATOM     46  H   UNL A   1      39.547  31.800  33.019  1.00  0.00     0.167 HD
ATOM     47  C   UNL A   1      40.369  28.734  29.986  1.00  0.00     0.037 A 
ATOM     48  C   UNL A   1      39.865  33.043  35.497  1.00  0.00     0.037 A 
ATOM     49  C   UNL A   1      41.380  28.558  30.995  1.00  0.00     0.049 A 
ATOM     50  C   UNL A   1      40.909  31.959  35.421  1.00  0.00     0.074 A 
ATOM     51  C   UNL A   1      42.443  27.673  31.003  1.00  0.00     0.029 A 
ATOM     52  N   UNL A   1      41.448  29.277  32.179  1.00  0.00    -0.354 N 
ATOM     53  N   UNL A   1      41.159  31.114  34.451  1.00  0.00    -0.248 NA
ATOM     54  C   UNL A   1      41.793  31.810  36.587  1.00  0.00     0.031 C 
ATOM     55  C   UNL A   1      43.116  27.809  32.220  1.00  0.00     0.029 A 
ATOM     56  C   UNL A   1      42.514  28.827  32.942  1.00  0.00     0.049 A 
ATOM     57  H   UNL A   1      40.831  29.999  32.440  1.00  0.00     0.167 HD
ATOM     58  C   UNL A   1      42.248  30.362  34.871  1.00  0.00     0.074 A 
ATOM     59  C   UNL A   1      42.621  30.861  36.178  1.00  0.00     0.031 C 
ATOM     60  C   UNL A   1      42.883  29.349  34.233  1.00  0.00     0.037 A 
BRANCH  47  61
ATOM     61  C   UNL A   1      40.371  27.793  28.817  1.00  0.00     0.064 A 
ATOM     62  C   UNL A   1      41.107  28.058  27.653  1.00  0.00     0.173 A 
ATOM     63  C   UNL A   1      39.678  26.575  28.891  1.00  0.00     0.173 A 
ATOM     64  F   UNL A   1      41.778  29.212  27.526  1.00  0.00    -0.203 F 
ATOM     65  C   UNL A   1      41.134  27.147  26.600  1.00  0.00     0.198 A 
ATOM     66  C   UNL A   1      39.734  25.652  27.850  1.00  0.00     0.198 A 
ATOM     67  F   UNL A   1      38.961  26.268  29.984  1.00  0.00    -0.203 F 
ATOM     68  F   UNL A   1      41.812  27.439  25.481  1.00  0.00    -0.200 F 
ATOM     69  C   UNL A   1      40.456  25.941  26.703  1.00  0.00     0.200 A 
ATOM     70  F   UNL A   1      39.091  24.481  27.959  1.00  0.00    -0.200 F 
ATOM     71  F   UNL A   1      40.499  25.058  25.696  1.00  0.00    -0.200 F 
ENDBRANCH  47  61
BRANCH  48  72
ATOM     72  C   UNL A   1      39.763  33.914  36.699  1.00  0.00     0.064 A 
ATOM     73  C   UNL A   1      38.970  33.543  37.793  1.00  0.00     0.173 A 
ATOM     74  C   UNL A   1      40.422  35.151  36.764  1.00  0.00     0.173 A 
ATOM     75  F   UNL A   1      38.305  32.378  37.773  1.00  0.00    -0.203 F 
ATOM     76  C   UNL A   1      38.806  34.390  38.888  1.00  0.00     0.198 A 
ATOM     77  C   UNL A   1      40.287  35.982  37.874  1.00  0.00     0.198 A 
ATOM     78  F   UNL A   1      41.200  35.553  35.748  1.00  0.00    -0.203 F 
ATOM     79  F   UNL A   1      37.988  34.039  39.888  1.00  0.00    -0.200 F 
ATOM     80  C   UNL A   1      39.468  35.608  38.928  1.00  0.00     0.200 A 
ATOM     81  F   UNL A   1      40.942  37.151  37.916  1.00  0.00    -0.200 F 
ATOM     82  F   UNL A   1      39.305  36.426  39.977  1.00  0.00    -0.200 F 
ENDBRANCH  48  72
BRANCH  60  83
ATOM     83  C   UNL A   1      44.078  28.744  34.913  1.00  0.00     0.064 A 
ATOM     84  C   UNL A   1      43.964  27.633  35.760  1.00  0.00     0.173 A 
ATOM     85  C   UNL A   1      45.361  29.261  34.675  1.00  0.00     0.173 A 
ATOM     86  F   UNL A   1      42.759  27.110  36.031  1.00  0.00    -0.203 F 
ATOM     87  C   UNL A   1      45.089  27.079  36.368  1.00  0.00     0.198 A 
ATOM     88  C   UNL A   1      46.487  28.683  35.256  1.00  0.00     0.198 A 
ATOM     89  F   UNL A   1      45.527  30.319  33.867  1.00  0.00    -0.203 F 
ATOM     90  F   UNL A   1      44.950  26.051  37.216  1.00  0.00    -0.200 F 
ATOM     91  C   UNL A   1      46.349  27.598  36.108  1.00  0.00     0.200 A 
ATOM     92  F   UNL A   1      47.704  29.174  34.988  1.00  0.00    -0.200 F 
ATOM     93  F   UNL A   1      47.429  27.056  36.685  1.00  0.00    -0.200 F 
ENDBRANCH  60  83
ENDBRANCH  34  35
ENDBRANCH  26  29
ENDBRANCH  24  25
ENDBRANCH  23  24
ENDBRANCH  22  23
ENDBRANCH  21  22
ENDBRANCH   1  21
TORSDOF 18
ENDMDL
MODEL 2
REMARK VINA RESULT:     -10.5      6.526     11.223
REMARK SMILES CC(C)C[N@@H+](C[C@@H](C)C(=O)NCCCCCCNC(=O)c1ccc(-c2c3nc(c(-c4c(F)c(F)c(F)c(F)c4F)c4ccc([nH]4)c(-c4c(F)c(F)c(F)c(F)c4F)c4nc(c(-c5c(F)c(F)c(F)c(F)c5F)c5ccc2[nH]5)C=C4)C=C3)cc1)C1CCCC1
REMARK SMILES IDX 13 1 12 2 11 3 9 4 10 5 7 7 8 8 6 9 5 10 4 12 2 13 1 14 3 15
REMARK SMILES IDX 84 16 85 17 88 18 86 19 87 20 14 21 15 22 16 23 17 24 18 25
REMARK SMILES IDX 19 26 20 28 21 29 22 30 83 31 23 32 82 33 24 34 25 35 26 36
REMARK SMILES IDX 76 37 27 38 81 39 75 40 77 41 28 42 80 43 74 44 73 45 29 47
REMARK SMILES IDX 61 48 41 49 60 50 42 51 45 52 59 53 78 54 43 55 44 56 58 58
REMARK SMILES IDX 79 59 46 60 30 61 31 62 39 63 32 64 33 65 37 66 40 67 34 68
REMARK SMILES IDX 35 69 38 70 36 71 62 72 63 73 71 74 64 75 65 76 69 77 72 78
REMARK SMILES IDX 66 79 67 80 70 81 68 82 47 83 48 84 56 85 49 86 50 87 54 88
REMARK SMILES IDX 57 89 51 90 52 91 55 92 53 93
REMARK H PARENT 11 6 5 11 18 27 77 46 45 57
REMARK Flexibility Score: inf
ROOT
ATOM      1  C   UNL A   1      40.573  22.426  26.671  1.00  0.00     0.021 C 
ENDROOT
BRANCH   1   2
ATOM      2  C   UNL A   1      39.198  21.795  26.495  1.00  0.00     0.116 C 
BRANCH   2   3
ATOM      3  N   UNL A   1      38.488  22.415  25.396  1.00  0.00    -0.356 N 
ATOM      4  C   UNL A   1      37.414  21.966  24.687  1.00  0.00     0.228 C 
ATOM      5  O   UNL A   1      37.006  22.662  23.755  1.00  0.00    -0.275 OA
ATOM      6  H   UNL A   1      38.832  23.295  25.120  1.00  0.00     0.163 HD
BRANCH   4   7
ATOM      7  C   UNL A   1      36.705  20.669  25.074  1.00  0.00     0.130 C 
ATOM      8  C   UNL A   1      37.599  19.511  24.634  1.00  0.00     0.024 C 
BRANCH   7   9
ATOM      9  C   UNL A   1      35.218  20.712  24.626  1.00  0.00     0.275 C 
BRANCH   9  10
ATOM     10  N   UNL A   1      34.155  20.001  25.365  1.00  0.00    -0.332 N 
ATOM     11  H   UNL A   1      34.667  19.495  26.088  1.00  0.00     0.348 HD
BRANCH  10  12
ATOM     12  C   UNL A   1      33.500  18.964  24.551  1.00  0.00     0.265 C 
BRANCH  12  13
ATOM     13  C   UNL A   1      34.076  17.518  24.576  1.00  0.00     0.038 C 
ATOM     14  C   UNL A   1      33.350  16.520  25.479  1.00  0.00     0.013 C 
ATOM     15  C   UNL A   1      34.027  16.951  23.147  1.00  0.00     0.013 C 
ENDBRANCH  12  13
ENDBRANCH  10  12
BRANCH  10  16
ATOM     16  C   UNL A   1      33.312  20.764  26.287  1.00  0.00     0.184 C 
ATOM     17  C   UNL A   1      33.984  21.695  27.309  1.00  0.00     0.065 C 
ATOM     18  C   UNL A   1      32.166  21.588  25.675  1.00  0.00     0.065 C 
ATOM     19  C   UNL A   1      32.868  22.628  27.755  1.00  0.00     0.006 C 
ATOM     20  C   UNL A   1      32.040  22.862  26.503  1.00  0.00     0.006 C 
ENDBRANCH  10  16
ENDBRANCH   9  10
ENDBRANCH   7   9
ENDBRANCH   4   7
ENDBRANCH   2   3
ENDBRANCH   1   2
BRANCH   1  21
ATOM     21  C   UNL A   1      41.703  21.483  26.257  1.00  0.00     0.002 C 
BRANCH  21  22
ATOM     22  C   UNL A   1      42.035  20.410  27.301  1.00  0.00     0.002 C 
BRANCH  22  23
ATOM     23  C   UNL A   1      42.638  19.125  26.724  1.00  0.00     0.021 C 
BRANCH  23  24
ATOM     24  C   UNL A   1      42.679  19.094  25.202  1.00  0.00     0.116 C 
BRANCH  24  25
ATOM     25  N   UNL A   1      43.985  18.684  24.711  1.00  0.00    -0.352 N 
ATOM     26  C   UNL A   1      45.077  19.455  24.408  1.00  0.00     0.251 C 
ATOM     27  H   UNL A   1      44.102  17.716  24.578  1.00  0.00     0.163 HD
ATOM     28  O   UNL A   1      46.018  18.985  23.783  1.00  0.00    -0.269 OA
BRANCH  26  29
ATOM     29  C   UNL A   1      45.099  20.866  24.837  1.00  0.00     0.039 A 
ATOM     30  C   UNL A   1      45.547  21.176  26.123  1.00  0.00     0.014 A 
ATOM     31  C   UNL A   1      44.680  21.876  23.966  1.00  0.00     0.014 A 
ATOM     32  C   UNL A   1      45.621  22.511  26.518  1.00  0.00     0.010 A 
ATOM     33  C   UNL A   1      44.829  23.207  24.333  1.00  0.00     0.010 A 
ATOM     34  C   UNL A   1      45.293  23.537  25.617  1.00  0.00    -0.014 A 
BRANCH  34  35
ATOM     35  C   UNL A   1      45.422  24.965  25.999  1.00  0.00     0.031 A 
ATOM     36  C   UNL A   1      46.761  25.643  25.921  1.00  0.00     0.074 A 
ATOM     37  C   UNL A   1      44.349  25.624  26.475  1.00  0.00     0.049 A 
ATOM     38  N   UNL A   1      47.093  26.860  26.272  1.00  0.00    -0.248 NA
ATOM     39  C   UNL A   1      47.884  24.843  25.405  1.00  0.00     0.031 C 
ATOM     40  C   UNL A   1      43.010  25.054  26.638  1.00  0.00     0.029 A 
ATOM     41  N   UNL A   1      44.216  26.915  26.921  1.00  0.00    -0.354 N 
ATOM     42  C   UNL A   1      48.458  26.960  26.041  1.00  0.00     0.074 A 
ATOM     43  C   UNL A   1      48.906  25.671  25.563  1.00  0.00     0.031 C 
ATOM     44  C   UNL A   1      42.187  25.997  27.124  1.00  0.00     0.029 A 
ATOM     45  C   UNL A   1      42.948  27.221  27.352  1.00  0.00     0.049 A 
ATOM     46  H   UNL A   1      44.960  27.560  26.932  1.00  0.00     0.167 HD
ATOM     47  C   UNL A   1      49.261  28.040  26.197  1.00  0.00     0.037 A 
ATOM     48  C   UNL A   1      42.460  28.359  27.880  1.00  0.00     0.037 A 
ATOM     49  C   UNL A   1      48.800  29.329  26.638  1.00  0.00     0.049 A 
ATOM     50  C   UNL A   1      43.383  29.538  28.050  1.00  0.00     0.074 A 
ATOM     51  C   UNL A   1      49.515  30.509  26.747  1.00  0.00     0.029 A 
ATOM     52  N   UNL A   1      47.506  29.607  27.052  1.00  0.00    -0.354 N 
ATOM     53  N   UNL A   1      44.652  29.650  27.742  1.00  0.00    -0.248 NA
ATOM     54  C   UNL A   1      42.801  30.754  28.638  1.00  0.00     0.031 C 
ATOM     55  C   UNL A   1      48.673  31.483  27.288  1.00  0.00     0.029 A 
ATOM     56  C   UNL A   1      47.413  30.930  27.453  1.00  0.00     0.049 A 
ATOM     57  H   UNL A   1      46.763  28.960  27.060  1.00  0.00     0.167 HD
ATOM     58  C   UNL A   1      45.009  30.953  28.061  1.00  0.00     0.074 A 
ATOM     59  C   UNL A   1      43.819  31.599  28.572  1.00  0.00     0.031 C 
ATOM     60  C   UNL A   1      46.214  31.562  27.942  1.00  0.00     0.037 A 
BRANCH  47  61
ATOM     61  C   UNL A   1      50.723  27.881  25.896  1.00  0.00     0.064 A 
ATOM     62  C   UNL A   1      51.660  27.598  26.900  1.00  0.00     0.173 A 
ATOM     63  C   UNL A   1      51.181  27.947  24.571  1.00  0.00     0.173 A 
ATOM     64  F   UNL A   1      51.277  27.534  28.184  1.00  0.00    -0.203 F 
ATOM     65  C   UNL A   1      53.004  27.406  26.591  1.00  0.00     0.198 A 
ATOM     66  C   UNL A   1      52.520  27.722  24.262  1.00  0.00     0.198 A 
ATOM     67  F   UNL A   1      50.327  28.210  23.571  1.00  0.00    -0.203 F 
ATOM     68  F   UNL A   1      53.889  27.176  27.572  1.00  0.00    -0.200 F 
ATOM     69  C   UNL A   1      53.432  27.458  25.273  1.00  0.00     0.200 A 
ATOM     70  F   UNL A   1      52.927  27.757  22.986  1.00  0.00    -0.200 F 
ATOM     71  F   UNL A   1      54.723  27.254  24.976  1.00  0.00    -0.200 F 
ENDBRANCH  47  61
BRANCH  48  72
ATOM     72  C   UNL A   1      41.031  28.452  28.283  1.00  0.00     0.064 A 
ATOM     73  C   UNL A   1      40.064  28.953  27.400  1.00  0.00     0.173 A 
ATOM     74  C   UNL A   1      40.607  28.083  29.569  1.00  0.00     0.173 A 
ATOM     75  F   UNL A   1      40.421  29.337  26.165  1.00  0.00    -0.203 F 
ATOM     76  C   UNL A   1      38.738  29.117  27.797  1.00  0.00     0.198 A 
ATOM     77  C   UNL A   1      39.275  28.214  29.954  1.00  0.00     0.198 A 
ATOM     78  F   UNL A   1      41.489  27.591  30.452  1.00  0.00    -0.203 F 
ATOM     79  F   UNL A   1      37.851  29.662  26.955  1.00  0.00    -0.200 F 
ATOM     80  C   UNL A   1      38.344  28.745  29.073  1.00  0.00     0.200 A 
ATOM     81  F   UNL A   1      38.895  27.836  31.182  1.00  0.00    -0.200 F 
ATOM     82  F   UNL A   1      37.072  28.909  29.459  1.00  0.00    -0.200 F 
ENDBRANCH  48  72
BRANCH  60  83
ATOM     83  C   UNL A   1      46.297  33.013  28.323  1.00  0.00     0.064 A 
ATOM     84  C   UNL A   1      46.051  34.036  27.396  1.00  0.00     0.173 A 
ATOM     85  C   UNL A   1      46.586  33.379  29.646  1.00  0.00     0.173 A 
ATOM     86  F   UNL A   1      45.786  33.740  26.115  1.00  0.00    -0.203 F 
ATOM     87  C   UNL A   1      46.119  35.375  27.775  1.00  0.00     0.198 A 
ATOM     88  C   UNL A   1      46.618  34.717  30.030  1.00  0.00     0.198 A 
ATOM     89  F   UNL A   1      46.822  32.438  30.574  1.00  0.00    -0.203 F 
ATOM     90  F   UNL A   1      45.933  36.337  26.862  1.00  0.00    -0.200 F 
ATOM     91  C   UNL A   1      46.393  35.714  29.092  1.00  0.00     0.200 A 
ATOM     92  F   UNL A   1      46.863  35.040  31.307  1.00  0.00    -0.200 F 
ATOM     93  F   UNL A   1      46.446  37.002  29.457  1.00  0.00    -0.200 F 
ENDBRANCH  60  83
ENDBRANCH  34  35
ENDBRANCH  26  29
ENDBRANCH  24  25
ENDBRANCH  23  24
ENDBRANCH  22  23
ENDBRANCH  21  22
ENDBRANCH   1  21
TORSDOF 18
ENDMDL
MODEL 3
REMARK VINA RESULT:     -10.4      1.010      2.307
REMARK SMILES CC(C)C[N@@H+](C[C@@H](C)C(=O)NCCCCCCNC(=O)c1ccc(-c2c3nc(c(-c4c(F)c(F)c(F)c(F)c4F)c4ccc([nH]4)c(-c4c(F)c(F)c(F)c(F)c4F)c4nc(c(-c5c(F)c(F)c(F)c(F)c5F)c5ccc2[nH]5)C=C4)C=C3)cc1)C1CCCC1
REMARK SMILES IDX 13 1 12 2 11 3 9 4 10 5 7 7 8 8 6 9 5 10 4 12 2 13 1 14 3 15
REMARK SMILES IDX 84 16 85 17 88 18 86 19 87 20 14 21 15 22 16 23 17 24 18 25
REMARK SMILES IDX 19 26 20 28 21 29 22 30 83 31 23 32 82 33 24 34 25 35 26 36
REMARK SMILES IDX 76 37 27 38 81 39 75 40 77 41 28 42 80 43 74 44 73 45 29 47
REMARK SMILES IDX 61 48 41 49 60 50 42 51 45 52 59 53 78 54 43 55 44 56 58 58
REMARK SMILES IDX 79 59 46 60 30 61 31 62 39 63 32 64 33 65 37 66 40 67 34 68
REMARK SMILES IDX 35 69 38 70 36 71 62 72 63 73 71 74 64 75 65 76 69 77 72 78
REMARK SMILES IDX 66 79 67 80 70 81 68 82 47 83 48 84 56 85 49 86 50 87 54 88
REMARK SMILES IDX 57 89 51 90 52 91 55 92 53 93
REMARK H PARENT 11 6 5 11 18 27 77 46 45 57
REMARK Flexibility Score: inf
ROOT
ATOM      1  C   UNL A   1      33.616  29.793  26.902  1.00  0.00     0.021 C 
ENDROOT
BRANCH   1   2
ATOM      2  C   UNL A   1      34.044  28.588  26.074  1.00  0.00     0.116 C 
BRANCH   2   3
ATOM      3  N   UNL A   1      34.105  28.928  24.669  1.00  0.00    -0.356 N 
ATOM      4  C   UNL A   1      33.725  28.205  23.578  1.00  0.00     0.228 C 
ATOM      5  O   UNL A   1      33.918  28.696  22.464  1.00  0.00    -0.275 OA
ATOM      6  H   UNL A   1      34.478  29.817  24.470  1.00  0.00     0.163 HD
BRANCH   4   7
ATOM      7  C   UNL A   1      33.029  26.854  23.736  1.00  0.00     0.130 C 
ATOM      8  C   UNL A   1      31.727  27.097  24.498  1.00  0.00     0.024 C 
BRANCH   7   9
ATOM      9  C   UNL A   1      34.034  25.784  24.244  1.00  0.00     0.275 C 
BRANCH   9  10
ATOM     10  N   UNL A   1      34.318  24.550  23.484  1.00  0.00    -0.332 N 
ATOM     11  H   UNL A   1      35.012  24.848  22.799  1.00  0.00     0.348 HD
BRANCH  10  12
ATOM     12  C   UNL A   1      33.161  24.096  22.695  1.00  0.00     0.265 C 
BRANCH  12  13
ATOM     13  C   UNL A   1      32.089  23.201  23.384  1.00  0.00     0.038 C 
ATOM     14  C   UNL A   1      30.651  23.718  23.338  1.00  0.00     0.013 C 
ATOM     15  C   UNL A   1      32.095  21.823  22.699  1.00  0.00     0.013 C 
ENDBRANCH  12  13
ENDBRANCH  10  12
BRANCH  10  16
ATOM     16  C   UNL A   1      35.154  23.521  24.104  1.00  0.00     0.184 C 
ATOM     17  C   UNL A   1      36.368  22.984  23.328  1.00  0.00     0.065 C 
ATOM     18  C   UNL A   1      35.669  23.797  25.528  1.00  0.00     0.065 C 
ATOM     19  C   UNL A   1      37.228  22.320  24.393  1.00  0.00     0.006 C 
ATOM     20  C   UNL A   1      37.069  23.201  25.621  1.00  0.00     0.006 C 
ENDBRANCH  10  16
ENDBRANCH   9  10
ENDBRANCH   7   9
ENDBRANCH   4   7
ENDBRANCH   2   3
ENDBRANCH   1   2
BRANCH   1  21
ATOM     21  C   UNL A   1      32.098  29.879  27.064  1.00  0.00     0.002 C 
BRANCH  21  22
ATOM     22  C   UNL A   1      31.421  30.852  26.090  1.00  0.00     0.002 C 
BRANCH  22  23
ATOM     23  C   UNL A   1      31.303  32.289  26.605  1.00  0.00     0.021 C 
BRANCH  23  24
ATOM     24  C   UNL A   1      32.637  32.916  26.991  1.00  0.00     0.116 C 
BRANCH  24  25
ATOM     25  N   UNL A   1      32.455  34.222  27.606  1.00  0.00    -0.352 N 
ATOM     26  C   UNL A   1      33.063  34.750  28.714  1.00  0.00     0.251 C 
ATOM     27  H   UNL A   1      31.802  34.810  27.163  1.00  0.00     0.163 HD
ATOM     28  O   UNL A   1      32.630  35.766  29.241  1.00  0.00    -0.269 OA
BRANCH  26  29
ATOM     29  C   UNL A   1      34.246  34.069  29.275  1.00  0.00     0.039 A 
ATOM     30  C   UNL A   1      35.518  34.533  28.936  1.00  0.00     0.014 A 
ATOM     31  C   UNL A   1      34.092  32.977  30.135  1.00  0.00     0.014 A 
ATOM     32  C   UNL A   1      36.640  33.929  29.502  1.00  0.00     0.010 A 
ATOM     33  C   UNL A   1      35.206  32.429  30.757  1.00  0.00     0.010 A 
ATOM     34  C   UNL A   1      36.492  32.894  30.440  1.00  0.00    -0.014 A 
BRANCH  34  35
ATOM     35  C   UNL A   1      37.671  32.280  31.099  1.00  0.00     0.031 A 
ATOM     36  C   UNL A   1      38.439  31.194  30.399  1.00  0.00     0.074 A 
ATOM     37  C   UNL A   1      38.003  32.657  32.348  1.00  0.00     0.049 A 
ATOM     38  N   UNL A   1      39.452  30.488  30.832  1.00  0.00    -0.248 NA
ATOM     39  C   UNL A   1      37.995  30.832  29.043  1.00  0.00     0.031 C 
ATOM     40  C   UNL A   1      37.303  33.668  33.141  1.00  0.00     0.029 A 
ATOM     41  N   UNL A   1      39.010  32.225  33.175  1.00  0.00    -0.354 N 
ATOM     42  C   UNL A   1      39.749  29.591  29.816  1.00  0.00     0.074 A 
ATOM     43  C   UNL A   1      38.784  29.806  28.762  1.00  0.00     0.031 C 
ATOM     44  C   UNL A   1      37.915  33.796  34.330  1.00  0.00     0.029 A 
ATOM     45  C   UNL A   1      39.020  32.845  34.401  1.00  0.00     0.049 A 
ATOM     46  H   UNL A   1      39.663  31.536  32.914  1.00  0.00     0.167 HD
ATOM     47  C   UNL A   1      40.751  28.681  29.762  1.00  0.00     0.037 A 
ATOM     48  C   UNL A   1      39.823  32.657  35.464  1.00  0.00     0.037 A 
ATOM     49  C   UNL A   1      41.730  28.498  30.801  1.00  0.00     0.049 A 
ATOM     50  C   UNL A   1      40.922  31.630  35.375  1.00  0.00     0.074 A 
ATOM     51  C   UNL A   1      42.835  27.665  30.807  1.00  0.00     0.029 A 
ATOM     52  N   UNL A   1      41.718  29.155  32.022  1.00  0.00    -0.354 N 
ATOM     53  N   UNL A   1      41.251  30.851  34.374  1.00  0.00    -0.248 NA
ATOM     54  C   UNL A   1      41.767  31.460  36.567  1.00  0.00     0.031 C 
ATOM     55  C   UNL A   1      43.453  27.768  32.055  1.00  0.00     0.029 A 
ATOM     56  C   UNL A   1      42.774  28.715  32.805  1.00  0.00     0.049 A 
ATOM     57  H   UNL A   1      41.056  29.832  32.295  1.00  0.00     0.167 HD
ATOM     58  C   UNL A   1      42.359  30.130  34.798  1.00  0.00     0.074 A 
ATOM     59  C   UNL A   1      42.656  30.575  36.143  1.00  0.00     0.031 C 
ATOM     60  C   UNL A   1      43.067  29.184  34.135  1.00  0.00     0.037 A 
BRANCH  47  61
ATOM     61  C   UNL A   1      40.845  27.805  28.547  1.00  0.00     0.064 A 
ATOM     62  C   UNL A   1      40.180  26.573  28.468  1.00  0.00     0.173 A 
ATOM     63  C   UNL A   1      41.558  28.239  27.418  1.00  0.00     0.173 A 
ATOM     64  F   UNL A   1      39.493  26.107  29.522  1.00  0.00    -0.203 F 
ATOM     65  C   UNL A   1      40.240  25.799  27.312  1.00  0.00     0.198 A 
ATOM     66  C   UNL A   1      41.589  27.478  26.252  1.00  0.00     0.198 A 
ATOM     67  F   UNL A   1      42.208  29.412  27.437  1.00  0.00    -0.203 F 
ATOM     68  F   UNL A   1      39.629  24.606  27.273  1.00  0.00    -0.200 F 
ATOM     69  C   UNL A   1      40.936  26.256  26.202  1.00  0.00     0.200 A 
ATOM     70  F   UNL A   1      42.248  27.929  25.177  1.00  0.00    -0.200 F 
ATOM     71  F   UNL A   1      40.977  25.519  25.084  1.00  0.00    -0.200 F 
ENDBRANCH  47  61
BRANCH  48  72
ATOM     72  C   UNL A   1      39.633  33.457  36.704  1.00  0.00     0.064 A 
ATOM     73  C   UNL A   1      38.732  33.045  37.696  1.00  0.00     0.173 A 
ATOM     74  C   UNL A   1      40.314  34.667  36.907  1.00  0.00     0.173 A 
ATOM     75  F   UNL A   1      38.042  31.905  37.541  1.00  0.00    -0.203 F 
ATOM     76  C   UNL A   1      38.489  33.829  38.822  1.00  0.00     0.198 A 
ATOM     77  C   UNL A   1      40.097  35.433  38.051  1.00  0.00     0.198 A 
ATOM     78  F   UNL A   1      41.193  35.105  35.994  1.00  0.00    -0.203 F 
ATOM     79  F   UNL A   1      37.572  33.443  39.719  1.00  0.00    -0.200 F 
ATOM     80  C   UNL A   1      39.174  35.021  39.001  1.00  0.00     0.200 A 
ATOM     81  F   UNL A   1      40.775  36.575  38.227  1.00  0.00    -0.200 F 
ATOM     82  F   UNL A   1      38.936  35.778  40.080  1.00  0.00    -0.200 F 
ENDBRANCH  48  72
BRANCH  60  83
ATOM     83  C   UNL A   1      44.263  28.600  34.831  1.00  0.00     0.064 A 
ATOM     84  C   UNL A   1      45.527  29.204  34.761  1.00  0.00     0.173 A 
ATOM     85  C   UNL A   1      44.129  27.443  35.614  1.00  0.00     0.173 A 
ATOM     86  F   UNL A   1      45.712  30.303  34.014  1.00  0.00    -0.203 F 
ATOM     87  C   UNL A   1      46.620  28.654  35.427  1.00  0.00     0.198 A 
ATOM     88  C   UNL A   1      45.215  26.916  36.307  1.00  0.00     0.198 A 
ATOM     89  F   UNL A   1      42.940  26.831  35.720  1.00  0.00    -0.203 F 
ATOM     90  F   UNL A   1      47.829  29.216  35.302  1.00  0.00    -0.200 F 
ATOM     91  C   UNL A   1      46.461  27.517  36.206  1.00  0.00     0.200 A 
ATOM     92  F   UNL A   1      45.055  25.830  37.074  1.00  0.00    -0.200 F 
ATOM     93  F   UNL A   1      47.511  26.996  36.855  1.00  0.00    -0.200 F 
ENDBRANCH  60  83
ENDBRANCH  34  35
ENDBRANCH  26  29
ENDBRANCH  24  25
ENDBRANCH  23  24
ENDBRANCH  22  23
ENDBRANCH  21  22
ENDBRANCH   1  21
TORSDOF 18
ENDMDL
