MODEL 1
REMARK VINA RESULT:     -10.1      0.000      0.000
REMARK SMILES C[C@@H](OCC(F)(F)F)C(=O)NCCCCCCNC(=O)c1ccc(-c2c3nc(c(-c4c(F)c(F)c(F)c(F)c4F)c4ccc([nH]4)c(-c4c(F)c(F)c(F)c(F)c4F)c4nc(c(-c5c(F)c(F)c(F)c(F)c5F)c5ccc2[nH]5)C=C4)C=C3)cc1
REMARK SMILES IDX 14 1 13 2 12 3 11 4 9 5 10 6 2 8 1 9 3 10 4 11 5 12 6 13
REMARK SMILES IDX 7 14 8 15 15 16 16 17 17 18 18 19 19 20 20 22 21 23 22 24
REMARK SMILES IDX 83 25 23 26 82 27 24 28 25 29 26 30 76 31 27 32 81 33 75 34
REMARK SMILES IDX 77 35 28 36 80 37 74 38 73 39 29 41 61 42 41 43 60 44 42 45
REMARK SMILES IDX 45 46 59 47 78 48 43 49 44 50 58 52 79 53 46 54 30 55 31 56
REMARK SMILES IDX 39 57 32 58 33 59 37 60 40 61 34 62 35 63 38 64 36 65 62 66
REMARK SMILES IDX 63 67 71 68 64 69 65 70 69 71 72 72 66 73 67 74 70 75 68 76
REMARK SMILES IDX 47 77 48 78 56 79 49 80 50 81 54 82 57 83 51 84 52 85 55 86
REMARK SMILES IDX 53 87
REMARK H PARENT 11 7 18 21 77 40 45 51
REMARK Flexibility Score: inf
ROOT
ATOM      1  C   UNL A   1      34.477  32.452  29.292  1.00  0.00     0.002 C 
ENDROOT
BRANCH   1   2
ATOM      2  C   UNL A   1      34.677  31.601  28.031  1.00  0.00     0.021 C 
BRANCH   2   3
ATOM      3  C   UNL A   1      33.377  31.045  27.450  1.00  0.00     0.116 C 
BRANCH   3   4
ATOM      4  N   UNL A   1      33.391  29.595  27.469  1.00  0.00    -0.354 N 
ATOM      5  C   UNL A   1      33.175  28.711  26.453  1.00  0.00     0.248 C 
ATOM      6  O   UNL A   1      33.136  27.509  26.733  1.00  0.00    -0.272 OA
ATOM      7  H   UNL A   1      33.586  29.190  28.344  1.00  0.00     0.163 HD
BRANCH   5   8
ATOM      8  C   UNL A   1      32.960  29.200  25.010  1.00  0.00     0.204 C 
ATOM      9  C   UNL A   1      33.641  28.264  24.014  1.00  0.00     0.049 C 
BRANCH   8  10
ATOM     10  O   UNL A   1      31.560  29.362  24.773  1.00  0.00    -0.359 OA
BRANCH  10  11
ATOM     11  C   UNL A   1      31.055  28.860  23.529  1.00  0.00     0.276 C 
BRANCH  11  12
ATOM     12  C   UNL A   1      29.806  29.531  22.959  1.00  0.00     0.411 C 
ATOM     13  F   UNL A   1      28.765  28.670  22.898  1.00  0.00    -0.168 F 
ATOM     14  F   UNL A   1      29.425  30.560  23.753  1.00  0.00    -0.168 F 
ATOM     15  F   UNL A   1      30.017  30.023  21.722  1.00  0.00    -0.168 F 
ENDBRANCH  11  12
ENDBRANCH  10  11
ENDBRANCH   8  10
ENDBRANCH   5   8
ENDBRANCH   3   4
ENDBRANCH   2   3
ENDBRANCH   1   2
BRANCH   1  16
ATOM     16  C   UNL A   1      34.617  33.962  29.078  1.00  0.00     0.002 C 
BRANCH  16  17
ATOM     17  C   UNL A   1      33.301  34.740  29.110  1.00  0.00     0.021 C 
BRANCH  17  18
ATOM     18  C   UNL A   1      33.429  36.167  29.629  1.00  0.00     0.116 C 
BRANCH  18  19
ATOM     19  N   UNL A   1      32.511  36.434  30.725  1.00  0.00    -0.352 N 
ATOM     20  C   UNL A   1      32.521  35.929  32.000  1.00  0.00     0.251 C 
ATOM     21  H   UNL A   1      31.781  37.063  30.525  1.00  0.00     0.163 HD
ATOM     22  O   UNL A   1      31.561  36.099  32.748  1.00  0.00    -0.269 OA
BRANCH  20  23
ATOM     23  C   UNL A   1      33.693  35.160  32.467  1.00  0.00     0.039 A 
ATOM     24  C   UNL A   1      33.519  33.835  32.873  1.00  0.00     0.014 A 
ATOM     25  C   UNL A   1      34.960  35.747  32.494  1.00  0.00     0.014 A 
ATOM     26  C   UNL A   1      34.630  33.079  33.253  1.00  0.00     0.010 A 
ATOM     27  C   UNL A   1      36.073  34.971  32.797  1.00  0.00     0.010 A 
ATOM     28  C   UNL A   1      35.920  33.631  33.187  1.00  0.00    -0.014 A 
BRANCH  28  29
ATOM     29  C   UNL A   1      37.124  32.837  33.540  1.00  0.00     0.031 A 
ATOM     30  C   UNL A   1      37.852  33.118  34.827  1.00  0.00     0.074 A 
ATOM     31  C   UNL A   1      37.604  31.921  32.675  1.00  0.00     0.049 A 
ATOM     32  N   UNL A   1      38.980  32.621  35.267  1.00  0.00    -0.248 NA
ATOM     33  C   UNL A   1      37.244  34.112  35.727  1.00  0.00     0.031 C 
ATOM     34  C   UNL A   1      37.008  31.584  31.382  1.00  0.00     0.029 A 
ATOM     35  N   UNL A   1      38.715  31.117  32.747  1.00  0.00    -0.354 N 
ATOM     36  C   UNL A   1      39.225  33.255  36.478  1.00  0.00     0.074 A 
ATOM     37  C   UNL A   1      38.156  34.207  36.684  1.00  0.00     0.031 C 
ATOM     38  C   UNL A   1      37.750  30.635  30.789  1.00  0.00     0.029 A 
ATOM     39  C   UNL A   1      38.898  30.328  31.637  1.00  0.00     0.049 A 
ATOM     40  H   UNL A   1      39.323  31.107  33.522  1.00  0.00     0.167 HD
ATOM     41  C   UNL A   1      40.239  33.045  37.349  1.00  0.00     0.037 A 
ATOM     42  C   UNL A   1      39.890  29.471  31.331  1.00  0.00     0.037 A 
ATOM     43  C   UNL A   1      41.280  32.071  37.156  1.00  0.00     0.049 A 
ATOM     44  C   UNL A   1      41.015  29.270  32.315  1.00  0.00     0.074 A 
ATOM     45  C   UNL A   1      42.316  31.738  38.011  1.00  0.00     0.029 A 
ATOM     46  N   UNL A   1      41.417  31.272  36.031  1.00  0.00    -0.354 N 
ATOM     47  N   UNL A   1      41.199  29.826  33.488  1.00  0.00    -0.248 NA
ATOM     48  C   UNL A   1      42.067  28.316  31.936  1.00  0.00     0.031 C 
ATOM     49  C   UNL A   1      43.114  30.779  37.379  1.00  0.00     0.029 A 
ATOM     50  C   UNL A   1      42.536  30.466  36.160  1.00  0.00     0.049 A 
ATOM     51  H   UNL A   1      40.809  31.278  35.256  1.00  0.00     0.167 HD
ATOM     52  C   UNL A   1      42.358  29.259  34.002  1.00  0.00     0.074 A 
ATOM     53  C   UNL A   1      42.830  28.310  33.018  1.00  0.00     0.031 C 
ATOM     54  C   UNL A   1      42.974  29.502  35.184  1.00  0.00     0.037 A 
BRANCH  41  55
ATOM     55  C   UNL A   1      40.281  33.878  38.597  1.00  0.00     0.064 A 
ATOM     56  C   UNL A   1      39.633  33.475  39.774  1.00  0.00     0.173 A 
ATOM     57  C   UNL A   1      41.038  35.059  38.637  1.00  0.00     0.173 A 
ATOM     58  F   UNL A   1      38.886  32.360  39.787  1.00  0.00    -0.203 F 
ATOM     59  C   UNL A   1      39.727  34.231  40.939  1.00  0.00     0.198 A 
ATOM     60  C   UNL A   1      41.157  35.796  39.812  1.00  0.00     0.198 A 
ATOM     61  F   UNL A   1      41.682  35.486  37.541  1.00  0.00    -0.203 F 
ATOM     62  F   UNL A   1      39.069  33.846  42.042  1.00  0.00    -0.200 F 
ATOM     63  C   UNL A   1      40.498  35.384  40.960  1.00  0.00     0.200 A 
ATOM     64  F   UNL A   1      41.915  36.901  39.835  1.00  0.00    -0.200 F 
ATOM     65  F   UNL A   1      40.604  36.100  42.088  1.00  0.00    -0.200 F 
ENDBRANCH  41  55
BRANCH  42  66
ATOM     66  C   UNL A   1      39.877  28.730  30.040  1.00  0.00     0.064 A 
ATOM     67  C   UNL A   1      39.319  27.446  29.951  1.00  0.00     0.173 A 
ATOM     68  C   UNL A   1      40.459  29.266  28.883  1.00  0.00     0.173 A 
ATOM     69  F   UNL A   1      38.767  26.880  31.035  1.00  0.00    -0.203 F 
ATOM     70  C   UNL A   1      39.379  26.713  28.768  1.00  0.00     0.198 A 
ATOM     71  C   UNL A   1      40.488  28.546  27.690  1.00  0.00     0.198 A 
ATOM     72  F   UNL A   1      41.003  30.492  28.909  1.00  0.00    -0.203 F 
ATOM     73  F   UNL A   1      38.900  25.462  28.733  1.00  0.00    -0.200 F 
ATOM     74  C   UNL A   1      39.962  27.265  27.638  1.00  0.00     0.200 A 
ATOM     75  F   UNL A   1      41.038  29.090  26.595  1.00  0.00    -0.200 F 
ATOM     76  F   UNL A   1      40.027  26.557  26.501  1.00  0.00    -0.200 F 
ENDBRANCH  42  66
BRANCH  54  77
ATOM     77  C   UNL A   1      44.189  28.685  35.516  1.00  0.00     0.064 A 
ATOM     78  C   UNL A   1      45.484  29.109  35.181  1.00  0.00     0.173 A 
ATOM     79  C   UNL A   1      44.056  27.486  36.235  1.00  0.00     0.173 A 
ATOM     80  F   UNL A   1      45.665  30.240  34.483  1.00  0.00    -0.203 F 
ATOM     81  C   UNL A   1      46.597  28.350  35.532  1.00  0.00     0.198 A 
ATOM     82  C   UNL A   1      45.174  26.748  36.614  1.00  0.00     0.198 A 
ATOM     83  F   UNL A   1      42.841  27.041  36.588  1.00  0.00    -0.203 F 
ATOM     84  F   UNL A   1      47.822  28.750  35.161  1.00  0.00    -0.200 F 
ATOM     85  C   UNL A   1      46.442  27.177  36.256  1.00  0.00     0.200 A 
ATOM     86  F   UNL A   1      45.022  25.626  37.329  1.00  0.00    -0.200 F 
ATOM     87  F   UNL A   1      47.517  26.457  36.606  1.00  0.00    -0.200 F 
ENDBRANCH  54  77
ENDBRANCH  28  29
ENDBRANCH  20  23
ENDBRANCH  18  19
ENDBRANCH  17  18
ENDBRANCH  16  17
ENDBRANCH   1  16
TORSDOF 16
ENDMDL
MODEL 2
REMARK VINA RESULT:     -10.0      1.816      8.002
REMARK SMILES C[C@@H](OCC(F)(F)F)C(=O)NCCCCCCNC(=O)c1ccc(-c2c3nc(c(-c4c(F)c(F)c(F)c(F)c4F)c4ccc([nH]4)c(-c4c(F)c(F)c(F)c(F)c4F)c4nc(c(-c5c(F)c(F)c(F)c(F)c5F)c5ccc2[nH]5)C=C4)C=C3)cc1
REMARK SMILES IDX 14 1 13 2 12 3 11 4 9 5 10 6 2 8 1 9 3 10 4 11 5 12 6 13
REMARK SMILES IDX 7 14 8 15 15 16 16 17 17 18 18 19 19 20 20 22 21 23 22 24
REMARK SMILES IDX 83 25 23 26 82 27 24 28 25 29 26 30 76 31 27 32 81 33 75 34
REMARK SMILES IDX 77 35 28 36 80 37 74 38 73 39 29 41 61 42 41 43 60 44 42 45
REMARK SMILES IDX 45 46 59 47 78 48 43 49 44 50 58 52 79 53 46 54 30 55 31 56
REMARK SMILES IDX 39 57 32 58 33 59 37 60 40 61 34 62 35 63 38 64 36 65 62 66
REMARK SMILES IDX 63 67 71 68 64 69 65 70 69 71 72 72 66 73 67 74 70 75 68 76
REMARK SMILES IDX 47 77 48 78 56 79 49 80 50 81 54 82 57 83 51 84 52 85 55 86
REMARK SMILES IDX 53 87
REMARK H PARENT 11 7 18 21 77 40 45 51
REMARK Flexibility Score: inf
ROOT
ATOM      1  C   UNL A   1      32.058  29.618  27.234  1.00  0.00     0.002 C 
ENDROOT
BRANCH   1   2
ATOM      2  C   UNL A   1      31.485  28.201  27.104  1.00  0.00     0.021 C 
BRANCH   2   3
ATOM      3  C   UNL A   1      31.899  27.482  25.820  1.00  0.00     0.116 C 
BRANCH   3   4
ATOM      4  N   UNL A   1      30.774  26.767  25.251  1.00  0.00    -0.354 N 
ATOM      5  C   UNL A   1      30.042  27.046  24.134  1.00  0.00     0.248 C 
ATOM      6  O   UNL A   1      29.054  26.343  23.901  1.00  0.00    -0.272 OA
ATOM      7  H   UNL A   1      30.499  25.960  25.743  1.00  0.00     0.163 HD
BRANCH   5   8
ATOM      8  C   UNL A   1      30.423  28.216  23.210  1.00  0.00     0.204 C 
ATOM      9  C   UNL A   1      31.656  27.871  22.380  1.00  0.00     0.049 C 
BRANCH   8  10
ATOM     10  O   UNL A   1      29.288  28.579  22.420  1.00  0.00    -0.359 OA
BRANCH  10  11
ATOM     11  C   UNL A   1      28.303  29.407  23.050  1.00  0.00     0.276 C 
BRANCH  11  12
ATOM     12  C   UNL A   1      28.516  30.919  22.982  1.00  0.00     0.411 C 
ATOM     13  F   UNL A   1      28.990  31.300  21.775  1.00  0.00    -0.168 F 
ATOM     14  F   UNL A   1      27.341  31.565  23.169  1.00  0.00    -0.168 F 
ATOM     15  F   UNL A   1      29.376  31.350  23.927  1.00  0.00    -0.168 F 
ENDBRANCH  11  12
ENDBRANCH  10  11
ENDBRANCH   8  10
ENDBRANCH   5   8
ENDBRANCH   3   4
ENDBRANCH   2   3
ENDBRANCH   1   2
BRANCH   1  16
ATOM     16  C   UNL A   1      31.651  30.582  26.116  1.00  0.00     0.002 C 
BRANCH  16  17
ATOM     17  C   UNL A   1      31.402  32.022  26.568  1.00  0.00     0.021 C 
BRANCH  17  18
ATOM     18  C   UNL A   1      32.594  32.678  27.253  1.00  0.00     0.116 C 
BRANCH  18  19
ATOM     19  N   UNL A   1      32.350  34.083  27.544  1.00  0.00    -0.352 N 
ATOM     20  C   UNL A   1      32.930  34.878  28.500  1.00  0.00     0.251 C 
ATOM     21  H   UNL A   1      31.676  34.523  26.978  1.00  0.00     0.163 HD
ATOM     22  O   UNL A   1      32.472  35.991  28.749  1.00  0.00    -0.269 OA
BRANCH  20  23
ATOM     23  C   UNL A   1      34.105  34.380  29.243  1.00  0.00     0.039 A 
ATOM     24  C   UNL A   1      33.910  33.724  30.461  1.00  0.00     0.014 A 
ATOM     25  C   UNL A   1      35.393  34.554  28.732  1.00  0.00     0.014 A 
ATOM     26  C   UNL A   1      35.008  33.191  31.140  1.00  0.00     0.010 A 
ATOM     27  C   UNL A   1      36.474  33.955  29.368  1.00  0.00     0.010 A 
ATOM     28  C   UNL A   1      36.295  33.274  30.583  1.00  0.00    -0.014 A 
BRANCH  28  29
ATOM     29  C   UNL A   1      37.474  32.675  31.259  1.00  0.00     0.031 A 
ATOM     30  C   UNL A   1      38.211  31.538  30.605  1.00  0.00     0.074 A 
ATOM     31  C   UNL A   1      37.835  33.101  32.485  1.00  0.00     0.049 A 
ATOM     32  N   UNL A   1      39.189  30.805  31.074  1.00  0.00    -0.248 NA
ATOM     33  C   UNL A   1      37.772  31.155  29.253  1.00  0.00     0.031 C 
ATOM     34  C   UNL A   1      37.178  34.172  33.237  1.00  0.00     0.029 A 
ATOM     35  N   UNL A   1      38.834  32.673  33.324  1.00  0.00    -0.354 N 
ATOM     36  C   UNL A   1      39.464  29.867  30.088  1.00  0.00     0.074 A 
ATOM     37  C   UNL A   1      38.521  30.088  29.014  1.00  0.00     0.031 C 
ATOM     38  C   UNL A   1      37.799  34.325  34.418  1.00  0.00     0.029 A 
ATOM     39  C   UNL A   1      38.868  33.336  34.527  1.00  0.00     0.049 A 
ATOM     40  H   UNL A   1      39.468  31.958  33.086  1.00  0.00     0.167 HD
ATOM     41  C   UNL A   1      40.431  28.919  30.073  1.00  0.00     0.037 A 
ATOM     42  C   UNL A   1      39.658  33.154  35.602  1.00  0.00     0.037 A 
ATOM     43  C   UNL A   1      41.389  28.726  31.128  1.00  0.00     0.049 A 
ATOM     44  C   UNL A   1      40.715  32.080  35.560  1.00  0.00     0.074 A 
ATOM     45  C   UNL A   1      42.446  27.835  31.177  1.00  0.00     0.029 A 
ATOM     46  N   UNL A   1      41.407  29.435  32.319  1.00  0.00    -0.354 N 
ATOM     47  N   UNL A   1      41.009  31.244  34.594  1.00  0.00    -0.248 NA
ATOM     48  C   UNL A   1      41.556  31.929  36.757  1.00  0.00     0.031 C 
ATOM     49  C   UNL A   1      43.070  27.965  32.421  1.00  0.00     0.029 A 
ATOM     50  C   UNL A   1      42.443  28.984  33.120  1.00  0.00     0.049 A 
ATOM     51  H   UNL A   1      40.776  30.153  32.559  1.00  0.00     0.167 HD
ATOM     52  C   UNL A   1      42.091  30.502  35.048  1.00  0.00     0.074 A 
ATOM     53  C   UNL A   1      42.408  30.991  36.372  1.00  0.00     0.031 C 
ATOM     54  C   UNL A   1      42.764  29.505  34.423  1.00  0.00     0.037 A 
BRANCH  41  55
ATOM     55  C   UNL A   1      40.511  28.014  28.878  1.00  0.00     0.064 A 
ATOM     56  C   UNL A   1      39.774  26.822  28.805  1.00  0.00     0.173 A 
ATOM     57  C   UNL A   1      41.280  28.379  27.762  1.00  0.00     0.173 A 
ATOM     58  F   UNL A   1      39.031  26.422  29.848  1.00  0.00    -0.203 F 
ATOM     59  C   UNL A   1      39.817  26.022  27.666  1.00  0.00     0.198 A 
ATOM     60  C   UNL A   1      41.296  27.593  26.613  1.00  0.00     0.198 A 
ATOM     61  F   UNL A   1      42.000  29.510  27.778  1.00  0.00    -0.203 F 
ATOM     62  F   UNL A   1      39.133  24.869  27.633  1.00  0.00    -0.200 F 
ATOM     63  C   UNL A   1      40.568  26.413  26.568  1.00  0.00     0.200 A 
ATOM     64  F   UNL A   1      42.010  27.980  25.547  1.00  0.00    -0.200 F 
ATOM     65  F   UNL A   1      40.593  25.652  25.465  1.00  0.00    -0.200 F 
ENDBRANCH  41  55
BRANCH  42  66
ATOM     66  C   UNL A   1      39.492  34.001  36.815  1.00  0.00     0.064 A 
ATOM     67  C   UNL A   1      40.133  35.244  36.920  1.00  0.00     0.173 A 
ATOM     68  C   UNL A   1      38.729  33.570  37.909  1.00  0.00     0.173 A 
ATOM     69  F   UNL A   1      40.892  35.694  35.908  1.00  0.00    -0.203 F 
ATOM     70  C   UNL A   1      40.051  36.003  38.086  1.00  0.00     0.198 A 
ATOM     71  C   UNL A   1      38.618  34.347  39.062  1.00  0.00     0.198 A 
ATOM     72  F   UNL A   1      38.088  32.392  37.861  1.00  0.00    -0.203 F 
ATOM     73  F   UNL A   1      40.732  37.153  38.183  1.00  0.00    -0.200 F 
ATOM     74  C   UNL A   1      39.291  35.554  39.154  1.00  0.00     0.200 A 
ATOM     75  F   UNL A   1      37.869  33.916  40.087  1.00  0.00    -0.200 F 
ATOM     76  F   UNL A   1      39.218  36.280  40.279  1.00  0.00    -0.200 F 
ENDBRANCH  42  66
BRANCH  54  77
ATOM     77  C   UNL A   1      43.953  28.918  35.128  1.00  0.00     0.064 A 
ATOM     78  C   UNL A   1      43.836  27.820  35.994  1.00  0.00     0.173 A 
ATOM     79  C   UNL A   1      45.238  29.430  34.886  1.00  0.00     0.173 A 
ATOM     80  F   UNL A   1      42.630  27.303  36.269  1.00  0.00    -0.203 F 
ATOM     81  C   UNL A   1      44.959  27.272  36.608  1.00  0.00     0.198 A 
ATOM     82  C   UNL A   1      46.361  28.857  35.475  1.00  0.00     0.198 A 
ATOM     83  F   UNL A   1      45.405  30.473  34.060  1.00  0.00    -0.203 F 
ATOM     84  F   UNL A   1      44.819  26.252  37.466  1.00  0.00    -0.200 F 
ATOM     85  C   UNL A   1      46.220  27.784  36.340  1.00  0.00     0.200 A 
ATOM     86  F   UNL A   1      47.580  29.342  35.200  1.00  0.00    -0.200 F 
ATOM     87  F   UNL A   1      47.301  27.244  36.920  1.00  0.00    -0.200 F 
ENDBRANCH  54  77
ENDBRANCH  28  29
ENDBRANCH  20  23
ENDBRANCH  18  19
ENDBRANCH  17  18
ENDBRANCH  16  17
ENDBRANCH   1  16
TORSDOF 16
ENDMDL
MODEL 3
REMARK VINA RESULT:      -9.8      1.739      7.881
REMARK SMILES C[C@@H](OCC(F)(F)F)C(=O)NCCCCCCNC(=O)c1ccc(-c2c3nc(c(-c4c(F)c(F)c(F)c(F)c4F)c4ccc([nH]4)c(-c4c(F)c(F)c(F)c(F)c4F)c4nc(c(-c5c(F)c(F)c(F)c(F)c5F)c5ccc2[nH]5)C=C4)C=C3)cc1
REMARK SMILES IDX 14 1 13 2 12 3 11 4 9 5 10 6 2 8 1 9 3 10 4 11 5 12 6 13
REMARK SMILES IDX 7 14 8 15 15 16 16 17 17 18 18 19 19 20 20 22 21 23 22 24
REMARK SMILES IDX 83 25 23 26 82 27 24 28 25 29 26 30 76 31 27 32 81 33 75 34
REMARK SMILES IDX 77 35 28 36 80 37 74 38 73 39 29 41 61 42 41 43 60 44 42 45
REMARK SMILES IDX 45 46 59 47 78 48 43 49 44 50 58 52 79 53 46 54 30 55 31 56
REMARK SMILES IDX 39 57 32 58 33 59 37 60 40 61 34 62 35 63 38 64 36 65 62 66
REMARK SMILES IDX 63 67 71 68 64 69 65 70 69 71 72 72 66 73 67 74 70 75 68 76
REMARK SMILES IDX 47 77 48 78 56 79 49 80 50 81 54 82 57 83 51 84 52 85 55 86
REMARK SMILES IDX 53 87
REMARK H PARENT 11 7 18 21 77 40 45 51
REMARK Flexibility Score: inf
ROOT
ATOM      1  C   UNL A   1      32.541  29.821  26.902  1.00  0.00     0.002 C 
ENDROOT
BRANCH   1   2
ATOM      2  C   UNL A   1      32.298  28.394  27.411  1.00  0.00     0.021 C 
BRANCH   2   3
ATOM      3  C   UNL A   1      32.558  27.312  26.363  1.00  0.00     0.116 C 
BRANCH   3   4
ATOM      4  N   UNL A   1      31.309  26.732  25.910  1.00  0.00    -0.354 N 
ATOM      5  C   UNL A   1      30.586  26.995  24.784  1.00  0.00     0.248 C 
ATOM      6  O   UNL A   1      29.489  26.443  24.660  1.00  0.00    -0.272 OA
ATOM      7  H   UNL A   1      30.928  26.045  26.503  1.00  0.00     0.163 HD
BRANCH   5   8
ATOM      8  C   UNL A   1      31.113  27.970  23.716  1.00  0.00     0.204 C 
ATOM      9  C   UNL A   1      31.198  27.286  22.354  1.00  0.00     0.049 C 
BRANCH   8  10
ATOM     10  O   UNL A   1      30.300  29.146  23.712  1.00  0.00    -0.359 OA
BRANCH  10  11
ATOM     11  C   UNL A   1      29.515  29.382  22.536  1.00  0.00     0.276 C 
BRANCH  11  12
ATOM     12  C   UNL A   1      28.038  29.717  22.738  1.00  0.00     0.411 C 
ATOM     13  F   UNL A   1      27.313  28.611  23.021  1.00  0.00    -0.168 F 
ATOM     14  F   UNL A   1      27.889  30.568  23.780  1.00  0.00    -0.168 F 
ATOM     15  F   UNL A   1      27.501  30.304  21.649  1.00  0.00    -0.168 F 
ENDBRANCH  11  12
ENDBRANCH  10  11
ENDBRANCH   8  10
ENDBRANCH   5   8
ENDBRANCH   3   4
ENDBRANCH   2   3
ENDBRANCH   1   2
BRANCH   1  16
ATOM     16  C   UNL A   1      31.291  30.704  26.840  1.00  0.00     0.002 C 
BRANCH  16  17
ATOM     17  C   UNL A   1      31.555  32.166  26.478  1.00  0.00     0.021 C 
BRANCH  17  18
ATOM     18  C   UNL A   1      32.724  32.796  27.225  1.00  0.00     0.116 C 
BRANCH  18  19
ATOM     19  N   UNL A   1      32.453  34.176  27.597  1.00  0.00    -0.352 N 
ATOM     20  C   UNL A   1      33.014  34.924  28.601  1.00  0.00     0.251 C 
ATOM     21  H   UNL A   1      31.773  34.637  27.055  1.00  0.00     0.163 HD
ATOM     22  O   UNL A   1      32.536  36.011  28.913  1.00  0.00    -0.269 OA
BRANCH  20  23
ATOM     23  C   UNL A   1      34.195  34.404  29.320  1.00  0.00     0.039 A 
ATOM     24  C   UNL A   1      34.008  33.685  30.503  1.00  0.00     0.014 A 
ATOM     25  C   UNL A   1      35.482  34.620  28.820  1.00  0.00     0.014 A 
ATOM     26  C   UNL A   1      35.113  33.132  31.155  1.00  0.00     0.010 A 
ATOM     27  C   UNL A   1      36.570  34.003  29.427  1.00  0.00     0.010 A 
ATOM     28  C   UNL A   1      36.398  33.259  30.605  1.00  0.00    -0.014 A 
BRANCH  28  29
ATOM     29  C   UNL A   1      37.585  32.642  31.251  1.00  0.00     0.031 A 
ATOM     30  C   UNL A   1      38.298  31.505  30.571  1.00  0.00     0.074 A 
ATOM     31  C   UNL A   1      37.973  33.052  32.475  1.00  0.00     0.049 A 
ATOM     32  N   UNL A   1      39.277  30.758  31.013  1.00  0.00    -0.248 NA
ATOM     33  C   UNL A   1      37.828  31.140  29.224  1.00  0.00     0.031 C 
ATOM     34  C   UNL A   1      37.342  34.121  33.250  1.00  0.00     0.029 A 
ATOM     35  N   UNL A   1      38.985  32.606  33.289  1.00  0.00    -0.354 N 
ATOM     36  C   UNL A   1      39.524  29.827  30.013  1.00  0.00     0.074 A 
ATOM     37  C   UNL A   1      38.562  30.069  28.960  1.00  0.00     0.031 C 
ATOM     38  C   UNL A   1      37.988  34.256  34.420  1.00  0.00     0.029 A 
ATOM     39  C   UNL A   1      39.048  33.256  34.498  1.00  0.00     0.049 A 
ATOM     40  H   UNL A   1      39.607  31.887  33.031  1.00  0.00     0.167 HD
ATOM     41  C   UNL A   1      40.480  28.871  29.969  1.00  0.00     0.037 A 
ATOM     42  C   UNL A   1      39.857  33.055  35.556  1.00  0.00     0.037 A 
ATOM     43  C   UNL A   1      41.458  28.657  31.003  1.00  0.00     0.049 A 
ATOM     44  C   UNL A   1      40.904  31.971  35.482  1.00  0.00     0.074 A 
ATOM     45  C   UNL A   1      42.507  27.756  31.022  1.00  0.00     0.029 A 
ATOM     46  N   UNL A   1      41.506  29.354  32.201  1.00  0.00    -0.354 N 
ATOM     47  N   UNL A   1      41.170  31.142  34.501  1.00  0.00    -0.248 NA
ATOM     48  C   UNL A   1      41.766  31.799  36.660  1.00  0.00     0.031 C 
ATOM     49  C   UNL A   1      43.156  27.867  32.255  1.00  0.00     0.029 A 
ATOM     50  C   UNL A   1      42.552  28.885  32.976  1.00  0.00     0.049 A 
ATOM     51  H   UNL A   1      40.887  30.075  32.461  1.00  0.00     0.167 HD
ATOM     52  C   UNL A   1      42.254  30.385  34.927  1.00  0.00     0.074 A 
ATOM     53  C   UNL A   1      42.601  30.858  36.249  1.00  0.00     0.031 C 
ATOM     54  C   UNL A   1      42.905  29.389  34.278  1.00  0.00     0.037 A 
BRANCH  41  55
ATOM     55  C   UNL A   1      40.529  27.977  28.763  1.00  0.00     0.064 A 
ATOM     56  C   UNL A   1      41.321  28.286  27.648  1.00  0.00     0.173 A 
ATOM     57  C   UNL A   1      39.829  26.760  28.754  1.00  0.00     0.173 A 
ATOM     58  F   UNL A   1      42.002  29.441  27.601  1.00  0.00    -0.203 F 
ATOM     59  C   UNL A   1      41.398  27.419  26.562  1.00  0.00     0.198 A 
ATOM     60  C   UNL A   1      39.933  25.881  27.680  1.00  0.00     0.198 A 
ATOM     61  F   UNL A   1      39.060  26.414  29.797  1.00  0.00    -0.203 F 
ATOM     62  F   UNL A   1      42.133  27.752  25.490  1.00  0.00    -0.200 F 
ATOM     63  C   UNL A   1      40.714  26.213  26.583  1.00  0.00     0.200 A 
ATOM     64  F   UNL A   1      39.283  24.709  27.710  1.00  0.00    -0.200 F 
ATOM     65  F   UNL A   1      40.804  25.370  25.545  1.00  0.00    -0.200 F 
ENDBRANCH  41  55
BRANCH  42  66
ATOM     66  C   UNL A   1      39.723  33.891  36.780  1.00  0.00     0.064 A 
ATOM     67  C   UNL A   1      38.913  33.481  37.848  1.00  0.00     0.173 A 
ATOM     68  C   UNL A   1      40.363  35.133  36.890  1.00  0.00     0.173 A 
ATOM     69  F   UNL A   1      38.263  32.309  37.784  1.00  0.00    -0.203 F 
ATOM     70  C   UNL A   1      38.715  34.298  38.960  1.00  0.00     0.198 A 
ATOM     71  C   UNL A   1      40.194  35.935  38.018  1.00  0.00     0.198 A 
ATOM     72  F   UNL A   1      41.155  35.573  35.900  1.00  0.00    -0.203 F 
ATOM     73  F   UNL A   1      37.880  33.910  39.933  1.00  0.00    -0.200 F 
ATOM     74  C   UNL A   1      39.358  35.523  39.044  1.00  0.00     0.200 A 
ATOM     75  F   UNL A   1      40.830  37.111  38.102  1.00  0.00    -0.200 F 
ATOM     76  F   UNL A   1      39.163  36.312  40.110  1.00  0.00    -0.200 F 
ENDBRANCH  42  66
BRANCH  54  77
ATOM     77  C   UNL A   1      44.101  28.783  34.954  1.00  0.00     0.064 A 
ATOM     78  C   UNL A   1      45.391  29.311  34.795  1.00  0.00     0.173 A 
ATOM     79  C   UNL A   1      43.941  27.690  35.821  1.00  0.00     0.173 A 
ATOM     80  F   UNL A   1      45.599  30.346  33.969  1.00  0.00    -0.203 F 
ATOM     81  C   UNL A   1      46.478  28.752  35.461  1.00  0.00     0.198 A 
ATOM     82  C   UNL A   1      45.025  27.156  36.511  1.00  0.00     0.198 A 
ATOM     83  F   UNL A   1      42.726  27.153  36.014  1.00  0.00    -0.203 F 
ATOM     84  F   UNL A   1      47.709  29.243  35.259  1.00  0.00    -0.200 F 
ATOM     85  C   UNL A   1      46.293  27.682  36.325  1.00  0.00     0.200 A 
ATOM     86  F   UNL A   1      44.840  26.135  37.359  1.00  0.00    -0.200 F 
ATOM     87  F   UNL A   1      47.339  27.157  36.976  1.00  0.00    -0.200 F 
ENDBRANCH  54  77
ENDBRANCH  28  29
ENDBRANCH  20  23
ENDBRANCH  18  19
ENDBRANCH  17  18
ENDBRANCH  16  17
ENDBRANCH   1  16
TORSDOF 16
ENDMDL
