MODEL 1
REMARK VINA RESULT:     -12.5      0.000      0.000
REMARK SMILES C[C@@H](Sc1nc(C[NH+]2CCCC2)nc2ccccc12)C(=O)NCCCCCCNC(=O)c1ccc(-c2c3nc(c(-c4c(F)c(F)c(F)c(F)c4F)c4ccc([nH]4)c(-c4c(F)c(F)c(F)c(F)c4F)c4nc(c(-c5c(F)c(F)c(F)c(F)c5F)c5ccc2[nH]5)C=C4)C=C3)cc1
REMARK SMILES IDX 24 1 23 2 22 3 20 4 21 5 2 7 1 8 3 9 4 10 5 11 19 12 6 13
REMARK SMILES IDX 14 14 18 15 13 16 15 17 17 18 16 19 7 20 8 21 9 22 12 23
REMARK SMILES IDX 10 25 11 26 25 27 26 28 27 29 28 30 29 31 30 32 31 34 32 35
REMARK SMILES IDX 33 36 94 37 34 38 93 39 35 40 36 41 37 42 87 43 38 44 92 45
REMARK SMILES IDX 86 46 88 47 39 48 91 49 85 50 84 51 40 53 72 54 52 55 71 56
REMARK SMILES IDX 53 57 56 58 70 59 89 60 54 61 55 62 69 64 90 65 57 66 41 67
REMARK SMILES IDX 42 68 50 69 43 70 44 71 48 72 51 73 45 74 46 75 49 76 47 77
REMARK SMILES IDX 73 78 74 79 82 80 75 81 76 82 80 83 83 84 77 85 78 86 81 87
REMARK SMILES IDX 79 88 58 89 59 90 67 91 60 92 61 93 65 94 68 95 62 96 63 97
REMARK SMILES IDX 66 98 64 99
REMARK H PARENT 22 6 8 24 29 33 88 52 56 63
REMARK Flexibility Score: inf
ROOT
ATOM      1  C   UNL A   1      36.530  23.157  24.146  1.00  0.00     0.021 C 
ENDROOT
BRANCH   1   2
ATOM      2  C   UNL A   1      35.433  24.004  24.773  1.00  0.00     0.116 C 
BRANCH   2   3
ATOM      3  N   UNL A   1      34.206  23.261  25.019  1.00  0.00    -0.355 N 
ATOM      4  C   UNL A   1      32.921  23.500  24.604  1.00  0.00     0.233 C 
ATOM      5  O   UNL A   1      32.061  22.662  24.892  1.00  0.00    -0.274 OA
ATOM      6  H   UNL A   1      34.317  22.454  25.573  1.00  0.00     0.163 HD
BRANCH   4   7
ATOM      7  C   UNL A   1      32.534  24.816  23.903  1.00  0.00     0.139 C 
ATOM      8  C   UNL A   1      32.592  24.529  22.406  1.00  0.00     0.030 C 
BRANCH   7   9
ATOM      9  S   UNL A   1      30.950  25.389  24.682  1.00  0.00    -0.093 SA
BRANCH   9  10
ATOM     10  C   UNL A   1      30.904  27.160  24.734  1.00  0.00     0.109 A 
ATOM     11  N   UNL A   1      30.173  27.640  23.708  1.00  0.00    -0.220 NA
ATOM     12  C   UNL A   1      31.703  27.993  25.526  1.00  0.00     0.033 A 
ATOM     13  C   UNL A   1      30.255  28.951  23.448  1.00  0.00     0.185 A 
ATOM     14  C   UNL A   1      31.514  29.361  25.316  1.00  0.00     0.075 A 
ATOM     15  C   UNL A   1      32.704  27.590  26.441  1.00  0.00     0.013 A 
ATOM     16  N   UNL A   1      30.821  29.841  24.280  1.00  0.00    -0.227 NA
ATOM     17  C   UNL A   1      32.138  30.261  26.173  1.00  0.00     0.029 A 
ATOM     18  C   UNL A   1      33.328  28.499  27.287  1.00  0.00     0.001 A 
ATOM     19  C   UNL A   1      33.011  29.842  27.180  1.00  0.00     0.002 A 
BRANCH  13  20
ATOM     20  C   UNL A   1      29.846  29.429  22.056  1.00  0.00     0.340 C 
BRANCH  20  21
ATOM     21  N   UNL A   1      28.584  30.201  21.918  1.00  0.00    -0.329 N 
ATOM     22  C   UNL A   1      28.761  31.641  21.731  1.00  0.00     0.262 C 
ATOM     23  C   UNL A   1      27.625  30.004  23.008  1.00  0.00     0.262 C 
ATOM     24  H   UNL A   1      28.202  29.801  21.062  1.00  0.00     0.348 HD
ATOM     25  C   UNL A   1      28.384  32.306  23.040  1.00  0.00     0.067 C 
ATOM     26  C   UNL A   1      27.412  31.348  23.695  1.00  0.00     0.067 C 
ENDBRANCH  20  21
ENDBRANCH  13  20
ENDBRANCH   9  10
ENDBRANCH   7   9
ENDBRANCH   4   7
ENDBRANCH   2   3
ENDBRANCH   1   2
BRANCH   1  27
ATOM     27  C   UNL A   1      37.211  22.192  25.112  1.00  0.00     0.002 C 
BRANCH  27  28
ATOM     28  C   UNL A   1      36.851  20.716  24.914  1.00  0.00     0.002 C 
BRANCH  28  29
ATOM     29  C   UNL A   1      38.034  19.745  24.936  1.00  0.00     0.021 C 
BRANCH  29  30
ATOM     30  C   UNL A   1      39.229  20.211  25.758  1.00  0.00     0.116 C 
BRANCH  30  31
ATOM     31  N   UNL A   1      40.248  19.182  25.879  1.00  0.00    -0.352 N 
ATOM     32  C   UNL A   1      41.591  19.308  26.127  1.00  0.00     0.251 C 
ATOM     33  H   UNL A   1      39.927  18.258  25.765  1.00  0.00     0.163 HD
ATOM     34  O   UNL A   1      42.336  18.339  26.003  1.00  0.00    -0.269 OA
BRANCH  32  35
ATOM     35  C   UNL A   1      42.148  20.617  26.527  1.00  0.00     0.039 A 
ATOM     36  C   UNL A   1      42.641  21.472  25.539  1.00  0.00     0.014 A 
ATOM     37  C   UNL A   1      42.193  20.997  27.872  1.00  0.00     0.014 A 
ATOM     38  C   UNL A   1      43.124  22.733  25.894  1.00  0.00     0.010 A 
ATOM     39  C   UNL A   1      42.600  22.283  28.215  1.00  0.00     0.010 A 
ATOM     40  C   UNL A   1      43.075  23.163  27.229  1.00  0.00    -0.014 A 
BRANCH  40  41
ATOM     41  C   UNL A   1      43.513  24.528  27.615  1.00  0.00     0.031 A 
ATOM     42  C   UNL A   1      42.497  25.578  27.972  1.00  0.00     0.074 A 
ATOM     43  C   UNL A   1      44.823  24.840  27.585  1.00  0.00     0.049 A 
ATOM     44  N   UNL A   1      42.679  26.838  28.280  1.00  0.00    -0.248 NA
ATOM     45  C   UNL A   1      41.086  25.163  27.955  1.00  0.00     0.031 C 
ATOM     46  C   UNL A   1      45.901  23.922  27.216  1.00  0.00     0.029 A 
ATOM     47  N   UNL A   1      45.470  26.018  27.863  1.00  0.00    -0.354 N 
ATOM     48  C   UNL A   1      41.411  27.365  28.480  1.00  0.00     0.074 A 
ATOM     49  C   UNL A   1      40.465  26.306  28.200  1.00  0.00     0.031 C 
ATOM     50  C   UNL A   1      47.078  24.561  27.321  1.00  0.00     0.029 A 
ATOM     51  C   UNL A   1      46.834  25.943  27.720  1.00  0.00     0.049 A 
ATOM     52  H   UNL A   1      45.002  26.838  28.140  1.00  0.00     0.167 HD
ATOM     53  C   UNL A   1      41.066  28.611  28.885  1.00  0.00     0.037 A 
ATOM     54  C   UNL A   1      47.781  26.887  27.885  1.00  0.00     0.037 A 
ATOM     55  C   UNL A   1      42.013  29.655  29.177  1.00  0.00     0.049 A 
ATOM     56  C   UNL A   1      47.369  28.274  28.304  1.00  0.00     0.074 A 
ATOM     57  C   UNL A   1      41.770  30.934  29.649  1.00  0.00     0.029 A 
ATOM     58  N   UNL A   1      43.387  29.545  29.016  1.00  0.00    -0.354 N 
ATOM     59  N   UNL A   1      46.173  28.740  28.563  1.00  0.00    -0.248 NA
ATOM     60  C   UNL A   1      48.445  29.263  28.456  1.00  0.00     0.031 C 
ATOM     61  C   UNL A   1      42.989  31.616  29.714  1.00  0.00     0.029 A 
ATOM     62  C   UNL A   1      44.001  30.742  29.348  1.00  0.00     0.049 A 
ATOM     63  H   UNL A   1      43.856  28.734  28.712  1.00  0.00     0.167 HD
ATOM     64  C   UNL A   1      46.352  30.064  28.943  1.00  0.00     0.074 A 
ATOM     65  C   UNL A   1      47.777  30.321  28.893  1.00  0.00     0.031 C 
ATOM     66  C   UNL A   1      45.422  30.983  29.302  1.00  0.00     0.037 A 
BRANCH  53  67
ATOM     67  C   UNL A   1      39.600  28.915  29.026  1.00  0.00     0.064 A 
ATOM     68  C   UNL A   1      38.941  28.825  30.262  1.00  0.00     0.173 A 
ATOM     69  C   UNL A   1      38.849  29.326  27.914  1.00  0.00     0.173 A 
ATOM     70  F   UNL A   1      39.609  28.427  31.356  1.00  0.00    -0.203 F 
ATOM     71  C   UNL A   1      37.580  29.094  30.371  1.00  0.00     0.198 A 
ATOM     72  C   UNL A   1      37.495  29.630  28.035  1.00  0.00     0.198 A 
ATOM     73  F   UNL A   1      39.427  29.437  26.709  1.00  0.00    -0.203 F 
ATOM     74  F   UNL A   1      36.961  28.939  31.550  1.00  0.00    -0.200 F 
ATOM     75  C   UNL A   1      36.859  29.502  29.260  1.00  0.00     0.200 A 
ATOM     76  F   UNL A   1      36.804  30.040  26.963  1.00  0.00    -0.200 F 
ATOM     77  F   UNL A   1      35.549  29.766  29.368  1.00  0.00    -0.200 F 
ENDBRANCH  53  67
BRANCH  54  78
ATOM     78  C   UNL A   1      49.215  26.548  27.683  1.00  0.00     0.064 A 
ATOM     79  C   UNL A   1      49.745  26.412  26.392  1.00  0.00     0.173 A 
ATOM     80  C   UNL A   1      50.081  26.342  28.768  1.00  0.00     0.173 A 
ATOM     81  F   UNL A   1      48.952  26.578  25.323  1.00  0.00    -0.203 F 
ATOM     82  C   UNL A   1      51.078  26.058  26.194  1.00  0.00     0.198 A 
ATOM     83  C   UNL A   1      51.421  26.021  28.568  1.00  0.00     0.198 A 
ATOM     84  F   UNL A   1      49.626  26.465  30.024  1.00  0.00    -0.203 F 
ATOM     85  F   UNL A   1      51.544  25.883  24.950  1.00  0.00    -0.200 F 
ATOM     86  C   UNL A   1      51.916  25.868  27.282  1.00  0.00     0.200 A 
ATOM     87  F   UNL A   1      52.232  25.854  29.622  1.00  0.00    -0.200 F 
ATOM     88  F   UNL A   1      53.199  25.531  27.091  1.00  0.00    -0.200 F 
ENDBRANCH  54  78
BRANCH  66  89
ATOM     89  C   UNL A   1      45.916  32.340  29.714  1.00  0.00     0.064 A 
ATOM     90  C   UNL A   1      46.059  33.389  28.793  1.00  0.00     0.173 A 
ATOM     91  C   UNL A   1      46.219  32.605  31.060  1.00  0.00     0.173 A 
ATOM     92  F   UNL A   1      45.798  33.184  27.492  1.00  0.00    -0.203 F 
ATOM     93  C   UNL A   1      46.513  34.641  29.196  1.00  0.00     0.198 A 
ATOM     94  C   UNL A   1      46.638  33.869  31.466  1.00  0.00     0.198 A 
ATOM     95  F   UNL A   1      46.094  31.642  31.984  1.00  0.00    -0.203 F 
ATOM     96  F   UNL A   1      46.693  35.611  28.289  1.00  0.00    -0.200 F 
ATOM     97  C   UNL A   1      46.794  34.883  30.534  1.00  0.00     0.200 A 
ATOM     98  F   UNL A   1      46.892  34.105  32.760  1.00  0.00    -0.200 F 
ATOM     99  F   UNL A   1      47.223  36.091  30.922  1.00  0.00    -0.200 F 
ENDBRANCH  66  89
ENDBRANCH  40  41
ENDBRANCH  32  35
ENDBRANCH  30  31
ENDBRANCH  29  30
ENDBRANCH  28  29
ENDBRANCH  27  28
ENDBRANCH   1  27
TORSDOF 17
ENDMDL
MODEL 2
REMARK VINA RESULT:     -12.4      5.279     11.066
REMARK SMILES C[C@@H](Sc1nc(C[NH+]2CCCC2)nc2ccccc12)C(=O)NCCCCCCNC(=O)c1ccc(-c2c3nc(c(-c4c(F)c(F)c(F)c(F)c4F)c4ccc([nH]4)c(-c4c(F)c(F)c(F)c(F)c4F)c4nc(c(-c5c(F)c(F)c(F)c(F)c5F)c5ccc2[nH]5)C=C4)C=C3)cc1
REMARK SMILES IDX 24 1 23 2 22 3 20 4 21 5 2 7 1 8 3 9 4 10 5 11 19 12 6 13
REMARK SMILES IDX 14 14 18 15 13 16 15 17 17 18 16 19 7 20 8 21 9 22 12 23
REMARK SMILES IDX 10 25 11 26 25 27 26 28 27 29 28 30 29 31 30 32 31 34 32 35
REMARK SMILES IDX 33 36 94 37 34 38 93 39 35 40 36 41 37 42 87 43 38 44 92 45
REMARK SMILES IDX 86 46 88 47 39 48 91 49 85 50 84 51 40 53 72 54 52 55 71 56
REMARK SMILES IDX 53 57 56 58 70 59 89 60 54 61 55 62 69 64 90 65 57 66 41 67
REMARK SMILES IDX 42 68 50 69 43 70 44 71 48 72 51 73 45 74 46 75 49 76 47 77
REMARK SMILES IDX 73 78 74 79 82 80 75 81 76 82 80 83 83 84 77 85 78 86 81 87
REMARK SMILES IDX 79 88 58 89 59 90 67 91 60 92 61 93 65 94 68 95 62 96 63 97
REMARK SMILES IDX 66 98 64 99
REMARK H PARENT 22 6 8 24 29 33 88 52 56 63
REMARK Flexibility Score: inf
ROOT
ATOM      1  C   UNL A   1      31.393  28.499  25.139  1.00  0.00     0.021 C 
ENDROOT
BRANCH   1   2
ATOM      2  C   UNL A   1      31.588  27.923  23.745  1.00  0.00     0.116 C 
BRANCH   2   3
ATOM      3  N   UNL A   1      30.823  26.706  23.517  1.00  0.00    -0.355 N 
ATOM      4  C   UNL A   1      31.151  25.392  23.739  1.00  0.00     0.233 C 
ATOM      5  O   UNL A   1      30.281  24.542  23.528  1.00  0.00    -0.274 OA
ATOM      6  H   UNL A   1      29.923  26.848  23.143  1.00  0.00     0.163 HD
BRANCH   4   7
ATOM      7  C   UNL A   1      32.581  24.976  24.129  1.00  0.00     0.139 C 
ATOM      8  C   UNL A   1      32.513  24.557  25.595  1.00  0.00     0.030 C 
BRANCH   7   9
ATOM      9  S   UNL A   1      33.154  23.769  22.841  1.00  0.00    -0.093 SA
BRANCH   9  10
ATOM     10  C   UNL A   1      33.977  22.401  23.613  1.00  0.00     0.109 A 
ATOM     11  N   UNL A   1      33.136  21.354  23.730  1.00  0.00    -0.220 NA
ATOM     12  C   UNL A   1      35.214  22.433  24.266  1.00  0.00     0.033 A 
ATOM     13  C   UNL A   1      33.511  20.342  24.522  1.00  0.00     0.185 A 
ATOM     14  C   UNL A   1      35.598  21.225  24.855  1.00  0.00     0.075 A 
ATOM     15  C   UNL A   1      36.054  23.557  24.441  1.00  0.00     0.013 A 
ATOM     16  N   UNL A   1      34.757  20.199  25.006  1.00  0.00    -0.227 NA
ATOM     17  C   UNL A   1      36.882  21.115  25.378  1.00  0.00     0.029 A 
ATOM     18  C   UNL A   1      37.333  23.437  24.972  1.00  0.00     0.001 A 
ATOM     19  C   UNL A   1      37.766  22.196  25.406  1.00  0.00     0.002 A 
BRANCH  13  20
ATOM     20  C   UNL A   1      32.426  19.404  25.046  1.00  0.00     0.340 C 
BRANCH  20  21
ATOM     21  N   UNL A   1      32.358  18.027  24.495  1.00  0.00    -0.329 N 
ATOM     22  C   UNL A   1      33.028  17.007  25.303  1.00  0.00     0.262 C 
ATOM     23  C   UNL A   1      32.837  17.894  23.117  1.00  0.00     0.262 C 
ATOM     24  H   UNL A   1      31.353  17.856  24.515  1.00  0.00     0.348 HD
ATOM     25  C   UNL A   1      34.311  16.645  24.581  1.00  0.00     0.067 C 
ATOM     26  C   UNL A   1      34.036  16.954  23.125  1.00  0.00     0.067 C 
ENDBRANCH  20  21
ENDBRANCH  13  20
ENDBRANCH   9  10
ENDBRANCH   7   9
ENDBRANCH   4   7
ENDBRANCH   2   3
ENDBRANCH   1   2
BRANCH   1  27
ATOM     27  C   UNL A   1      31.441  30.023  25.204  1.00  0.00     0.002 C 
BRANCH  27  28
ATOM     28  C   UNL A   1      31.668  30.604  26.603  1.00  0.00     0.002 C 
BRANCH  28  29
ATOM     29  C   UNL A   1      31.543  32.126  26.708  1.00  0.00     0.021 C 
BRANCH  29  30
ATOM     30  C   UNL A   1      32.799  32.839  27.194  1.00  0.00     0.116 C 
BRANCH  30  31
ATOM     31  N   UNL A   1      32.524  34.195  27.640  1.00  0.00    -0.352 N 
ATOM     32  C   UNL A   1      33.060  34.894  28.691  1.00  0.00     0.251 C 
ATOM     33  H   UNL A   1      31.854  34.683  27.109  1.00  0.00     0.163 HD
ATOM     34  O   UNL A   1      32.567  35.965  29.036  1.00  0.00    -0.269 OA
BRANCH  32  35
ATOM     35  C   UNL A   1      34.223  34.350  29.423  1.00  0.00     0.039 A 
ATOM     36  C   UNL A   1      34.002  33.603  30.582  1.00  0.00     0.014 A 
ATOM     37  C   UNL A   1      35.526  34.582  28.975  1.00  0.00     0.014 A 
ATOM     38  C   UNL A   1      35.085  33.039  31.258  1.00  0.00     0.010 A 
ATOM     39  C   UNL A   1      36.597  33.954  29.603  1.00  0.00     0.010 A 
ATOM     40  C   UNL A   1      36.388  33.180  30.755  1.00  0.00    -0.014 A 
BRANCH  40  41
ATOM     41  C   UNL A   1      37.543  32.523  31.418  1.00  0.00     0.031 A 
ATOM     42  C   UNL A   1      38.227  31.353  30.766  1.00  0.00     0.074 A 
ATOM     43  C   UNL A   1      37.940  32.943  32.635  1.00  0.00     0.049 A 
ATOM     44  N   UNL A   1      39.212  30.615  31.211  1.00  0.00    -0.248 NA
ATOM     45  C   UNL A   1      37.716  30.941  29.450  1.00  0.00     0.031 C 
ATOM     46  C   UNL A   1      37.332  34.041  33.388  1.00  0.00     0.029 A 
ATOM     47  N   UNL A   1      38.943  32.493  33.455  1.00  0.00    -0.354 N 
ATOM     48  C   UNL A   1      39.430  29.648  30.239  1.00  0.00     0.074 A 
ATOM     49  C   UNL A   1      38.435  29.855  29.208  1.00  0.00     0.031 C 
ATOM     50  C   UNL A   1      37.994  34.200  34.545  1.00  0.00     0.029 A 
ATOM     51  C   UNL A   1      39.042  33.188  34.636  1.00  0.00     0.049 A 
ATOM     52  H   UNL A   1      39.537  31.743  33.220  1.00  0.00     0.167 HD
ATOM     53  C   UNL A   1      40.387  28.691  30.196  1.00  0.00     0.037 A 
ATOM     54  C   UNL A   1      39.881  33.022  35.677  1.00  0.00     0.037 A 
ATOM     55  C   UNL A   1      41.384  28.500  31.218  1.00  0.00     0.049 A 
ATOM     56  C   UNL A   1      40.914  31.929  35.620  1.00  0.00     0.074 A 
ATOM     57  C   UNL A   1      42.433  27.597  31.242  1.00  0.00     0.029 A 
ATOM     58  N   UNL A   1      41.451  29.220  32.401  1.00  0.00    -0.354 N 
ATOM     59  N   UNL A   1      41.159  31.069  34.662  1.00  0.00    -0.248 NA
ATOM     60  C   UNL A   1      41.792  31.789  36.790  1.00  0.00     0.031 C 
ATOM     61  C   UNL A   1      43.096  27.728  32.467  1.00  0.00     0.029 A 
ATOM     62  C   UNL A   1      42.502  28.759  33.178  1.00  0.00     0.049 A 
ATOM     63  H   UNL A   1      40.841  29.951  32.653  1.00  0.00     0.167 HD
ATOM     64  C   UNL A   1      42.239  30.310  35.095  1.00  0.00     0.074 A 
ATOM     65  C   UNL A   1      42.610  30.823  36.398  1.00  0.00     0.031 C 
ATOM     66  C   UNL A   1      42.866  29.284  34.470  1.00  0.00     0.037 A 
BRANCH  53  67
ATOM     67  C   UNL A   1      40.395  27.768  29.008  1.00  0.00     0.064 A 
ATOM     68  C   UNL A   1      41.164  28.040  27.866  1.00  0.00     0.173 A 
ATOM     69  C   UNL A   1      39.642  26.584  29.022  1.00  0.00     0.173 A 
ATOM     70  F   UNL A   1      41.895  29.164  27.795  1.00  0.00    -0.203 F 
ATOM     71  C   UNL A   1      41.146  27.184  26.768  1.00  0.00     0.198 A 
ATOM     72  C   UNL A   1      39.657  25.712  27.937  1.00  0.00     0.198 A 
ATOM     73  F   UNL A   1      38.895  26.269  30.090  1.00  0.00    -0.203 F 
ATOM     74  F   UNL A   1      41.839  27.499  25.664  1.00  0.00    -0.200 F 
ATOM     75  C   UNL A   1      40.399  26.018  26.806  1.00  0.00     0.200 A 
ATOM     76  F   UNL A   1      38.946  24.577  27.982  1.00  0.00    -0.200 F 
ATOM     77  F   UNL A   1      40.387  25.192  25.750  1.00  0.00    -0.200 F 
ENDBRANCH  53  67
BRANCH  54  78
ATOM     78  C   UNL A   1      39.797  33.929  36.853  1.00  0.00     0.064 A 
ATOM     79  C   UNL A   1      40.557  35.106  36.906  1.00  0.00     0.173 A 
ATOM     80  C   UNL A   1      38.971  33.637  37.948  1.00  0.00     0.173 A 
ATOM     81  F   UNL A   1      41.378  35.418  35.893  1.00  0.00    -0.203 F 
ATOM     82  C   UNL A   1      40.513  35.943  38.019  1.00  0.00     0.198 A 
ATOM     83  C   UNL A   1      38.903  34.491  39.046  1.00  0.00     0.198 A 
ATOM     84  F   UNL A   1      38.219  32.526  37.947  1.00  0.00    -0.203 F 
ATOM     85  F   UNL A   1      41.290  37.034  38.066  1.00  0.00    -0.200 F 
ATOM     86  C   UNL A   1      39.681  35.638  39.086  1.00  0.00     0.200 A 
ATOM     87  F   UNL A   1      38.086  34.201  40.069  1.00  0.00    -0.200 F 
ATOM     88  F   UNL A   1      39.637  36.444  40.156  1.00  0.00    -0.200 F 
ENDBRANCH  54  78
BRANCH  66  89
ATOM     89  C   UNL A   1      44.049  28.673  35.167  1.00  0.00     0.064 A 
ATOM     90  C   UNL A   1      45.348  29.176  35.003  1.00  0.00     0.173 A 
ATOM     91  C   UNL A   1      43.873  27.587  36.040  1.00  0.00     0.173 A 
ATOM     92  F   UNL A   1      45.574  30.202  34.168  1.00  0.00    -0.203 F 
ATOM     93  C   UNL A   1      46.430  28.599  35.663  1.00  0.00     0.198 A 
ATOM     94  C   UNL A   1      44.952  27.035  36.726  1.00  0.00     0.198 A 
ATOM     95  F   UNL A   1      42.652  27.070  36.239  1.00  0.00    -0.203 F 
ATOM     96  F   UNL A   1      47.669  29.063  35.448  1.00  0.00    -0.200 F 
ATOM     97  C   UNL A   1      46.229  27.534  36.530  1.00  0.00     0.200 A 
ATOM     98  F   UNL A   1      44.753  26.018  37.576  1.00  0.00    -0.200 F 
ATOM     99  F   UNL A   1      47.270  26.986  37.171  1.00  0.00    -0.200 F 
ENDBRANCH  66  89
ENDBRANCH  40  41
ENDBRANCH  32  35
ENDBRANCH  30  31
ENDBRANCH  29  30
ENDBRANCH  28  29
ENDBRANCH  27  28
ENDBRANCH   1  27
TORSDOF 17
ENDMDL
MODEL 3
REMARK VINA RESULT:     -12.4      0.396      7.211
REMARK SMILES C[C@@H](Sc1nc(C[NH+]2CCCC2)nc2ccccc12)C(=O)NCCCCCCNC(=O)c1ccc(-c2c3nc(c(-c4c(F)c(F)c(F)c(F)c4F)c4ccc([nH]4)c(-c4c(F)c(F)c(F)c(F)c4F)c4nc(c(-c5c(F)c(F)c(F)c(F)c5F)c5ccc2[nH]5)C=C4)C=C3)cc1
REMARK SMILES IDX 24 1 23 2 22 3 20 4 21 5 2 7 1 8 3 9 4 10 5 11 19 12 6 13
REMARK SMILES IDX 14 14 18 15 13 16 15 17 17 18 16 19 7 20 8 21 9 22 12 23
REMARK SMILES IDX 10 25 11 26 25 27 26 28 27 29 28 30 29 31 30 32 31 34 32 35
REMARK SMILES IDX 33 36 94 37 34 38 93 39 35 40 36 41 37 42 87 43 38 44 92 45
REMARK SMILES IDX 86 46 88 47 39 48 91 49 85 50 84 51 40 53 72 54 52 55 71 56
REMARK SMILES IDX 53 57 56 58 70 59 89 60 54 61 55 62 69 64 90 65 57 66 41 67
REMARK SMILES IDX 42 68 50 69 43 70 44 71 48 72 51 73 45 74 46 75 49 76 47 77
REMARK SMILES IDX 73 78 74 79 82 80 75 81 76 82 80 83 83 84 77 85 78 86 81 87
REMARK SMILES IDX 79 88 58 89 59 90 67 91 60 92 61 93 65 94 68 95 62 96 63 97
REMARK SMILES IDX 66 98 64 99
REMARK H PARENT 22 6 8 24 29 33 88 52 56 63
REMARK Flexibility Score: inf
ROOT
ATOM      1  C   UNL A   1      36.656  23.035  24.162  1.00  0.00     0.021 C 
ENDROOT
BRANCH   1   2
ATOM      2  C   UNL A   1      35.611  23.959  24.768  1.00  0.00     0.116 C 
BRANCH   2   3
ATOM      3  N   UNL A   1      34.391  23.266  25.154  1.00  0.00    -0.355 N 
ATOM      4  C   UNL A   1      33.083  23.512  24.821  1.00  0.00     0.233 C 
ATOM      5  O   UNL A   1      32.230  22.718  25.228  1.00  0.00    -0.274 OA
ATOM      6  H   UNL A   1      34.526  22.495  25.751  1.00  0.00     0.163 HD
BRANCH   4   7
ATOM      7  C   UNL A   1      32.673  24.789  24.065  1.00  0.00     0.139 C 
ATOM      8  C   UNL A   1      32.746  24.442  22.581  1.00  0.00     0.030 C 
BRANCH   7   9
ATOM      9  S   UNL A   1      31.072  25.359  24.810  1.00  0.00    -0.093 SA
BRANCH   9  10
ATOM     10  C   UNL A   1      31.003  27.130  24.823  1.00  0.00     0.109 A 
ATOM     11  N   UNL A   1      30.257  27.578  23.793  1.00  0.00    -0.220 NA
ATOM     12  C   UNL A   1      31.799  27.990  25.588  1.00  0.00     0.033 A 
ATOM     13  C   UNL A   1      30.320  28.883  23.503  1.00  0.00     0.185 A 
ATOM     14  C   UNL A   1      31.590  29.351  25.350  1.00  0.00     0.075 A 
ATOM     15  C   UNL A   1      32.813  27.621  26.503  1.00  0.00     0.013 A 
ATOM     16  N   UNL A   1      30.882  29.799  24.309  1.00  0.00    -0.227 NA
ATOM     17  C   UNL A   1      32.210  30.278  26.181  1.00  0.00     0.029 A 
ATOM     18  C   UNL A   1      33.432  28.557  27.323  1.00  0.00     0.001 A 
ATOM     19  C   UNL A   1      33.097  29.893  27.189  1.00  0.00     0.002 A 
BRANCH  13  20
ATOM     20  C   UNL A   1      29.893  29.325  22.105  1.00  0.00     0.340 C 
BRANCH  20  21
ATOM     21  N   UNL A   1      28.618  30.074  21.961  1.00  0.00    -0.329 N 
ATOM     22  C   UNL A   1      28.773  31.508  21.712  1.00  0.00     0.262 C 
ATOM     23  C   UNL A   1      27.682  29.910  23.075  1.00  0.00     0.262 C 
ATOM     24  H   UNL A   1      28.225  29.636  21.129  1.00  0.00     0.348 HD
ATOM     25  C   UNL A   1      28.411  32.220  23.001  1.00  0.00     0.067 C 
ATOM     26  C   UNL A   1      27.465  31.277  23.712  1.00  0.00     0.067 C 
ENDBRANCH  20  21
ENDBRANCH  13  20
ENDBRANCH   9  10
ENDBRANCH   7   9
ENDBRANCH   4   7
ENDBRANCH   2   3
ENDBRANCH   1   2
BRANCH   1  27
ATOM     27  C   UNL A   1      37.254  22.030  25.142  1.00  0.00     0.002 C 
BRANCH  27  28
ATOM     28  C   UNL A   1      36.931  20.563  24.842  1.00  0.00     0.002 C 
BRANCH  28  29
ATOM     29  C   UNL A   1      38.112  19.595  24.955  1.00  0.00     0.021 C 
BRANCH  29  30
ATOM     30  C   UNL A   1      39.220  20.048  25.897  1.00  0.00     0.116 C 
BRANCH  30  31
ATOM     31  N   UNL A   1      40.329  19.108  25.933  1.00  0.00    -0.352 N 
ATOM     32  C   UNL A   1      41.671  19.346  26.083  1.00  0.00     0.251 C 
ATOM     33  H   UNL A   1      40.079  18.160  25.833  1.00  0.00     0.163 HD
ATOM     34  O   UNL A   1      42.484  18.444  25.895  1.00  0.00    -0.269 OA
BRANCH  32  35
ATOM     35  C   UNL A   1      42.144  20.696  26.454  1.00  0.00     0.039 A 
ATOM     36  C   UNL A   1      42.492  21.592  25.441  1.00  0.00     0.014 A 
ATOM     37  C   UNL A   1      42.253  21.074  27.796  1.00  0.00     0.014 A 
ATOM     38  C   UNL A   1      42.892  22.888  25.772  1.00  0.00     0.010 A 
ATOM     39  C   UNL A   1      42.575  22.389  28.120  1.00  0.00     0.010 A 
ATOM     40  C   UNL A   1      42.903  23.308  27.112  1.00  0.00    -0.014 A 
BRANCH  40  41
ATOM     41  C   UNL A   1      43.252  24.705  27.477  1.00  0.00     0.031 A 
ATOM     42  C   UNL A   1      44.692  25.137  27.527  1.00  0.00     0.074 A 
ATOM     43  C   UNL A   1      42.277  25.567  27.822  1.00  0.00     0.049 A 
ATOM     44  N   UNL A   1      45.199  26.293  27.876  1.00  0.00    -0.248 NA
ATOM     45  C   UNL A   1      45.697  24.127  27.162  1.00  0.00     0.031 C 
ATOM     46  C   UNL A   1      40.847  25.255  27.852  1.00  0.00     0.029 A 
ATOM     47  N   UNL A   1      42.340  26.878  28.219  1.00  0.00    -0.354 N 
ATOM     48  C   UNL A   1      46.576  26.145  27.784  1.00  0.00     0.074 A 
ATOM     49  C   UNL A   1      46.829  24.771  27.406  1.00  0.00     0.031 C 
ATOM     50  C   UNL A   1      40.166  26.354  28.216  1.00  0.00     0.029 A 
ATOM     51  C   UNL A   1      41.111  27.431  28.489  1.00  0.00     0.049 A 
ATOM     52  H   UNL A   1      43.184  27.377  28.304  1.00  0.00     0.167 HD
ATOM     53  C   UNL A   1      47.542  27.075  27.974  1.00  0.00     0.037 A 
ATOM     54  C   UNL A   1      40.786  28.668  28.913  1.00  0.00     0.037 A 
ATOM     55  C   UNL A   1      47.284  28.445  28.336  1.00  0.00     0.049 A 
ATOM     56  C   UNL A   1      41.881  29.674  29.148  1.00  0.00     0.074 A 
ATOM     57  C   UNL A   1      48.188  29.481  28.495  1.00  0.00     0.029 A 
ATOM     58  N   UNL A   1      46.027  28.968  28.604  1.00  0.00    -0.354 N 
ATOM     59  N   UNL A   1      43.174  29.545  28.985  1.00  0.00    -0.248 NA
ATOM     60  C   UNL A   1      41.466  31.001  29.623  1.00  0.00     0.031 C 
ATOM     61  C   UNL A   1      47.485  30.614  28.919  1.00  0.00     0.029 A 
ATOM     62  C   UNL A   1      46.135  30.303  28.960  1.00  0.00     0.049 A 
ATOM     63  H   UNL A   1      45.182  28.465  28.549  1.00  0.00     0.167 HD
ATOM     64  C   UNL A   1      43.725  30.780  29.301  1.00  0.00     0.074 A 
ATOM     65  C   UNL A   1      42.621  31.649  29.652  1.00  0.00     0.031 C 
ATOM     66  C   UNL A   1      45.027  31.160  29.299  1.00  0.00     0.037 A 
BRANCH  53  67
ATOM     67  C   UNL A   1      48.971  26.639  27.802  1.00  0.00     0.064 A 
ATOM     68  C   UNL A   1      49.556  26.504  26.533  1.00  0.00     0.173 A 
ATOM     69  C   UNL A   1      49.774  26.375  28.923  1.00  0.00     0.173 A 
ATOM     70  F   UNL A   1      48.831  26.733  25.427  1.00  0.00    -0.203 F 
ATOM     71  C   UNL A   1      50.875  26.082  26.392  1.00  0.00     0.198 A 
ATOM     72  C   UNL A   1      51.104  25.990  28.778  1.00  0.00     0.198 A 
ATOM     73  F   UNL A   1      49.270  26.496  30.161  1.00  0.00    -0.203 F 
ATOM     74  F   UNL A   1      51.391  25.899  25.168  1.00  0.00    -0.200 F 
ATOM     75  C   UNL A   1      51.650  25.832  27.514  1.00  0.00     0.200 A 
ATOM     76  F   UNL A   1      51.856  25.764  29.864  1.00  0.00    -0.200 F 
ATOM     77  F   UNL A   1      52.922  25.430  27.376  1.00  0.00    -0.200 F 
ENDBRANCH  53  67
BRANCH  54  78
ATOM     78  C   UNL A   1      39.359  29.034  29.118  1.00  0.00     0.064 A 
ATOM     79  C   UNL A   1      38.565  29.454  28.042  1.00  0.00     0.173 A 
ATOM     80  C   UNL A   1      38.764  28.985  30.387  1.00  0.00     0.173 A 
ATOM     81  F   UNL A   1      39.094  29.538  26.812  1.00  0.00    -0.203 F 
ATOM     82  C   UNL A   1      37.238  29.834  28.231  1.00  0.00     0.198 A 
ATOM     83  C   UNL A   1      37.428  29.334  30.569  1.00  0.00     0.198 A 
ATOM     84  F   UNL A   1      39.478  28.586  31.450  1.00  0.00    -0.203 F 
ATOM     85  F   UNL A   1      36.517  30.281  27.193  1.00  0.00    -0.200 F 
ATOM     86  C   UNL A   1      36.669  29.768  29.494  1.00  0.00     0.200 A 
ATOM     87  F   UNL A   1      36.877  29.254  31.789  1.00  0.00    -0.200 F 
ATOM     88  F   UNL A   1      35.391  30.131  29.675  1.00  0.00    -0.200 F 
ENDBRANCH  54  78
BRANCH  66  89
ATOM     89  C   UNL A   1      45.328  32.591  29.646  1.00  0.00     0.064 A 
ATOM     90  C   UNL A   1      45.621  32.991  30.958  1.00  0.00     0.173 A 
ATOM     91  C   UNL A   1      45.358  33.571  28.640  1.00  0.00     0.173 A 
ATOM     92  F   UNL A   1      45.590  32.098  31.958  1.00  0.00    -0.203 F 
ATOM     93  C   UNL A   1      45.903  34.322  31.256  1.00  0.00     0.198 A 
ATOM     94  C   UNL A   1      45.676  34.894  28.936  1.00  0.00     0.198 A 
ATOM     95  F   UNL A   1      45.093  33.243  27.367  1.00  0.00    -0.203 F 
ATOM     96  F   UNL A   1      46.125  34.690  32.525  1.00  0.00    -0.200 F 
ATOM     97  C   UNL A   1      45.939  35.270  30.243  1.00  0.00     0.200 A 
ATOM     98  F   UNL A   1      45.728  35.805  27.954  1.00  0.00    -0.200 F 
ATOM     99  F   UNL A   1      46.219  36.548  30.531  1.00  0.00    -0.200 F 
ENDBRANCH  66  89
ENDBRANCH  40  41
ENDBRANCH  32  35
ENDBRANCH  30  31
ENDBRANCH  29  30
ENDBRANCH  28  29
ENDBRANCH  27  28
ENDBRANCH   1  27
TORSDOF 17
ENDMDL
