MODEL 1
REMARK VINA RESULT:     -11.6      0.000      0.000
REMARK SMILES Cc1c(I)c(C(=O)NCCCCCCNC(=O)c2ccc(-c3c4nc(c(-c5c(F)c(F)c(F)c(F)c5F)c5ccc([nH]5)c(-c5c(F)c(F)c(F)c(F)c5F)c5nc(c(-c6c(F)c(F)c(F)c(F)c6F)c6ccc3[nH]6)C=C5)C=C4)cc2)nn1C(F)F
REMARK SMILES IDX 12 1 11 2 10 3 9 4 8 5 6 6 7 7 5 9 1 10 2 11 3 12 82 13 4 14
REMARK SMILES IDX 81 15 83 16 84 17 85 18 13 19 14 20 15 21 16 22 17 24 18 25
REMARK SMILES IDX 19 26 80 27 20 28 79 29 21 30 22 31 23 32 73 33 24 34 78 35
REMARK SMILES IDX 72 36 74 37 25 38 77 39 71 40 70 41 26 43 58 44 38 45 57 46
REMARK SMILES IDX 39 47 42 48 56 49 75 50 40 51 41 52 55 54 76 55 43 56 27 57
REMARK SMILES IDX 28 58 36 59 29 60 30 61 34 62 37 63 31 64 32 65 35 66 33 67
REMARK SMILES IDX 59 68 60 69 68 70 61 71 62 72 66 73 69 74 63 75 64 76 67 77
REMARK SMILES IDX 65 78 44 79 45 80 53 81 46 82 47 83 51 84 54 85 48 86 49 87
REMARK SMILES IDX 52 88 50 89
REMARK H PARENT 8 8 15 23 74 42 42 53
REMARK Flexibility Score: inf
ROOT
ATOM      1  C   UNL A   1      41.175  21.097  27.633  1.00  0.00     0.002 C 
ENDROOT
BRANCH   1   2
ATOM      2  C   UNL A   1      40.512  21.899  26.500  1.00  0.00     0.002 C 
BRANCH   2   3
ATOM      3  C   UNL A   1      39.170  21.360  25.996  1.00  0.00     0.021 C 
BRANCH   3   4
ATOM      4  C   UNL A   1      38.049  22.398  25.965  1.00  0.00     0.116 C 
BRANCH   4   5
ATOM      5  N   UNL A   1      37.757  22.831  24.610  1.00  0.00    -0.351 N 
ATOM      6  C   UNL A   1      36.589  22.853  23.875  1.00  0.00     0.272 C 
ATOM      7  O   UNL A   1      36.687  23.306  22.732  1.00  0.00    -0.267 OA
ATOM      8  H   UNL A   1      38.541  23.175  24.123  1.00  0.00     0.163 HD
BRANCH   6   9
ATOM      9  C   UNL A   1      35.301  22.378  24.434  1.00  0.00     0.163 A 
ATOM     10  C   UNL A   1      31.939  22.409  26.056  1.00  0.00     0.068 C 
ATOM     11  C   UNL A   1      33.262  22.239  25.402  1.00  0.00     0.056 A 
ATOM     12  C   UNL A   1      34.230  23.138  24.990  1.00  0.00     0.067 A 
ATOM     13  N   UNL A   1      33.774  21.004  25.080  1.00  0.00    -0.207 N 
ATOM     14  I   UNL A   1      34.087  25.160  25.185  1.00  0.00    -0.040 I 
ATOM     15  N   UNL A   1      34.979  21.076  24.488  1.00  0.00    -0.161 NA
BRANCH  13  16
ATOM     16  C   UNL A   1      33.180  19.685  25.311  1.00  0.00     0.465 C 
ATOM     17  F   UNL A   1      32.070  19.493  24.546  1.00  0.00    -0.184 F 
ATOM     18  F   UNL A   1      34.049  18.685  25.002  1.00  0.00    -0.184 F 
ENDBRANCH  13  16
ENDBRANCH   6   9
ENDBRANCH   4   5
ENDBRANCH   3   4
ENDBRANCH   2   3
ENDBRANCH   1   2
BRANCH   1  19
ATOM     19  C   UNL A   1      42.234  20.061  27.223  1.00  0.00     0.021 C 
BRANCH  19  20
ATOM     20  C   UNL A   1      42.247  19.754  25.737  1.00  0.00     0.116 C 
BRANCH  20  21
ATOM     21  N   UNL A   1      43.601  19.557  25.204  1.00  0.00    -0.352 N 
ATOM     22  C   UNL A   1      44.497  20.518  24.778  1.00  0.00     0.251 C 
ATOM     23  H   UNL A   1      43.907  18.624  25.140  1.00  0.00     0.163 HD
ATOM     24  O   UNL A   1      45.431  20.237  24.026  1.00  0.00    -0.269 OA
BRANCH  22  25
ATOM     25  C   UNL A   1      44.325  21.895  25.262  1.00  0.00     0.039 A 
ATOM     26  C   UNL A   1      43.447  22.809  24.668  1.00  0.00     0.014 A 
ATOM     27  C   UNL A   1      45.057  22.244  26.389  1.00  0.00     0.014 A 
ATOM     28  C   UNL A   1      43.278  24.054  25.272  1.00  0.00     0.010 A 
ATOM     29  C   UNL A   1      44.700  23.343  27.108  1.00  0.00     0.010 A 
ATOM     30  C   UNL A   1      43.907  24.303  26.501  1.00  0.00    -0.014 A 
BRANCH  30  31
ATOM     31  C   UNL A   1      43.721  25.538  27.246  1.00  0.00     0.031 A 
ATOM     32  C   UNL A   1      44.683  26.612  26.889  1.00  0.00     0.074 A 
ATOM     33  C   UNL A   1      42.610  25.755  27.987  1.00  0.00     0.049 A 
ATOM     34  N   UNL A   1      45.599  27.125  27.640  1.00  0.00    -0.248 NA
ATOM     35  C   UNL A   1      44.737  27.068  25.491  1.00  0.00     0.031 C 
ATOM     36  C   UNL A   1      41.427  24.895  28.146  1.00  0.00     0.029 A 
ATOM     37  N   UNL A   1      42.253  26.865  28.684  1.00  0.00    -0.354 N 
ATOM     38  C   UNL A   1      46.213  28.113  26.875  1.00  0.00     0.074 A 
ATOM     39  C   UNL A   1      45.780  27.900  25.521  1.00  0.00     0.031 C 
ATOM     40  C   UNL A   1      40.409  25.607  28.680  1.00  0.00     0.029 A 
ATOM     41  C   UNL A   1      40.915  26.909  29.067  1.00  0.00     0.049 A 
ATOM     42  H   UNL A   1      42.890  27.581  28.903  1.00  0.00     0.167 HD
ATOM     43  C   UNL A   1      46.823  29.174  27.475  1.00  0.00     0.037 A 
ATOM     44  C   UNL A   1      40.277  27.965  29.631  1.00  0.00     0.037 A 
ATOM     45  C   UNL A   1      47.038  28.912  28.877  1.00  0.00     0.049 A 
ATOM     46  C   UNL A   1      41.332  28.856  30.183  1.00  0.00     0.074 A 
ATOM     47  C   UNL A   1      47.753  27.967  29.586  1.00  0.00     0.029 A 
ATOM     48  N   UNL A   1      46.138  29.447  29.767  1.00  0.00    -0.354 N 
ATOM     49  N   UNL A   1      42.105  28.522  31.180  1.00  0.00    -0.248 NA
ATOM     50  C   UNL A   1      41.852  29.893  29.304  1.00  0.00     0.031 C 
ATOM     51  C   UNL A   1      46.919  27.636  30.695  1.00  0.00     0.029 A 
ATOM     52  C   UNL A   1      45.792  28.459  30.649  1.00  0.00     0.049 A 
ATOM     53  H   UNL A   1      45.802  30.373  29.769  1.00  0.00     0.167 HD
ATOM     54  C   UNL A   1      43.364  28.980  30.818  1.00  0.00     0.074 A 
ATOM     55  C   UNL A   1      43.133  29.871  29.681  1.00  0.00     0.031 C 
ATOM     56  C   UNL A   1      44.493  28.364  31.272  1.00  0.00     0.037 A 
BRANCH  43  57
ATOM     57  C   UNL A   1      46.864  30.577  26.919  1.00  0.00     0.064 A 
ATOM     58  C   UNL A   1      48.080  31.291  26.977  1.00  0.00     0.173 A 
ATOM     59  C   UNL A   1      45.720  31.353  26.636  1.00  0.00     0.173 A 
ATOM     60  F   UNL A   1      49.233  30.658  27.242  1.00  0.00    -0.203 F 
ATOM     61  C   UNL A   1      48.126  32.683  26.867  1.00  0.00     0.198 A 
ATOM     62  C   UNL A   1      45.778  32.735  26.474  1.00  0.00     0.198 A 
ATOM     63  F   UNL A   1      44.488  30.834  26.619  1.00  0.00    -0.203 F 
ATOM     64  F   UNL A   1      49.283  33.327  27.071  1.00  0.00    -0.200 F 
ATOM     65  C   UNL A   1      46.973  33.405  26.626  1.00  0.00     0.200 A 
ATOM     66  F   UNL A   1      44.646  33.420  26.255  1.00  0.00    -0.200 F 
ATOM     67  F   UNL A   1      47.001  34.744  26.591  1.00  0.00    -0.200 F 
ENDBRANCH  43  57
BRANCH  44  68
ATOM     68  C   UNL A   1      38.881  28.423  29.425  1.00  0.00     0.064 A 
ATOM     69  C   UNL A   1      38.025  28.661  30.513  1.00  0.00     0.173 A 
ATOM     70  C   UNL A   1      38.454  28.916  28.176  1.00  0.00     0.173 A 
ATOM     71  F   UNL A   1      38.378  28.267  31.745  1.00  0.00    -0.203 F 
ATOM     72  C   UNL A   1      36.828  29.374  30.367  1.00  0.00     0.198 A 
ATOM     73  C   UNL A   1      37.258  29.624  28.031  1.00  0.00     0.198 A 
ATOM     74  F   UNL A   1      39.235  28.807  27.092  1.00  0.00    -0.203 F 
ATOM     75  F   UNL A   1      36.069  29.635  31.440  1.00  0.00    -0.200 F 
ATOM     76  C   UNL A   1      36.453  29.865  29.128  1.00  0.00     0.200 A 
ATOM     77  F   UNL A   1      36.927  30.131  26.834  1.00  0.00    -0.200 F 
ATOM     78  F   UNL A   1      35.342  30.605  28.998  1.00  0.00    -0.200 F 
ENDBRANCH  44  68
BRANCH  56  79
ATOM     79  C   UNL A   1      44.355  27.337  32.362  1.00  0.00     0.064 A 
ATOM     80  C   UNL A   1      44.225  25.956  32.136  1.00  0.00     0.173 A 
ATOM     81  C   UNL A   1      44.558  27.758  33.682  1.00  0.00     0.173 A 
ATOM     82  F   UNL A   1      44.117  25.466  30.895  1.00  0.00    -0.203 F 
ATOM     83  C   UNL A   1      44.280  25.043  33.189  1.00  0.00     0.198 A 
ATOM     84  C   UNL A   1      44.645  26.844  34.727  1.00  0.00     0.198 A 
ATOM     85  F   UNL A   1      44.738  29.061  33.949  1.00  0.00    -0.203 F 
ATOM     86  F   UNL A   1      44.161  23.729  32.948  1.00  0.00    -0.200 F 
ATOM     87  C   UNL A   1      44.502  25.487  34.481  1.00  0.00     0.200 A 
ATOM     88  F   UNL A   1      44.910  27.276  35.967  1.00  0.00    -0.200 F 
ATOM     89  F   UNL A   1      44.608  24.609  35.488  1.00  0.00    -0.200 F 
ENDBRANCH  56  79
ENDBRANCH  30  31
ENDBRANCH  22  25
ENDBRANCH  20  21
ENDBRANCH  19  20
ENDBRANCH   1  19
TORSDOF 14
ENDMDL
MODEL 2
REMARK VINA RESULT:     -11.0      3.157      8.665
REMARK SMILES Cc1c(I)c(C(=O)NCCCCCCNC(=O)c2ccc(-c3c4nc(c(-c5c(F)c(F)c(F)c(F)c5F)c5ccc([nH]5)c(-c5c(F)c(F)c(F)c(F)c5F)c5nc(c(-c6c(F)c(F)c(F)c(F)c6F)c6ccc3[nH]6)C=C5)C=C4)cc2)nn1C(F)F
REMARK SMILES IDX 12 1 11 2 10 3 9 4 8 5 6 6 7 7 5 9 1 10 2 11 3 12 82 13 4 14
REMARK SMILES IDX 81 15 83 16 84 17 85 18 13 19 14 20 15 21 16 22 17 24 18 25
REMARK SMILES IDX 19 26 80 27 20 28 79 29 21 30 22 31 23 32 73 33 24 34 78 35
REMARK SMILES IDX 72 36 74 37 25 38 77 39 71 40 70 41 26 43 58 44 38 45 57 46
REMARK SMILES IDX 39 47 42 48 56 49 75 50 40 51 41 52 55 54 76 55 43 56 27 57
REMARK SMILES IDX 28 58 36 59 29 60 30 61 34 62 37 63 31 64 32 65 35 66 33 67
REMARK SMILES IDX 59 68 60 69 68 70 61 71 62 72 66 73 69 74 63 75 64 76 67 77
REMARK SMILES IDX 65 78 44 79 45 80 53 81 46 82 47 83 51 84 54 85 48 86 49 87
REMARK SMILES IDX 52 88 50 89
REMARK H PARENT 8 8 15 23 74 42 42 53
REMARK Flexibility Score: inf
ROOT
ATOM      1  C   UNL A   1      34.320  29.183  26.749  1.00  0.00     0.002 C 
ENDROOT
BRANCH   1   2
ATOM      2  C   UNL A   1      33.212  28.209  26.311  1.00  0.00     0.002 C 
BRANCH   2   3
ATOM      3  C   UNL A   1      33.639  26.750  26.127  1.00  0.00     0.021 C 
BRANCH   3   4
ATOM      4  C   UNL A   1      32.681  25.919  25.274  1.00  0.00     0.116 C 
BRANCH   4   5
ATOM      5  N   UNL A   1      33.078  25.909  23.877  1.00  0.00    -0.351 N 
ATOM      6  C   UNL A   1      33.915  25.082  23.157  1.00  0.00     0.272 C 
ATOM      7  O   UNL A   1      34.027  25.349  21.958  1.00  0.00    -0.267 OA
ATOM      8  H   UNL A   1      32.672  26.630  23.342  1.00  0.00     0.163 HD
BRANCH   6   9
ATOM      9  C   UNL A   1      34.619  23.939  23.786  1.00  0.00     0.163 A 
ATOM     10  C   UNL A   1      35.342  20.485  25.001  1.00  0.00     0.068 C 
ATOM     11  C   UNL A   1      35.194  21.901  24.579  1.00  0.00     0.056 A 
ATOM     12  C   UNL A   1      34.214  22.575  23.872  1.00  0.00     0.067 A 
ATOM     13  N   UNL A   1      36.131  22.863  24.880  1.00  0.00    -0.207 N 
ATOM     14  I   UNL A   1      32.526  21.711  23.130  1.00  0.00    -0.040 I 
ATOM     15  N   UNL A   1      35.806  24.076  24.397  1.00  0.00    -0.161 NA
BRANCH  13  16
ATOM     16  C   UNL A   1      37.374  22.716  25.639  1.00  0.00     0.465 C 
ATOM     17  F   UNL A   1      38.256  21.896  25.003  1.00  0.00    -0.184 F 
ATOM     18  F   UNL A   1      38.000  23.912  25.808  1.00  0.00    -0.184 F 
ENDBRANCH  13  16
ENDBRANCH   6   9
ENDBRANCH   4   5
ENDBRANCH   3   4
ENDBRANCH   2   3
ENDBRANCH   1   2
BRANCH   1  19
ATOM     19  C   UNL A   1      33.868  30.501  27.399  1.00  0.00     0.021 C 
BRANCH  19  20
ATOM     20  C   UNL A   1      34.997  31.489  27.626  1.00  0.00     0.116 C 
BRANCH  20  21
ATOM     21  N   UNL A   1      34.805  32.313  28.827  1.00  0.00    -0.352 N 
ATOM     22  C   UNL A   1      35.294  32.089  30.100  1.00  0.00     0.251 C 
ATOM     23  H   UNL A   1      34.260  33.123  28.711  1.00  0.00     0.163 HD
ATOM     24  O   UNL A   1      34.785  32.623  31.086  1.00  0.00    -0.269 OA
BRANCH  22  25
ATOM     25  C   UNL A   1      36.460  31.208  30.254  1.00  0.00     0.039 A 
ATOM     26  C   UNL A   1      36.360  29.816  30.338  1.00  0.00     0.014 A 
ATOM     27  C   UNL A   1      37.700  31.833  30.269  1.00  0.00     0.014 A 
ATOM     28  C   UNL A   1      37.535  29.067  30.372  1.00  0.00     0.010 A 
ATOM     29  C   UNL A   1      38.825  31.098  30.045  1.00  0.00     0.010 A 
ATOM     30  C   UNL A   1      38.764  29.725  30.215  1.00  0.00    -0.014 A 
BRANCH  30  31
ATOM     31  C   UNL A   1      40.034  29.019  30.153  1.00  0.00     0.031 A 
ATOM     32  C   UNL A   1      40.677  28.810  31.475  1.00  0.00     0.074 A 
ATOM     33  C   UNL A   1      40.436  28.390  29.025  1.00  0.00     0.049 A 
ATOM     34  N   UNL A   1      41.785  29.319  31.897  1.00  0.00    -0.248 NA
ATOM     35  C   UNL A   1      39.932  28.070  32.507  1.00  0.00     0.031 C 
ATOM     36  C   UNL A   1      39.723  28.243  27.747  1.00  0.00     0.029 A 
ATOM     37  N   UNL A   1      41.550  27.639  28.818  1.00  0.00    -0.354 N 
ATOM     38  C   UNL A   1      41.983  28.801  33.174  1.00  0.00     0.074 A 
ATOM     39  C   UNL A   1      40.734  28.206  33.565  1.00  0.00     0.031 C 
ATOM     40  C   UNL A   1      40.301  27.272  27.006  1.00  0.00     0.029 A 
ATOM     41  C   UNL A   1      41.522  26.856  27.667  1.00  0.00     0.049 A 
ATOM     42  H   UNL A   1      42.318  27.650  29.434  1.00  0.00     0.167 HD
ATOM     43  C   UNL A   1      43.240  28.689  33.689  1.00  0.00     0.037 A 
ATOM     44  C   UNL A   1      42.433  25.913  27.316  1.00  0.00     0.037 A 
ATOM     45  C   UNL A   1      44.176  29.476  32.924  1.00  0.00     0.049 A 
ATOM     46  C   UNL A   1      43.662  26.193  28.105  1.00  0.00     0.074 A 
ATOM     47  C   UNL A   1      44.301  30.821  32.637  1.00  0.00     0.029 A 
ATOM     48  N   UNL A   1      44.940  28.820  31.989  1.00  0.00    -0.354 N 
ATOM     49  N   UNL A   1      44.394  27.260  27.941  1.00  0.00    -0.248 NA
ATOM     50  C   UNL A   1      43.781  25.542  29.402  1.00  0.00     0.031 C 
ATOM     51  C   UNL A   1      44.710  30.866  31.272  1.00  0.00     0.029 A 
ATOM     52  C   UNL A   1      44.897  29.554  30.833  1.00  0.00     0.049 A 
ATOM     53  H   UNL A   1      45.428  27.976  32.125  1.00  0.00     0.167 HD
ATOM     54  C   UNL A   1      44.728  27.660  29.227  1.00  0.00     0.074 A 
ATOM     55  C   UNL A   1      44.373  26.527  30.082  1.00  0.00     0.031 C 
ATOM     56  C   UNL A   1      44.971  28.971  29.514  1.00  0.00     0.037 A 
BRANCH  43  57
ATOM     57  C   UNL A   1      43.704  27.584  34.607  1.00  0.00     0.064 A 
ATOM     58  C   UNL A   1      43.617  26.249  34.157  1.00  0.00     0.173 A 
ATOM     59  C   UNL A   1      43.921  27.742  35.992  1.00  0.00     0.173 A 
ATOM     60  F   UNL A   1      43.408  25.978  32.859  1.00  0.00    -0.203 F 
ATOM     61  C   UNL A   1      43.637  25.168  35.039  1.00  0.00     0.198 A 
ATOM     62  C   UNL A   1      43.996  26.656  36.863  1.00  0.00     0.198 A 
ATOM     63  F   UNL A   1      43.955  28.942  36.581  1.00  0.00    -0.203 F 
ATOM     64  F   UNL A   1      43.408  23.930  34.580  1.00  0.00    -0.200 F 
ATOM     65  C   UNL A   1      43.816  25.373  36.394  1.00  0.00     0.200 A 
ATOM     66  F   UNL A   1      44.154  26.877  38.176  1.00  0.00    -0.200 F 
ATOM     67  F   UNL A   1      43.766  24.346  37.253  1.00  0.00    -0.200 F 
ENDBRANCH  43  57
BRANCH  44  68
ATOM     68  C   UNL A   1      42.207  24.617  26.633  1.00  0.00     0.064 A 
ATOM     69  C   UNL A   1      43.093  24.149  25.648  1.00  0.00     0.173 A 
ATOM     70  C   UNL A   1      41.285  23.678  27.138  1.00  0.00     0.173 A 
ATOM     71  F   UNL A   1      44.033  24.965  25.148  1.00  0.00    -0.203 F 
ATOM     72  C   UNL A   1      43.077  22.818  25.214  1.00  0.00     0.198 A 
ATOM     73  C   UNL A   1      41.269  22.350  26.703  1.00  0.00     0.198 A 
ATOM     74  F   UNL A   1      40.450  24.005  28.134  1.00  0.00    -0.203 F 
ATOM     75  F   UNL A   1      43.980  22.394  24.318  1.00  0.00    -0.200 F 
ATOM     76  C   UNL A   1      42.173  21.917  25.752  1.00  0.00     0.200 A 
ATOM     77  F   UNL A   1      40.417  21.479  27.262  1.00  0.00    -0.200 F 
ATOM     78  F   UNL A   1      42.201  20.627  25.388  1.00  0.00    -0.200 F 
ENDBRANCH  44  68
BRANCH  56  79
ATOM     79  C   UNL A   1      45.113  29.937  28.371  1.00  0.00     0.064 A 
ATOM     80  C   UNL A   1      44.055  30.695  27.840  1.00  0.00     0.173 A 
ATOM     81  C   UNL A   1      46.407  30.241  27.932  1.00  0.00     0.173 A 
ATOM     82  F   UNL A   1      42.799  30.525  28.272  1.00  0.00    -0.203 F 
ATOM     83  C   UNL A   1      44.286  31.699  26.901  1.00  0.00     0.198 A 
ATOM     84  C   UNL A   1      46.639  31.266  27.021  1.00  0.00     0.198 A 
ATOM     85  F   UNL A   1      47.459  29.583  28.443  1.00  0.00    -0.203 F 
ATOM     86  F   UNL A   1      43.261  32.415  26.414  1.00  0.00    -0.200 F 
ATOM     87  C   UNL A   1      45.578  31.992  26.502  1.00  0.00     0.200 A 
ATOM     88  F   UNL A   1      47.896  31.576  26.676  1.00  0.00    -0.200 F 
ATOM     89  F   UNL A   1      45.809  32.992  25.640  1.00  0.00    -0.200 F 
ENDBRANCH  56  79
ENDBRANCH  30  31
ENDBRANCH  22  25
ENDBRANCH  20  21
ENDBRANCH  19  20
ENDBRANCH   1  19
TORSDOF 14
ENDMDL
MODEL 3
REMARK VINA RESULT:     -11.0      4.124      6.615
REMARK SMILES Cc1c(I)c(C(=O)NCCCCCCNC(=O)c2ccc(-c3c4nc(c(-c5c(F)c(F)c(F)c(F)c5F)c5ccc([nH]5)c(-c5c(F)c(F)c(F)c(F)c5F)c5nc(c(-c6c(F)c(F)c(F)c(F)c6F)c6ccc3[nH]6)C=C5)C=C4)cc2)nn1C(F)F
REMARK SMILES IDX 12 1 11 2 10 3 9 4 8 5 6 6 7 7 5 9 1 10 2 11 3 12 82 13 4 14
REMARK SMILES IDX 81 15 83 16 84 17 85 18 13 19 14 20 15 21 16 22 17 24 18 25
REMARK SMILES IDX 19 26 80 27 20 28 79 29 21 30 22 31 23 32 73 33 24 34 78 35
REMARK SMILES IDX 72 36 74 37 25 38 77 39 71 40 70 41 26 43 58 44 38 45 57 46
REMARK SMILES IDX 39 47 42 48 56 49 75 50 40 51 41 52 55 54 76 55 43 56 27 57
REMARK SMILES IDX 28 58 36 59 29 60 30 61 34 62 37 63 31 64 32 65 35 66 33 67
REMARK SMILES IDX 59 68 60 69 68 70 61 71 62 72 66 73 69 74 63 75 64 76 67 77
REMARK SMILES IDX 65 78 44 79 45 80 53 81 46 82 47 83 51 84 54 85 48 86 49 87
REMARK SMILES IDX 52 88 50 89
REMARK H PARENT 8 8 15 23 74 42 42 53
REMARK Flexibility Score: inf
ROOT
ATOM      1  C   UNL A   1      44.633  24.396  24.994  1.00  0.00     0.002 C 
ENDROOT
BRANCH   1   2
ATOM      2  C   UNL A   1      44.343  25.725  25.713  1.00  0.00     0.002 C 
BRANCH   2   3
ATOM      3  C   UNL A   1      45.267  26.894  25.358  1.00  0.00     0.021 C 
BRANCH   3   4
ATOM      4  C   UNL A   1      46.348  27.176  26.400  1.00  0.00     0.116 C 
BRANCH   4   5
ATOM      5  N   UNL A   1      47.312  26.093  26.481  1.00  0.00    -0.351 N 
ATOM      6  C   UNL A   1      47.744  25.313  27.534  1.00  0.00     0.272 C 
ATOM      7  O   UNL A   1      48.582  24.453  27.252  1.00  0.00    -0.267 OA
ATOM      8  H   UNL A   1      47.738  25.873  25.621  1.00  0.00     0.163 HD
BRANCH   6   9
ATOM      9  C   UNL A   1      47.219  25.491  28.909  1.00  0.00     0.163 A 
ATOM     10  C   UNL A   1      47.072  26.339  32.541  1.00  0.00     0.068 C 
ATOM     11  C   UNL A   1      46.980  25.954  31.109  1.00  0.00     0.056 A 
ATOM     12  C   UNL A   1      47.874  26.028  30.056  1.00  0.00     0.067 A 
ATOM     13  N   UNL A   1      45.847  25.394  30.566  1.00  0.00    -0.207 N 
ATOM     14  I   UNL A   1      49.766  26.769  30.195  1.00  0.00    -0.040 I 
ATOM     15  N   UNL A   1      45.973  25.130  29.253  1.00  0.00    -0.161 NA
BRANCH  13  16
ATOM     16  C   UNL A   1      44.587  25.063  31.235  1.00  0.00     0.465 C 
ATOM     17  F   UNL A   1      43.733  26.123  31.249  1.00  0.00    -0.184 F 
ATOM     18  F   UNL A   1      43.940  24.045  30.604  1.00  0.00    -0.184 F 
ENDBRANCH  13  16
ENDBRANCH   6   9
ENDBRANCH   4   5
ENDBRANCH   3   4
ENDBRANCH   2   3
ENDBRANCH   1   2
BRANCH   1  19
ATOM     19  C   UNL A   1      43.425  23.497  24.684  1.00  0.00     0.021 C 
BRANCH  19  20
ATOM     20  C   UNL A   1      43.172  22.429  25.731  1.00  0.00     0.116 C 
BRANCH  20  21
ATOM     21  N   UNL A   1      41.764  22.021  25.807  1.00  0.00    -0.352 N 
ATOM     22  C   UNL A   1      40.746  22.607  26.535  1.00  0.00     0.251 C 
ATOM     23  H   UNL A   1      41.514  21.232  25.275  1.00  0.00     0.163 HD
ATOM     24  O   UNL A   1      39.718  21.989  26.814  1.00  0.00    -0.269 OA
BRANCH  22  25
ATOM     25  C   UNL A   1      40.906  24.006  26.957  1.00  0.00     0.039 A 
ATOM     26  C   UNL A   1      40.331  25.080  26.271  1.00  0.00     0.014 A 
ATOM     27  C   UNL A   1      41.634  24.214  28.120  1.00  0.00     0.014 A 
ATOM     28  C   UNL A   1      40.453  26.357  26.817  1.00  0.00     0.010 A 
ATOM     29  C   UNL A   1      41.531  25.404  28.773  1.00  0.00     0.010 A 
ATOM     30  C   UNL A   1      41.050  26.502  28.079  1.00  0.00    -0.014 A 
BRANCH  30  31
ATOM     31  C   UNL A   1      41.145  27.780  28.764  1.00  0.00     0.031 A 
ATOM     32  C   UNL A   1      42.286  28.622  28.323  1.00  0.00     0.074 A 
ATOM     33  C   UNL A   1      40.130  28.248  29.527  1.00  0.00     0.049 A 
ATOM     34  N   UNL A   1      43.316  28.973  29.017  1.00  0.00    -0.248 NA
ATOM     35  C   UNL A   1      42.372  28.996  26.902  1.00  0.00     0.031 C 
ATOM     36  C   UNL A   1      38.808  27.652  29.768  1.00  0.00     0.029 A 
ATOM     37  N   UNL A   1      40.030  29.437  30.177  1.00  0.00    -0.354 N 
ATOM     38  C   UNL A   1      44.083  29.783  28.184  1.00  0.00     0.074 A 
ATOM     39  C   UNL A   1      43.561  29.602  26.856  1.00  0.00     0.031 C 
ATOM     40  C   UNL A   1      37.975  28.577  30.296  1.00  0.00     0.029 A 
ATOM     41  C   UNL A   1      38.745  29.767  30.599  1.00  0.00     0.049 A 
ATOM     42  H   UNL A   1      40.807  30.020  30.339  1.00  0.00     0.167 HD
ATOM     43  C   UNL A   1      44.916  30.725  28.708  1.00  0.00     0.037 A 
ATOM     44  C   UNL A   1      38.354  30.953  31.129  1.00  0.00     0.037 A 
ATOM     45  C   UNL A   1      45.132  30.487  30.115  1.00  0.00     0.049 A 
ATOM     46  C   UNL A   1      39.588  31.637  31.601  1.00  0.00     0.074 A 
ATOM     47  C   UNL A   1      45.672  29.449  30.849  1.00  0.00     0.029 A 
ATOM     48  N   UNL A   1      44.394  31.231  31.004  1.00  0.00    -0.354 N 
ATOM     49  N   UNL A   1      40.319  31.199  32.589  1.00  0.00    -0.248 NA
ATOM     50  C   UNL A   1      40.268  32.509  30.653  1.00  0.00     0.031 C 
ATOM     51  C   UNL A   1      44.836  29.342  31.999  1.00  0.00     0.029 A 
ATOM     52  C   UNL A   1      43.894  30.372  31.947  1.00  0.00     0.049 A 
ATOM     53  H   UNL A   1      44.250  32.204  30.969  1.00  0.00     0.167 HD
ATOM     54  C   UNL A   1      41.628  31.378  32.165  1.00  0.00     0.074 A 
ATOM     55  C   UNL A   1      41.533  32.246  30.991  1.00  0.00     0.031 C 
ATOM     56  C   UNL A   1      42.629  30.568  32.614  1.00  0.00     0.037 A 
BRANCH  43  57
ATOM     57  C   UNL A   1      45.213  32.065  28.081  1.00  0.00     0.064 A 
ATOM     58  C   UNL A   1      44.149  32.974  27.894  1.00  0.00     0.173 A 
ATOM     59  C   UNL A   1      46.397  32.367  27.376  1.00  0.00     0.173 A 
ATOM     60  F   UNL A   1      42.973  32.787  28.512  1.00  0.00    -0.203 F 
ATOM     61  C   UNL A   1      44.234  34.036  26.991  1.00  0.00     0.198 A 
ATOM     62  C   UNL A   1      46.495  33.459  26.517  1.00  0.00     0.198 A 
ATOM     63  F   UNL A   1      47.466  31.564  27.393  1.00  0.00    -0.203 F 
ATOM     64  F   UNL A   1      43.151  34.785  26.743  1.00  0.00    -0.200 F 
ATOM     65  C   UNL A   1      45.404  34.271  26.295  1.00  0.00     0.200 A 
ATOM     66  F   UNL A   1      47.634  33.662  25.838  1.00  0.00    -0.200 F 
ATOM     67  F   UNL A   1      45.467  35.244  25.376  1.00  0.00    -0.200 F 
ENDBRANCH  43  57
BRANCH  44  68
ATOM     68  C   UNL A   1      37.071  31.673  30.943  1.00  0.00     0.064 A 
ATOM     69  C   UNL A   1      36.234  31.961  32.034  1.00  0.00     0.173 A 
ATOM     70  C   UNL A   1      36.782  32.348  29.740  1.00  0.00     0.173 A 
ATOM     71  F   UNL A   1      36.468  31.399  33.228  1.00  0.00    -0.203 F 
ATOM     72  C   UNL A   1      35.189  32.889  31.936  1.00  0.00     0.198 A 
ATOM     73  C   UNL A   1      35.738  33.270  29.643  1.00  0.00     0.198 A 
ATOM     74  F   UNL A   1      37.567  32.198  28.665  1.00  0.00    -0.203 F 
ATOM     75  F   UNL A   1      34.452  33.184  33.016  1.00  0.00    -0.200 F 
ATOM     76  C   UNL A   1      34.950  33.551  30.744  1.00  0.00     0.200 A 
ATOM     77  F   UNL A   1      35.544  33.936  28.495  1.00  0.00    -0.200 F 
ATOM     78  F   UNL A   1      33.994  34.489  30.667  1.00  0.00    -0.200 F 
ENDBRANCH  44  68
BRANCH  56  79
ATOM     79  C   UNL A   1      42.334  29.639  33.759  1.00  0.00     0.064 A 
ATOM     80  C   UNL A   1      41.869  28.321  33.608  1.00  0.00     0.173 A 
ATOM     81  C   UNL A   1      42.725  30.042  35.042  1.00  0.00     0.173 A 
ATOM     82  F   UNL A   1      41.558  27.831  32.402  1.00  0.00    -0.203 F 
ATOM     83  C   UNL A   1      41.784  27.456  34.699  1.00  0.00     0.198 A 
ATOM     84  C   UNL A   1      42.672  29.167  36.121  1.00  0.00     0.198 A 
ATOM     85  F   UNL A   1      43.224  31.273  35.233  1.00  0.00    -0.203 F 
ATOM     86  F   UNL A   1      41.344  26.200  34.530  1.00  0.00    -0.200 F 
ATOM     87  C   UNL A   1      42.197  27.876  35.952  1.00  0.00     0.200 A 
ATOM     88  F   UNL A   1      43.119  29.565  37.320  1.00  0.00    -0.200 F 
ATOM     89  F   UNL A   1      42.167  27.030  36.991  1.00  0.00    -0.200 F 
ENDBRANCH  56  79
ENDBRANCH  30  31
ENDBRANCH  22  25
ENDBRANCH  20  21
ENDBRANCH  19  20
ENDBRANCH   1  19
TORSDOF 14
ENDMDL
