MODEL 1
REMARK VINA RESULT:     -12.4      0.000      0.000
REMARK SMILES [NH3+][C@@H](CNc1ccc(C(=O)NCCCCCCNC(=O)c2ccc(-c3c4nc(c(-c5c(F)c(F)c(F)c(F)c5F)c5ccc([nH]5)c(-c5c(F)c(F)c(F)c(F)c5F)c5nc(c(-c6c(F)c(F)c(F)c(F)c6F)c6ccc3[nH]6)C=C5)C=C4)cc2)c(F)c1F)c1ccccc1
REMARK SMILES IDX 13 1 12 2 11 3 9 4 10 5 8 7 5 8 6 9 86 10 7 11 84 12 87 13
REMARK SMILES IDX 85 14 4 15 3 17 2 18 1 19 88 23 89 24 93 25 90 26 92 27
REMARK SMILES IDX 91 28 14 29 15 30 16 31 17 32 18 33 19 34 20 36 21 37 22 38
REMARK SMILES IDX 83 39 23 40 82 41 24 42 25 43 26 44 76 45 27 46 81 47 75 48
REMARK SMILES IDX 77 49 28 50 80 51 74 52 73 53 29 55 61 56 41 57 60 58 42 59
REMARK SMILES IDX 45 60 59 61 78 62 43 63 44 64 58 66 79 67 46 68 30 69 31 70
REMARK SMILES IDX 39 71 32 72 33 73 37 74 40 75 34 76 35 77 38 78 36 79 62 80
REMARK SMILES IDX 63 81 71 82 64 83 65 84 69 85 72 86 66 87 67 88 70 89 68 90
REMARK SMILES IDX 47 91 48 92 56 93 49 94 50 95 54 96 57 97 51 98 52 99 55 100
REMARK SMILES IDX 53 101
REMARK H PARENT 11 6 4 16 1 20 1 21 1 22 18 35 77 54 45 65
REMARK Flexibility Score: inf
ROOT
ATOM      1  C   UNL A   1      33.100  29.425  25.285  1.00  0.00     0.021 C 
ENDROOT
BRANCH   1   2
ATOM      2  C   UNL A   1      33.209  29.011  23.820  1.00  0.00     0.116 C 
BRANCH   2   3
ATOM      3  N   UNL A   1      31.964  29.136  23.088  1.00  0.00    -0.352 N 
ATOM      4  C   UNL A   1      31.089  28.180  22.635  1.00  0.00     0.254 C 
ATOM      5  O   UNL A   1      30.092  28.552  22.016  1.00  0.00    -0.269 OA
ATOM      6  H   UNL A   1      31.700  30.062  22.883  1.00  0.00     0.163 HD
BRANCH   4   7
ATOM      7  C   UNL A   1      31.322  26.723  22.788  1.00  0.00     0.078 A 
ATOM      8  C   UNL A   1      31.582  23.924  23.181  1.00  0.00     0.074 A 
ATOM      9  C   UNL A   1      30.696  24.674  23.958  1.00  0.00     0.030 A 
ATOM     10  C   UNL A   1      32.379  24.618  22.258  1.00  0.00     0.182 A 
ATOM     11  C   UNL A   1      30.563  26.055  23.763  1.00  0.00     0.019 A 
ATOM     12  C   UNL A   1      32.274  25.998  22.081  1.00  0.00     0.173 A 
ATOM     13  F   UNL A   1      33.260  23.929  21.511  1.00  0.00    -0.201 F 
ATOM     14  F   UNL A   1      33.126  26.596  21.236  1.00  0.00    -0.203 F 
BRANCH   8  15
ATOM     15  N   UNL A   1      31.691  22.541  23.296  1.00  0.00    -0.376 N 
ATOM     16  H   UNL A   1      30.994  21.967  22.902  1.00  0.00     0.160 HD
BRANCH  15  17
ATOM     17  C   UNL A   1      32.822  21.923  23.994  1.00  0.00     0.183 C 
BRANCH  17  18
ATOM     18  C   UNL A   1      32.393  20.658  24.813  1.00  0.00     0.231 C 
BRANCH  18  19
ATOM     19  N   UNL A   1      32.666  20.844  26.253  1.00  0.00    -0.350 N 
ATOM     20  H   UNL A   1      33.351  20.154  26.562  1.00  0.00     0.345 HD
ATOM     21  H   UNL A   1      31.802  20.725  26.781  1.00  0.00     0.345 HD
ATOM     22  H   UNL A   1      33.034  21.782  26.411  1.00  0.00     0.345 HD
ENDBRANCH  18  19
BRANCH  18  23
ATOM     23  C   UNL A   1      32.981  19.366  24.248  1.00  0.00     0.011 A 
ATOM     24  C   UNL A   1      34.149  18.772  24.756  1.00  0.00     0.010 A 
ATOM     25  C   UNL A   1      32.338  18.726  23.172  1.00  0.00     0.010 A 
ATOM     26  C   UNL A   1      34.669  17.603  24.193  1.00  0.00     0.001 A 
ATOM     27  C   UNL A   1      32.859  17.560  22.607  1.00  0.00     0.001 A 
ATOM     28  C   UNL A   1      34.029  17.001  23.115  1.00  0.00     0.000 A 
ENDBRANCH  18  23
ENDBRANCH  17  18
ENDBRANCH  15  17
ENDBRANCH   8  15
ENDBRANCH   4   7
ENDBRANCH   2   3
ENDBRANCH   1   2
BRANCH   1  29
ATOM     29  C   UNL A   1      31.695  29.742  25.803  1.00  0.00     0.002 C 
BRANCH  29  30
ATOM     30  C   UNL A   1      31.264  31.211  25.762  1.00  0.00     0.002 C 
BRANCH  30  31
ATOM     31  C   UNL A   1      31.392  31.991  27.073  1.00  0.00     0.021 C 
BRANCH  31  32
ATOM     32  C   UNL A   1      32.683  32.783  27.249  1.00  0.00     0.116 C 
BRANCH  32  33
ATOM     33  N   UNL A   1      32.450  34.167  27.626  1.00  0.00    -0.352 N 
ATOM     34  C   UNL A   1      33.051  34.924  28.601  1.00  0.00     0.251 C 
ATOM     35  H   UNL A   1      31.758  34.630  27.102  1.00  0.00     0.163 HD
ATOM     36  O   UNL A   1      32.610  36.034  28.877  1.00  0.00    -0.269 OA
BRANCH  34  37
ATOM     37  C   UNL A   1      34.219  34.395  29.342  1.00  0.00     0.039 A 
ATOM     38  C   UNL A   1      33.995  33.630  30.490  1.00  0.00     0.014 A 
ATOM     39  C   UNL A   1      35.524  34.660  28.921  1.00  0.00     0.014 A 
ATOM     40  C   UNL A   1      35.077  33.075  31.177  1.00  0.00     0.010 A 
ATOM     41  C   UNL A   1      36.598  34.046  29.562  1.00  0.00     0.010 A 
ATOM     42  C   UNL A   1      36.386  33.247  30.695  1.00  0.00    -0.014 A 
BRANCH  42  43
ATOM     43  C   UNL A   1      37.541  32.585  31.354  1.00  0.00     0.031 A 
ATOM     44  C   UNL A   1      38.259  31.455  30.674  1.00  0.00     0.074 A 
ATOM     45  C   UNL A   1      37.908  32.970  32.591  1.00  0.00     0.049 A 
ATOM     46  N   UNL A   1      39.242  30.712  31.118  1.00  0.00    -0.248 NA
ATOM     47  C   UNL A   1      37.799  31.094  29.324  1.00  0.00     0.031 C 
ATOM     48  C   UNL A   1      37.270  34.035  33.365  1.00  0.00     0.029 A 
ATOM     49  N   UNL A   1      38.902  32.508  33.418  1.00  0.00    -0.354 N 
ATOM     50  C   UNL A   1      39.514  29.801  30.108  1.00  0.00     0.074 A 
ATOM     51  C   UNL A   1      38.554  30.040  29.052  1.00  0.00     0.031 C 
ATOM     52  C   UNL A   1      37.907  34.168  34.538  1.00  0.00     0.029 A 
ATOM     53  C   UNL A   1      38.967  33.168  34.622  1.00  0.00     0.049 A 
ATOM     54  H   UNL A   1      39.510  31.773  33.172  1.00  0.00     0.167 HD
ATOM     55  C   UNL A   1      40.492  28.865  30.055  1.00  0.00     0.037 A 
ATOM     56  C   UNL A   1      39.786  32.984  35.676  1.00  0.00     0.037 A 
ATOM     57  C   UNL A   1      41.453  28.641  31.105  1.00  0.00     0.049 A 
ATOM     58  C   UNL A   1      40.839  31.912  35.612  1.00  0.00     0.074 A 
ATOM     59  C   UNL A   1      42.504  27.742  31.131  1.00  0.00     0.029 A 
ATOM     60  N   UNL A   1      41.477  29.319  32.315  1.00  0.00    -0.354 N 
ATOM     61  N   UNL A   1      41.115  31.084  34.634  1.00  0.00    -0.248 NA
ATOM     62  C   UNL A   1      41.694  31.749  36.796  1.00  0.00     0.031 C 
ATOM     63  C   UNL A   1      43.129  27.836  32.378  1.00  0.00     0.029 A 
ATOM     64  C   UNL A   1      42.510  28.839  33.105  1.00  0.00     0.049 A 
ATOM     65  H   UNL A   1      40.853  30.035  32.574  1.00  0.00     0.167 HD
ATOM     66  C   UNL A   1      42.189  30.322  35.070  1.00  0.00     0.074 A 
ATOM     67  C   UNL A   1      42.523  30.793  36.398  1.00  0.00     0.031 C 
ATOM     68  C   UNL A   1      42.838  29.321  34.425  1.00  0.00     0.037 A 
BRANCH  55  69
ATOM     69  C   UNL A   1      40.587  28.019  28.818  1.00  0.00     0.064 A 
ATOM     70  C   UNL A   1      41.340  28.448  27.714  1.00  0.00     0.173 A 
ATOM     71  C   UNL A   1      39.879  26.813  28.698  1.00  0.00     0.173 A 
ATOM     72  F   UNL A   1      42.031  29.597  27.770  1.00  0.00    -0.203 F 
ATOM     73  C   UNL A   1      41.372  27.707  26.535  1.00  0.00     0.198 A 
ATOM     74  C   UNL A   1      39.940  26.058  27.529  1.00  0.00     0.198 A 
ATOM     75  F   UNL A   1      39.150  26.352  29.725  1.00  0.00    -0.203 F 
ATOM     76  F   UNL A   1      42.072  28.154  25.483  1.00  0.00    -0.200 F 
ATOM     77  C   UNL A   1      40.677  26.510  26.446  1.00  0.00     0.200 A 
ATOM     78  F   UNL A   1      39.290  24.888  27.455  1.00  0.00    -0.200 F 
ATOM     79  F   UNL A   1      40.722  25.791  25.316  1.00  0.00    -0.200 F 
ENDBRANCH  55  69
BRANCH  56  80
ATOM     80  C   UNL A   1      39.659  33.872  36.861  1.00  0.00     0.064 A 
ATOM     81  C   UNL A   1      38.861  33.520  37.961  1.00  0.00     0.173 A 
ATOM     82  C   UNL A   1      40.297  35.119  36.892  1.00  0.00     0.173 A 
ATOM     83  F   UNL A   1      38.224  32.340  37.979  1.00  0.00    -0.203 F 
ATOM     84  C   UNL A   1      38.684  34.395  39.031  1.00  0.00     0.198 A 
ATOM     85  C   UNL A   1      40.143  35.981  37.977  1.00  0.00     0.198 A 
ATOM     86  F   UNL A   1      41.086  35.493  35.874  1.00  0.00    -0.203 F 
ATOM     87  F   UNL A   1      37.881  34.052  40.048  1.00  0.00    -0.200 F 
ATOM     88  C   UNL A   1      39.327  35.623  39.040  1.00  0.00     0.200 A 
ATOM     89  F   UNL A   1      40.784  37.157  37.991  1.00  0.00    -0.200 F 
ATOM     90  F   UNL A   1      39.161  36.462  40.072  1.00  0.00    -0.200 F 
ENDBRANCH  56  80
BRANCH  68  91
ATOM     91  C   UNL A   1      43.996  28.670  35.126  1.00  0.00     0.064 A 
ATOM     92  C   UNL A   1      43.788  27.556  35.955  1.00  0.00     0.173 A 
ATOM     93  C   UNL A   1      45.293  29.198  35.051  1.00  0.00     0.173 A 
ATOM     94  F   UNL A   1      42.565  27.017  36.070  1.00  0.00    -0.203 F 
ATOM     95  C   UNL A   1      44.831  27.011  36.698  1.00  0.00     0.198 A 
ATOM     96  C   UNL A   1      46.341  28.629  35.769  1.00  0.00     0.198 A 
ATOM     97  F   UNL A   1      45.546  30.254  34.262  1.00  0.00    -0.203 F 
ATOM     98  F   UNL A   1      44.597  25.975  37.517  1.00  0.00    -0.200 F 
ATOM     99  C   UNL A   1      46.106  27.545  36.602  1.00  0.00     0.200 A 
ATOM    100  F   UNL A   1      47.578  29.130  35.658  1.00  0.00    -0.200 F 
ATOM    101  F   UNL A   1      47.111  27.013  37.313  1.00  0.00    -0.200 F 
ENDBRANCH  68  91
ENDBRANCH  42  43
ENDBRANCH  34  37
ENDBRANCH  32  33
ENDBRANCH  31  32
ENDBRANCH  30  31
ENDBRANCH  29  30
ENDBRANCH   1  29
TORSDOF 18
ENDMDL
MODEL 2
REMARK VINA RESULT:     -12.4      1.410      2.455
REMARK SMILES [NH3+][C@@H](CNc1ccc(C(=O)NCCCCCCNC(=O)c2ccc(-c3c4nc(c(-c5c(F)c(F)c(F)c(F)c5F)c5ccc([nH]5)c(-c5c(F)c(F)c(F)c(F)c5F)c5nc(c(-c6c(F)c(F)c(F)c(F)c6F)c6ccc3[nH]6)C=C5)C=C4)cc2)c(F)c1F)c1ccccc1
REMARK SMILES IDX 13 1 12 2 11 3 9 4 10 5 8 7 5 8 6 9 86 10 7 11 84 12 87 13
REMARK SMILES IDX 85 14 4 15 3 17 2 18 1 19 88 23 89 24 93 25 90 26 92 27
REMARK SMILES IDX 91 28 14 29 15 30 16 31 17 32 18 33 19 34 20 36 21 37 22 38
REMARK SMILES IDX 83 39 23 40 82 41 24 42 25 43 26 44 76 45 27 46 81 47 75 48
REMARK SMILES IDX 77 49 28 50 80 51 74 52 73 53 29 55 61 56 41 57 60 58 42 59
REMARK SMILES IDX 45 60 59 61 78 62 43 63 44 64 58 66 79 67 46 68 30 69 31 70
REMARK SMILES IDX 39 71 32 72 33 73 37 74 40 75 34 76 35 77 38 78 36 79 62 80
REMARK SMILES IDX 63 81 71 82 64 83 65 84 69 85 72 86 66 87 67 88 70 89 68 90
REMARK SMILES IDX 47 91 48 92 56 93 49 94 50 95 54 96 57 97 51 98 52 99 55 100
REMARK SMILES IDX 53 101
REMARK H PARENT 11 6 4 16 1 20 1 21 1 22 18 35 77 54 45 65
REMARK Flexibility Score: inf
ROOT
ATOM      1  C   UNL A   1      32.944  28.667  25.911  1.00  0.00     0.021 C 
ENDROOT
BRANCH   1   2
ATOM      2  C   UNL A   1      32.812  28.230  24.454  1.00  0.00     0.116 C 
BRANCH   2   3
ATOM      3  N   UNL A   1      31.452  28.282  23.955  1.00  0.00    -0.352 N 
ATOM      4  C   UNL A   1      30.479  27.316  23.897  1.00  0.00     0.254 C 
ATOM      5  O   UNL A   1      29.392  27.616  23.404  1.00  0.00    -0.269 OA
ATOM      6  H   UNL A   1      31.180  29.159  23.599  1.00  0.00     0.163 HD
BRANCH   4   7
ATOM      7  C   UNL A   1      30.695  25.914  24.328  1.00  0.00     0.078 A 
ATOM      8  C   UNL A   1      31.168  23.185  24.954  1.00  0.00     0.074 A 
ATOM      9  C   UNL A   1      30.990  23.593  23.631  1.00  0.00     0.030 A 
ATOM     10  C   UNL A   1      31.034  24.161  25.955  1.00  0.00     0.182 A 
ATOM     11  C   UNL A   1      30.760  24.939  23.319  1.00  0.00     0.019 A 
ATOM     12  C   UNL A   1      30.775  25.498  25.652  1.00  0.00     0.173 A 
ATOM     13  F   UNL A   1      31.175  23.798  27.241  1.00  0.00    -0.201 F 
ATOM     14  F   UNL A   1      30.582  26.353  26.668  1.00  0.00    -0.203 F 
BRANCH   8  15
ATOM     15  N   UNL A   1      31.468  21.871  25.299  1.00  0.00    -0.376 N 
ATOM     16  H   UNL A   1      30.992  21.448  26.050  1.00  0.00     0.160 HD
BRANCH  15  17
ATOM     17  C   UNL A   1      32.479  21.104  24.566  1.00  0.00     0.183 C 
BRANCH  17  18
ATOM     18  C   UNL A   1      33.709  20.736  25.463  1.00  0.00     0.231 C 
BRANCH  18  19
ATOM     19  N   UNL A   1      33.287  20.461  26.852  1.00  0.00    -0.350 N 
ATOM     20  H   UNL A   1      32.346  20.064  26.850  1.00  0.00     0.345 HD
ATOM     21  H   UNL A   1      33.287  21.329  27.386  1.00  0.00     0.345 HD
ATOM     22  H   UNL A   1      33.933  19.798  27.280  1.00  0.00     0.345 HD
ENDBRANCH  18  19
BRANCH  18  23
ATOM     23  C   UNL A   1      34.835  21.763  25.366  1.00  0.00     0.011 A 
ATOM     24  C   UNL A   1      34.727  23.066  25.881  1.00  0.00     0.010 A 
ATOM     25  C   UNL A   1      36.044  21.407  24.739  1.00  0.00     0.010 A 
ATOM     26  C   UNL A   1      35.772  23.986  25.747  1.00  0.00     0.001 A 
ATOM     27  C   UNL A   1      37.087  22.326  24.603  1.00  0.00     0.001 A 
ATOM     28  C   UNL A   1      36.949  23.618  25.103  1.00  0.00     0.000 A 
ENDBRANCH  18  23
ENDBRANCH  17  18
ENDBRANCH  15  17
ENDBRANCH   8  15
ENDBRANCH   4   7
ENDBRANCH   2   3
ENDBRANCH   1   2
BRANCH   1  29
ATOM     29  C   UNL A   1      31.807  29.522  26.475  1.00  0.00     0.002 C 
BRANCH  29  30
ATOM     30  C   UNL A   1      31.590  30.890  25.822  1.00  0.00     0.002 C 
BRANCH  30  31
ATOM     31  C   UNL A   1      31.365  32.067  26.775  1.00  0.00     0.021 C 
BRANCH  31  32
ATOM     32  C   UNL A   1      32.625  32.782  27.252  1.00  0.00     0.116 C 
BRANCH  32  33
ATOM     33  N   UNL A   1      32.382  34.165  27.625  1.00  0.00    -0.352 N 
ATOM     34  C   UNL A   1      32.979  34.930  28.598  1.00  0.00     0.251 C 
ATOM     35  H   UNL A   1      31.685  34.622  27.102  1.00  0.00     0.163 HD
ATOM     36  O   UNL A   1      32.530  36.037  28.872  1.00  0.00    -0.269 OA
BRANCH  34  37
ATOM     37  C   UNL A   1      34.152  34.411  29.338  1.00  0.00     0.039 A 
ATOM     38  C   UNL A   1      33.950  33.826  30.591  1.00  0.00     0.014 A 
ATOM     39  C   UNL A   1      35.442  34.512  28.813  1.00  0.00     0.014 A 
ATOM     40  C   UNL A   1      35.032  33.282  31.286  1.00  0.00     0.010 A 
ATOM     41  C   UNL A   1      36.509  33.905  29.471  1.00  0.00     0.010 A 
ATOM     42  C   UNL A   1      36.315  33.282  30.713  1.00  0.00    -0.014 A 
BRANCH  42  43
ATOM     43  C   UNL A   1      37.461  32.624  31.391  1.00  0.00     0.031 A 
ATOM     44  C   UNL A   1      38.196  31.498  30.721  1.00  0.00     0.074 A 
ATOM     45  C   UNL A   1      37.803  33.006  32.636  1.00  0.00     0.049 A 
ATOM     46  N   UNL A   1      39.173  30.758  31.181  1.00  0.00    -0.248 NA
ATOM     47  C   UNL A   1      37.762  31.140  29.361  1.00  0.00     0.031 C 
ATOM     48  C   UNL A   1      37.147  34.065  33.402  1.00  0.00     0.029 A 
ATOM     49  N   UNL A   1      38.783  32.545  33.480  1.00  0.00    -0.354 N 
ATOM     50  C   UNL A   1      39.468  29.851  30.173  1.00  0.00     0.074 A 
ATOM     51  C   UNL A   1      38.527  30.090  29.100  1.00  0.00     0.031 C 
ATOM     52  C   UNL A   1      37.760  34.197  34.587  1.00  0.00     0.029 A 
ATOM     53  C   UNL A   1      38.823  33.201  34.687  1.00  0.00     0.049 A 
ATOM     54  H   UNL A   1      39.398  31.814  33.243  1.00  0.00     0.167 HD
ATOM     55  C   UNL A   1      40.451  28.920  30.135  1.00  0.00     0.037 A 
ATOM     56  C   UNL A   1      39.623  33.017  35.756  1.00  0.00     0.037 A 
ATOM     57  C   UNL A   1      41.393  28.696  31.202  1.00  0.00     0.049 A 
ATOM     58  C   UNL A   1      40.681  31.950  35.708  1.00  0.00     0.074 A 
ATOM     59  C   UNL A   1      42.446  27.801  31.245  1.00  0.00     0.029 A 
ATOM     60  N   UNL A   1      41.391  29.370  32.415  1.00  0.00    -0.354 N 
ATOM     61  N   UNL A   1      40.979  31.126  34.732  1.00  0.00    -0.248 NA
ATOM     62  C   UNL A   1      41.515  31.786  36.906  1.00  0.00     0.031 C 
ATOM     63  C   UNL A   1      43.048  27.894  32.503  1.00  0.00     0.029 A 
ATOM     64  C   UNL A   1      42.411  28.892  33.222  1.00  0.00     0.049 A 
ATOM     65  H   UNL A   1      40.760  30.083  32.665  1.00  0.00     0.167 HD
ATOM     66  C   UNL A   1      42.048  30.367  35.186  1.00  0.00     0.074 A 
ATOM     67  C   UNL A   1      42.356  30.835  36.521  1.00  0.00     0.031 C 
ATOM     68  C   UNL A   1      42.713  29.371  34.550  1.00  0.00     0.037 A 
BRANCH  55  69
ATOM     69  C   UNL A   1      40.571  28.078  28.897  1.00  0.00     0.064 A 
ATOM     70  C   UNL A   1      41.345  28.512  27.810  1.00  0.00     0.173 A 
ATOM     71  C   UNL A   1      39.868  26.871  28.759  1.00  0.00     0.173 A 
ATOM     72  F   UNL A   1      42.033  29.662  27.884  1.00  0.00    -0.203 F 
ATOM     73  C   UNL A   1      41.403  27.775  26.630  1.00  0.00     0.198 A 
ATOM     74  C   UNL A   1      39.955  26.120  27.589  1.00  0.00     0.198 A 
ATOM     75  F   UNL A   1      39.120  26.406  29.770  1.00  0.00    -0.203 F 
ATOM     76  F   UNL A   1      42.122  28.228  25.593  1.00  0.00    -0.200 F 
ATOM     77  C   UNL A   1      40.712  26.577  26.523  1.00  0.00     0.200 A 
ATOM     78  F   UNL A   1      39.309  24.950  27.498  1.00  0.00    -0.200 F 
ATOM     79  F   UNL A   1      40.781  25.862  25.391  1.00  0.00    -0.200 F 
ENDBRANCH  55  69
BRANCH  56  80
ATOM     80  C   UNL A   1      39.470  33.901  36.941  1.00  0.00     0.064 A 
ATOM     81  C   UNL A   1      40.109  35.148  37.015  1.00  0.00     0.173 A 
ATOM     82  C   UNL A   1      38.718  33.488  38.049  1.00  0.00     0.173 A 
ATOM     83  F   UNL A   1      40.846  35.588  35.984  1.00  0.00    -0.203 F 
ATOM     84  C   UNL A   1      40.025  35.933  38.163  1.00  0.00     0.198 A 
ATOM     85  C   UNL A   1      38.610  34.287  39.186  1.00  0.00     0.198 A 
ATOM     86  F   UNL A   1      38.071  32.313  38.018  1.00  0.00    -0.203 F 
ATOM     87  F   UNL A   1      40.682  37.099  38.224  1.00  0.00    -0.200 F 
ATOM     88  C   UNL A   1      39.273  35.503  39.246  1.00  0.00     0.200 A 
ATOM     89  F   UNL A   1      37.864  33.879  40.220  1.00  0.00    -0.200 F 
ATOM     90  F   UNL A   1      39.188  36.261  40.348  1.00  0.00    -0.200 F 
ENDBRANCH  56  80
BRANCH  68  91
ATOM     91  C   UNL A   1      43.861  28.723  35.270  1.00  0.00     0.064 A 
ATOM     92  C   UNL A   1      45.169  29.203  35.095  1.00  0.00     0.173 A 
ATOM     93  C   UNL A   1      43.682  27.578  36.060  1.00  0.00     0.173 A 
ATOM     94  F   UNL A   1      45.396  30.290  34.343  1.00  0.00    -0.203 F 
ATOM     95  C   UNL A   1      46.255  28.546  35.666  1.00  0.00     0.198 A 
ATOM     96  C   UNL A   1      44.768  26.944  36.656  1.00  0.00     0.198 A 
ATOM     97  F   UNL A   1      42.451  27.088  36.268  1.00  0.00    -0.203 F 
ATOM     98  F   UNL A   1      47.499  28.998  35.447  1.00  0.00    -0.200 F 
ATOM     99  C   UNL A   1      46.054  27.420  36.449  1.00  0.00     0.200 A 
ATOM    100  F   UNL A   1      44.571  25.869  37.433  1.00  0.00    -0.200 F 
ATOM    101  F   UNL A   1      47.101  26.793  37.004  1.00  0.00    -0.200 F 
ENDBRANCH  68  91
ENDBRANCH  42  43
ENDBRANCH  34  37
ENDBRANCH  32  33
ENDBRANCH  31  32
ENDBRANCH  30  31
ENDBRANCH  29  30
ENDBRANCH   1  29
TORSDOF 18
ENDMDL
MODEL 3
REMARK VINA RESULT:     -12.1      0.880      7.214
REMARK SMILES [NH3+][C@@H](CNc1ccc(C(=O)NCCCCCCNC(=O)c2ccc(-c3c4nc(c(-c5c(F)c(F)c(F)c(F)c5F)c5ccc([nH]5)c(-c5c(F)c(F)c(F)c(F)c5F)c5nc(c(-c6c(F)c(F)c(F)c(F)c6F)c6ccc3[nH]6)C=C5)C=C4)cc2)c(F)c1F)c1ccccc1
REMARK SMILES IDX 13 1 12 2 11 3 9 4 10 5 8 7 5 8 6 9 86 10 7 11 84 12 87 13
REMARK SMILES IDX 85 14 4 15 3 17 2 18 1 19 88 23 89 24 93 25 90 26 92 27
REMARK SMILES IDX 91 28 14 29 15 30 16 31 17 32 18 33 19 34 20 36 21 37 22 38
REMARK SMILES IDX 83 39 23 40 82 41 24 42 25 43 26 44 76 45 27 46 81 47 75 48
REMARK SMILES IDX 77 49 28 50 80 51 74 52 73 53 29 55 61 56 41 57 60 58 42 59
REMARK SMILES IDX 45 60 59 61 78 62 43 63 44 64 58 66 79 67 46 68 30 69 31 70
REMARK SMILES IDX 39 71 32 72 33 73 37 74 40 75 34 76 35 77 38 78 36 79 62 80
REMARK SMILES IDX 63 81 71 82 64 83 65 84 69 85 72 86 66 87 67 88 70 89 68 90
REMARK SMILES IDX 47 91 48 92 56 93 49 94 50 95 54 96 57 97 51 98 52 99 55 100
REMARK SMILES IDX 53 101
REMARK H PARENT 11 6 4 16 1 20 1 21 1 22 18 35 77 54 45 65
REMARK Flexibility Score: inf
ROOT
ATOM      1  C   UNL A   1      33.050  29.543  25.362  1.00  0.00     0.021 C 
ENDROOT
BRANCH   1   2
ATOM      2  C   UNL A   1      33.181  29.027  23.931  1.00  0.00     0.116 C 
BRANCH   2   3
ATOM      3  N   UNL A   1      31.977  29.197  23.142  1.00  0.00    -0.352 N 
ATOM      4  C   UNL A   1      31.118  28.272  22.606  1.00  0.00     0.254 C 
ATOM      5  O   UNL A   1      30.159  28.682  21.951  1.00  0.00    -0.269 OA
ATOM      6  H   UNL A   1      31.736  30.134  22.960  1.00  0.00     0.163 HD
BRANCH   4   7
ATOM      7  C   UNL A   1      31.325  26.807  22.711  1.00  0.00     0.078 A 
ATOM      8  C   UNL A   1      31.531  23.991  23.004  1.00  0.00     0.074 A 
ATOM      9  C   UNL A   1      30.610  24.721  23.758  1.00  0.00     0.030 A 
ATOM     10  C   UNL A   1      32.389  24.712  22.158  1.00  0.00     0.182 A 
ATOM     11  C   UNL A   1      30.504  26.110  23.613  1.00  0.00     0.019 A 
ATOM     12  C   UNL A   1      32.309  26.098  22.032  1.00  0.00     0.173 A 
ATOM     13  F   UNL A   1      33.304  24.042  21.435  1.00  0.00    -0.201 F 
ATOM     14  F   UNL A   1      33.215  26.719  21.263  1.00  0.00    -0.203 F 
BRANCH   8  15
ATOM     15  N   UNL A   1      31.619  22.603  23.068  1.00  0.00    -0.376 N 
ATOM     16  H   UNL A   1      30.924  22.055  22.636  1.00  0.00     0.160 HD
BRANCH  15  17
ATOM     17  C   UNL A   1      32.724  21.943  23.767  1.00  0.00     0.183 C 
BRANCH  17  18
ATOM     18  C   UNL A   1      32.244  20.706  24.600  1.00  0.00     0.231 C 
BRANCH  18  19
ATOM     19  N   UNL A   1      32.422  20.942  26.048  1.00  0.00    -0.350 N 
ATOM     20  H   UNL A   1      32.865  21.849  26.193  1.00  0.00     0.345 HD
ATOM     21  H   UNL A   1      33.011  20.209  26.443  1.00  0.00     0.345 HD
ATOM     22  H   UNL A   1      31.512  20.931  26.509  1.00  0.00     0.345 HD
ENDBRANCH  18  19
BRANCH  18  23
ATOM     23  C   UNL A   1      32.868  19.397  24.120  1.00  0.00     0.011 A 
ATOM     24  C   UNL A   1      33.965  18.794  24.758  1.00  0.00     0.010 A 
ATOM     25  C   UNL A   1      32.333  18.749  22.990  1.00  0.00     0.010 A 
ATOM     26  C   UNL A   1      34.525  17.610  24.270  1.00  0.00     0.001 A 
ATOM     27  C   UNL A   1      32.893  17.566  22.501  1.00  0.00     0.001 A 
ATOM     28  C   UNL A   1      33.993  16.999  23.139  1.00  0.00     0.000 A 
ENDBRANCH  18  23
ENDBRANCH  17  18
ENDBRANCH  15  17
ENDBRANCH   8  15
ENDBRANCH   4   7
ENDBRANCH   2   3
ENDBRANCH   1   2
BRANCH   1  29
ATOM     29  C   UNL A   1      31.629  29.796  25.871  1.00  0.00     0.002 C 
BRANCH  29  30
ATOM     30  C   UNL A   1      31.090  31.222  25.721  1.00  0.00     0.002 C 
BRANCH  30  31
ATOM     31  C   UNL A   1      31.307  32.156  26.914  1.00  0.00     0.021 C 
BRANCH  31  32
ATOM     32  C   UNL A   1      32.643  32.890  26.945  1.00  0.00     0.116 C 
BRANCH  32  33
ATOM     33  N   UNL A   1      32.572  34.162  27.644  1.00  0.00    -0.352 N 
ATOM     34  C   UNL A   1      33.305  34.618  28.713  1.00  0.00     0.251 C 
ATOM     35  H   UNL A   1      31.898  34.790  27.299  1.00  0.00     0.163 HD
ATOM     36  O   UNL A   1      32.994  35.665  29.270  1.00  0.00    -0.269 OA
BRANCH  34  37
ATOM     37  C   UNL A   1      34.458  33.836  29.214  1.00  0.00     0.039 A 
ATOM     38  C   UNL A   1      35.748  34.328  28.995  1.00  0.00     0.014 A 
ATOM     39  C   UNL A   1      34.275  32.623  29.881  1.00  0.00     0.014 A 
ATOM     40  C   UNL A   1      36.850  33.636  29.503  1.00  0.00     0.010 A 
ATOM     41  C   UNL A   1      35.368  31.973  30.450  1.00  0.00     0.010 A 
ATOM     42  C   UNL A   1      36.665  32.473  30.270  1.00  0.00    -0.014 A 
BRANCH  42  43
ATOM     43  C   UNL A   1      37.815  31.777  30.901  1.00  0.00     0.031 A 
ATOM     44  C   UNL A   1      38.240  32.124  32.299  1.00  0.00     0.074 A 
ATOM     45  C   UNL A   1      38.511  30.869  30.190  1.00  0.00     0.049 A 
ATOM     46  N   UNL A   1      39.256  31.675  32.991  1.00  0.00    -0.248 NA
ATOM     47  C   UNL A   1      37.428  33.125  33.009  1.00  0.00     0.031 C 
ATOM     48  C   UNL A   1      38.215  30.469  28.815  1.00  0.00     0.029 A 
ATOM     49  N   UNL A   1      39.614  30.122  30.523  1.00  0.00    -0.354 N 
ATOM     50  C   UNL A   1      39.207  32.337  34.210  1.00  0.00     0.074 A 
ATOM     51  C   UNL A   1      38.099  33.264  34.143  1.00  0.00     0.031 C 
ATOM     52  C   UNL A   1      39.091  29.528  28.432  1.00  0.00     0.029 A 
ATOM     53  C   UNL A   1      40.040  29.290  29.515  1.00  0.00     0.049 A 
ATOM     54  H   UNL A   1      40.058  30.177  31.400  1.00  0.00     0.167 HD
ATOM     55  C   UNL A   1      39.999  32.168  35.295  1.00  0.00     0.037 A 
ATOM     56  C   UNL A   1      41.081  28.436  29.467  1.00  0.00     0.037 A 
ATOM     57  C   UNL A   1      41.094  31.233  35.359  1.00  0.00     0.049 A 
ATOM     58  C   UNL A   1      41.972  28.295  30.670  1.00  0.00     0.074 A 
ATOM     59  C   UNL A   1      41.933  30.964  36.425  1.00  0.00     0.029 A 
ATOM     60  N   UNL A   1      41.503  30.420  34.312  1.00  0.00    -0.354 N 
ATOM     61  N   UNL A   1      41.890  28.895  31.833  1.00  0.00    -0.248 NA
ATOM     62  C   UNL A   1      43.100  27.359  30.556  1.00  0.00     0.031 C 
ATOM     63  C   UNL A   1      42.885  30.029  36.007  1.00  0.00     0.029 A 
ATOM     64  C   UNL A   1      42.600  29.666  34.701  1.00  0.00     0.049 A 
ATOM     65  H   UNL A   1      41.078  30.383  33.426  1.00  0.00     0.167 HD
ATOM     66  C   UNL A   1      42.934  28.392  32.597  1.00  0.00     0.074 A 
ATOM     67  C   UNL A   1      43.630  27.428  31.770  1.00  0.00     0.031 C 
ATOM     68  C   UNL A   1      43.282  28.703  33.870  1.00  0.00     0.037 A 
BRANCH  55  69
ATOM     69  C   UNL A   1      39.708  33.000  36.511  1.00  0.00     0.064 A 
ATOM     70  C   UNL A   1      40.418  34.186  36.753  1.00  0.00     0.173 A 
ATOM     71  C   UNL A   1      38.772  32.591  37.474  1.00  0.00     0.173 A 
ATOM     72  F   UNL A   1      41.330  34.622  35.870  1.00  0.00    -0.203 F 
ATOM     73  C   UNL A   1      40.208  34.925  37.914  1.00  0.00     0.198 A 
ATOM     74  C   UNL A   1      38.541  33.350  38.619  1.00  0.00     0.198 A 
ATOM     75  F   UNL A   1      38.060  31.469  37.289  1.00  0.00    -0.203 F 
ATOM     76  F   UNL A   1      40.923  36.037  38.138  1.00  0.00    -0.200 F 
ATOM     77  C   UNL A   1      39.266  34.509  38.844  1.00  0.00     0.200 A 
ATOM     78  F   UNL A   1      37.611  32.960  39.501  1.00  0.00    -0.200 F 
ATOM     79  F   UNL A   1      39.055  35.229  39.953  1.00  0.00    -0.200 F 
ENDBRANCH  55  69
BRANCH  56  80
ATOM     80  C   UNL A   1      41.300  27.622  28.243  1.00  0.00     0.064 A 
ATOM     81  C   UNL A   1      40.688  26.371  28.074  1.00  0.00     0.173 A 
ATOM     82  C   UNL A   1      42.172  28.062  27.239  1.00  0.00     0.173 A 
ATOM     83  F   UNL A   1      39.849  25.901  29.009  1.00  0.00    -0.203 F 
ATOM     84  C   UNL A   1      40.963  25.580  26.960  1.00  0.00     0.198 A 
ATOM     85  C   UNL A   1      42.424  27.282  26.110  1.00  0.00     0.198 A 
ATOM     86  F   UNL A   1      42.766  29.260  27.344  1.00  0.00    -0.203 F 
ATOM     87  F   UNL A   1      40.399  24.370  26.846  1.00  0.00    -0.200 F 
ATOM     88  C   UNL A   1      41.828  26.037  25.978  1.00  0.00     0.200 A 
ATOM     89  F   UNL A   1      43.243  27.739  25.153  1.00  0.00    -0.200 F 
ATOM     90  F   UNL A   1      42.088  25.278  24.905  1.00  0.00    -0.200 F 
ENDBRANCH  56  80
BRANCH  68  91
ATOM     91  C   UNL A   1      44.455  27.985  34.472  1.00  0.00     0.064 A 
ATOM     92  C   UNL A   1      45.752  28.504  34.332  1.00  0.00     0.173 A 
ATOM     93  C   UNL A   1      44.311  26.744  35.109  1.00  0.00     0.173 A 
ATOM     94  F   UNL A   1      45.947  29.683  33.723  1.00  0.00    -0.203 F 
ATOM     95  C   UNL A   1      46.861  27.795  34.786  1.00  0.00     0.198 A 
ATOM     96  C   UNL A   1      45.419  26.054  35.592  1.00  0.00     0.198 A 
ATOM     97  F   UNL A   1      43.092  26.211  35.280  1.00  0.00    -0.203 F 
ATOM     98  F   UNL A   1      48.093  28.291  34.599  1.00  0.00    -0.200 F 
ATOM     99  C   UNL A   1      46.694  26.573  35.419  1.00  0.00     0.200 A 
ATOM    100  F   UNL A   1      45.256  24.884  36.225  1.00  0.00    -0.200 F 
ATOM    101  F   UNL A   1      47.762  25.896  35.863  1.00  0.00    -0.200 F 
ENDBRANCH  68  91
ENDBRANCH  42  43
ENDBRANCH  34  37
ENDBRANCH  32  33
ENDBRANCH  31  32
ENDBRANCH  30  31
ENDBRANCH  29  30
ENDBRANCH   1  29
TORSDOF 18
ENDMDL
