MODEL 1
REMARK VINA RESULT:     -11.4      0.000      0.000
REMARK SMILES O=C(CNc1ccccc1C(=O)N1CCCC1)NCCCCCCNC(=O)c1ccc(-c2c3nc(c(-c4c(F)c(F)c(F)c(F)c4F)c4ccc([nH]4)c(-c4c(F)c(F)c(F)c(F)c4F)c4nc(c(-c5c(F)c(F)c(F)c(F)c5F)c5ccc2[nH]5)C=C4)C=C3)cc1
REMARK SMILES IDX 21 1 20 2 19 3 18 4 1 5 2 6 3 8 4 9 5 11 6 12 10 13 7 14
REMARK SMILES IDX 9 15 8 16 11 17 12 18 13 19 14 20 17 21 15 22 16 23 22 24
REMARK SMILES IDX 23 25 24 26 25 27 26 28 27 30 28 31 29 32 90 33 30 34 89 35
REMARK SMILES IDX 31 36 32 37 33 38 83 39 34 40 88 41 82 42 84 43 35 44 87 45
REMARK SMILES IDX 81 46 80 47 36 49 68 50 48 51 67 52 49 53 52 54 66 55 85 56
REMARK SMILES IDX 50 57 51 58 65 60 86 61 53 62 37 63 38 64 46 65 39 66 40 67
REMARK SMILES IDX 44 68 47 69 41 70 42 71 45 72 43 73 69 74 70 75 78 76 71 77
REMARK SMILES IDX 72 78 76 79 79 80 73 81 74 82 77 83 75 84 54 85 55 86 63 87
REMARK SMILES IDX 56 88 57 89 61 90 64 91 58 92 59 93 62 94 60 95
REMARK H PARENT 18 7 4 10 25 29 84 48 52 59
REMARK Flexibility Score: inf
ROOT
ATOM      1  C   UNL A   1      41.271  21.852  27.350  1.00  0.00     0.002 C 
ENDROOT
BRANCH   1   2
ATOM      2  C   UNL A   1      39.921  22.584  27.251  1.00  0.00     0.021 C 
BRANCH   2   3
ATOM      3  C   UNL A   1      39.266  22.540  25.863  1.00  0.00     0.116 C 
BRANCH   3   4
ATOM      4  N   UNL A   1      37.892  22.125  25.988  1.00  0.00    -0.355 N 
ATOM      5  O   UNL A   1      38.184  20.072  25.001  1.00  0.00    -0.273 OA
ATOM      6  C   UNL A   1      37.455  21.010  25.307  1.00  0.00     0.239 C 
ATOM      7  H   UNL A   1      37.271  22.633  26.558  1.00  0.00     0.163 HD
BRANCH   6   8
ATOM      8  C   UNL A   1      36.012  21.141  24.847  1.00  0.00     0.213 C 
BRANCH   8   9
ATOM      9  N   UNL A   1      35.087  20.460  25.747  1.00  0.00    -0.376 N 
ATOM     10  H   UNL A   1      35.314  19.590  26.145  1.00  0.00     0.161 HD
BRANCH   9  11
ATOM     11  C   UNL A   1      33.869  21.084  26.025  1.00  0.00     0.047 A 
ATOM     12  C   UNL A   1      33.887  22.076  27.025  1.00  0.00     0.026 A 
ATOM     13  C   UNL A   1      32.677  20.921  25.280  1.00  0.00     0.063 A 
ATOM     14  C   UNL A   1      32.792  22.914  27.250  1.00  0.00     0.002 A 
ATOM     15  C   UNL A   1      31.578  21.769  25.518  1.00  0.00     0.016 A 
ATOM     16  C   UNL A   1      31.639  22.766  26.491  1.00  0.00     0.001 A 
BRANCH  13  17
ATOM     17  C   UNL A   1      32.527  20.002  24.116  1.00  0.00     0.255 C 
ATOM     18  O   UNL A   1      32.393  20.523  23.006  1.00  0.00    -0.269 OA
ATOM     19  N   UNL A   1      32.612  18.630  24.265  1.00  0.00    -0.339 N 
ATOM     20  C   UNL A   1      32.529  17.817  25.461  1.00  0.00     0.120 C 
ATOM     21  C   UNL A   1      32.907  17.787  23.124  1.00  0.00     0.120 C 
ATOM     22  C   UNL A   1      33.552  16.713  25.223  1.00  0.00     0.023 C 
ATOM     23  C   UNL A   1      33.714  16.627  23.701  1.00  0.00     0.023 C 
ENDBRANCH  13  17
ENDBRANCH   9  11
ENDBRANCH   8   9
ENDBRANCH   6   8
ENDBRANCH   3   4
ENDBRANCH   2   3
ENDBRANCH   1   2
BRANCH   1  24
ATOM     24  C   UNL A   1      41.206  20.407  27.854  1.00  0.00     0.002 C 
BRANCH  24  25
ATOM     25  C   UNL A   1      42.145  19.440  27.141  1.00  0.00     0.021 C 
BRANCH  25  26
ATOM     26  C   UNL A   1      42.131  19.563  25.626  1.00  0.00     0.116 C 
BRANCH  26  27
ATOM     27  N   UNL A   1      43.273  18.906  25.012  1.00  0.00    -0.352 N 
ATOM     28  C   UNL A   1      44.444  19.473  24.575  1.00  0.00     0.251 C 
ATOM     29  H   UNL A   1      43.196  17.931  24.896  1.00  0.00     0.163 HD
ATOM     30  O   UNL A   1      45.245  18.827  23.907  1.00  0.00    -0.269 OA
BRANCH  28  31
ATOM     31  C   UNL A   1      44.715  20.889  24.895  1.00  0.00     0.039 A 
ATOM     32  C   UNL A   1      44.361  21.875  23.973  1.00  0.00     0.014 A 
ATOM     33  C   UNL A   1      45.283  21.237  26.126  1.00  0.00     0.014 A 
ATOM     34  C   UNL A   1      44.522  23.221  24.310  1.00  0.00     0.010 A 
ATOM     35  C   UNL A   1      45.371  22.576  26.488  1.00  0.00     0.010 A 
ATOM     36  C   UNL A   1      44.998  23.581  25.582  1.00  0.00    -0.014 A 
BRANCH  36  37
ATOM     37  C   UNL A   1      45.136  25.003  25.983  1.00  0.00     0.031 A 
ATOM     38  C   UNL A   1      46.481  25.672  25.901  1.00  0.00     0.074 A 
ATOM     39  C   UNL A   1      44.079  25.664  26.494  1.00  0.00     0.049 A 
ATOM     40  N   UNL A   1      46.838  26.865  26.299  1.00  0.00    -0.248 NA
ATOM     41  C   UNL A   1      47.579  24.881  25.319  1.00  0.00     0.031 C 
ATOM     42  C   UNL A   1      42.735  25.108  26.667  1.00  0.00     0.029 A 
ATOM     43  N   UNL A   1      43.973  26.943  26.981  1.00  0.00    -0.354 N 
ATOM     44  C   UNL A   1      48.200  26.955  26.047  1.00  0.00     0.074 A 
ATOM     45  C   UNL A   1      48.616  25.685  25.496  1.00  0.00     0.031 C 
ATOM     46  C   UNL A   1      41.937  26.046  27.205  1.00  0.00     0.029 A 
ATOM     47  C   UNL A   1      42.720  27.253  27.453  1.00  0.00     0.049 A 
ATOM     48  H   UNL A   1      44.725  27.579  26.991  1.00  0.00     0.167 HD
ATOM     49  C   UNL A   1      49.025  28.011  26.241  1.00  0.00     0.037 A 
ATOM     50  C   UNL A   1      42.261  28.380  28.030  1.00  0.00     0.037 A 
ATOM     51  C   UNL A   1      48.595  29.291  26.737  1.00  0.00     0.049 A 
ATOM     52  C   UNL A   1      43.202  29.541  28.221  1.00  0.00     0.074 A 
ATOM     53  C   UNL A   1      49.335  30.451  26.876  1.00  0.00     0.029 A 
ATOM     54  N   UNL A   1      47.312  29.577  27.173  1.00  0.00    -0.354 N 
ATOM     55  N   UNL A   1      44.469  29.643  27.898  1.00  0.00    -0.248 NA
ATOM     56  C   UNL A   1      42.648  30.746  28.854  1.00  0.00     0.031 C 
ATOM     57  C   UNL A   1      48.509  31.429  27.441  1.00  0.00     0.029 A 
ATOM     58  C   UNL A   1      47.244  30.890  27.607  1.00  0.00     0.049 A 
ATOM     59  H   UNL A   1      46.559  28.941  27.173  1.00  0.00     0.167 HD
ATOM     60  C   UNL A   1      44.851  30.930  28.253  1.00  0.00     0.074 A 
ATOM     61  C   UNL A   1      43.680  31.577  28.806  1.00  0.00     0.031 C 
ATOM     62  C   UNL A   1      46.062  31.524  28.130  1.00  0.00     0.037 A 
BRANCH  49  63
ATOM     63  C   UNL A   1      50.479  27.838  25.913  1.00  0.00     0.064 A 
ATOM     64  C   UNL A   1      51.426  27.530  26.900  1.00  0.00     0.173 A 
ATOM     65  C   UNL A   1      50.916  27.915  24.582  1.00  0.00     0.173 A 
ATOM     66  F   UNL A   1      51.059  27.457  28.189  1.00  0.00    -0.203 F 
ATOM     67  C   UNL A   1      52.761  27.320  26.570  1.00  0.00     0.198 A 
ATOM     68  C   UNL A   1      52.248  27.677  24.251  1.00  0.00     0.198 A 
ATOM     69  F   UNL A   1      50.050  28.204  23.601  1.00  0.00    -0.203 F 
ATOM     70  F   UNL A   1      53.656  27.059  27.533  1.00  0.00    -0.200 F 
ATOM     71  C   UNL A   1      53.169  27.383  25.245  1.00  0.00     0.200 A 
ATOM     72  F   UNL A   1      52.637  27.726  22.970  1.00  0.00    -0.200 F 
ATOM     73  F   UNL A   1      54.452  27.163  24.926  1.00  0.00    -0.200 F 
ENDBRANCH  49  63
BRANCH  50  74
ATOM     74  C   UNL A   1      40.842  28.483  28.460  1.00  0.00     0.064 A 
ATOM     75  C   UNL A   1      39.860  28.967  27.586  1.00  0.00     0.173 A 
ATOM     76  C   UNL A   1      40.445  28.139  29.760  1.00  0.00     0.173 A 
ATOM     77  F   UNL A   1      40.194  29.330  26.339  1.00  0.00    -0.203 F 
ATOM     78  C   UNL A   1      38.541  29.135  28.004  1.00  0.00     0.198 A 
ATOM     79  C   UNL A   1      39.120  28.279  30.169  1.00  0.00     0.198 A 
ATOM     80  F   UNL A   1      41.344  27.667  30.636  1.00  0.00    -0.203 F 
ATOM     81  F   UNL A   1      37.636  29.656  27.165  1.00  0.00    -0.200 F 
ATOM     82  C   UNL A   1      38.171  28.788  29.294  1.00  0.00     0.200 A 
ATOM     83  F   UNL A   1      38.764  27.930  31.412  1.00  0.00    -0.200 F 
ATOM     84  F   UNL A   1      36.905  28.955  29.699  1.00  0.00    -0.200 F 
ENDBRANCH  50  74
BRANCH  62  85
ATOM     85  C   UNL A   1      46.175  32.959  28.552  1.00  0.00     0.064 A 
ATOM     86  C   UNL A   1      46.562  33.316  29.852  1.00  0.00     0.173 A 
ATOM     87  C   UNL A   1      45.943  33.988  27.628  1.00  0.00     0.173 A 
ATOM     88  F   UNL A   1      46.779  32.368  30.776  1.00  0.00    -0.203 F 
ATOM     89  C   UNL A   1      46.693  34.653  30.215  1.00  0.00     0.198 A 
ATOM     90  C   UNL A   1      46.103  35.323  27.986  1.00  0.00     0.198 A 
ATOM     91  F   UNL A   1      45.577  33.697  26.370  1.00  0.00    -0.203 F 
ATOM     92  F   UNL A   1      47.023  34.974  31.474  1.00  0.00    -0.200 F 
ATOM     93  C   UNL A   1      46.473  35.654  29.281  1.00  0.00     0.200 A 
ATOM     94  F   UNL A   1      45.904  36.288  27.077  1.00  0.00    -0.200 F 
ATOM     95  F   UNL A   1      46.610  36.941  29.630  1.00  0.00    -0.200 F 
ENDBRANCH  62  85
ENDBRANCH  36  37
ENDBRANCH  28  31
ENDBRANCH  26  27
ENDBRANCH  25  26
ENDBRANCH  24  25
ENDBRANCH   1  24
TORSDOF 16
ENDMDL
MODEL 2
REMARK VINA RESULT:     -11.4      1.034      2.349
REMARK SMILES O=C(CNc1ccccc1C(=O)N1CCCC1)NCCCCCCNC(=O)c1ccc(-c2c3nc(c(-c4c(F)c(F)c(F)c(F)c4F)c4ccc([nH]4)c(-c4c(F)c(F)c(F)c(F)c4F)c4nc(c(-c5c(F)c(F)c(F)c(F)c5F)c5ccc2[nH]5)C=C4)C=C3)cc1
REMARK SMILES IDX 21 1 20 2 19 3 18 4 1 5 2 6 3 8 4 9 5 11 6 12 10 13 7 14
REMARK SMILES IDX 9 15 8 16 11 17 12 18 13 19 14 20 17 21 15 22 16 23 22 24
REMARK SMILES IDX 23 25 24 26 25 27 26 28 27 30 28 31 29 32 90 33 30 34 89 35
REMARK SMILES IDX 31 36 32 37 33 38 83 39 34 40 88 41 82 42 84 43 35 44 87 45
REMARK SMILES IDX 81 46 80 47 36 49 68 50 48 51 67 52 49 53 52 54 66 55 85 56
REMARK SMILES IDX 50 57 51 58 65 60 86 61 53 62 37 63 38 64 46 65 39 66 40 67
REMARK SMILES IDX 44 68 47 69 41 70 42 71 45 72 43 73 69 74 70 75 78 76 71 77
REMARK SMILES IDX 72 78 76 79 79 80 73 81 74 82 77 83 75 84 54 85 55 86 63 87
REMARK SMILES IDX 56 88 57 89 61 90 64 91 58 92 59 93 62 94 60 95
REMARK H PARENT 18 7 4 10 25 29 84 48 52 59
REMARK Flexibility Score: inf
ROOT
ATOM      1  C   UNL A   1      40.858  21.562  26.131  1.00  0.00     0.002 C 
ENDROOT
BRANCH   1   2
ATOM      2  C   UNL A   1      40.192  22.571  27.084  1.00  0.00     0.021 C 
BRANCH   2   3
ATOM      3  C   UNL A   1      38.972  23.297  26.501  1.00  0.00     0.116 C 
BRANCH   3   4
ATOM      4  N   UNL A   1      38.344  22.468  25.504  1.00  0.00    -0.355 N 
ATOM      5  O   UNL A   1      36.189  23.024  26.069  1.00  0.00    -0.273 OA
ATOM      6  C   UNL A   1      36.986  22.239  25.568  1.00  0.00     0.239 C 
ATOM      7  H   UNL A   1      38.881  22.069  24.782  1.00  0.00     0.163 HD
BRANCH   6   8
ATOM      8  C   UNL A   1      36.612  20.847  25.087  1.00  0.00     0.213 C 
BRANCH   8   9
ATOM      9  N   UNL A   1      35.284  20.450  25.542  1.00  0.00    -0.376 N 
ATOM     10  H   UNL A   1      34.925  20.768  26.402  1.00  0.00     0.161 HD
BRANCH   9  11
ATOM     11  C   UNL A   1      34.536  19.606  24.718  1.00  0.00     0.047 A 
ATOM     12  C   UNL A   1      35.083  18.333  24.464  1.00  0.00     0.026 A 
ATOM     13  C   UNL A   1      33.220  19.860  24.264  1.00  0.00     0.063 A 
ATOM     14  C   UNL A   1      34.346  17.327  23.835  1.00  0.00     0.002 A 
ATOM     15  C   UNL A   1      32.488  18.839  23.627  1.00  0.00     0.016 A 
ATOM     16  C   UNL A   1      33.044  17.577  23.422  1.00  0.00     0.001 A 
BRANCH  13  17
ATOM     17  C   UNL A   1      32.454  21.107  24.548  1.00  0.00     0.255 C 
ATOM     18  O   UNL A   1      31.544  21.026  25.375  1.00  0.00    -0.269 OA
ATOM     19  N   UNL A   1      32.800  22.313  23.968  1.00  0.00    -0.339 N 
ATOM     20  C   UNL A   1      33.649  22.588  22.827  1.00  0.00     0.120 C 
ATOM     21  C   UNL A   1      32.364  23.562  24.561  1.00  0.00     0.120 C 
ATOM     22  C   UNL A   1      34.384  23.864  23.219  1.00  0.00     0.023 C 
ATOM     23  C   UNL A   1      33.495  24.543  24.266  1.00  0.00     0.023 C 
ENDBRANCH  13  17
ENDBRANCH   9  11
ENDBRANCH   8   9
ENDBRANCH   6   8
ENDBRANCH   3   4
ENDBRANCH   2   3
ENDBRANCH   1   2
BRANCH   1  24
ATOM     24  C   UNL A   1      41.151  20.181  26.726  1.00  0.00     0.002 C 
BRANCH  24  25
ATOM     25  C   UNL A   1      41.772  19.186  25.751  1.00  0.00     0.021 C 
BRANCH  25  26
ATOM     26  C   UNL A   1      43.159  18.709  26.150  1.00  0.00     0.116 C 
BRANCH  26  27
ATOM     27  N   UNL A   1      44.022  18.510  24.997  1.00  0.00    -0.352 N 
ATOM     28  C   UNL A   1      44.677  19.459  24.253  1.00  0.00     0.251 C 
ATOM     29  H   UNL A   1      44.152  17.576  24.714  1.00  0.00     0.163 HD
ATOM     30  O   UNL A   1      45.221  19.165  23.193  1.00  0.00    -0.269 OA
BRANCH  28  31
ATOM     31  C   UNL A   1      44.694  20.856  24.733  1.00  0.00     0.039 A 
ATOM     32  C   UNL A   1      45.205  21.134  26.001  1.00  0.00     0.014 A 
ATOM     33  C   UNL A   1      44.239  21.891  23.908  1.00  0.00     0.014 A 
ATOM     34  C   UNL A   1      45.317  22.460  26.423  1.00  0.00     0.010 A 
ATOM     35  C   UNL A   1      44.422  23.213  24.299  1.00  0.00     0.010 A 
ATOM     36  C   UNL A   1      44.956  23.510  25.562  1.00  0.00    -0.014 A 
BRANCH  36  37
ATOM     37  C   UNL A   1      45.108  24.930  25.966  1.00  0.00     0.031 A 
ATOM     38  C   UNL A   1      46.459  25.586  25.886  1.00  0.00     0.074 A 
ATOM     39  C   UNL A   1      44.057  25.599  26.479  1.00  0.00     0.049 A 
ATOM     40  N   UNL A   1      46.827  26.775  26.288  1.00  0.00    -0.248 NA
ATOM     41  C   UNL A   1      47.550  24.786  25.304  1.00  0.00     0.031 C 
ATOM     42  C   UNL A   1      42.707  25.056  26.649  1.00  0.00     0.029 A 
ATOM     43  N   UNL A   1      43.963  26.878  26.968  1.00  0.00    -0.354 N 
ATOM     44  C   UNL A   1      48.190  26.853  26.036  1.00  0.00     0.074 A 
ATOM     45  C   UNL A   1      48.594  25.580  25.482  1.00  0.00     0.031 C 
ATOM     46  C   UNL A   1      41.918  26.000  27.189  1.00  0.00     0.029 A 
ATOM     47  C   UNL A   1      42.712  27.199  27.440  1.00  0.00     0.049 A 
ATOM     48  H   UNL A   1      44.720  27.508  26.980  1.00  0.00     0.167 HD
ATOM     49  C   UNL A   1      49.025  27.900  26.233  1.00  0.00     0.037 A 
ATOM     50  C   UNL A   1      42.264  28.329  28.020  1.00  0.00     0.037 A 
ATOM     51  C   UNL A   1      48.607  29.183  26.731  1.00  0.00     0.049 A 
ATOM     52  C   UNL A   1      43.216  29.481  28.214  1.00  0.00     0.074 A 
ATOM     53  C   UNL A   1      49.357  30.337  26.874  1.00  0.00     0.029 A 
ATOM     54  N   UNL A   1      47.326  29.480  27.167  1.00  0.00    -0.354 N 
ATOM     55  N   UNL A   1      44.484  29.571  27.891  1.00  0.00    -0.248 NA
ATOM     56  C   UNL A   1      42.673  30.689  28.849  1.00  0.00     0.031 C 
ATOM     57  C   UNL A   1      48.540  31.320  27.441  1.00  0.00     0.029 A 
ATOM     58  C   UNL A   1      47.270  30.793  27.604  1.00  0.00     0.049 A 
ATOM     59  H   UNL A   1      46.567  28.851  27.166  1.00  0.00     0.167 HD
ATOM     60  C   UNL A   1      44.877  30.854  28.249  1.00  0.00     0.074 A 
ATOM     61  C   UNL A   1      43.712  31.511  28.803  1.00  0.00     0.031 C 
ATOM     62  C   UNL A   1      46.094  31.438  28.129  1.00  0.00     0.037 A 
BRANCH  49  63
ATOM     63  C   UNL A   1      50.477  27.715  25.905  1.00  0.00     0.064 A 
ATOM     64  C   UNL A   1      51.418  27.380  26.890  1.00  0.00     0.173 A 
ATOM     65  C   UNL A   1      50.918  27.807  24.577  1.00  0.00     0.173 A 
ATOM     66  F   UNL A   1      51.048  27.292  28.176  1.00  0.00    -0.203 F 
ATOM     67  C   UNL A   1      52.752  27.159  26.558  1.00  0.00     0.198 A 
ATOM     68  C   UNL A   1      52.247  27.556  24.245  1.00  0.00     0.198 A 
ATOM     69  F   UNL A   1      50.057  28.120  23.598  1.00  0.00    -0.203 F 
ATOM     70  F   UNL A   1      53.641  26.872  27.519  1.00  0.00    -0.200 F 
ATOM     71  C   UNL A   1      53.163  27.237  25.236  1.00  0.00     0.200 A 
ATOM     72  F   UNL A   1      52.640  27.620  22.965  1.00  0.00    -0.200 F 
ATOM     73  F   UNL A   1      54.444  27.005  24.916  1.00  0.00    -0.200 F 
ENDBRANCH  49  63
BRANCH  50  74
ATOM     74  C   UNL A   1      40.846  28.444  28.450  1.00  0.00     0.064 A 
ATOM     75  C   UNL A   1      39.871  28.953  27.581  1.00  0.00     0.173 A 
ATOM     76  C   UNL A   1      40.442  28.087  29.744  1.00  0.00     0.173 A 
ATOM     77  F   UNL A   1      40.212  29.329  26.339  1.00  0.00    -0.203 F 
ATOM     78  C   UNL A   1      38.554  29.133  27.999  1.00  0.00     0.198 A 
ATOM     79  C   UNL A   1      39.118  28.239  30.153  1.00  0.00     0.198 A 
ATOM     80  F   UNL A   1      41.334  27.591  30.614  1.00  0.00    -0.203 F 
ATOM     81  F   UNL A   1      37.657  29.677  27.167  1.00  0.00    -0.200 F 
ATOM     82  C   UNL A   1      38.178  28.772  29.284  1.00  0.00     0.200 A 
ATOM     83  F   UNL A   1      38.756  27.877  31.391  1.00  0.00    -0.200 F 
ATOM     84  F   UNL A   1      36.913  28.950  29.689  1.00  0.00    -0.200 F 
ENDBRANCH  50  74
BRANCH  62  85
ATOM     85  C   UNL A   1      46.220  32.870  28.554  1.00  0.00     0.064 A 
ATOM     86  C   UNL A   1      45.993  33.926  27.659  1.00  0.00     0.173 A 
ATOM     87  C   UNL A   1      46.519  33.188  29.887  1.00  0.00     0.173 A 
ATOM     88  F   UNL A   1      45.720  33.672  26.371  1.00  0.00    -0.203 F 
ATOM     89  C   UNL A   1      46.082  35.249  28.081  1.00  0.00     0.198 A 
ATOM     90  C   UNL A   1      46.578  34.511  30.312  1.00  0.00     0.198 A 
ATOM     91  F   UNL A   1      46.737  32.213  30.782  1.00  0.00    -0.203 F 
ATOM     92  F   UNL A   1      45.904  36.244  27.201  1.00  0.00    -0.200 F 
ATOM     93  C   UNL A   1      46.365  35.541  29.407  1.00  0.00     0.200 A 
ATOM     94  F   UNL A   1      46.837  34.790  31.597  1.00  0.00    -0.200 F 
ATOM     95  F   UNL A   1      46.439  36.816  29.814  1.00  0.00    -0.200 F 
ENDBRANCH  62  85
ENDBRANCH  36  37
ENDBRANCH  28  31
ENDBRANCH  26  27
ENDBRANCH  25  26
ENDBRANCH  24  25
ENDBRANCH   1  24
TORSDOF 16
ENDMDL
MODEL 3
REMARK VINA RESULT:     -11.3      6.386     10.963
REMARK SMILES O=C(CNc1ccccc1C(=O)N1CCCC1)NCCCCCCNC(=O)c1ccc(-c2c3nc(c(-c4c(F)c(F)c(F)c(F)c4F)c4ccc([nH]4)c(-c4c(F)c(F)c(F)c(F)c4F)c4nc(c(-c5c(F)c(F)c(F)c(F)c5F)c5ccc2[nH]5)C=C4)C=C3)cc1
REMARK SMILES IDX 21 1 20 2 19 3 18 4 1 5 2 6 3 8 4 9 5 11 6 12 10 13 7 14
REMARK SMILES IDX 9 15 8 16 11 17 12 18 13 19 14 20 17 21 15 22 16 23 22 24
REMARK SMILES IDX 23 25 24 26 25 27 26 28 27 30 28 31 29 32 90 33 30 34 89 35
REMARK SMILES IDX 31 36 32 37 33 38 83 39 34 40 88 41 82 42 84 43 35 44 87 45
REMARK SMILES IDX 81 46 80 47 36 49 68 50 48 51 67 52 49 53 52 54 66 55 85 56
REMARK SMILES IDX 50 57 51 58 65 60 86 61 53 62 37 63 38 64 46 65 39 66 40 67
REMARK SMILES IDX 44 68 47 69 41 70 42 71 45 72 43 73 69 74 70 75 78 76 71 77
REMARK SMILES IDX 72 78 76 79 79 80 73 81 74 82 77 83 75 84 54 85 55 86 63 87
REMARK SMILES IDX 56 88 57 89 61 90 64 91 58 92 59 93 62 94 60 95
REMARK H PARENT 18 7 4 10 25 29 84 48 52 59
REMARK Flexibility Score: inf
ROOT
ATOM      1  C   UNL A   1      32.312  29.987  25.489  1.00  0.00     0.002 C 
ENDROOT
BRANCH   1   2
ATOM      2  C   UNL A   1      31.503  28.846  24.846  1.00  0.00     0.021 C 
BRANCH   2   3
ATOM      3  C   UNL A   1      31.452  27.551  25.670  1.00  0.00     0.116 C 
BRANCH   3   4
ATOM      4  N   UNL A   1      30.987  26.468  24.843  1.00  0.00    -0.355 N 
ATOM      5  O   UNL A   1      29.800  25.408  26.499  1.00  0.00    -0.273 OA
ATOM      6  C   UNL A   1      30.399  25.368  25.429  1.00  0.00     0.239 C 
ATOM      7  H   UNL A   1      31.086  26.514  23.864  1.00  0.00     0.163 HD
BRANCH   6   8
ATOM      8  C   UNL A   1      30.707  24.080  24.683  1.00  0.00     0.213 C 
BRANCH   8   9
ATOM      9  N   UNL A   1      31.503  23.159  25.487  1.00  0.00    -0.376 N 
ATOM     10  H   UNL A   1      31.096  22.641  26.218  1.00  0.00     0.161 HD
BRANCH   9  11
ATOM     11  C   UNL A   1      32.861  23.034  25.185  1.00  0.00     0.047 A 
ATOM     12  C   UNL A   1      33.743  23.848  25.922  1.00  0.00     0.026 A 
ATOM     13  C   UNL A   1      33.424  22.053  24.335  1.00  0.00     0.063 A 
ATOM     14  C   UNL A   1      35.128  23.671  25.867  1.00  0.00     0.002 A 
ATOM     15  C   UNL A   1      34.821  21.886  24.284  1.00  0.00     0.016 A 
ATOM     16  C   UNL A   1      35.668  22.684  25.053  1.00  0.00     0.001 A 
BRANCH  13  17
ATOM     17  C   UNL A   1      32.636  21.039  23.578  1.00  0.00     0.255 C 
ATOM     18  O   UNL A   1      31.973  21.447  22.622  1.00  0.00    -0.269 OA
ATOM     19  N   UNL A   1      32.708  19.693  23.886  1.00  0.00    -0.339 N 
ATOM     20  C   UNL A   1      33.216  19.036  25.073  1.00  0.00     0.120 C 
ATOM     21  C   UNL A   1      32.316  18.697  22.910  1.00  0.00     0.120 C 
ATOM     22  C   UNL A   1      33.899  17.786  24.534  1.00  0.00     0.023 C 
ATOM     23  C   UNL A   1      33.238  17.510  23.179  1.00  0.00     0.023 C 
ENDBRANCH  13  17
ENDBRANCH   9  11
ENDBRANCH   8   9
ENDBRANCH   6   8
ENDBRANCH   3   4
ENDBRANCH   2   3
ENDBRANCH   1   2
BRANCH   1  24
ATOM     24  C   UNL A   1      31.763  30.524  26.815  1.00  0.00     0.002 C 
BRANCH  24  25
ATOM     25  C   UNL A   1      31.554  32.034  26.854  1.00  0.00     0.021 C 
BRANCH  25  26
ATOM     26  C   UNL A   1      32.778  32.819  27.296  1.00  0.00     0.116 C 
BRANCH  26  27
ATOM     27  N   UNL A   1      32.460  34.206  27.594  1.00  0.00    -0.352 N 
ATOM     28  C   UNL A   1      32.988  35.005  28.577  1.00  0.00     0.251 C 
ATOM     29  H   UNL A   1      31.780  34.624  27.018  1.00  0.00     0.163 HD
ATOM     30  O   UNL A   1      32.493  36.099  28.833  1.00  0.00    -0.269 OA
BRANCH  28  31
ATOM     31  C   UNL A   1      34.149  34.517  29.348  1.00  0.00     0.039 A 
ATOM     32  C   UNL A   1      33.939  33.939  30.601  1.00  0.00     0.014 A 
ATOM     33  C   UNL A   1      35.438  34.597  28.810  1.00  0.00     0.014 A 
ATOM     34  C   UNL A   1      35.018  33.385  31.293  1.00  0.00     0.010 A 
ATOM     35  C   UNL A   1      36.497  33.978  29.464  1.00  0.00     0.010 A 
ATOM     36  C   UNL A   1      36.298  33.372  30.714  1.00  0.00    -0.014 A 
BRANCH  36  37
ATOM     37  C   UNL A   1      37.455  32.749  31.406  1.00  0.00     0.031 A 
ATOM     38  C   UNL A   1      38.164  31.586  30.769  1.00  0.00     0.074 A 
ATOM     39  C   UNL A   1      37.811  33.172  32.635  1.00  0.00     0.049 A 
ATOM     40  N   UNL A   1      39.122  30.836  31.250  1.00  0.00    -0.248 NA
ATOM     41  C   UNL A   1      37.718  31.196  29.421  1.00  0.00     0.031 C 
ATOM     42  C   UNL A   1      37.170  34.261  33.376  1.00  0.00     0.029 A 
ATOM     43  N   UNL A   1      38.790  32.725  33.486  1.00  0.00    -0.354 N 
ATOM     44  C   UNL A   1      39.367  29.871  30.281  1.00  0.00     0.074 A 
ATOM     45  C   UNL A   1      38.436  30.106  29.201  1.00  0.00     0.031 C 
ATOM     46  C   UNL A   1      37.782  34.405  34.562  1.00  0.00     0.029 A 
ATOM     47  C   UNL A   1      38.831  33.397  34.684  1.00  0.00     0.049 A 
ATOM     48  H   UNL A   1      39.407  31.990  33.260  1.00  0.00     0.167 HD
ATOM     49  C   UNL A   1      40.300  28.890  30.287  1.00  0.00     0.037 A 
ATOM     50  C   UNL A   1      39.619  33.211  35.760  1.00  0.00     0.037 A 
ATOM     51  C   UNL A   1      41.262  28.697  31.339  1.00  0.00     0.049 A 
ATOM     52  C   UNL A   1      40.656  32.118  35.730  1.00  0.00     0.074 A 
ATOM     53  C   UNL A   1      42.308  27.794  31.392  1.00  0.00     0.029 A 
ATOM     54  N   UNL A   1      41.293  29.419  32.521  1.00  0.00    -0.354 N 
ATOM     55  N   UNL A   1      40.935  31.268  34.772  1.00  0.00    -0.248 NA
ATOM     56  C   UNL A   1      41.488  31.961  36.930  1.00  0.00     0.031 C 
ATOM     57  C   UNL A   1      42.946  27.938  32.629  1.00  0.00     0.029 A 
ATOM     58  C   UNL A   1      42.326  28.964  33.323  1.00  0.00     0.049 A 
ATOM     59  H   UNL A   1      40.673  30.148  32.756  1.00  0.00     0.167 HD
ATOM     60  C   UNL A   1      41.996  30.504  35.238  1.00  0.00     0.074 A 
ATOM     61  C   UNL A   1      42.319  30.997  36.561  1.00  0.00     0.031 C 
ATOM     62  C   UNL A   1      42.648  29.485  34.626  1.00  0.00     0.037 A 
BRANCH  49  63
ATOM     63  C   UNL A   1      40.339  27.949  29.121  1.00  0.00     0.064 A 
ATOM     64  C   UNL A   1      39.585  26.767  29.102  1.00  0.00     0.173 A 
ATOM     65  C   UNL A   1      41.088  28.269  27.979  1.00  0.00     0.173 A 
ATOM     66  F   UNL A   1      38.861  26.410  30.173  1.00  0.00    -0.203 F 
ATOM     67  C   UNL A   1      39.590  25.932  27.988  1.00  0.00     0.198 A 
ATOM     68  C   UNL A   1      41.070  27.447  26.855  1.00  0.00     0.198 A 
ATOM     69  F   UNL A   1      41.824  29.390  27.945  1.00  0.00    -0.203 F 
ATOM     70  F   UNL A   1      38.888  24.790  28.003  1.00  0.00    -0.200 F 
ATOM     71  C   UNL A   1      40.325  26.277  26.863  1.00  0.00     0.200 A 
ATOM     72  F   UNL A   1      41.769  27.788  25.765  1.00  0.00    -0.200 F 
ATOM     73  F   UNL A   1      40.315  25.481  25.784  1.00  0.00    -0.200 F 
ENDBRANCH  49  63
BRANCH  50  74
ATOM     74  C   UNL A   1      39.477  34.081  36.957  1.00  0.00     0.064 A 
ATOM     75  C   UNL A   1      40.131  35.319  37.026  1.00  0.00     0.173 A 
ATOM     76  C   UNL A   1      38.723  33.681  38.069  1.00  0.00     0.173 A 
ATOM     77  F   UNL A   1      40.883  35.737  35.997  1.00  0.00    -0.203 F 
ATOM     78  C   UNL A   1      40.063  36.108  38.173  1.00  0.00     0.198 A 
ATOM     79  C   UNL A   1      38.631  34.484  39.204  1.00  0.00     0.198 A 
ATOM     80  F   UNL A   1      38.074  32.507  38.053  1.00  0.00    -0.203 F 
ATOM     81  F   UNL A   1      40.747  37.259  38.233  1.00  0.00    -0.200 F 
ATOM     82  C   UNL A   1      39.310  35.691  39.260  1.00  0.00     0.200 A 
ATOM     83  F   UNL A   1      37.891  34.083  40.247  1.00  0.00    -0.200 F 
ATOM     84  F   UNL A   1      39.249  36.446  40.365  1.00  0.00    -0.200 F 
ENDBRANCH  50  74
BRANCH  62  85
ATOM     85  C   UNL A   1      43.806  28.869  35.353  1.00  0.00     0.064 A 
ATOM     86  C   UNL A   1      45.120  29.320  35.161  1.00  0.00     0.173 A 
ATOM     87  C   UNL A   1      43.590  27.850  36.292  1.00  0.00     0.173 A 
ATOM     88  F   UNL A   1      45.379  30.281  34.262  1.00  0.00    -0.203 F 
ATOM     89  C   UNL A   1      46.177  28.757  35.870  1.00  0.00     0.198 A 
ATOM     90  C   UNL A   1      44.645  27.310  37.020  1.00  0.00     0.198 A 
ATOM     91  F   UNL A   1      42.350  27.389  36.516  1.00  0.00    -0.203 F 
ATOM     92  F   UNL A   1      47.431  29.174  35.640  1.00  0.00    -0.200 F 
ATOM     93  C   UNL A   1      45.939  27.760  36.804  1.00  0.00     0.200 A 
ATOM     94  F   UNL A   1      44.410  26.357  37.933  1.00  0.00    -0.200 F 
ATOM     95  F   UNL A   1      46.957  27.228  37.493  1.00  0.00    -0.200 F 
ENDBRANCH  62  85
ENDBRANCH  36  37
ENDBRANCH  28  31
ENDBRANCH  26  27
ENDBRANCH  25  26
ENDBRANCH  24  25
ENDBRANCH   1  24
TORSDOF 16
ENDMDL
