MODEL 1
REMARK VINA RESULT:     -12.3      0.000      0.000
REMARK SMILES C[C@H](C(=O)NCCCCCCNC(=O)c1ccc(-c2c3nc(c(-c4c(F)c(F)c(F)c(F)c4F)c4ccc([nH]4)c(-c4c(F)c(F)c(F)c(F)c4F)c4nc(c(-c5c(F)c(F)c(F)c(F)c5F)c5ccc2[nH]5)C=C4)C=C3)cc1)c1ccc(C[C@H]2CCC[C@@H]2O)cc1
REMARK SMILES IDX 7 1 6 2 5 3 3 4 4 5 2 7 1 8 78 9 79 10 90 11 80 12 89 13
REMARK SMILES IDX 81 14 82 15 83 16 84 17 87 18 85 19 86 20 88 21 8 23 9 24
REMARK SMILES IDX 10 25 11 26 12 27 13 28 14 30 15 31 16 32 77 33 17 34 76 35
REMARK SMILES IDX 18 36 19 37 20 38 70 39 21 40 75 41 69 42 71 43 22 44 74 45
REMARK SMILES IDX 68 46 67 47 23 49 55 50 35 51 54 52 36 53 39 54 53 55 72 56
REMARK SMILES IDX 37 57 38 58 52 60 73 61 40 62 24 63 25 64 33 65 26 66 27 67
REMARK SMILES IDX 31 68 34 69 28 70 29 71 32 72 30 73 56 74 57 75 65 76 58 77
REMARK SMILES IDX 59 78 63 79 66 80 60 81 61 82 64 83 62 84 41 85 42 86 50 87
REMARK SMILES IDX 43 88 44 89 48 90 51 91 45 92 46 93 49 94 47 95
REMARK H PARENT 5 6 88 22 12 29 71 48 39 59
REMARK Flexibility Score: inf
ROOT
ATOM      1  C   UNL A   1      32.493  28.320  27.263  1.00  0.00     0.021 C 
ENDROOT
BRANCH   1   2
ATOM      2  C   UNL A   1      33.678  28.028  26.343  1.00  0.00     0.116 C 
BRANCH   2   3
ATOM      3  N   UNL A   1      33.763  26.619  26.008  1.00  0.00    -0.356 N 
ATOM      4  C   UNL A   1      33.594  25.974  24.820  1.00  0.00     0.227 C 
ATOM      5  O   UNL A   1      33.740  24.748  24.825  1.00  0.00    -0.274 OA
ATOM      6  H   UNL A   1      33.977  26.030  26.768  1.00  0.00     0.163 HD
BRANCH   4   7
ATOM      7  C   UNL A   1      33.251  26.716  23.526  1.00  0.00     0.105 C 
ATOM      8  C   UNL A   1      33.652  25.884  22.299  1.00  0.00     0.023 C 
BRANCH   7   9
ATOM      9  C   UNL A   1      31.836  27.283  23.444  1.00  0.00    -0.036 A 
ATOM     10  C   UNL A   1      30.734  26.647  24.035  1.00  0.00     0.005 A 
ATOM     11  C   UNL A   1      31.610  28.504  22.787  1.00  0.00     0.005 A 
ATOM     12  C   UNL A   1      29.441  27.153  23.875  1.00  0.00     0.004 A 
ATOM     13  C   UNL A   1      30.318  29.007  22.626  1.00  0.00     0.004 A 
ATOM     14  C   UNL A   1      29.214  28.310  23.126  1.00  0.00    -0.048 A 
BRANCH  14  15
ATOM     15  C   UNL A   1      27.811  28.785  22.833  1.00  0.00     0.041 C 
BRANCH  15  16
ATOM     16  C   UNL A   1      27.653  30.302  22.617  1.00  0.00     0.022 C 
ATOM     17  C   UNL A   1      28.112  31.208  23.773  1.00  0.00     0.007 C 
ATOM     18  C   UNL A   1      28.359  30.869  21.383  1.00  0.00     0.117 C 
ATOM     19  C   UNL A   1      28.731  32.448  23.121  1.00  0.00     0.003 C 
ATOM     20  C   UNL A   1      28.355  32.366  21.651  1.00  0.00     0.032 C 
BRANCH  18  21
ATOM     21  O   UNL A   1      27.653  30.547  20.199  1.00  0.00    -0.393 OA
ATOM     22  H   UNL A   1      27.999  29.717  19.833  1.00  0.00     0.210 HD
ENDBRANCH  18  21
ENDBRANCH  15  16
ENDBRANCH  14  15
ENDBRANCH   7   9
ENDBRANCH   4   7
ENDBRANCH   2   3
ENDBRANCH   1   2
BRANCH   1  23
ATOM     23  C   UNL A   1      31.415  29.223  26.650  1.00  0.00     0.002 C 
BRANCH  23  24
ATOM     24  C   UNL A   1      31.937  30.451  25.898  1.00  0.00     0.002 C 
BRANCH  24  25
ATOM     25  C   UNL A   1      31.578  31.799  26.523  1.00  0.00     0.021 C 
BRANCH  25  26
ATOM     26  C   UNL A   1      32.724  32.494  27.252  1.00  0.00     0.116 C 
BRANCH  26  27
ATOM     27  N   UNL A   1      32.429  33.886  27.557  1.00  0.00    -0.352 N 
ATOM     28  C   UNL A   1      33.003  34.706  28.497  1.00  0.00     0.251 C 
ATOM     29  H   UNL A   1      31.720  34.297  27.014  1.00  0.00     0.163 HD
ATOM     30  O   UNL A   1      32.528  35.812  28.736  1.00  0.00    -0.269 OA
BRANCH  28  31
ATOM     31  C   UNL A   1      34.188  34.239  29.247  1.00  0.00     0.039 A 
ATOM     32  C   UNL A   1      34.003  33.544  30.445  1.00  0.00     0.014 A 
ATOM     33  C   UNL A   1      35.476  34.474  28.760  1.00  0.00     0.014 A 
ATOM     34  C   UNL A   1      35.108  33.022  31.120  1.00  0.00     0.010 A 
ATOM     35  C   UNL A   1      36.569  33.892  29.394  1.00  0.00     0.010 A 
ATOM     36  C   UNL A   1      36.397  33.159  30.579  1.00  0.00    -0.014 A 
BRANCH  36  37
ATOM     37  C   UNL A   1      37.581  32.544  31.228  1.00  0.00     0.031 A 
ATOM     38  C   UNL A   1      38.278  31.383  30.578  1.00  0.00     0.074 A 
ATOM     39  C   UNL A   1      37.967  32.964  32.448  1.00  0.00     0.049 A 
ATOM     40  N   UNL A   1      39.247  30.633  31.038  1.00  0.00    -0.248 NA
ATOM     41  C   UNL A   1      37.796  30.994  29.244  1.00  0.00     0.031 C 
ATOM     42  C   UNL A   1      37.339  34.046  33.207  1.00  0.00     0.029 A 
ATOM     43  N   UNL A   1      38.965  32.512  33.277  1.00  0.00    -0.354 N 
ATOM     44  C   UNL A   1      39.474  29.671  30.061  1.00  0.00     0.074 A 
ATOM     45  C   UNL A   1      38.508  29.902  29.009  1.00  0.00     0.031 C 
ATOM     46  C   UNL A   1      37.965  34.175  34.387  1.00  0.00     0.029 A 
ATOM     47  C   UNL A   1      39.011  33.162  34.486  1.00  0.00     0.049 A 
ATOM     48  H   UNL A   1      39.588  31.792  33.028  1.00  0.00     0.167 HD
ATOM     49  C   UNL A   1      40.415  28.697  30.038  1.00  0.00     0.037 A 
ATOM     50  C   UNL A   1      39.791  32.949  35.563  1.00  0.00     0.037 A 
ATOM     51  C   UNL A   1      41.389  28.490  31.077  1.00  0.00     0.049 A 
ATOM     52  C   UNL A   1      40.833  31.865  35.515  1.00  0.00     0.074 A 
ATOM     53  C   UNL A   1      42.434  27.585  31.113  1.00  0.00     0.029 A 
ATOM     54  N   UNL A   1      41.429  29.195  32.273  1.00  0.00    -0.354 N 
ATOM     55  N   UNL A   1      41.094  31.013  34.554  1.00  0.00    -0.248 NA
ATOM     56  C   UNL A   1      41.694  31.717  36.698  1.00  0.00     0.031 C 
ATOM     57  C   UNL A   1      43.071  27.701  32.352  1.00  0.00     0.029 A 
ATOM     58  C   UNL A   1      42.461  28.721  33.066  1.00  0.00     0.049 A 
ATOM     59  H   UNL A   1      40.814  29.922  32.520  1.00  0.00     0.167 HD
ATOM     60  C   UNL A   1      42.160  30.245  35.002  1.00  0.00     0.074 A 
ATOM     61  C   UNL A   1      42.506  30.739  36.319  1.00  0.00     0.031 C 
ATOM     62  C   UNL A   1      42.796  29.224  34.376  1.00  0.00     0.037 A 
BRANCH  49  63
ATOM     63  C   UNL A   1      40.425  27.775  28.852  1.00  0.00     0.064 A 
ATOM     64  C   UNL A   1      41.201  28.043  27.712  1.00  0.00     0.173 A 
ATOM     65  C   UNL A   1      39.658  26.601  28.859  1.00  0.00     0.173 A 
ATOM     66  F   UNL A   1      41.947  29.156  27.649  1.00  0.00    -0.203 F 
ATOM     67  C   UNL A   1      41.170  27.194  26.608  1.00  0.00     0.198 A 
ATOM     68  C   UNL A   1      39.658  25.737  27.767  1.00  0.00     0.198 A 
ATOM     69  F   UNL A   1      38.904  26.291  29.925  1.00  0.00    -0.203 F 
ATOM     70  F   UNL A   1      41.867  27.506  25.507  1.00  0.00    -0.200 F 
ATOM     71  C   UNL A   1      40.403  26.040  26.639  1.00  0.00     0.200 A 
ATOM     72  F   UNL A   1      38.926  24.614  27.804  1.00  0.00    -0.200 F 
ATOM     73  F   UNL A   1      40.375  25.225  25.575  1.00  0.00    -0.200 F 
ENDBRANCH  49  63
BRANCH  50  74
ATOM     74  C   UNL A   1      39.615  33.795  36.771  1.00  0.00     0.064 A 
ATOM     75  C   UNL A   1      40.234  35.048  36.874  1.00  0.00     0.173 A 
ATOM     76  C   UNL A   1      38.797  33.383  37.835  1.00  0.00     0.173 A 
ATOM     77  F   UNL A   1      41.040  35.478  35.893  1.00  0.00    -0.203 F 
ATOM     78  C   UNL A   1      40.051  35.852  37.998  1.00  0.00     0.198 A 
ATOM     79  C   UNL A   1      38.593  34.198  38.944  1.00  0.00     0.198 A 
ATOM     80  F   UNL A   1      38.175  32.195  37.780  1.00  0.00    -0.203 F 
ATOM     81  F   UNL A   1      40.680  37.031  38.086  1.00  0.00    -0.200 F 
ATOM     82  C   UNL A   1      39.224  35.430  39.028  1.00  0.00     0.200 A 
ATOM     83  F   UNL A   1      37.777  33.794  39.928  1.00  0.00    -0.200 F 
ATOM     84  F   UNL A   1      39.036  36.209  40.102  1.00  0.00    -0.200 F 
ENDBRANCH  50  74
BRANCH  62  85
ATOM     85  C   UNL A   1      43.952  28.586  35.088  1.00  0.00     0.064 A 
ATOM     86  C   UNL A   1      45.255  29.096  34.984  1.00  0.00     0.173 A 
ATOM     87  C   UNL A   1      43.742  27.490  35.940  1.00  0.00     0.173 A 
ATOM     88  F   UNL A   1      45.511  30.132  34.171  1.00  0.00    -0.203 F 
ATOM     89  C   UNL A   1      46.307  28.524  35.695  1.00  0.00     0.198 A 
ATOM     90  C   UNL A   1      44.790  26.939  36.672  1.00  0.00     0.198 A 
ATOM     91  F   UNL A   1      42.515  26.968  36.079  1.00  0.00    -0.203 F 
ATOM     92  F   UNL A   1      47.549  29.004  35.553  1.00  0.00    -0.200 F 
ATOM     93  C   UNL A   1      46.072  27.453  36.546  1.00  0.00     0.200 A 
ATOM     94  F   UNL A   1      44.557  25.914  37.503  1.00  0.00    -0.200 F 
ATOM     95  F   UNL A   1      47.082  26.914  37.241  1.00  0.00    -0.200 F 
ENDBRANCH  62  85
ENDBRANCH  36  37
ENDBRANCH  28  31
ENDBRANCH  26  27
ENDBRANCH  25  26
ENDBRANCH  24  25
ENDBRANCH  23  24
ENDBRANCH   1  23
TORSDOF 17
ENDMDL
MODEL 2
REMARK VINA RESULT:     -12.0      4.403     11.286
REMARK SMILES C[C@H](C(=O)NCCCCCCNC(=O)c1ccc(-c2c3nc(c(-c4c(F)c(F)c(F)c(F)c4F)c4ccc([nH]4)c(-c4c(F)c(F)c(F)c(F)c4F)c4nc(c(-c5c(F)c(F)c(F)c(F)c5F)c5ccc2[nH]5)C=C4)C=C3)cc1)c1ccc(C[C@H]2CCC[C@@H]2O)cc1
REMARK SMILES IDX 7 1 6 2 5 3 3 4 4 5 2 7 1 8 78 9 79 10 90 11 80 12 89 13
REMARK SMILES IDX 81 14 82 15 83 16 84 17 87 18 85 19 86 20 88 21 8 23 9 24
REMARK SMILES IDX 10 25 11 26 12 27 13 28 14 30 15 31 16 32 77 33 17 34 76 35
REMARK SMILES IDX 18 36 19 37 20 38 70 39 21 40 75 41 69 42 71 43 22 44 74 45
REMARK SMILES IDX 68 46 67 47 23 49 55 50 35 51 54 52 36 53 39 54 53 55 72 56
REMARK SMILES IDX 37 57 38 58 52 60 73 61 40 62 24 63 25 64 33 65 26 66 27 67
REMARK SMILES IDX 31 68 34 69 28 70 29 71 32 72 30 73 56 74 57 75 65 76 58 77
REMARK SMILES IDX 59 78 63 79 66 80 60 81 61 82 64 83 62 84 41 85 42 86 50 87
REMARK SMILES IDX 43 88 44 89 48 90 51 91 45 92 46 93 49 94 47 95
REMARK H PARENT 5 6 88 22 12 29 71 48 39 59
REMARK Flexibility Score: inf
ROOT
ATOM      1  C   UNL A   1      33.973  33.508  32.865  1.00  0.00     0.021 C 
ENDROOT
BRANCH   1   2
ATOM      2  C   UNL A   1      34.738  34.602  33.608  1.00  0.00     0.116 C 
BRANCH   2   3
ATOM      3  N   UNL A   1      35.336  34.103  34.832  1.00  0.00    -0.356 N 
ATOM      4  C   UNL A   1      36.583  33.613  35.079  1.00  0.00     0.227 C 
ATOM      5  O   UNL A   1      36.827  33.264  36.238  1.00  0.00    -0.274 OA
ATOM      6  H   UNL A   1      34.740  34.120  35.615  1.00  0.00     0.163 HD
BRANCH   4   7
ATOM      7  C   UNL A   1      37.651  33.501  33.987  1.00  0.00     0.105 C 
ATOM      8  C   UNL A   1      38.584  34.720  34.012  1.00  0.00     0.023 C 
BRANCH   7   9
ATOM      9  C   UNL A   1      38.390  32.168  33.919  1.00  0.00    -0.036 A 
ATOM     10  C   UNL A   1      39.722  32.022  34.332  1.00  0.00     0.005 A 
ATOM     11  C   UNL A   1      37.719  31.021  33.462  1.00  0.00     0.005 A 
ATOM     12  C   UNL A   1      40.392  30.804  34.185  1.00  0.00     0.004 A 
ATOM     13  C   UNL A   1      38.390  29.806  33.313  1.00  0.00     0.004 A 
ATOM     14  C   UNL A   1      39.748  29.698  33.626  1.00  0.00    -0.048 A 
BRANCH  14  15
ATOM     15  C   UNL A   1      40.503  28.423  33.335  1.00  0.00     0.041 C 
BRANCH  15  16
ATOM     16  C   UNL A   1      42.019  28.471  33.602  1.00  0.00     0.022 C 
ATOM     17  C   UNL A   1      42.451  28.540  35.077  1.00  0.00     0.007 C 
ATOM     18  C   UNL A   1      42.828  27.309  33.020  1.00  0.00     0.117 C 
ATOM     19  C   UNL A   1      43.728  27.700  35.186  1.00  0.00     0.003 C 
ATOM     20  C   UNL A   1      44.155  27.422  33.755  1.00  0.00     0.032 C 
BRANCH  18  21
ATOM     21  O   UNL A   1      42.989  27.451  31.622  1.00  0.00    -0.393 OA
ATOM     22  H   UNL A   1      42.930  26.579  31.200  1.00  0.00     0.210 HD
ENDBRANCH  18  21
ENDBRANCH  15  16
ENDBRANCH  14  15
ENDBRANCH   7   9
ENDBRANCH   4   7
ENDBRANCH   2   3
ENDBRANCH   1   2
BRANCH   1  23
ATOM     23  C   UNL A   1      34.810  32.725  31.844  1.00  0.00     0.002 C 
BRANCH  23  24
ATOM     24  C   UNL A   1      35.639  33.579  30.881  1.00  0.00     0.002 C 
BRANCH  24  25
ATOM     25  C   UNL A   1      34.944  33.942  29.569  1.00  0.00     0.021 C 
BRANCH  25  26
ATOM     26  C   UNL A   1      35.336  33.080  28.374  1.00  0.00     0.116 C 
BRANCH  26  27
ATOM     27  N   UNL A   1      34.384  32.008  28.122  1.00  0.00    -0.352 N 
ATOM     28  C   UNL A   1      34.612  30.660  27.998  1.00  0.00     0.251 C 
ATOM     29  H   UNL A   1      33.446  32.289  28.027  1.00  0.00     0.163 HD
ATOM     30  O   UNL A   1      33.718  29.906  27.626  1.00  0.00    -0.269 OA
BRANCH  28  31
ATOM     31  C   UNL A   1      35.956  30.117  28.290  1.00  0.00     0.039 A 
ATOM     32  C   UNL A   1      36.908  30.078  27.268  1.00  0.00     0.014 A 
ATOM     33  C   UNL A   1      36.276  29.663  29.571  1.00  0.00     0.014 A 
ATOM     34  C   UNL A   1      38.207  29.650  27.550  1.00  0.00     0.010 A 
ATOM     35  C   UNL A   1      37.588  29.305  29.867  1.00  0.00     0.010 A 
ATOM     36  C   UNL A   1      38.567  29.296  28.860  1.00  0.00    -0.014 A 
BRANCH  36  37
ATOM     37  C   UNL A   1      39.959  28.916  29.208  1.00  0.00     0.031 A 
ATOM     38  C   UNL A   1      40.850  29.893  29.920  1.00  0.00     0.074 A 
ATOM     39  C   UNL A   1      40.451  27.732  28.794  1.00  0.00     0.049 A 
ATOM     40  N   UNL A   1      42.125  29.800  30.203  1.00  0.00    -0.248 NA
ATOM     41  C   UNL A   1      40.230  31.158  30.341  1.00  0.00     0.031 C 
ATOM     42  C   UNL A   1      39.702  26.720  28.049  1.00  0.00     0.029 A 
ATOM     43  N   UNL A   1      41.707  27.192  28.919  1.00  0.00    -0.354 N 
ATOM     44  C   UNL A   1      42.463  31.002  30.812  1.00  0.00     0.074 A 
ATOM     45  C   UNL A   1      41.273  31.825  30.811  1.00  0.00     0.031 C 
ATOM     46  C   UNL A   1      40.511  25.683  27.784  1.00  0.00     0.029 A 
ATOM     47  C   UNL A   1      41.844  25.972  28.304  1.00  0.00     0.049 A 
ATOM     48  H   UNL A   1      42.440  27.636  29.404  1.00  0.00     0.167 HD
ATOM     49  C   UNL A   1      43.653  31.375  31.340  1.00  0.00     0.037 A 
ATOM     50  C   UNL A   1      42.928  25.185  28.154  1.00  0.00     0.037 A 
ATOM     51  C   UNL A   1      44.825  30.541  31.360  1.00  0.00     0.049 A 
ATOM     52  C   UNL A   1      44.239  25.615  28.752  1.00  0.00     0.074 A 
ATOM     53  C   UNL A   1      46.055  30.793  31.941  1.00  0.00     0.029 A 
ATOM     54  N   UNL A   1      44.915  29.292  30.759  1.00  0.00    -0.354 N 
ATOM     55  N   UNL A   1      44.529  26.719  29.398  1.00  0.00    -0.248 NA
ATOM     56  C   UNL A   1      45.372  24.691  28.608  1.00  0.00     0.031 C 
ATOM     57  C   UNL A   1      46.906  29.723  31.644  1.00  0.00     0.029 A 
ATOM     58  C   UNL A   1      46.190  28.776  30.929  1.00  0.00     0.049 A 
ATOM     59  H   UNL A   1      44.182  28.841  30.283  1.00  0.00     0.167 HD
ATOM     60  C   UNL A   1      45.865  26.613  29.757  1.00  0.00     0.074 A 
ATOM     61  C   UNL A   1      46.328  25.331  29.266  1.00  0.00     0.031 C 
ATOM     62  C   UNL A   1      46.637  27.497  30.436  1.00  0.00     0.037 A 
BRANCH  49  63
ATOM     63  C   UNL A   1      43.745  32.754  31.931  1.00  0.00     0.064 A 
ATOM     64  C   UNL A   1      43.607  32.979  33.310  1.00  0.00     0.173 A 
ATOM     65  C   UNL A   1      43.984  33.864  31.108  1.00  0.00     0.173 A 
ATOM     66  F   UNL A   1      43.370  31.954  34.142  1.00  0.00    -0.203 F 
ATOM     67  C   UNL A   1      43.660  34.269  33.835  1.00  0.00     0.198 A 
ATOM     68  C   UNL A   1      44.072  35.147  31.640  1.00  0.00     0.198 A 
ATOM     69  F   UNL A   1      44.132  33.706  29.783  1.00  0.00    -0.203 F 
ATOM     70  F   UNL A   1      43.460  34.465  35.145  1.00  0.00    -0.200 F 
ATOM     71  C   UNL A   1      43.898  35.350  33.000  1.00  0.00     0.200 A 
ATOM     72  F   UNL A   1      44.316  36.190  30.834  1.00  0.00    -0.200 F 
ATOM     73  F   UNL A   1      43.948  36.590  33.508  1.00  0.00    -0.200 F 
ENDBRANCH  49  63
BRANCH  50  74
ATOM     74  C   UNL A   1      42.803  23.904  27.412  1.00  0.00     0.064 A 
ATOM     75  C   UNL A   1      43.170  23.811  26.062  1.00  0.00     0.173 A 
ATOM     76  C   UNL A   1      42.345  22.739  28.045  1.00  0.00     0.173 A 
ATOM     77  F   UNL A   1      43.596  24.902  25.409  1.00  0.00    -0.203 F 
ATOM     78  C   UNL A   1      43.073  22.605  25.372  1.00  0.00     0.198 A 
ATOM     79  C   UNL A   1      42.275  21.528  27.362  1.00  0.00     0.198 A 
ATOM     80  F   UNL A   1      41.989  22.773  29.338  1.00  0.00    -0.203 F 
ATOM     81  F   UNL A   1      43.400  22.551  24.074  1.00  0.00    -0.200 F 
ATOM     82  C   UNL A   1      42.634  21.462  26.024  1.00  0.00     0.200 A 
ATOM     83  F   UNL A   1      41.869  20.422  28.001  1.00  0.00    -0.200 F 
ATOM     84  F   UNL A   1      42.556  20.299  25.363  1.00  0.00    -0.200 F 
ENDBRANCH  50  74
BRANCH  62  85
ATOM     85  C   UNL A   1      48.058  27.104  30.718  1.00  0.00     0.064 A 
ATOM     86  C   UNL A   1      48.403  26.347  31.847  1.00  0.00     0.173 A 
ATOM     87  C   UNL A   1      49.077  27.433  29.810  1.00  0.00     0.173 A 
ATOM     88  F   UNL A   1      47.469  26.022  32.753  1.00  0.00    -0.203 F 
ATOM     89  C   UNL A   1      49.719  25.946  32.064  1.00  0.00     0.198 A 
ATOM     90  C   UNL A   1      50.386  27.005  30.015  1.00  0.00     0.198 A 
ATOM     91  F   UNL A   1      48.798  28.151  28.712  1.00  0.00    -0.203 F 
ATOM     92  F   UNL A   1      50.033  25.254  33.167  1.00  0.00    -0.200 F 
ATOM     93  C   UNL A   1      50.706  26.266  31.144  1.00  0.00     0.200 A 
ATOM     94  F   UNL A   1      51.334  27.303  29.117  1.00  0.00    -0.200 F 
ATOM     95  F   UNL A   1      51.969  25.865  31.346  1.00  0.00    -0.200 F 
ENDBRANCH  62  85
ENDBRANCH  36  37
ENDBRANCH  28  31
ENDBRANCH  26  27
ENDBRANCH  25  26
ENDBRANCH  24  25
ENDBRANCH  23  24
ENDBRANCH   1  23
TORSDOF 17
ENDMDL
MODEL 3
REMARK VINA RESULT:     -11.9      3.907      8.761
REMARK SMILES C[C@H](C(=O)NCCCCCCNC(=O)c1ccc(-c2c3nc(c(-c4c(F)c(F)c(F)c(F)c4F)c4ccc([nH]4)c(-c4c(F)c(F)c(F)c(F)c4F)c4nc(c(-c5c(F)c(F)c(F)c(F)c5F)c5ccc2[nH]5)C=C4)C=C3)cc1)c1ccc(C[C@H]2CCC[C@@H]2O)cc1
REMARK SMILES IDX 7 1 6 2 5 3 3 4 4 5 2 7 1 8 78 9 79 10 90 11 80 12 89 13
REMARK SMILES IDX 81 14 82 15 83 16 84 17 87 18 85 19 86 20 88 21 8 23 9 24
REMARK SMILES IDX 10 25 11 26 12 27 13 28 14 30 15 31 16 32 77 33 17 34 76 35
REMARK SMILES IDX 18 36 19 37 20 38 70 39 21 40 75 41 69 42 71 43 22 44 74 45
REMARK SMILES IDX 68 46 67 47 23 49 55 50 35 51 54 52 36 53 39 54 53 55 72 56
REMARK SMILES IDX 37 57 38 58 52 60 73 61 40 62 24 63 25 64 33 65 26 66 27 67
REMARK SMILES IDX 31 68 34 69 28 70 29 71 32 72 30 73 56 74 57 75 65 76 58 77
REMARK SMILES IDX 59 78 63 79 66 80 60 81 61 82 64 83 62 84 41 85 42 86 50 87
REMARK SMILES IDX 43 88 44 89 48 90 51 91 45 92 46 93 49 94 47 95
REMARK H PARENT 5 6 88 22 12 29 71 48 39 59
REMARK Flexibility Score: inf
ROOT
ATOM      1  C   UNL A   1      34.619  24.764  24.826  1.00  0.00     0.021 C 
ENDROOT
BRANCH   1   2
ATOM      2  C   UNL A   1      34.354  23.389  25.439  1.00  0.00     0.116 C 
BRANCH   2   3
ATOM      3  N   UNL A   1      33.868  22.445  24.451  1.00  0.00    -0.356 N 
ATOM      4  C   UNL A   1      32.600  22.063  24.132  1.00  0.00     0.227 C 
ATOM      5  O   UNL A   1      32.477  21.235  23.224  1.00  0.00    -0.274 OA
ATOM      6  H   UNL A   1      34.573  22.006  23.923  1.00  0.00     0.163 HD
BRANCH   4   7
ATOM      7  C   UNL A   1      31.369  22.630  24.845  1.00  0.00     0.105 C 
ATOM      8  C   UNL A   1      31.422  22.323  26.349  1.00  0.00     0.023 C 
BRANCH   7   9
ATOM      9  C   UNL A   1      31.034  24.085  24.530  1.00  0.00    -0.036 A 
ATOM     10  C   UNL A   1      31.190  24.634  23.249  1.00  0.00     0.005 A 
ATOM     11  C   UNL A   1      30.514  24.915  25.537  1.00  0.00     0.005 A 
ATOM     12  C   UNL A   1      30.946  25.990  23.013  1.00  0.00     0.004 A 
ATOM     13  C   UNL A   1      30.273  26.270  25.300  1.00  0.00     0.004 A 
ATOM     14  C   UNL A   1      30.535  26.832  24.048  1.00  0.00    -0.048 A 
BRANCH  14  15
ATOM     15  C   UNL A   1      30.404  28.321  23.834  1.00  0.00     0.041 C 
BRANCH  15  16
ATOM     16  C   UNL A   1      29.421  28.751  22.729  1.00  0.00     0.022 C 
ATOM     17  C   UNL A   1      27.931  28.775  23.111  1.00  0.00     0.007 C 
ATOM     18  C   UNL A   1      29.681  30.129  22.115  1.00  0.00     0.117 C 
ATOM     19  C   UNL A   1      27.323  29.974  22.376  1.00  0.00     0.003 C 
ATOM     20  C   UNL A   1      28.381  30.421  21.381  1.00  0.00     0.032 C 
BRANCH  18  21
ATOM     21  O   UNL A   1      30.785  30.091  21.229  1.00  0.00    -0.393 OA
ATOM     22  H   UNL A   1      31.399  29.393  21.508  1.00  0.00     0.210 HD
ENDBRANCH  18  21
ENDBRANCH  15  16
ENDBRANCH  14  15
ENDBRANCH   7   9
ENDBRANCH   4   7
ENDBRANCH   2   3
ENDBRANCH   1   2
BRANCH   1  23
ATOM     23  C   UNL A   1      34.034  25.940  25.619  1.00  0.00     0.002 C 
BRANCH  23  24
ATOM     24  C   UNL A   1      34.058  27.292  24.902  1.00  0.00     0.002 C 
BRANCH  24  25
ATOM     25  C   UNL A   1      33.449  28.456  25.685  1.00  0.00     0.021 C 
BRANCH  25  26
ATOM     26  C   UNL A   1      33.942  28.591  27.122  1.00  0.00     0.116 C 
BRANCH  26  27
ATOM     27  N   UNL A   1      33.858  29.957  27.616  1.00  0.00    -0.352 N 
ATOM     28  C   UNL A   1      34.777  30.674  28.342  1.00  0.00     0.251 C 
ATOM     29  H   UNL A   1      33.026  30.435  27.398  1.00  0.00     0.163 HD
ATOM     30  O   UNL A   1      34.483  31.766  28.818  1.00  0.00    -0.269 OA
BRANCH  28  31
ATOM     31  C   UNL A   1      36.123  30.109  28.576  1.00  0.00     0.039 A 
ATOM     32  C   UNL A   1      37.076  30.183  27.557  1.00  0.00     0.014 A 
ATOM     33  C   UNL A   1      36.445  29.524  29.803  1.00  0.00     0.014 A 
ATOM     34  C   UNL A   1      38.377  29.733  27.793  1.00  0.00     0.010 A 
ATOM     35  C   UNL A   1      37.759  29.143  30.060  1.00  0.00     0.010 A 
ATOM     36  C   UNL A   1      38.738  29.245  29.059  1.00  0.00    -0.014 A 
BRANCH  36  37
ATOM     37  C   UNL A   1      40.132  28.837  29.365  1.00  0.00     0.031 A 
ATOM     38  C   UNL A   1      41.056  29.788  30.069  1.00  0.00     0.074 A 
ATOM     39  C   UNL A   1      40.594  27.653  28.922  1.00  0.00     0.049 A 
ATOM     40  N   UNL A   1      42.336  29.671  30.319  1.00  0.00    -0.248 NA
ATOM     41  C   UNL A   1      40.468  31.057  30.525  1.00  0.00     0.031 C 
ATOM     42  C   UNL A   1      39.810  26.664  28.180  1.00  0.00     0.029 A 
ATOM     43  N   UNL A   1      41.843  27.090  29.006  1.00  0.00    -0.354 N 
ATOM     44  C   UNL A   1      42.709  30.857  30.937  1.00  0.00     0.074 A 
ATOM     45  C   UNL A   1      41.533  31.700  30.979  1.00  0.00     0.031 C 
ATOM     46  C   UNL A   1      40.595  25.618  27.879  1.00  0.00     0.029 A 
ATOM     47  C   UNL A   1      41.945  25.878  28.369  1.00  0.00     0.049 A 
ATOM     48  H   UNL A   1      42.596  27.515  29.479  1.00  0.00     0.167 HD
ATOM     49  C   UNL A   1      43.918  31.203  31.441  1.00  0.00     0.037 A 
ATOM     50  C   UNL A   1      43.011  25.076  28.180  1.00  0.00     0.037 A 
ATOM     51  C   UNL A   1      45.077  30.349  31.418  1.00  0.00     0.049 A 
ATOM     52  C   UNL A   1      44.343  25.476  28.751  1.00  0.00     0.074 A 
ATOM     53  C   UNL A   1      46.324  30.572  31.971  1.00  0.00     0.029 A 
ATOM     54  N   UNL A   1      45.130  29.109  30.796  1.00  0.00    -0.354 N 
ATOM     55  N   UNL A   1      44.668  26.564  29.406  1.00  0.00    -0.248 NA
ATOM     56  C   UNL A   1      45.457  24.535  28.564  1.00  0.00     0.031 C 
ATOM     57  C   UNL A   1      47.150  29.494  31.637  1.00  0.00     0.029 A 
ATOM     58  C   UNL A   1      46.400  28.570  30.926  1.00  0.00     0.049 A 
ATOM     59  H   UNL A   1      44.378  28.677  30.332  1.00  0.00     0.167 HD
ATOM     60  C   UNL A   1      46.011  26.431  29.730  1.00  0.00     0.074 A 
ATOM     61  C   UNL A   1      46.440  25.150  29.208  1.00  0.00     0.031 C 
ATOM     62  C   UNL A   1      46.814  27.291  30.402  1.00  0.00     0.037 A 
BRANCH  49  63
ATOM     63  C   UNL A   1      44.048  32.570  32.050  1.00  0.00     0.064 A 
ATOM     64  C   UNL A   1      44.452  33.682  31.293  1.00  0.00     0.173 A 
ATOM     65  C   UNL A   1      43.754  32.774  33.406  1.00  0.00     0.173 A 
ATOM     66  F   UNL A   1      44.753  33.542  29.993  1.00  0.00    -0.203 F 
ATOM     67  C   UNL A   1      44.601  34.935  31.883  1.00  0.00     0.198 A 
ATOM     68  C   UNL A   1      43.870  34.036  33.984  1.00  0.00     0.198 A 
ATOM     69  F   UNL A   1      43.356  31.749  34.174  1.00  0.00    -0.203 F 
ATOM     70  F   UNL A   1      45.052  35.967  31.156  1.00  0.00    -0.200 F 
ATOM     71  C   UNL A   1      44.305  35.112  33.226  1.00  0.00     0.200 A 
ATOM     72  F   UNL A   1      43.570  34.207  35.279  1.00  0.00    -0.200 F 
ATOM     73  F   UNL A   1      44.450  36.319  33.792  1.00  0.00    -0.200 F 
ENDBRANCH  49  63
BRANCH  50  74
ATOM     74  C   UNL A   1      42.846  23.809  27.422  1.00  0.00     0.064 A 
ATOM     75  C   UNL A   1      43.210  23.722  26.071  1.00  0.00     0.173 A 
ATOM     76  C   UNL A   1      42.353  22.650  28.040  1.00  0.00     0.173 A 
ATOM     77  F   UNL A   1      43.669  24.807  25.431  1.00  0.00    -0.203 F 
ATOM     78  C   UNL A   1      43.076  22.528  25.365  1.00  0.00     0.198 A 
ATOM     79  C   UNL A   1      42.245  21.451  27.342  1.00  0.00     0.198 A 
ATOM     80  F   UNL A   1      41.999  22.680  29.334  1.00  0.00    -0.203 F 
ATOM     81  F   UNL A   1      43.400  22.480  24.066  1.00  0.00    -0.200 F 
ATOM     82  C   UNL A   1      42.602  21.391  26.003  1.00  0.00     0.200 A 
ATOM     83  F   UNL A   1      41.806  20.350  27.967  1.00  0.00    -0.200 F 
ATOM     84  F   UNL A   1      42.488  20.240  25.328  1.00  0.00    -0.200 F 
ENDBRANCH  50  74
BRANCH  62  85
ATOM     85  C   UNL A   1      48.235  26.872  30.642  1.00  0.00     0.064 A 
ATOM     86  C   UNL A   1      48.591  26.069  31.736  1.00  0.00     0.173 A 
ATOM     87  C   UNL A   1      49.241  27.222  29.728  1.00  0.00     0.173 A 
ATOM     88  F   UNL A   1      47.670  25.721  32.646  1.00  0.00    -0.203 F 
ATOM     89  C   UNL A   1      49.906  25.644  31.913  1.00  0.00     0.198 A 
ATOM     90  C   UNL A   1      50.547  26.771  29.892  1.00  0.00     0.198 A 
ATOM     91  F   UNL A   1      48.951  27.983  28.663  1.00  0.00    -0.203 F 
ATOM     92  F   UNL A   1      50.232  24.907  32.983  1.00  0.00    -0.200 F 
ATOM     93  C   UNL A   1      50.880  25.986  30.986  1.00  0.00     0.200 A 
ATOM     94  F   UNL A   1      51.483  27.091  28.987  1.00  0.00    -0.200 F 
ATOM     95  F   UNL A   1      52.141  25.562  31.149  1.00  0.00    -0.200 F 
ENDBRANCH  62  85
ENDBRANCH  36  37
ENDBRANCH  28  31
ENDBRANCH  26  27
ENDBRANCH  25  26
ENDBRANCH  24  25
ENDBRANCH  23  24
ENDBRANCH   1  23
TORSDOF 17
ENDMDL
