MODEL 1
REMARK VINA RESULT:     -12.1      0.000      0.000
REMARK SMILES CCCc1c(C(=O)NCCCCCCNC(=O)c2ccc(-c3c4nc(c(-c5c(F)c(F)c(F)c(F)c5F)c5ccc([nH]5)c(-c5c(F)c(F)c(F)c(F)c5F)c5nc(c(-c6c(F)c(F)c(F)c(F)c6F)c6ccc3[nH]6)C=C5)C=C4)cc2)nnn1-c1ccccc1[N+](=O)[O-]
REMARK SMILES IDX 11 1 10 2 9 3 8 4 6 5 7 6 5 8 4 9 83 10 81 11 82 12 3 13
REMARK SMILES IDX 2 14 1 15 84 16 85 17 89 18 86 19 88 20 87 21 90 22 91 23
REMARK SMILES IDX 92 24 12 25 13 26 14 27 15 28 16 29 17 31 18 32 19 33 80 34
REMARK SMILES IDX 20 35 79 36 21 37 22 38 23 39 73 40 24 41 78 42 72 43 74 44
REMARK SMILES IDX 25 45 77 46 71 47 70 48 26 50 58 51 38 52 57 53 39 54 42 55
REMARK SMILES IDX 56 56 75 57 40 58 41 59 55 61 76 62 43 63 27 64 28 65 36 66
REMARK SMILES IDX 29 67 30 68 34 69 37 70 31 71 32 72 35 73 33 74 59 75 60 76
REMARK SMILES IDX 68 77 61 78 62 79 66 80 69 81 63 82 64 83 67 84 65 85 44 86
REMARK SMILES IDX 45 87 53 88 46 89 47 90 51 91 54 92 48 93 49 94 52 95 50 96
REMARK H PARENT 8 7 15 30 74 49 42 60
REMARK Flexibility Score: inf
ROOT
ATOM      1  C   UNL A   1      40.120  21.387  26.609  1.00  0.00     0.002 C 
ENDROOT
BRANCH   1   2
ATOM      2  C   UNL A   1      39.247  20.849  25.479  1.00  0.00     0.021 C 
BRANCH   2   3
ATOM      3  C   UNL A   1      37.790  21.272  25.495  1.00  0.00     0.116 C 
BRANCH   3   4
ATOM      4  N   UNL A   1      36.818  20.278  25.162  1.00  0.00    -0.351 N 
ATOM      5  C   UNL A   1      35.443  20.358  25.095  1.00  0.00     0.273 C 
ATOM      6  O   UNL A   1      34.900  19.331  24.673  1.00  0.00    -0.267 OA
ATOM      7  H   UNL A   1      37.190  19.393  24.943  1.00  0.00     0.163 HD
BRANCH   5   8
ATOM      8  C   UNL A   1      34.619  21.501  25.547  1.00  0.00     0.174 A 
ATOM      9  C   UNL A   1      33.876  22.554  24.976  1.00  0.00     0.078 A 
ATOM     10  N   UNL A   1      33.334  23.204  26.098  1.00  0.00    -0.210 N 
ATOM     11  N   UNL A   1      34.550  21.639  26.924  1.00  0.00    -0.124 NA
ATOM     12  N   UNL A   1      33.883  22.731  27.226  1.00  0.00    -0.061 NA
BRANCH   9  13
ATOM     13  C   UNL A   1      33.701  23.140  23.600  1.00  0.00     0.059 C 
BRANCH  13  14
ATOM     14  C   UNL A   1      32.511  22.639  22.781  1.00  0.00     0.003 C 
ATOM     15  C   UNL A   1      32.203  21.165  22.951  1.00  0.00     0.004 C 
ENDBRANCH  13  14
ENDBRANCH   9  13
BRANCH  10  16
ATOM     16  C   UNL A   1      32.554  24.388  26.158  1.00  0.00     0.144 A 
ATOM     17  C   UNL A   1      33.237  25.616  26.096  1.00  0.00     0.036 A 
ATOM     18  C   UNL A   1      31.153  24.391  26.203  1.00  0.00     0.294 A 
ATOM     19  C   UNL A   1      32.523  26.809  25.961  1.00  0.00     0.003 A 
ATOM     20  C   UNL A   1      30.441  25.591  26.032  1.00  0.00     0.088 A 
ATOM     21  C   UNL A   1      31.131  26.793  25.893  1.00  0.00     0.007 A 
BRANCH  18  22
ATOM     22  N   UNL A   1      30.382  23.203  26.577  1.00  0.00     0.065 N 
ATOM     23  O   UNL A   1      29.841  23.206  27.691  1.00  0.00    -0.258 OA
ATOM     24  O   UNL A   1      30.328  22.268  25.770  1.00  0.00    -0.258 OA
ENDBRANCH  18  22
ENDBRANCH  10  16
ENDBRANCH   5   8
ENDBRANCH   3   4
ENDBRANCH   2   3
ENDBRANCH   1   2
BRANCH   1  25
ATOM     25  C   UNL A   1      41.287  20.505  27.084  1.00  0.00     0.002 C 
BRANCH  25  26
ATOM     26  C   UNL A   1      41.751  19.363  26.167  1.00  0.00     0.021 C 
BRANCH  26  27
ATOM     27  C   UNL A   1      43.168  18.871  26.417  1.00  0.00     0.116 C 
BRANCH  27  28
ATOM     28  N   UNL A   1      43.977  18.835  25.204  1.00  0.00    -0.352 N 
ATOM     29  C   UNL A   1      44.387  19.884  24.412  1.00  0.00     0.251 C 
ATOM     30  H   UNL A   1      44.270  17.940  24.912  1.00  0.00     0.163 HD
ATOM     31  O   UNL A   1      44.746  19.689  23.250  1.00  0.00    -0.269 OA
BRANCH  29  32
ATOM     32  C   UNL A   1      44.382  21.250  24.959  1.00  0.00     0.039 A 
ATOM     33  C   UNL A   1      43.377  22.155  24.607  1.00  0.00     0.014 A 
ATOM     34  C   UNL A   1      45.395  21.623  25.840  1.00  0.00     0.014 A 
ATOM     35  C   UNL A   1      43.353  23.407  25.216  1.00  0.00     0.010 A 
ATOM     36  C   UNL A   1      45.294  22.800  26.542  1.00  0.00     0.010 A 
ATOM     37  C   UNL A   1      44.301  23.714  26.206  1.00  0.00    -0.014 A 
BRANCH  37  38
ATOM     38  C   UNL A   1      44.163  24.931  27.003  1.00  0.00     0.031 A 
ATOM     39  C   UNL A   1      45.207  25.954  26.719  1.00  0.00     0.074 A 
ATOM     40  C   UNL A   1      43.074  25.204  27.756  1.00  0.00     0.049 A 
ATOM     41  N   UNL A   1      46.108  26.407  27.528  1.00  0.00    -0.248 NA
ATOM     42  C   UNL A   1      45.366  26.428  25.333  1.00  0.00     0.031 C 
ATOM     43  C   UNL A   1      41.840  24.418  27.860  1.00  0.00     0.029 A 
ATOM     44  N   UNL A   1      42.785  26.308  28.505  1.00  0.00    -0.354 N 
ATOM     45  C   UNL A   1      46.816  27.372  26.815  1.00  0.00     0.074 A 
ATOM     46  C   UNL A   1      46.445  27.207  25.436  1.00  0.00     0.031 C 
ATOM     47  C   UNL A   1      40.864  25.172  28.412  1.00  0.00     0.029 A 
ATOM     48  C   UNL A   1      41.443  26.427  28.853  1.00  0.00     0.049 A 
ATOM     49  H   UNL A   1      43.468  26.964  28.775  1.00  0.00     0.167 HD
ATOM     50  C   UNL A   1      47.427  28.399  27.469  1.00  0.00     0.037 A 
ATOM     51  C   UNL A   1      40.839  27.492  29.437  1.00  0.00     0.037 A 
ATOM     52  C   UNL A   1      47.558  28.092  28.873  1.00  0.00     0.049 A 
ATOM     53  C   UNL A   1      41.902  28.310  30.061  1.00  0.00     0.074 A 
ATOM     54  C   UNL A   1      48.220  27.142  29.623  1.00  0.00     0.029 A 
ATOM     55  N   UNL A   1      46.602  28.633  29.690  1.00  0.00    -0.354 N 
ATOM     56  N   UNL A   1      42.594  27.938  31.099  1.00  0.00    -0.248 NA
ATOM     57  C   UNL A   1      42.471  29.404  29.291  1.00  0.00     0.031 C 
ATOM     58  C   UNL A   1      47.369  26.883  30.741  1.00  0.00     0.029 A 
ATOM     59  C   UNL A   1      46.264  27.731  30.659  1.00  0.00     0.049 A 
ATOM     60  H   UNL A   1      46.215  29.533  29.594  1.00  0.00     0.167 HD
ATOM     61  C   UNL A   1      43.871  28.407  30.847  1.00  0.00     0.074 A 
ATOM     62  C   UNL A   1      43.697  29.429  29.818  1.00  0.00     0.031 C 
ATOM     63  C   UNL A   1      44.957  27.702  31.280  1.00  0.00     0.037 A 
BRANCH  50  64
ATOM     64  C   UNL A   1      47.464  29.836  26.975  1.00  0.00     0.064 A 
ATOM     65  C   UNL A   1      48.659  30.573  27.133  1.00  0.00     0.173 A 
ATOM     66  C   UNL A   1      46.320  30.609  26.679  1.00  0.00     0.173 A 
ATOM     67  F   UNL A   1      49.813  29.952  27.421  1.00  0.00    -0.203 F 
ATOM     68  C   UNL A   1      48.679  31.971  27.111  1.00  0.00     0.198 A 
ATOM     69  C   UNL A   1      46.354  32.002  26.607  1.00  0.00     0.198 A 
ATOM     70  F   UNL A   1      45.101  30.075  26.559  1.00  0.00    -0.203 F 
ATOM     71  F   UNL A   1      49.808  32.625  27.414  1.00  0.00    -0.200 F 
ATOM     72  C   UNL A   1      47.524  32.685  26.860  1.00  0.00     0.200 A 
ATOM     73  F   UNL A   1      45.217  32.675  26.380  1.00  0.00    -0.200 F 
ATOM     74  F   UNL A   1      47.522  34.023  26.910  1.00  0.00    -0.200 F 
ENDBRANCH  50  64
BRANCH  51  75
ATOM     75  C   UNL A   1      39.452  27.994  29.294  1.00  0.00     0.064 A 
ATOM     76  C   UNL A   1      38.614  28.134  30.414  1.00  0.00     0.173 A 
ATOM     77  C   UNL A   1      39.024  28.628  28.111  1.00  0.00     0.173 A 
ATOM     78  F   UNL A   1      38.965  27.595  31.591  1.00  0.00    -0.203 F 
ATOM     79  C   UNL A   1      37.444  28.900  30.367  1.00  0.00     0.198 A 
ATOM     80  C   UNL A   1      37.852  29.386  28.064  1.00  0.00     0.198 A 
ATOM     81  F   UNL A   1      39.787  28.612  27.010  1.00  0.00    -0.203 F 
ATOM     82  F   UNL A   1      36.715  29.074  31.478  1.00  0.00    -0.200 F 
ATOM     83  C   UNL A   1      37.072  29.537  29.196  1.00  0.00     0.200 A 
ATOM     84  F   UNL A   1      37.524  30.030  26.935  1.00  0.00    -0.200 F 
ATOM     85  F   UNL A   1      35.994  30.331  29.169  1.00  0.00    -0.200 F 
ENDBRANCH  51  75
BRANCH  63  86
ATOM     86  C   UNL A   1      44.730  26.690  32.368  1.00  0.00     0.064 A 
ATOM     87  C   UNL A   1      44.633  26.987  33.739  1.00  0.00     0.173 A 
ATOM     88  C   UNL A   1      44.531  25.357  31.983  1.00  0.00     0.173 A 
ATOM     89  F   UNL A   1      44.709  28.247  34.184  1.00  0.00    -0.203 F 
ATOM     90  C   UNL A   1      44.415  25.980  34.680  1.00  0.00     0.198 A 
ATOM     91  C   UNL A   1      44.268  24.363  32.919  1.00  0.00     0.198 A 
ATOM     92  F   UNL A   1      44.562  25.021  30.683  1.00  0.00    -0.203 F 
ATOM     93  F   UNL A   1      44.365  26.282  35.987  1.00  0.00    -0.200 F 
ATOM     94  C   UNL A   1      44.229  24.672  34.268  1.00  0.00     0.200 A 
ATOM     95  F   UNL A   1      44.040  23.108  32.510  1.00  0.00    -0.200 F 
ATOM     96  F   UNL A   1      43.990  23.708  35.170  1.00  0.00    -0.200 F 
ENDBRANCH  63  86
ENDBRANCH  37  38
ENDBRANCH  29  32
ENDBRANCH  27  28
ENDBRANCH  26  27
ENDBRANCH  25  26
ENDBRANCH   1  25
TORSDOF 17
ENDMDL
MODEL 2
REMARK VINA RESULT:     -11.9      1.432      2.083
REMARK SMILES CCCc1c(C(=O)NCCCCCCNC(=O)c2ccc(-c3c4nc(c(-c5c(F)c(F)c(F)c(F)c5F)c5ccc([nH]5)c(-c5c(F)c(F)c(F)c(F)c5F)c5nc(c(-c6c(F)c(F)c(F)c(F)c6F)c6ccc3[nH]6)C=C5)C=C4)cc2)nnn1-c1ccccc1[N+](=O)[O-]
REMARK SMILES IDX 11 1 10 2 9 3 8 4 6 5 7 6 5 8 4 9 83 10 81 11 82 12 3 13
REMARK SMILES IDX 2 14 1 15 84 16 85 17 89 18 86 19 88 20 87 21 90 22 91 23
REMARK SMILES IDX 92 24 12 25 13 26 14 27 15 28 16 29 17 31 18 32 19 33 80 34
REMARK SMILES IDX 20 35 79 36 21 37 22 38 23 39 73 40 24 41 78 42 72 43 74 44
REMARK SMILES IDX 25 45 77 46 71 47 70 48 26 50 58 51 38 52 57 53 39 54 42 55
REMARK SMILES IDX 56 56 75 57 40 58 41 59 55 61 76 62 43 63 27 64 28 65 36 66
REMARK SMILES IDX 29 67 30 68 34 69 37 70 31 71 32 72 35 73 33 74 59 75 60 76
REMARK SMILES IDX 68 77 61 78 62 79 66 80 69 81 63 82 64 83 67 84 65 85 44 86
REMARK SMILES IDX 45 87 53 88 46 89 47 90 51 91 54 92 48 93 49 94 52 95 50 96
REMARK H PARENT 8 7 15 30 74 49 42 60
REMARK Flexibility Score: inf
ROOT
ATOM      1  C   UNL A   1      39.645  22.176  26.584  1.00  0.00     0.002 C 
ENDROOT
BRANCH   1   2
ATOM      2  C   UNL A   1      38.680  21.490  25.621  1.00  0.00     0.021 C 
BRANCH   2   3
ATOM      3  C   UNL A   1      37.335  22.164  25.423  1.00  0.00     0.116 C 
BRANCH   3   4
ATOM      4  N   UNL A   1      36.206  21.316  25.201  1.00  0.00    -0.351 N 
ATOM      5  C   UNL A   1      34.985  21.585  24.620  1.00  0.00     0.273 C 
ATOM      6  O   UNL A   1      34.260  20.593  24.491  1.00  0.00    -0.267 OA
ATOM      7  H   UNL A   1      36.318  20.388  25.513  1.00  0.00     0.163 HD
BRANCH   5   8
ATOM      8  C   UNL A   1      34.485  22.924  24.237  1.00  0.00     0.174 A 
ATOM      9  C   UNL A   1      33.906  24.049  24.858  1.00  0.00     0.078 A 
ATOM     10  N   UNL A   1      33.756  24.957  23.795  1.00  0.00    -0.210 N 
ATOM     11  N   UNL A   1      34.556  23.188  22.879  1.00  0.00    -0.124 NA
ATOM     12  N   UNL A   1      34.003  24.352  22.624  1.00  0.00    -0.061 NA
BRANCH   9  13
ATOM     13  C   UNL A   1      33.344  24.372  26.217  1.00  0.00     0.059 C 
BRANCH  13  14
ATOM     14  C   UNL A   1      32.477  23.301  26.880  1.00  0.00     0.003 C 
ATOM     15  C   UNL A   1      33.232  22.348  27.785  1.00  0.00     0.004 C 
ENDBRANCH  13  14
ENDBRANCH   9  13
BRANCH  10  16
ATOM     16  C   UNL A   1      33.155  26.242  23.792  1.00  0.00     0.144 A 
ATOM     17  C   UNL A   1      34.009  27.357  23.850  1.00  0.00     0.036 A 
ATOM     18  C   UNL A   1      31.774  26.450  23.663  1.00  0.00     0.294 A 
ATOM     19  C   UNL A   1      33.498  28.643  23.663  1.00  0.00     0.003 A 
ATOM     20  C   UNL A   1      31.270  27.743  23.440  1.00  0.00     0.088 A 
ATOM     21  C   UNL A   1      32.138  28.832  23.422  1.00  0.00     0.007 A 
BRANCH  18  22
ATOM     22  N   UNL A   1      30.799  25.384  23.903  1.00  0.00     0.065 N 
ATOM     23  O   UNL A   1      30.637  24.549  23.002  1.00  0.00    -0.258 OA
ATOM     24  O   UNL A   1      30.190  25.386  24.979  1.00  0.00    -0.258 OA
ENDBRANCH  18  22
ENDBRANCH  10  16
ENDBRANCH   5   8
ENDBRANCH   3   4
ENDBRANCH   2   3
ENDBRANCH   1   2
BRANCH   1  25
ATOM     25  C   UNL A   1      40.894  21.390  27.016  1.00  0.00     0.002 C 
BRANCH  25  26
ATOM     26  C   UNL A   1      41.333  20.199  26.151  1.00  0.00     0.021 C 
BRANCH  26  27
ATOM     27  C   UNL A   1      42.641  19.546  26.570  1.00  0.00     0.116 C 
BRANCH  27  28
ATOM     28  N   UNL A   1      43.599  19.443  25.474  1.00  0.00    -0.352 N 
ATOM     29  C   UNL A   1      44.162  20.452  24.727  1.00  0.00     0.251 C 
ATOM     30  H   UNL A   1      43.880  18.529  25.237  1.00  0.00     0.163 HD
ATOM     31  O   UNL A   1      44.659  20.215  23.626  1.00  0.00    -0.269 OA
BRANCH  29  32
ATOM     32  C   UNL A   1      44.158  21.829  25.248  1.00  0.00     0.039 A 
ATOM     33  C   UNL A   1      43.331  22.803  24.682  1.00  0.00     0.014 A 
ATOM     34  C   UNL A   1      44.989  22.142  26.323  1.00  0.00     0.014 A 
ATOM     35  C   UNL A   1      43.285  24.068  25.260  1.00  0.00     0.010 A 
ATOM     36  C   UNL A   1      44.842  23.342  26.976  1.00  0.00     0.010 A 
ATOM     37  C   UNL A   1      44.024  24.324  26.427  1.00  0.00    -0.014 A 
BRANCH  37  38
ATOM     38  C   UNL A   1      43.823  25.569  27.165  1.00  0.00     0.031 A 
ATOM     39  C   UNL A   1      44.794  26.640  26.806  1.00  0.00     0.074 A 
ATOM     40  C   UNL A   1      42.735  25.812  27.928  1.00  0.00     0.049 A 
ATOM     41  N   UNL A   1      45.679  27.190  27.570  1.00  0.00    -0.248 NA
ATOM     42  C   UNL A   1      44.895  27.051  25.395  1.00  0.00     0.031 C 
ATOM     43  C   UNL A   1      41.555  24.955  28.099  1.00  0.00     0.029 A 
ATOM     44  N   UNL A   1      42.390  26.933  28.627  1.00  0.00    -0.354 N 
ATOM     45  C   UNL A   1      46.310  28.160  26.794  1.00  0.00     0.074 A 
ATOM     46  C   UNL A   1      45.924  27.901  25.434  1.00  0.00     0.031 C 
ATOM     47  C   UNL A   1      40.545  25.674  28.635  1.00  0.00     0.029 A 
ATOM     48  C   UNL A   1      41.050  26.984  28.999  1.00  0.00     0.049 A 
ATOM     49  H   UNL A   1      43.034  27.643  28.848  1.00  0.00     0.167 HD
ATOM     50  C   UNL A   1      46.867  29.256  27.382  1.00  0.00     0.037 A 
ATOM     51  C   UNL A   1      40.391  28.037  29.542  1.00  0.00     0.037 A 
ATOM     52  C   UNL A   1      47.044  29.030  28.796  1.00  0.00     0.049 A 
ATOM     53  C   UNL A   1      41.410  28.952  30.100  1.00  0.00     0.074 A 
ATOM     54  C   UNL A   1      47.780  28.164  29.577  1.00  0.00     0.029 A 
ATOM     55  N   UNL A   1      46.071  29.551  29.606  1.00  0.00    -0.354 N 
ATOM     56  N   UNL A   1      42.145  28.678  31.139  1.00  0.00    -0.248 NA
ATOM     57  C   UNL A   1      41.893  30.038  29.264  1.00  0.00     0.031 C 
ATOM     58  C   UNL A   1      46.970  27.910  30.726  1.00  0.00     0.029 A 
ATOM     59  C   UNL A   1      45.811  28.681  30.627  1.00  0.00     0.049 A 
ATOM     60  H   UNL A   1      45.626  30.419  29.474  1.00  0.00     0.167 HD
ATOM     61  C   UNL A   1      43.384  29.213  30.835  1.00  0.00     0.074 A 
ATOM     62  C   UNL A   1      43.125  30.168  29.761  1.00  0.00     0.031 C 
ATOM     63  C   UNL A   1      44.522  28.601  31.278  1.00  0.00     0.037 A 
BRANCH  50  64
ATOM     64  C   UNL A   1      46.802  30.665  26.815  1.00  0.00     0.064 A 
ATOM     65  C   UNL A   1      47.968  31.461  26.854  1.00  0.00     0.173 A 
ATOM     66  C   UNL A   1      45.604  31.369  26.561  1.00  0.00     0.173 A 
ATOM     67  F   UNL A   1      49.166  30.909  27.093  1.00  0.00    -0.203 F 
ATOM     68  C   UNL A   1      47.919  32.856  26.761  1.00  0.00     0.198 A 
ATOM     69  C   UNL A   1      45.567  32.757  26.418  1.00  0.00     0.198 A 
ATOM     70  F   UNL A   1      44.407  30.776  26.552  1.00  0.00    -0.203 F 
ATOM     71  F   UNL A   1      49.033  33.575  26.953  1.00  0.00    -0.200 F 
ATOM     72  C   UNL A   1      46.717  33.503  26.556  1.00  0.00     0.200 A 
ATOM     73  F   UNL A   1      44.386  33.366  26.237  1.00  0.00    -0.200 F 
ATOM     74  F   UNL A   1      46.654  34.841  26.538  1.00  0.00    -0.200 F 
ENDBRANCH  50  64
BRANCH  51  75
ATOM     75  C   UNL A   1      38.971  28.443  29.406  1.00  0.00     0.064 A 
ATOM     76  C   UNL A   1      38.159  28.625  30.539  1.00  0.00     0.173 A 
ATOM     77  C   UNL A   1      38.472  28.951  28.191  1.00  0.00     0.173 A 
ATOM     78  F   UNL A   1      38.576  28.206  31.743  1.00  0.00    -0.203 F 
ATOM     79  C   UNL A   1      36.943  29.314  30.470  1.00  0.00     0.198 A 
ATOM     80  C   UNL A   1      37.254  29.631  28.123  1.00  0.00     0.198 A 
ATOM     81  F   UNL A   1      39.202  28.889  27.070  1.00  0.00    -0.203 F 
ATOM     82  F   UNL A   1      36.237  29.535  31.587  1.00  0.00    -0.200 F 
ATOM     83  C   UNL A   1      36.499  29.828  29.264  1.00  0.00     0.200 A 
ATOM     84  F   UNL A   1      36.854  30.160  26.957  1.00  0.00    -0.200 F 
ATOM     85  F   UNL A   1      35.373  30.553  29.210  1.00  0.00    -0.200 F 
ENDBRANCH  51  75
BRANCH  63  86
ATOM     86  C   UNL A   1      44.382  27.634  32.421  1.00  0.00     0.064 A 
ATOM     87  C   UNL A   1      44.178  26.250  32.287  1.00  0.00     0.173 A 
ATOM     88  C   UNL A   1      44.534  28.140  33.720  1.00  0.00     0.173 A 
ATOM     89  F   UNL A   1      44.124  25.669  31.081  1.00  0.00    -0.203 F 
ATOM     90  C   UNL A   1      44.066  25.427  33.407  1.00  0.00     0.198 A 
ATOM     91  C   UNL A   1      44.467  27.309  34.833  1.00  0.00     0.198 A 
ATOM     92  F   UNL A   1      44.781  29.446  33.909  1.00  0.00    -0.203 F 
ATOM     93  F   UNL A   1      43.833  24.114  33.256  1.00  0.00    -0.200 F 
ATOM     94  C   UNL A   1      44.215  25.957  34.678  1.00  0.00     0.200 A 
ATOM     95  F   UNL A   1      44.661  27.820  36.056  1.00  0.00    -0.200 F 
ATOM     96  F   UNL A   1      44.135  25.161  35.754  1.00  0.00    -0.200 F 
ENDBRANCH  63  86
ENDBRANCH  37  38
ENDBRANCH  29  32
ENDBRANCH  27  28
ENDBRANCH  26  27
ENDBRANCH  25  26
ENDBRANCH   1  25
TORSDOF 17
ENDMDL
MODEL 3
REMARK VINA RESULT:     -11.8      2.686      4.098
REMARK SMILES CCCc1c(C(=O)NCCCCCCNC(=O)c2ccc(-c3c4nc(c(-c5c(F)c(F)c(F)c(F)c5F)c5ccc([nH]5)c(-c5c(F)c(F)c(F)c(F)c5F)c5nc(c(-c6c(F)c(F)c(F)c(F)c6F)c6ccc3[nH]6)C=C5)C=C4)cc2)nnn1-c1ccccc1[N+](=O)[O-]
REMARK SMILES IDX 11 1 10 2 9 3 8 4 6 5 7 6 5 8 4 9 83 10 81 11 82 12 3 13
REMARK SMILES IDX 2 14 1 15 84 16 85 17 89 18 86 19 88 20 87 21 90 22 91 23
REMARK SMILES IDX 92 24 12 25 13 26 14 27 15 28 16 29 17 31 18 32 19 33 80 34
REMARK SMILES IDX 20 35 79 36 21 37 22 38 23 39 73 40 24 41 78 42 72 43 74 44
REMARK SMILES IDX 25 45 77 46 71 47 70 48 26 50 58 51 38 52 57 53 39 54 42 55
REMARK SMILES IDX 56 56 75 57 40 58 41 59 55 61 76 62 43 63 27 64 28 65 36 66
REMARK SMILES IDX 29 67 30 68 34 69 37 70 31 71 32 72 35 73 33 74 59 75 60 76
REMARK SMILES IDX 68 77 61 78 62 79 66 80 69 81 63 82 64 83 67 84 65 85 44 86
REMARK SMILES IDX 45 87 53 88 46 89 47 90 51 91 54 92 48 93 49 94 52 95 50 96
REMARK H PARENT 8 7 15 30 74 49 42 60
REMARK Flexibility Score: inf
ROOT
ATOM      1  C   UNL A   1      36.917  22.932  25.601  1.00  0.00     0.002 C 
ENDROOT
BRANCH   1   2
ATOM      2  C   UNL A   1      36.155  21.686  25.160  1.00  0.00     0.021 C 
BRANCH   2   3
ATOM      3  C   UNL A   1      34.646  21.730  25.317  1.00  0.00     0.116 C 
BRANCH   3   4
ATOM      4  N   UNL A   1      34.128  21.742  26.649  1.00  0.00    -0.351 N 
ATOM      5  C   UNL A   1      33.146  22.523  27.220  1.00  0.00     0.273 C 
ATOM      6  O   UNL A   1      32.864  22.207  28.381  1.00  0.00    -0.267 OA
ATOM      7  H   UNL A   1      34.537  21.085  27.257  1.00  0.00     0.163 HD
BRANCH   5   8
ATOM      8  C   UNL A   1      32.502  23.699  26.594  1.00  0.00     0.174 A 
ATOM      9  C   UNL A   1      32.828  24.708  25.666  1.00  0.00     0.078 A 
ATOM     10  N   UNL A   1      31.634  25.443  25.563  1.00  0.00    -0.210 N 
ATOM     11  N   UNL A   1      31.212  23.941  27.038  1.00  0.00    -0.124 NA
ATOM     12  N   UNL A   1      30.761  25.054  26.504  1.00  0.00    -0.061 NA
BRANCH   9  13
ATOM     13  C   UNL A   1      34.078  25.189  24.977  1.00  0.00     0.059 C 
BRANCH  13  14
ATOM     14  C   UNL A   1      34.078  25.166  23.448  1.00  0.00     0.003 C 
ATOM     15  C   UNL A   1      33.614  23.859  22.836  1.00  0.00     0.004 C 
ENDBRANCH  13  14
ENDBRANCH   9  13
BRANCH  10  16
ATOM     16  C   UNL A   1      31.373  26.630  24.832  1.00  0.00     0.144 A 
ATOM     17  C   UNL A   1      30.877  26.489  23.523  1.00  0.00     0.036 A 
ATOM     18  C   UNL A   1      31.515  27.917  25.369  1.00  0.00     0.294 A 
ATOM     19  C   UNL A   1      30.425  27.608  22.820  1.00  0.00     0.003 A 
ATOM     20  C   UNL A   1      31.026  29.035  24.671  1.00  0.00     0.088 A 
ATOM     21  C   UNL A   1      30.465  28.872  23.406  1.00  0.00     0.007 A 
BRANCH  18  22
ATOM     22  N   UNL A   1      32.299  28.175  26.579  1.00  0.00     0.065 N 
ATOM     23  O   UNL A   1      31.675  28.305  27.642  1.00  0.00    -0.258 OA
ATOM     24  O   UNL A   1      33.527  28.259  26.469  1.00  0.00    -0.258 OA
ENDBRANCH  18  22
ENDBRANCH  10  16
ENDBRANCH   5   8
ENDBRANCH   3   4
ENDBRANCH   2   3
ENDBRANCH   1   2
BRANCH   1  25
ATOM     25  C   UNL A   1      38.330  22.732  26.175  1.00  0.00     0.002 C 
BRANCH  25  26
ATOM     26  C   UNL A   1      39.111  21.479  25.753  1.00  0.00     0.021 C 
BRANCH  26  27
ATOM     27  C   UNL A   1      40.355  21.187  26.578  1.00  0.00     0.116 C 
BRANCH  27  28
ATOM     28  N   UNL A   1      41.591  21.381  25.828  1.00  0.00    -0.352 N 
ATOM     29  C   UNL A   1      42.269  22.553  25.576  1.00  0.00     0.251 C 
ATOM     30  H   UNL A   1      41.995  20.565  25.452  1.00  0.00     0.163 HD
ATOM     31  O   UNL A   1      43.076  22.623  24.649  1.00  0.00    -0.269 OA
BRANCH  29  32
ATOM     32  C   UNL A   1      42.013  23.734  26.416  1.00  0.00     0.039 A 
ATOM     33  C   UNL A   1      42.578  23.839  27.690  1.00  0.00     0.014 A 
ATOM     34  C   UNL A   1      41.202  24.750  25.914  1.00  0.00     0.014 A 
ATOM     35  C   UNL A   1      42.390  25.010  28.417  1.00  0.00     0.010 A 
ATOM     36  C   UNL A   1      41.130  25.956  26.569  1.00  0.00     0.010 A 
ATOM     37  C   UNL A   1      41.686  26.079  27.838  1.00  0.00    -0.014 A 
BRANCH  37  38
ATOM     38  C   UNL A   1      41.663  27.385  28.495  1.00  0.00     0.031 A 
ATOM     39  C   UNL A   1      42.801  28.266  28.113  1.00  0.00     0.074 A 
ATOM     40  C   UNL A   1      40.605  27.842  29.200  1.00  0.00     0.049 A 
ATOM     41  N   UNL A   1      43.739  28.720  28.877  1.00  0.00    -0.248 NA
ATOM     42  C   UNL A   1      43.006  28.567  26.685  1.00  0.00     0.031 C 
ATOM     43  C   UNL A   1      39.301  27.192  29.375  1.00  0.00     0.029 A 
ATOM     44  N   UNL A   1      40.421  29.044  29.819  1.00  0.00    -0.354 N 
ATOM     45  C   UNL A   1      44.537  29.528  28.071  1.00  0.00     0.074 A 
ATOM     46  C   UNL A   1      44.155  29.247  26.714  1.00  0.00     0.031 C 
ATOM     47  C   UNL A   1      38.401  28.091  29.829  1.00  0.00     0.029 A 
ATOM     48  C   UNL A   1      39.096  29.327  30.136  1.00  0.00     0.049 A 
ATOM     49  H   UNL A   1      41.163  29.658  30.023  1.00  0.00     0.167 HD
ATOM     50  C   UNL A   1      45.243  30.559  28.615  1.00  0.00     0.037 A 
ATOM     51  C   UNL A   1      38.595  30.502  30.591  1.00  0.00     0.037 A 
ATOM     52  C   UNL A   1      45.341  30.398  30.046  1.00  0.00     0.049 A 
ATOM     53  C   UNL A   1      39.730  31.280  31.134  1.00  0.00     0.074 A 
ATOM     54  C   UNL A   1      45.908  29.479  30.904  1.00  0.00     0.029 A 
ATOM     55  N   UNL A   1      44.440  31.115  30.787  1.00  0.00    -0.354 N 
ATOM     56  N   UNL A   1      40.382  30.962  32.215  1.00  0.00    -0.248 NA
ATOM     57  C   UNL A   1      40.402  32.224  30.255  1.00  0.00     0.031 C 
ATOM     58  C   UNL A   1      45.035  29.428  32.033  1.00  0.00     0.029 A 
ATOM     59  C   UNL A   1      44.016  30.362  31.845  1.00  0.00     0.049 A 
ATOM     60  H   UNL A   1      44.140  32.031  30.587  1.00  0.00     0.167 HD
ATOM     61  C   UNL A   1      41.698  31.277  31.929  1.00  0.00     0.074 A 
ATOM     62  C   UNL A   1      41.624  32.191  30.792  1.00  0.00     0.031 C 
ATOM     63  C   UNL A   1      42.712  30.525  32.450  1.00  0.00     0.037 A 
BRANCH  50  64
ATOM     64  C   UNL A   1      45.417  31.923  27.966  1.00  0.00     0.064 A 
ATOM     65  C   UNL A   1      44.262  32.635  27.576  1.00  0.00     0.173 A 
ATOM     66  C   UNL A   1      46.628  32.396  27.414  1.00  0.00     0.173 A 
ATOM     67  F   UNL A   1      43.051  32.278  28.030  1.00  0.00    -0.203 F 
ATOM     68  C   UNL A   1      44.306  33.659  26.623  1.00  0.00     0.198 A 
ATOM     69  C   UNL A   1      46.673  33.451  26.503  1.00  0.00     0.198 A 
ATOM     70  F   UNL A   1      47.802  31.798  27.632  1.00  0.00    -0.203 F 
ATOM     71  F   UNL A   1      43.165  34.202  26.177  1.00  0.00    -0.200 F 
ATOM     72  C   UNL A   1      45.511  34.057  26.078  1.00  0.00     0.200 A 
ATOM     73  F   UNL A   1      47.851  33.810  25.972  1.00  0.00    -0.200 F 
ATOM     74  F   UNL A   1      45.551  34.986  25.115  1.00  0.00    -0.200 F 
ENDBRANCH  50  64
BRANCH  51  75
ATOM     75  C   UNL A   1      37.262  31.115  30.377  1.00  0.00     0.064 A 
ATOM     76  C   UNL A   1      36.424  31.421  31.463  1.00  0.00     0.173 A 
ATOM     77  C   UNL A   1      36.913  31.686  29.138  1.00  0.00     0.173 A 
ATOM     78  F   UNL A   1      36.705  30.950  32.687  1.00  0.00    -0.203 F 
ATOM     79  C   UNL A   1      35.330  32.283  31.329  1.00  0.00     0.198 A 
ATOM     80  C   UNL A   1      35.816  32.540  29.004  1.00  0.00     0.198 A 
ATOM     81  F   UNL A   1      37.688  31.511  28.059  1.00  0.00    -0.203 F 
ATOM     82  F   UNL A   1      34.603  32.613  32.405  1.00  0.00    -0.200 F 
ATOM     83  C   UNL A   1      35.036  32.853  30.102  1.00  0.00     0.200 A 
ATOM     84  F   UNL A   1      35.566  33.117  27.820  1.00  0.00    -0.200 F 
ATOM     85  F   UNL A   1      34.036  33.737  29.988  1.00  0.00    -0.200 F 
ENDBRANCH  51  75
BRANCH  63  86
ATOM     86  C   UNL A   1      42.388  29.666  33.640  1.00  0.00     0.064 A 
ATOM     87  C   UNL A   1      41.908  28.346  33.577  1.00  0.00     0.173 A 
ATOM     88  C   UNL A   1      42.649  30.195  34.912  1.00  0.00     0.173 A 
ATOM     89  F   UNL A   1      41.728  27.728  32.402  1.00  0.00    -0.203 F 
ATOM     90  C   UNL A   1      41.640  27.620  34.738  1.00  0.00     0.198 A 
ATOM     91  C   UNL A   1      42.423  29.453  36.066  1.00  0.00     0.198 A 
ATOM     92  F   UNL A   1      43.155  31.433  35.034  1.00  0.00    -0.203 F 
ATOM     93  F   UNL A   1      41.145  26.376  34.653  1.00  0.00    -0.200 F 
ATOM     94  C   UNL A   1      41.902  28.174  35.980  1.00  0.00     0.200 A 
ATOM     95  F   UNL A   1      42.725  29.976  37.262  1.00  0.00    -0.200 F 
ATOM     96  F   UNL A   1      41.671  27.466  37.095  1.00  0.00    -0.200 F 
ENDBRANCH  63  86
ENDBRANCH  37  38
ENDBRANCH  29  32
ENDBRANCH  27  28
ENDBRANCH  26  27
ENDBRANCH  25  26
ENDBRANCH   1  25
TORSDOF 17
ENDMDL
