MODEL 1
REMARK VINA RESULT:     -11.5      0.000      0.000
REMARK SMILES CSc1nc(C2CC2)nc(C)c1C(=O)NCCCCCCNC(=O)c1ccc(-c2c3nc(c(-c4c(F)c(F)c(F)c(F)c4F)c4ccc([nH]4)c(-c4c(F)c(F)c(F)c(F)c4F)c4nc(c(-c5c(F)c(F)c(F)c(F)c5F)c5ccc2[nH]5)C=C4)C=C3)cc1
REMARK SMILES IDX 19 1 18 2 17 3 16 4 15 5 13 6 14 7 12 9 3 10 4 11 5 12 10 13
REMARK SMILES IDX 9 14 11 15 2 16 1 17 6 18 7 19 8 20 20 21 21 22 22 23 23 24
REMARK SMILES IDX 24 26 25 27 26 28 87 29 27 30 86 31 28 32 29 33 30 34 80 35
REMARK SMILES IDX 31 36 85 37 79 38 81 39 32 40 84 41 78 42 77 43 33 45 65 46
REMARK SMILES IDX 45 47 64 48 46 49 49 50 63 51 82 52 47 53 48 54 62 56 83 57
REMARK SMILES IDX 50 58 34 59 35 60 43 61 36 62 37 63 41 64 44 65 38 66 39 67
REMARK SMILES IDX 42 68 40 69 66 70 67 71 75 72 68 73 69 74 73 75 76 76 70 77
REMARK SMILES IDX 71 78 74 79 72 80 51 81 52 82 60 83 53 84 54 85 58 86 61 87
REMARK SMILES IDX 55 88 56 89 59 90 57 91
REMARK H PARENT 15 8 22 25 81 44 49 55
REMARK Flexibility Score: inf
ROOT
ATOM      1  C   UNL A   1      31.372  30.971  25.936  1.00  0.00     0.002 C 
ENDROOT
BRANCH   1   2
ATOM      2  C   UNL A   1      31.968  29.932  26.893  1.00  0.00     0.002 C 
BRANCH   2   3
ATOM      3  C   UNL A   1      33.395  29.497  26.559  1.00  0.00     0.021 C 
BRANCH   3   4
ATOM      4  C   UNL A   1      33.761  28.129  27.127  1.00  0.00     0.116 C 
BRANCH   4   5
ATOM      5  N   UNL A   1      33.960  27.158  26.089  1.00  0.00    -0.352 N 
ATOM      6  C   UNL A   1      33.367  26.752  24.930  1.00  0.00     0.255 C 
ATOM      7  O   UNL A   1      33.799  25.639  24.608  1.00  0.00    -0.269 OA
ATOM      8  H   UNL A   1      34.769  26.626  26.266  1.00  0.00     0.163 HD
BRANCH   6   9
ATOM      9  C   UNL A   1      32.296  27.398  24.085  1.00  0.00     0.093 A 
ATOM     10  C   UNL A   1      30.955  27.017  24.321  1.00  0.00     0.113 A 
ATOM     11  N   UNL A   1      29.870  27.652  23.798  1.00  0.00    -0.225 NA
ATOM     12  C   UNL A   1      30.070  28.681  22.986  1.00  0.00     0.133 A 
ATOM     13  C   UNL A   1      32.383  28.398  23.119  1.00  0.00     0.055 A 
ATOM     14  N   UNL A   1      31.295  29.037  22.617  1.00  0.00    -0.237 NA
ATOM     15  C   UNL A   1      33.571  28.941  22.411  1.00  0.00     0.068 C 
BRANCH  10  16
ATOM     16  S   UNL A   1      30.429  25.509  25.170  1.00  0.00    -0.109 SA
ATOM     17  C   UNL A   1      30.666  24.305  23.838  1.00  0.00     0.092 C 
ENDBRANCH  10  16
BRANCH  12  18
ATOM     18  C   UNL A   1      28.935  29.488  22.428  1.00  0.00     0.058 C 
ATOM     19  C   UNL A   1      27.524  29.373  22.939  1.00  0.00     0.012 C 
ATOM     20  C   UNL A   1      28.339  30.592  23.270  1.00  0.00     0.012 C 
ENDBRANCH  12  18
ENDBRANCH   6   9
ENDBRANCH   4   5
ENDBRANCH   3   4
ENDBRANCH   2   3
ENDBRANCH   1   2
BRANCH   1  21
ATOM     21  C   UNL A   1      31.235  32.385  26.512  1.00  0.00     0.021 C 
BRANCH  21  22
ATOM     22  C   UNL A   1      32.473  32.883  27.248  1.00  0.00     0.116 C 
BRANCH  22  23
ATOM     23  N   UNL A   1      32.355  34.290  27.599  1.00  0.00    -0.352 N 
ATOM     24  C   UNL A   1      32.970  34.995  28.595  1.00  0.00     0.251 C 
ATOM     25  H   UNL A   1      31.740  34.812  27.035  1.00  0.00     0.163 HD
ATOM     26  O   UNL A   1      32.557  36.111  28.909  1.00  0.00    -0.269 OA
BRANCH  24  27
ATOM     27  C   UNL A   1      34.131  34.417  29.297  1.00  0.00     0.039 A 
ATOM     28  C   UNL A   1      33.928  33.760  30.513  1.00  0.00     0.014 A 
ATOM     29  C   UNL A   1      35.419  34.551  28.772  1.00  0.00     0.014 A 
ATOM     30  C   UNL A   1      35.015  33.194  31.179  1.00  0.00     0.010 A 
ATOM     31  C   UNL A   1      36.489  33.921  29.398  1.00  0.00     0.010 A 
ATOM     32  C   UNL A   1      36.299  33.246  30.613  1.00  0.00    -0.014 A 
BRANCH  32  33
ATOM     33  C   UNL A   1      37.457  32.604  31.280  1.00  0.00     0.031 A 
ATOM     34  C   UNL A   1      38.181  31.470  30.610  1.00  0.00     0.074 A 
ATOM     35  C   UNL A   1      37.816  33.004  32.515  1.00  0.00     0.049 A 
ATOM     36  N   UNL A   1      39.173  30.741  31.057  1.00  0.00    -0.248 NA
ATOM     37  C   UNL A   1      37.711  31.085  29.269  1.00  0.00     0.031 C 
ATOM     38  C   UNL A   1      37.158  34.062  33.283  1.00  0.00     0.029 A 
ATOM     39  N   UNL A   1      38.815  32.562  33.345  1.00  0.00    -0.354 N 
ATOM     40  C   UNL A   1      39.434  29.808  30.061  1.00  0.00     0.074 A 
ATOM     41  C   UNL A   1      38.462  30.024  29.013  1.00  0.00     0.031 C 
ATOM     42  C   UNL A   1      37.785  34.204  34.461  1.00  0.00     0.029 A 
ATOM     43  C   UNL A   1      38.859  33.219  34.550  1.00  0.00     0.049 A 
ATOM     44  H   UNL A   1      39.440  31.842  33.100  1.00  0.00     0.167 HD
ATOM     45  C   UNL A   1      40.413  28.873  30.018  1.00  0.00     0.037 A 
ATOM     46  C   UNL A   1      39.671  33.041  35.609  1.00  0.00     0.037 A 
ATOM     47  C   UNL A   1      41.390  28.680  31.058  1.00  0.00     0.049 A 
ATOM     48  C   UNL A   1      40.741  31.985  35.540  1.00  0.00     0.074 A 
ATOM     49  C   UNL A   1      42.458  27.800  31.085  1.00  0.00     0.029 A 
ATOM     50  N   UNL A   1      41.412  29.373  32.259  1.00  0.00    -0.354 N 
ATOM     51  N   UNL A   1      41.026  31.158  34.564  1.00  0.00    -0.248 NA
ATOM     52  C   UNL A   1      41.607  31.845  36.717  1.00  0.00     0.031 C 
ATOM     53  C   UNL A   1      43.092  27.922  32.326  1.00  0.00     0.029 A 
ATOM     54  C   UNL A   1      42.460  28.922  33.047  1.00  0.00     0.049 A 
ATOM     55  H   UNL A   1      40.778  30.082  32.515  1.00  0.00     0.167 HD
ATOM     56  C   UNL A   1      42.121  30.421  34.995  1.00  0.00     0.074 A 
ATOM     57  C   UNL A   1      42.459  30.912  36.315  1.00  0.00     0.031 C 
ATOM     58  C   UNL A   1      42.787  29.428  34.356  1.00  0.00     0.037 A 
BRANCH  45  59
ATOM     59  C   UNL A   1      40.477  27.987  28.808  1.00  0.00     0.064 A 
ATOM     60  C   UNL A   1      39.796  26.761  28.752  1.00  0.00     0.173 A 
ATOM     61  C   UNL A   1      41.198  28.385  27.671  1.00  0.00     0.173 A 
ATOM     62  F   UNL A   1      39.100  26.327  29.814  1.00  0.00    -0.203 F 
ATOM     63  C   UNL A   1      39.858  25.956  27.618  1.00  0.00     0.198 A 
ATOM     64  C   UNL A   1      41.231  27.593  26.526  1.00  0.00     0.198 A 
ATOM     65  F   UNL A   1      41.864  29.549  27.666  1.00  0.00    -0.203 F 
ATOM     66  F   UNL A   1      39.241  24.765  27.609  1.00  0.00    -0.200 F 
ATOM     67  C   UNL A   1      40.568  26.375  26.504  1.00  0.00     0.200 A 
ATOM     68  F   UNL A   1      41.906  28.007  25.446  1.00  0.00    -0.200 F 
ATOM     69  F   UNL A   1      40.619  25.603  25.410  1.00  0.00    -0.200 F 
ENDBRANCH  45  59
BRANCH  46  70
ATOM     70  C   UNL A   1      39.514  33.893  36.818  1.00  0.00     0.064 A 
ATOM     71  C   UNL A   1      38.751  33.458  37.911  1.00  0.00     0.173 A 
ATOM     72  C   UNL A   1      40.115  35.157  36.903  1.00  0.00     0.173 A 
ATOM     73  F   UNL A   1      38.142  32.264  37.870  1.00  0.00    -0.203 F 
ATOM     74  C   UNL A   1      38.573  34.267  39.032  1.00  0.00     0.198 A 
ATOM     75  C   UNL A   1      39.964  35.951  38.038  1.00  0.00     0.198 A 
ATOM     76  F   UNL A   1      40.862  35.617  35.889  1.00  0.00    -0.203 F 
ATOM     77  F   UNL A   1      37.797  33.849  40.039  1.00  0.00    -0.200 F 
ATOM     78  C   UNL A   1      39.185  35.510  39.097  1.00  0.00     0.200 A 
ATOM     79  F   UNL A   1      40.571  37.144  38.105  1.00  0.00    -0.200 F 
ATOM     80  F   UNL A   1      39.016  36.286  40.176  1.00  0.00    -0.200 F 
ENDBRANCH  46  70
BRANCH  58  81
ATOM     81  C   UNL A   1      43.973  28.831  35.058  1.00  0.00     0.064 A 
ATOM     82  C   UNL A   1      45.265  29.353  34.900  1.00  0.00     0.173 A 
ATOM     83  C   UNL A   1      43.807  27.744  35.931  1.00  0.00     0.173 A 
ATOM     84  F   UNL A   1      45.480  30.381  34.066  1.00  0.00    -0.203 F 
ATOM     85  C   UNL A   1      46.350  28.792  35.568  1.00  0.00     0.198 A 
ATOM     86  C   UNL A   1      44.887  27.208  36.624  1.00  0.00     0.198 A 
ATOM     87  F   UNL A   1      42.591  27.212  36.124  1.00  0.00    -0.203 F 
ATOM     88  F   UNL A   1      47.584  29.273  35.360  1.00  0.00    -0.200 F 
ATOM     89  C   UNL A   1      46.160  27.725  36.435  1.00  0.00     0.200 A 
ATOM     90  F   UNL A   1      44.699  26.190  37.474  1.00  0.00    -0.200 F 
ATOM     91  F   UNL A   1      47.205  27.193  37.083  1.00  0.00    -0.200 F 
ENDBRANCH  58  81
ENDBRANCH  32  33
ENDBRANCH  24  27
ENDBRANCH  22  23
ENDBRANCH  21  22
ENDBRANCH   1  21
TORSDOF 15
ENDMDL
MODEL 2
REMARK VINA RESULT:     -11.3      1.647      3.278
REMARK SMILES CSc1nc(C2CC2)nc(C)c1C(=O)NCCCCCCNC(=O)c1ccc(-c2c3nc(c(-c4c(F)c(F)c(F)c(F)c4F)c4ccc([nH]4)c(-c4c(F)c(F)c(F)c(F)c4F)c4nc(c(-c5c(F)c(F)c(F)c(F)c5F)c5ccc2[nH]5)C=C4)C=C3)cc1
REMARK SMILES IDX 19 1 18 2 17 3 16 4 15 5 13 6 14 7 12 9 3 10 4 11 5 12 10 13
REMARK SMILES IDX 9 14 11 15 2 16 1 17 6 18 7 19 8 20 20 21 21 22 22 23 23 24
REMARK SMILES IDX 24 26 25 27 26 28 87 29 27 30 86 31 28 32 29 33 30 34 80 35
REMARK SMILES IDX 31 36 85 37 79 38 81 39 32 40 84 41 78 42 77 43 33 45 65 46
REMARK SMILES IDX 45 47 64 48 46 49 49 50 63 51 82 52 47 53 48 54 62 56 83 57
REMARK SMILES IDX 50 58 34 59 35 60 43 61 36 62 37 63 41 64 44 65 38 66 39 67
REMARK SMILES IDX 42 68 40 69 66 70 67 71 75 72 68 73 69 74 73 75 76 76 70 77
REMARK SMILES IDX 71 78 74 79 72 80 51 81 52 82 60 83 53 84 54 85 58 86 61 87
REMARK SMILES IDX 55 88 56 89 59 90 57 91
REMARK H PARENT 15 8 22 25 81 44 49 55
REMARK Flexibility Score: inf
ROOT
ATOM      1  C   UNL A   1      31.576  30.765  26.257  1.00  0.00     0.002 C 
ENDROOT
BRANCH   1   2
ATOM      2  C   UNL A   1      32.415  29.845  27.152  1.00  0.00     0.002 C 
BRANCH   2   3
ATOM      3  C   UNL A   1      31.745  28.521  27.517  1.00  0.00     0.021 C 
BRANCH   3   4
ATOM      4  C   UNL A   1      31.843  27.468  26.416  1.00  0.00     0.116 C 
BRANCH   4   5
ATOM      5  N   UNL A   1      31.142  26.266  26.766  1.00  0.00    -0.352 N 
ATOM      6  C   UNL A   1      31.234  24.921  26.556  1.00  0.00     0.255 C 
ATOM      7  O   UNL A   1      30.156  24.381  26.832  1.00  0.00    -0.269 OA
ATOM      8  H   UNL A   1      30.360  26.474  27.326  1.00  0.00     0.163 HD
BRANCH   6   9
ATOM      9  C   UNL A   1      32.364  24.076  26.022  1.00  0.00     0.093 A 
ATOM     10  C   UNL A   1      32.766  24.290  24.683  1.00  0.00     0.113 A 
ATOM     11  N   UNL A   1      33.891  23.766  24.124  1.00  0.00    -0.225 NA
ATOM     12  C   UNL A   1      34.657  22.975  24.864  1.00  0.00     0.133 A 
ATOM     13  C   UNL A   1      33.167  23.129  26.654  1.00  0.00     0.055 A 
ATOM     14  N   UNL A   1      34.298  22.627  26.094  1.00  0.00    -0.237 NA
ATOM     15  C   UNL A   1      32.988  22.445  27.961  1.00  0.00     0.068 C 
BRANCH  10  16
ATOM     16  S   UNL A   1      31.774  25.105  23.410  1.00  0.00    -0.109 SA
ATOM     17  C   UNL A   1      30.486  23.854  23.173  1.00  0.00     0.092 C 
ENDBRANCH  10  16
BRANCH  12  18
ATOM     18  C   UNL A   1      35.954  22.419  24.356  1.00  0.00     0.058 C 
ATOM     19  C   UNL A   1      36.676  22.990  23.166  1.00  0.00     0.012 C 
ATOM     20  C   UNL A   1      37.220  23.223  24.548  1.00  0.00     0.012 C 
ENDBRANCH  12  18
ENDBRANCH   6   9
ENDBRANCH   4   5
ENDBRANCH   3   4
ENDBRANCH   2   3
ENDBRANCH   1   2
BRANCH   1  21
ATOM     21  C   UNL A   1      31.405  32.197  26.774  1.00  0.00     0.021 C 
BRANCH  21  22
ATOM     22  C   UNL A   1      32.716  32.912  27.083  1.00  0.00     0.116 C 
BRANCH  22  23
ATOM     23  N   UNL A   1      32.485  34.267  27.560  1.00  0.00    -0.352 N 
ATOM     24  C   UNL A   1      33.006  34.907  28.649  1.00  0.00     0.251 C 
ATOM     25  H   UNL A   1      31.862  34.801  27.018  1.00  0.00     0.163 HD
ATOM     26  O   UNL A   1      32.503  35.959  29.047  1.00  0.00    -0.269 OA
BRANCH  24  27
ATOM     27  C   UNL A   1      34.171  34.339  29.351  1.00  0.00     0.039 A 
ATOM     28  C   UNL A   1      33.967  33.630  30.537  1.00  0.00     0.014 A 
ATOM     29  C   UNL A   1      35.464  34.532  28.857  1.00  0.00     0.014 A 
ATOM     30  C   UNL A   1      35.059  33.072  31.202  1.00  0.00     0.010 A 
ATOM     31  C   UNL A   1      36.542  33.911  29.478  1.00  0.00     0.010 A 
ATOM     32  C   UNL A   1      36.351  33.185  30.663  1.00  0.00    -0.014 A 
BRANCH  32  33
ATOM     33  C   UNL A   1      37.516  32.553  31.328  1.00  0.00     0.031 A 
ATOM     34  C   UNL A   1      38.238  31.414  30.664  1.00  0.00     0.074 A 
ATOM     35  C   UNL A   1      37.883  32.967  32.555  1.00  0.00     0.049 A 
ATOM     36  N   UNL A   1      39.235  30.694  31.111  1.00  0.00    -0.248 NA
ATOM     37  C   UNL A   1      37.758  31.014  29.331  1.00  0.00     0.031 C 
ATOM     38  C   UNL A   1      37.229  34.032  33.318  1.00  0.00     0.029 A 
ATOM     39  N   UNL A   1      38.890  32.537  33.382  1.00  0.00    -0.354 N 
ATOM     40  C   UNL A   1      39.492  29.751  30.123  1.00  0.00     0.074 A 
ATOM     41  C   UNL A   1      38.510  29.952  29.080  1.00  0.00     0.031 C 
ATOM     42  C   UNL A   1      37.864  34.188  34.489  1.00  0.00     0.029 A 
ATOM     43  C   UNL A   1      38.942  33.208  34.579  1.00  0.00     0.049 A 
ATOM     44  H   UNL A   1      39.515  31.817  33.140  1.00  0.00     0.167 HD
ATOM     45  C   UNL A   1      40.473  28.818  30.082  1.00  0.00     0.037 A 
ATOM     46  C   UNL A   1      39.763  33.043  35.634  1.00  0.00     0.037 A 
ATOM     47  C   UNL A   1      41.458  28.638  31.116  1.00  0.00     0.049 A 
ATOM     48  C   UNL A   1      40.835  31.989  35.568  1.00  0.00     0.074 A 
ATOM     49  C   UNL A   1      42.529  27.762  31.144  1.00  0.00     0.029 A 
ATOM     50  N   UNL A   1      41.488  29.345  32.310  1.00  0.00    -0.354 N 
ATOM     51  N   UNL A   1      41.115  31.152  34.598  1.00  0.00    -0.248 NA
ATOM     52  C   UNL A   1      41.712  31.864  36.739  1.00  0.00     0.031 C 
ATOM     53  C   UNL A   1      43.173  27.899  32.378  1.00  0.00     0.029 A 
ATOM     54  C   UNL A   1      42.544  28.905  33.093  1.00  0.00     0.049 A 
ATOM     55  H   UNL A   1      40.854  30.054  32.563  1.00  0.00     0.167 HD
ATOM     56  C   UNL A   1      42.216  30.424  35.028  1.00  0.00     0.074 A 
ATOM     57  C   UNL A   1      42.562  30.930  36.340  1.00  0.00     0.031 C 
ATOM     58  C   UNL A   1      42.879  29.426  34.395  1.00  0.00     0.037 A 
BRANCH  45  59
ATOM     59  C   UNL A   1      40.530  27.919  28.881  1.00  0.00     0.064 A 
ATOM     60  C   UNL A   1      39.788  26.730  28.812  1.00  0.00     0.173 A 
ATOM     61  C   UNL A   1      41.306  28.270  27.765  1.00  0.00     0.173 A 
ATOM     62  F   UNL A   1      39.037  26.341  29.853  1.00  0.00    -0.203 F 
ATOM     63  C   UNL A   1      39.845  25.912  27.686  1.00  0.00     0.198 A 
ATOM     64  C   UNL A   1      41.334  27.467  26.628  1.00  0.00     0.198 A 
ATOM     65  F   UNL A   1      42.031  29.398  27.774  1.00  0.00    -0.203 F 
ATOM     66  F   UNL A   1      39.168  24.755  27.665  1.00  0.00    -0.200 F 
ATOM     67  C   UNL A   1      40.611  26.285  26.592  1.00  0.00     0.200 A 
ATOM     68  F   UNL A   1      42.065  27.837  25.567  1.00  0.00    -0.200 F 
ATOM     69  F   UNL A   1      40.657  25.501  25.506  1.00  0.00    -0.200 F 
ENDBRANCH  45  59
BRANCH  46  70
ATOM     70  C   UNL A   1      39.613  33.907  36.835  1.00  0.00     0.064 A 
ATOM     71  C   UNL A   1      40.250  35.154  36.910  1.00  0.00     0.173 A 
ATOM     72  C   UNL A   1      38.839  33.503  37.933  1.00  0.00     0.173 A 
ATOM     73  F   UNL A   1      41.015  35.576  35.893  1.00  0.00    -0.203 F 
ATOM     74  C   UNL A   1      40.139  35.952  38.046  1.00  0.00     0.198 A 
ATOM     75  C   UNL A   1      38.703  34.316  39.056  1.00  0.00     0.198 A 
ATOM     76  F   UNL A   1      38.203  32.324  37.910  1.00  0.00    -0.203 F 
ATOM     77  F   UNL A   1      40.801  37.114  38.112  1.00  0.00    -0.200 F 
ATOM     78  C   UNL A   1      39.361  35.535  39.116  1.00  0.00     0.200 A 
ATOM     79  F   UNL A   1      37.936  33.918  40.080  1.00  0.00    -0.200 F 
ATOM     80  F   UNL A   1      39.254  36.304  40.208  1.00  0.00    -0.200 F 
ENDBRANCH  46  70
BRANCH  58  81
ATOM     81  C   UNL A   1      44.073  28.840  35.094  1.00  0.00     0.064 A 
ATOM     82  C   UNL A   1      43.965  27.714  35.922  1.00  0.00     0.173 A 
ATOM     83  C   UNL A   1      45.349  29.392  34.899  1.00  0.00     0.173 A 
ATOM     84  F   UNL A   1      42.766  27.157  36.153  1.00  0.00    -0.203 F 
ATOM     85  C   UNL A   1      45.086  27.179  36.553  1.00  0.00     0.198 A 
ATOM     86  C   UNL A   1      46.472  28.834  35.502  1.00  0.00     0.198 A 
ATOM     87  F   UNL A   1      45.509  30.465  34.110  1.00  0.00    -0.203 F 
ATOM     88  F   UNL A   1      44.951  26.135  37.383  1.00  0.00    -0.200 F 
ATOM     89  C   UNL A   1      46.339  27.735  36.336  1.00  0.00     0.200 A 
ATOM     90  F   UNL A   1      47.683  29.362  35.279  1.00  0.00    -0.200 F 
ATOM     91  F   UNL A   1      47.417  27.213  36.937  1.00  0.00    -0.200 F 
ENDBRANCH  58  81
ENDBRANCH  32  33
ENDBRANCH  24  27
ENDBRANCH  22  23
ENDBRANCH  21  22
ENDBRANCH   1  21
TORSDOF 15
ENDMDL
MODEL 3
REMARK VINA RESULT:     -11.2      6.092     11.574
REMARK SMILES CSc1nc(C2CC2)nc(C)c1C(=O)NCCCCCCNC(=O)c1ccc(-c2c3nc(c(-c4c(F)c(F)c(F)c(F)c4F)c4ccc([nH]4)c(-c4c(F)c(F)c(F)c(F)c4F)c4nc(c(-c5c(F)c(F)c(F)c(F)c5F)c5ccc2[nH]5)C=C4)C=C3)cc1
REMARK SMILES IDX 19 1 18 2 17 3 16 4 15 5 13 6 14 7 12 9 3 10 4 11 5 12 10 13
REMARK SMILES IDX 9 14 11 15 2 16 1 17 6 18 7 19 8 20 20 21 21 22 22 23 23 24
REMARK SMILES IDX 24 26 25 27 26 28 87 29 27 30 86 31 28 32 29 33 30 34 80 35
REMARK SMILES IDX 31 36 85 37 79 38 81 39 32 40 84 41 78 42 77 43 33 45 65 46
REMARK SMILES IDX 45 47 64 48 46 49 49 50 63 51 82 52 47 53 48 54 62 56 83 57
REMARK SMILES IDX 50 58 34 59 35 60 43 61 36 62 37 63 41 64 44 65 38 66 39 67
REMARK SMILES IDX 42 68 40 69 66 70 67 71 75 72 68 73 69 74 73 75 76 76 70 77
REMARK SMILES IDX 71 78 74 79 72 80 51 81 52 82 60 83 53 84 54 85 58 86 61 87
REMARK SMILES IDX 55 88 56 89 59 90 57 91
REMARK H PARENT 15 8 22 25 81 44 49 55
REMARK Flexibility Score: inf
ROOT
ATOM      1  C   UNL A   1      36.967  20.122  24.933  1.00  0.00     0.002 C 
ENDROOT
BRANCH   1   2
ATOM      2  C   UNL A   1      37.305  21.614  25.043  1.00  0.00     0.002 C 
BRANCH   2   3
ATOM      3  C   UNL A   1      36.547  22.515  24.070  1.00  0.00     0.021 C 
BRANCH   3   4
ATOM      4  C   UNL A   1      36.564  23.989  24.469  1.00  0.00     0.116 C 
BRANCH   4   5
ATOM      5  N   UNL A   1      35.367  24.365  25.165  1.00  0.00    -0.352 N 
ATOM      6  C   UNL A   1      34.118  23.874  25.407  1.00  0.00     0.255 C 
ATOM      7  O   UNL A   1      33.381  24.785  25.804  1.00  0.00    -0.269 OA
ATOM      8  H   UNL A   1      35.482  25.241  25.598  1.00  0.00     0.163 HD
BRANCH   6   9
ATOM      9  C   UNL A   1      33.543  22.492  25.217  1.00  0.00     0.093 A 
ATOM     10  C   UNL A   1      32.970  22.187  23.961  1.00  0.00     0.113 A 
ATOM     11  N   UNL A   1      32.604  20.937  23.565  1.00  0.00    -0.225 NA
ATOM     12  C   UNL A   1      32.760  19.932  24.416  1.00  0.00     0.133 A 
ATOM     13  C   UNL A   1      33.534  21.388  26.068  1.00  0.00     0.055 A 
ATOM     14  N   UNL A   1      33.183  20.142  25.657  1.00  0.00    -0.237 NA
ATOM     15  C   UNL A   1      33.826  21.300  27.522  1.00  0.00     0.068 C 
BRANCH  10  16
ATOM     16  S   UNL A   1      32.419  23.400  22.740  1.00  0.00    -0.109 SA
ATOM     17  C   UNL A   1      30.805  23.832  23.439  1.00  0.00     0.092 C 
ENDBRANCH  10  16
BRANCH  12  18
ATOM     18  C   UNL A   1      32.459  18.512  24.036  1.00  0.00     0.058 C 
ATOM     19  C   UNL A   1      32.479  18.026  22.612  1.00  0.00     0.012 C 
ATOM     20  C   UNL A   1      33.585  17.630  23.549  1.00  0.00     0.012 C 
ENDBRANCH  12  18
ENDBRANCH   6   9
ENDBRANCH   4   5
ENDBRANCH   3   4
ENDBRANCH   2   3
ENDBRANCH   1   2
BRANCH   1  21
ATOM     21  C   UNL A   1      38.149  19.169  25.144  1.00  0.00     0.021 C 
BRANCH  21  22
ATOM     22  C   UNL A   1      39.390  19.830  25.732  1.00  0.00     0.116 C 
BRANCH  22  23
ATOM     23  N   UNL A   1      40.454  18.864  25.955  1.00  0.00    -0.352 N 
ATOM     24  C   UNL A   1      41.795  19.067  26.119  1.00  0.00     0.251 C 
ATOM     25  H   UNL A   1      40.165  17.924  25.993  1.00  0.00     0.163 HD
ATOM     26  O   UNL A   1      42.579  18.121  26.036  1.00  0.00    -0.269 OA
BRANCH  24  27
ATOM     27  C   UNL A   1      42.307  20.422  26.393  1.00  0.00     0.039 A 
ATOM     28  C   UNL A   1      42.700  21.227  25.321  1.00  0.00     0.014 A 
ATOM     29  C   UNL A   1      42.427  20.886  27.706  1.00  0.00     0.014 A 
ATOM     30  C   UNL A   1      43.170  22.518  25.566  1.00  0.00     0.010 A 
ATOM     31  C   UNL A   1      42.822  22.198  27.943  1.00  0.00     0.010 A 
ATOM     32  C   UNL A   1      43.208  23.022  26.876  1.00  0.00    -0.014 A 
BRANCH  32  33
ATOM     33  C   UNL A   1      43.653  24.410  27.149  1.00  0.00     0.031 A 
ATOM     34  C   UNL A   1      42.676  25.429  27.664  1.00  0.00     0.074 A 
ATOM     35  C   UNL A   1      44.924  24.764  26.877  1.00  0.00     0.049 A 
ATOM     36  N   UNL A   1      42.857  26.703  27.904  1.00  0.00    -0.248 NA
ATOM     37  C   UNL A   1      41.303  24.961  27.916  1.00  0.00     0.031 C 
ATOM     38  C   UNL A   1      45.950  23.873  26.332  1.00  0.00     0.029 A 
ATOM     39  N   UNL A   1      45.567  25.968  27.012  1.00  0.00    -0.354 N 
ATOM     40  C   UNL A   1      41.624  27.188  28.322  1.00  0.00     0.074 A 
ATOM     41  C   UNL A   1      40.689  26.087  28.247  1.00  0.00     0.031 C 
ATOM     42  C   UNL A   1      47.098  24.553  26.201  1.00  0.00     0.029 A 
ATOM     43  C   UNL A   1      46.880  25.938  26.612  1.00  0.00     0.049 A 
ATOM     44  H   UNL A   1      45.129  26.776  27.363  1.00  0.00     0.167 HD
ATOM     45  C   UNL A   1      41.309  28.433  28.750  1.00  0.00     0.037 A 
ATOM     46  C   UNL A   1      47.801  26.919  26.572  1.00  0.00     0.037 A 
ATOM     47  C   UNL A   1      42.252  29.518  28.840  1.00  0.00     0.049 A 
ATOM     48  C   UNL A   1      47.420  28.298  27.041  1.00  0.00     0.074 A 
ATOM     49  C   UNL A   1      42.048  30.801  29.317  1.00  0.00     0.029 A 
ATOM     50  N   UNL A   1      43.578  29.447  28.437  1.00  0.00    -0.354 N 
ATOM     51  N   UNL A   1      46.271  28.727  27.503  1.00  0.00    -0.248 NA
ATOM     52  C   UNL A   1      48.467  29.325  26.991  1.00  0.00     0.031 C 
ATOM     53  C   UNL A   1      43.235  31.522  29.150  1.00  0.00     0.029 A 
ATOM     54  C   UNL A   1      44.197  30.672  28.630  1.00  0.00     0.049 A 
ATOM     55  H   UNL A   1      44.015  28.645  28.070  1.00  0.00     0.167 HD
ATOM     56  C   UNL A   1      46.464  30.063  27.827  1.00  0.00     0.074 A 
ATOM     57  C   UNL A   1      47.847  30.368  27.524  1.00  0.00     0.031 C 
ATOM     58  C   UNL A   1      45.577  30.956  28.329  1.00  0.00     0.037 A 
BRANCH  45  59
ATOM     59  C   UNL A   1      39.887  28.692  29.155  1.00  0.00     0.064 A 
ATOM     60  C   UNL A   1      38.933  29.167  28.241  1.00  0.00     0.173 A 
ATOM     61  C   UNL A   1      39.459  28.424  30.464  1.00  0.00     0.173 A 
ATOM     62  F   UNL A   1      39.289  29.449  26.979  1.00  0.00    -0.203 F 
ATOM     63  C   UNL A   1      37.615  29.393  28.630  1.00  0.00     0.198 A 
ATOM     64  C   UNL A   1      38.133  28.619  30.842  1.00  0.00     0.198 A 
ATOM     65  F   UNL A   1      40.326  27.963  31.378  1.00  0.00    -0.203 F 
ATOM     66  F   UNL A   1      36.736  29.896  27.752  1.00  0.00    -0.200 F 
ATOM     67  C   UNL A   1      37.214  29.111  29.928  1.00  0.00     0.200 A 
ATOM     68  F   UNL A   1      37.744  28.332  32.092  1.00  0.00    -0.200 F 
ATOM     69  F   UNL A   1      35.943  29.320  30.298  1.00  0.00    -0.200 F 
ENDBRANCH  45  59
BRANCH  46  70
ATOM     70  C   UNL A   1      49.176  26.630  26.086  1.00  0.00     0.064 A 
ATOM     71  C   UNL A   1      50.151  26.109  26.949  1.00  0.00     0.173 A 
ATOM     72  C   UNL A   1      49.547  26.874  24.755  1.00  0.00     0.173 A 
ATOM     73  F   UNL A   1      49.849  25.875  28.235  1.00  0.00    -0.203 F 
ATOM     74  C   UNL A   1      51.449  25.867  26.506  1.00  0.00     0.198 A 
ATOM     75  C   UNL A   1      50.837  26.602  24.306  1.00  0.00     0.198 A 
ATOM     76  F   UNL A   1      48.651  27.364  23.887  1.00  0.00    -0.203 F 
ATOM     77  F   UNL A   1      52.374  25.419  27.365  1.00  0.00    -0.200 F 
ATOM     78  C   UNL A   1      51.790  26.108  25.184  1.00  0.00     0.200 A 
ATOM     79  F   UNL A   1      51.158  26.819  23.023  1.00  0.00    -0.200 F 
ATOM     80  F   UNL A   1      53.039  25.874  24.758  1.00  0.00    -0.200 F 
ENDBRANCH  46  70
BRANCH  58  81
ATOM     81  C   UNL A   1      46.084  32.340  28.621  1.00  0.00     0.064 A 
ATOM     82  C   UNL A   1      46.652  32.673  29.859  1.00  0.00     0.173 A 
ATOM     83  C   UNL A   1      46.033  33.336  27.633  1.00  0.00     0.173 A 
ATOM     84  F   UNL A   1      46.711  31.762  30.843  1.00  0.00    -0.203 F 
ATOM     85  C   UNL A   1      47.125  33.959  30.107  1.00  0.00     0.198 A 
ATOM     86  C   UNL A   1      46.539  34.610  27.872  1.00  0.00     0.198 A 
ATOM     87  F   UNL A   1      45.506  33.069  26.429  1.00  0.00    -0.203 F 
ATOM     88  F   UNL A   1      47.616  34.269  31.316  1.00  0.00    -0.200 F 
ATOM     89  C   UNL A   1      47.076  34.924  29.111  1.00  0.00     0.200 A 
ATOM     90  F   UNL A   1      46.506  35.535  26.904  1.00  0.00    -0.200 F 
ATOM     91  F   UNL A   1      47.540  36.158  29.350  1.00  0.00    -0.200 F 
ENDBRANCH  58  81
ENDBRANCH  32  33
ENDBRANCH  24  27
ENDBRANCH  22  23
ENDBRANCH  21  22
ENDBRANCH   1  21
TORSDOF 15
ENDMDL
