MODEL 1
REMARK VINA RESULT:     -11.4      0.000      0.000
REMARK SMILES CCCn1ccnc1Cc1ccc(C(=O)NCCCCCCNC(=O)c2ccc(-c3c4nc(c(-c5c(F)c(F)c(F)c(F)c5F)c5ccc([nH]5)c(-c5c(F)c(F)c(F)c(F)c5F)c5nc(c(-c6c(F)c(F)c(F)c(F)c6F)c6ccc3[nH]6)C=C5)C=C4)cc2)s1
REMARK SMILES IDX 18 1 17 2 16 3 14 4 15 5 13 7 10 8 11 9 89 10 12 11 9 12
REMARK SMILES IDX 8 13 4 14 5 15 6 16 7 17 3 18 2 19 1 20 19 21 20 22 21 23
REMARK SMILES IDX 22 24 23 25 24 26 25 28 26 29 27 30 88 31 28 32 87 33 29 34
REMARK SMILES IDX 30 35 31 36 81 37 32 38 86 39 80 40 82 41 33 42 85 43 79 44
REMARK SMILES IDX 78 45 34 47 66 48 46 49 65 50 47 51 50 52 64 53 83 54 48 55
REMARK SMILES IDX 49 56 63 58 84 59 51 60 35 61 36 62 44 63 37 64 38 65 42 66
REMARK SMILES IDX 45 67 39 68 40 69 43 70 41 71 67 72 68 73 76 74 69 75 70 76
REMARK SMILES IDX 74 77 77 78 71 79 72 80 75 81 73 82 52 83 53 84 61 85 54 86
REMARK SMILES IDX 55 87 59 88 62 89 56 90 57 91 60 92 58 93
REMARK H PARENT 16 6 23 27 82 46 50 57
REMARK Flexibility Score: inf
ROOT
ATOM      1  C   UNL A   1      32.889  29.006  25.242  1.00  0.00     0.021 C 
ENDROOT
BRANCH   1   2
ATOM      2  C   UNL A   1      33.130  28.899  23.736  1.00  0.00     0.116 C 
BRANCH   2   3
ATOM      3  N   UNL A   1      31.881  28.953  23.005  1.00  0.00    -0.351 N 
ATOM      4  C   UNL A   1      31.023  27.993  22.527  1.00  0.00     0.261 C 
ATOM      5  O   UNL A   1      29.996  28.437  22.001  1.00  0.00    -0.268 OA
ATOM      6  H   UNL A   1      31.585  29.872  22.809  1.00  0.00     0.163 HD
BRANCH   4   7
ATOM      7  C   UNL A   1      31.243  26.561  22.670  1.00  0.00     0.092 A 
ATOM      8  C   UNL A   1      32.086  24.231  22.638  1.00  0.00     0.013 A 
ATOM      9  C   UNL A   1      31.123  24.415  23.606  1.00  0.00     0.016 A 
ATOM     10  S   UNL A   1      32.213  25.605  21.644  1.00  0.00    -0.135 S 
ATOM     11  C   UNL A   1      30.628  25.750  23.613  1.00  0.00     0.026 A 
BRANCH   8  12
ATOM     12  C   UNL A   1      32.926  23.020  22.364  1.00  0.00     0.122 C 
BRANCH  12  13
ATOM     13  C   UNL A   1      34.111  22.960  23.270  1.00  0.00     0.113 A 
ATOM     14  N   UNL A   1      34.218  22.144  24.382  1.00  0.00    -0.335 N 
ATOM     15  C   UNL A   1      35.454  22.372  24.925  1.00  0.00     0.107 A 
ATOM     16  C   UNL A   1      36.018  23.362  24.160  1.00  0.00     0.131 A 
ATOM     17  N   UNL A   1      35.196  23.697  23.126  1.00  0.00    -0.241 NA
BRANCH  14  18
ATOM     18  C   UNL A   1      33.209  21.212  24.852  1.00  0.00     0.123 C 
BRANCH  18  19
ATOM     19  C   UNL A   1      33.459  19.716  24.626  1.00  0.00     0.018 C 
ATOM     20  C   UNL A   1      32.528  19.095  23.592  1.00  0.00     0.006 C 
ENDBRANCH  18  19
ENDBRANCH  14  18
ENDBRANCH  12  13
ENDBRANCH   8  12
ENDBRANCH   4   7
ENDBRANCH   2   3
ENDBRANCH   1   2
BRANCH   1  21
ATOM     21  C   UNL A   1      34.031  28.417  26.079  1.00  0.00     0.002 C 
BRANCH  21  22
ATOM     22  C   UNL A   1      34.508  29.285  27.258  1.00  0.00     0.002 C 
BRANCH  22  23
ATOM     23  C   UNL A   1      33.702  30.564  27.542  1.00  0.00     0.021 C 
BRANCH  23  24
ATOM     24  C   UNL A   1      34.571  31.773  27.835  1.00  0.00     0.116 C 
BRANCH  24  25
ATOM     25  N   UNL A   1      34.412  32.257  29.214  1.00  0.00    -0.352 N 
ATOM     26  C   UNL A   1      35.163  31.953  30.330  1.00  0.00     0.251 C 
ATOM     27  H   UNL A   1      33.667  32.884  29.361  1.00  0.00     0.163 HD
ATOM     28  O   UNL A   1      34.727  32.137  31.469  1.00  0.00    -0.269 OA
BRANCH  26  29
ATOM     29  C   UNL A   1      36.515  31.421  30.134  1.00  0.00     0.039 A 
ATOM     30  C   UNL A   1      37.642  32.225  29.940  1.00  0.00     0.014 A 
ATOM     31  C   UNL A   1      36.631  30.042  30.215  1.00  0.00     0.014 A 
ATOM     32  C   UNL A   1      38.889  31.610  29.883  1.00  0.00     0.010 A 
ATOM     33  C   UNL A   1      37.847  29.498  30.474  1.00  0.00     0.010 A 
ATOM     34  C   UNL A   1      38.971  30.237  30.154  1.00  0.00    -0.014 A 
BRANCH  34  35
ATOM     35  C   UNL A   1      40.215  29.494  30.138  1.00  0.00     0.031 A 
ATOM     36  C   UNL A   1      40.804  29.229  31.470  1.00  0.00     0.074 A 
ATOM     37  C   UNL A   1      40.630  28.859  29.019  1.00  0.00     0.049 A 
ATOM     38  N   UNL A   1      41.920  29.676  31.937  1.00  0.00    -0.248 NA
ATOM     39  C   UNL A   1      39.998  28.485  32.452  1.00  0.00     0.031 C 
ATOM     40  C   UNL A   1      39.966  28.748  27.710  1.00  0.00     0.029 A 
ATOM     41  N   UNL A   1      41.711  28.054  28.866  1.00  0.00    -0.354 N 
ATOM     42  C   UNL A   1      42.058  29.113  33.200  1.00  0.00     0.074 A 
ATOM     43  C   UNL A   1      40.775  28.553  33.535  1.00  0.00     0.031 C 
ATOM     44  C   UNL A   1      40.525  27.745  26.999  1.00  0.00     0.029 A 
ATOM     45  C   UNL A   1      41.686  27.268  27.720  1.00  0.00     0.049 A 
ATOM     46  H   UNL A   1      42.452  28.029  29.513  1.00  0.00     0.167 HD
ATOM     47  C   UNL A   1      43.290  28.941  33.756  1.00  0.00     0.037 A 
ATOM     48  C   UNL A   1      42.543  26.254  27.444  1.00  0.00     0.037 A 
ATOM     49  C   UNL A   1      44.286  29.726  33.066  1.00  0.00     0.049 A 
ATOM     50  C   UNL A   1      43.756  26.485  28.280  1.00  0.00     0.074 A 
ATOM     51  C   UNL A   1      44.429  31.075  32.801  1.00  0.00     0.029 A 
ATOM     52  N   UNL A   1      45.110  29.090  32.167  1.00  0.00    -0.354 N 
ATOM     53  N   UNL A   1      44.549  27.513  28.122  1.00  0.00    -0.248 NA
ATOM     54  C   UNL A   1      43.782  25.876  29.602  1.00  0.00     0.031 C 
ATOM     55  C   UNL A   1      44.884  31.134  31.449  1.00  0.00     0.029 A 
ATOM     56  C   UNL A   1      45.075  29.824  31.006  1.00  0.00     0.049 A 
ATOM     57  H   UNL A   1      45.627  28.267  32.324  1.00  0.00     0.167 HD
ATOM     58  C   UNL A   1      44.852  27.935  29.411  1.00  0.00     0.074 A 
ATOM     59  C   UNL A   1      44.393  26.852  30.281  1.00  0.00     0.031 C 
ATOM     60  C   UNL A   1      45.158  29.237  29.688  1.00  0.00     0.037 A 
BRANCH  47  61
ATOM     61  C   UNL A   1      43.659  27.803  34.672  1.00  0.00     0.064 A 
ATOM     62  C   UNL A   1      43.461  26.480  34.230  1.00  0.00     0.173 A 
ATOM     63  C   UNL A   1      43.912  27.951  36.052  1.00  0.00     0.173 A 
ATOM     64  F   UNL A   1      43.200  26.223  32.939  1.00  0.00    -0.203 F 
ATOM     65  C   UNL A   1      43.433  25.402  35.118  1.00  0.00     0.198 A 
ATOM     66  C   UNL A   1      43.940  26.867  36.927  1.00  0.00     0.198 A 
ATOM     67  F   UNL A   1      44.027  29.150  36.636  1.00  0.00    -0.203 F 
ATOM     68  F   UNL A   1      43.109  24.181  34.670  1.00  0.00    -0.200 F 
ATOM     69  C   UNL A   1      43.665  25.597  36.466  1.00  0.00     0.200 A 
ATOM     70  F   UNL A   1      44.150  27.081  38.234  1.00  0.00    -0.200 F 
ATOM     71  F   UNL A   1      43.574  24.577  37.329  1.00  0.00    -0.200 F 
ENDBRANCH  47  61
BRANCH  48  72
ATOM     72  C   UNL A   1      42.190  24.948  26.833  1.00  0.00     0.064 A 
ATOM     73  C   UNL A   1      42.945  24.405  25.782  1.00  0.00     0.173 A 
ATOM     74  C   UNL A   1      41.250  24.085  27.435  1.00  0.00     0.173 A 
ATOM     75  F   UNL A   1      43.901  25.138  25.192  1.00  0.00    -0.203 F 
ATOM     76  C   UNL A   1      42.774  23.079  25.364  1.00  0.00     0.198 A 
ATOM     77  C   UNL A   1      41.076  22.766  27.012  1.00  0.00     0.198 A 
ATOM     78  F   UNL A   1      40.546  24.471  28.508  1.00  0.00    -0.203 F 
ATOM     79  F   UNL A   1      43.552  22.578  24.394  1.00  0.00    -0.200 F 
ATOM     80  C   UNL A   1      41.844  22.259  25.984  1.00  0.00     0.200 A 
ATOM     81  F   UNL A   1      40.203  21.974  27.653  1.00  0.00    -0.200 F 
ATOM     82  F   UNL A   1      41.720  20.975  25.622  1.00  0.00    -0.200 F 
ENDBRANCH  48  72
BRANCH  60  83
ATOM     83  C   UNL A   1      45.354  30.194  28.540  1.00  0.00     0.064 A 
ATOM     84  C   UNL A   1      44.325  30.976  27.985  1.00  0.00     0.173 A 
ATOM     85  C   UNL A   1      46.660  30.470  28.115  1.00  0.00     0.173 A 
ATOM     86  F   UNL A   1      43.063  30.854  28.409  1.00  0.00    -0.203 F 
ATOM     87  C   UNL A   1      44.586  31.957  27.028  1.00  0.00     0.198 A 
ATOM     88  C   UNL A   1      46.924  31.474  27.185  1.00  0.00     0.198 A 
ATOM     89  F   UNL A   1      47.695  29.803  28.650  1.00  0.00    -0.203 F 
ATOM     90  F   UNL A   1      43.580  32.684  26.519  1.00  0.00    -0.200 F 
ATOM     91  C   UNL A   1      45.888  32.211  26.635  1.00  0.00     0.200 A 
ATOM     92  F   UNL A   1      48.191  31.751  26.847  1.00  0.00    -0.200 F 
ATOM     93  F   UNL A   1      46.146  33.185  25.751  1.00  0.00    -0.200 F 
ENDBRANCH  60  83
ENDBRANCH  34  35
ENDBRANCH  26  29
ENDBRANCH  24  25
ENDBRANCH  23  24
ENDBRANCH  22  23
ENDBRANCH  21  22
ENDBRANCH   1  21
TORSDOF 17
ENDMDL
MODEL 2
REMARK VINA RESULT:     -11.1      3.229      7.709
REMARK SMILES CCCn1ccnc1Cc1ccc(C(=O)NCCCCCCNC(=O)c2ccc(-c3c4nc(c(-c5c(F)c(F)c(F)c(F)c5F)c5ccc([nH]5)c(-c5c(F)c(F)c(F)c(F)c5F)c5nc(c(-c6c(F)c(F)c(F)c(F)c6F)c6ccc3[nH]6)C=C5)C=C4)cc2)s1
REMARK SMILES IDX 18 1 17 2 16 3 14 4 15 5 13 7 10 8 11 9 89 10 12 11 9 12
REMARK SMILES IDX 8 13 4 14 5 15 6 16 7 17 3 18 2 19 1 20 19 21 20 22 21 23
REMARK SMILES IDX 22 24 23 25 24 26 25 28 26 29 27 30 88 31 28 32 87 33 29 34
REMARK SMILES IDX 30 35 31 36 81 37 32 38 86 39 80 40 82 41 33 42 85 43 79 44
REMARK SMILES IDX 78 45 34 47 66 48 46 49 65 50 47 51 50 52 64 53 83 54 48 55
REMARK SMILES IDX 49 56 63 58 84 59 51 60 35 61 36 62 44 63 37 64 38 65 42 66
REMARK SMILES IDX 45 67 39 68 40 69 43 70 41 71 67 72 68 73 76 74 69 75 70 76
REMARK SMILES IDX 74 77 77 78 71 79 72 80 75 81 73 82 52 83 53 84 61 85 54 86
REMARK SMILES IDX 55 87 59 88 62 89 56 90 57 91 60 92 58 93
REMARK H PARENT 16 6 23 27 82 46 50 57
REMARK Flexibility Score: inf
ROOT
ATOM      1  C   UNL A   1      35.530  22.896  25.786  1.00  0.00     0.021 C 
ENDROOT
BRANCH   1   2
ATOM      2  C   UNL A   1      34.928  22.347  24.492  1.00  0.00     0.116 C 
BRANCH   2   3
ATOM      3  N   UNL A   1      33.915  21.350  24.773  1.00  0.00    -0.351 N 
ATOM      4  C   UNL A   1      32.544  21.393  24.857  1.00  0.00     0.261 C 
ATOM      5  O   UNL A   1      32.007  20.297  25.051  1.00  0.00    -0.268 OA
ATOM      6  H   UNL A   1      34.287  20.454  24.938  1.00  0.00     0.163 HD
BRANCH   4   7
ATOM      7  C   UNL A   1      31.755  22.603  24.673  1.00  0.00     0.092 A 
ATOM      8  C   UNL A   1      30.597  24.785  24.866  1.00  0.00     0.013 A 
ATOM      9  C   UNL A   1      30.692  24.369  23.555  1.00  0.00     0.016 A 
ATOM     10  S   UNL A   1      31.108  23.559  25.928  1.00  0.00    -0.135 S 
ATOM     11  C   UNL A   1      31.344  23.107  23.447  1.00  0.00     0.026 A 
BRANCH   8  12
ATOM     12  C   UNL A   1      30.083  26.086  25.405  1.00  0.00     0.122 C 
BRANCH  12  13
ATOM     13  C   UNL A   1      30.683  27.251  24.690  1.00  0.00     0.113 A 
ATOM     14  N   UNL A   1      31.904  27.825  24.995  1.00  0.00    -0.335 N 
ATOM     15  C   UNL A   1      32.097  28.845  24.103  1.00  0.00     0.107 A 
ATOM     16  C   UNL A   1      30.959  28.889  23.337  1.00  0.00     0.131 A 
ATOM     17  N   UNL A   1      30.107  27.885  23.686  1.00  0.00    -0.241 NA
BRANCH  14  18
ATOM     18  C   UNL A   1      32.804  27.396  26.050  1.00  0.00     0.123 C 
BRANCH  18  19
ATOM     19  C   UNL A   1      33.784  26.259  25.733  1.00  0.00     0.018 C 
ATOM     20  C   UNL A   1      33.969  26.017  24.240  1.00  0.00     0.006 C 
ENDBRANCH  18  19
ENDBRANCH  14  18
ENDBRANCH  12  13
ENDBRANCH   8  12
ENDBRANCH   4   7
ENDBRANCH   2   3
ENDBRANCH   1   2
BRANCH   1  21
ATOM     21  C   UNL A   1      36.817  23.697  25.559  1.00  0.00     0.002 C 
BRANCH  21  22
ATOM     22  C   UNL A   1      38.127  22.961  25.896  1.00  0.00     0.002 C 
BRANCH  22  23
ATOM     23  C   UNL A   1      38.025  21.445  26.128  1.00  0.00     0.021 C 
BRANCH  23  24
ATOM     24  C   UNL A   1      38.546  20.619  24.965  1.00  0.00     0.116 C 
BRANCH  24  25
ATOM     25  N   UNL A   1      39.374  19.488  25.409  1.00  0.00    -0.352 N 
ATOM     26  C   UNL A   1      40.669  19.499  25.884  1.00  0.00     0.251 C 
ATOM     27  H   UNL A   1      38.947  18.603  25.360  1.00  0.00     0.163 HD
ATOM     28  O   UNL A   1      41.362  18.477  25.887  1.00  0.00    -0.269 OA
BRANCH  26  29
ATOM     29  C   UNL A   1      41.207  20.756  26.411  1.00  0.00     0.039 A 
ATOM     30  C   UNL A   1      41.805  21.737  25.613  1.00  0.00     0.014 A 
ATOM     31  C   UNL A   1      41.032  20.957  27.771  1.00  0.00     0.014 A 
ATOM     32  C   UNL A   1      42.172  22.939  26.211  1.00  0.00     0.010 A 
ATOM     33  C   UNL A   1      41.096  22.219  28.265  1.00  0.00     0.010 A 
ATOM     34  C   UNL A   1      41.806  23.162  27.545  1.00  0.00    -0.014 A 
BRANCH  34  35
ATOM     35  C   UNL A   1      42.121  24.380  28.266  1.00  0.00     0.031 A 
ATOM     36  C   UNL A   1      41.085  25.435  28.195  1.00  0.00     0.074 A 
ATOM     37  C   UNL A   1      43.140  24.418  29.154  1.00  0.00     0.049 A 
ATOM     38  N   UNL A   1      41.186  26.597  27.644  1.00  0.00    -0.248 NA
ATOM     39  C   UNL A   1      39.732  25.117  28.679  1.00  0.00     0.031 C 
ATOM     40  C   UNL A   1      44.042  23.338  29.583  1.00  0.00     0.029 A 
ATOM     41  N   UNL A   1      43.503  25.440  29.968  1.00  0.00    -0.354 N 
ATOM     42  C   UNL A   1      39.975  27.237  27.880  1.00  0.00     0.074 A 
ATOM     43  C   UNL A   1      39.065  26.223  28.346  1.00  0.00     0.031 C 
ATOM     44  C   UNL A   1      44.665  23.692  30.727  1.00  0.00     0.029 A 
ATOM     45  C   UNL A   1      44.346  25.075  31.010  1.00  0.00     0.049 A 
ATOM     46  H   UNL A   1      43.194  26.365  29.831  1.00  0.00     0.167 HD
ATOM     47  C   UNL A   1      39.900  28.598  27.907  1.00  0.00     0.037 A 
ATOM     48  C   UNL A   1      44.688  25.866  32.057  1.00  0.00     0.037 A 
ATOM     49  C   UNL A   1      41.071  29.195  27.311  1.00  0.00     0.049 A 
ATOM     50  C   UNL A   1      44.445  27.272  31.625  1.00  0.00     0.074 A 
ATOM     51  C   UNL A   1      41.667  29.103  26.067  1.00  0.00     0.029 A 
ATOM     52  N   UNL A   1      42.045  29.692  28.144  1.00  0.00    -0.354 N 
ATOM     53  N   UNL A   1      45.116  27.852  30.663  1.00  0.00    -0.248 NA
ATOM     54  C   UNL A   1      43.128  27.834  31.892  1.00  0.00     0.031 C 
ATOM     55  C   UNL A   1      43.066  29.028  26.339  1.00  0.00     0.029 A 
ATOM     56  C   UNL A   1      43.241  29.168  27.716  1.00  0.00     0.049 A 
ATOM     57  H   UNL A   1      41.913  30.307  28.902  1.00  0.00     0.167 HD
ATOM     58  C   UNL A   1      44.166  28.561  29.939  1.00  0.00     0.074 A 
ATOM     59  C   UNL A   1      42.967  28.555  30.778  1.00  0.00     0.031 C 
ATOM     60  C   UNL A   1      44.326  28.822  28.607  1.00  0.00     0.037 A 
BRANCH  47  61
ATOM     61  C   UNL A   1      38.958  29.381  28.786  1.00  0.00     0.064 A 
ATOM     62  C   UNL A   1      39.066  29.252  30.184  1.00  0.00     0.173 A 
ATOM     63  C   UNL A   1      37.783  30.008  28.320  1.00  0.00     0.173 A 
ATOM     64  F   UNL A   1      40.135  28.659  30.735  1.00  0.00    -0.203 F 
ATOM     65  C   UNL A   1      38.035  29.644  31.041  1.00  0.00     0.198 A 
ATOM     66  C   UNL A   1      36.781  30.449  29.183  1.00  0.00     0.198 A 
ATOM     67  F   UNL A   1      37.496  30.118  27.018  1.00  0.00    -0.203 F 
ATOM     68  F   UNL A   1      38.124  29.379  32.352  1.00  0.00    -0.200 F 
ATOM     69  C   UNL A   1      36.891  30.234  30.540  1.00  0.00     0.200 A 
ATOM     70  F   UNL A   1      35.672  31.005  28.673  1.00  0.00    -0.200 F 
ATOM     71  F   UNL A   1      35.874  30.550  31.351  1.00  0.00    -0.200 F 
ENDBRANCH  47  61
BRANCH  48  72
ATOM     72  C   UNL A   1      44.811  25.441  33.474  1.00  0.00     0.064 A 
ATOM     73  C   UNL A   1      43.684  25.304  34.298  1.00  0.00     0.173 A 
ATOM     74  C   UNL A   1      46.020  24.918  33.982  1.00  0.00     0.173 A 
ATOM     75  F   UNL A   1      42.484  25.721  33.868  1.00  0.00    -0.203 F 
ATOM     76  C   UNL A   1      43.759  24.677  35.549  1.00  0.00     0.198 A 
ATOM     77  C   UNL A   1      46.096  24.301  35.232  1.00  0.00     0.198 A 
ATOM     78  F   UNL A   1      47.135  24.909  33.239  1.00  0.00    -0.203 F 
ATOM     79  F   UNL A   1      42.650  24.515  36.283  1.00  0.00    -0.200 F 
ATOM     80  C   UNL A   1      44.964  24.171  36.011  1.00  0.00     0.200 A 
ATOM     81  F   UNL A   1      47.260  23.777  35.643  1.00  0.00    -0.200 F 
ATOM     82  F   UNL A   1      45.024  23.522  37.182  1.00  0.00    -0.200 F 
ENDBRANCH  48  72
BRANCH  60  83
ATOM     83  C   UNL A   1      45.646  28.494  27.959  1.00  0.00     0.064 A 
ATOM     84  C   UNL A   1      45.930  27.269  27.330  1.00  0.00     0.173 A 
ATOM     85  C   UNL A   1      46.586  29.521  27.801  1.00  0.00     0.173 A 
ATOM     86  F   UNL A   1      45.044  26.269  27.337  1.00  0.00    -0.203 F 
ATOM     87  C   UNL A   1      47.110  27.071  26.612  1.00  0.00     0.198 A 
ATOM     88  C   UNL A   1      47.748  29.334  27.055  1.00  0.00     0.198 A 
ATOM     89  F   UNL A   1      46.348  30.735  28.324  1.00  0.00    -0.203 F 
ATOM     90  F   UNL A   1      47.350  25.890  26.025  1.00  0.00    -0.200 F 
ATOM     91  C   UNL A   1      48.015  28.108  26.468  1.00  0.00     0.200 A 
ATOM     92  F   UNL A   1      48.595  30.357  26.876  1.00  0.00    -0.200 F 
ATOM     93  F   UNL A   1      49.127  27.935  25.740  1.00  0.00    -0.200 F 
ENDBRANCH  60  83
ENDBRANCH  34  35
ENDBRANCH  26  29
ENDBRANCH  24  25
ENDBRANCH  23  24
ENDBRANCH  22  23
ENDBRANCH  21  22
ENDBRANCH   1  21
TORSDOF 17
ENDMDL
MODEL 3
REMARK VINA RESULT:     -11.1      3.125      8.557
REMARK SMILES CCCn1ccnc1Cc1ccc(C(=O)NCCCCCCNC(=O)c2ccc(-c3c4nc(c(-c5c(F)c(F)c(F)c(F)c5F)c5ccc([nH]5)c(-c5c(F)c(F)c(F)c(F)c5F)c5nc(c(-c6c(F)c(F)c(F)c(F)c6F)c6ccc3[nH]6)C=C5)C=C4)cc2)s1
REMARK SMILES IDX 18 1 17 2 16 3 14 4 15 5 13 7 10 8 11 9 89 10 12 11 9 12
REMARK SMILES IDX 8 13 4 14 5 15 6 16 7 17 3 18 2 19 1 20 19 21 20 22 21 23
REMARK SMILES IDX 22 24 23 25 24 26 25 28 26 29 27 30 88 31 28 32 87 33 29 34
REMARK SMILES IDX 30 35 31 36 81 37 32 38 86 39 80 40 82 41 33 42 85 43 79 44
REMARK SMILES IDX 78 45 34 47 66 48 46 49 65 50 47 51 50 52 64 53 83 54 48 55
REMARK SMILES IDX 49 56 63 58 84 59 51 60 35 61 36 62 44 63 37 64 38 65 42 66
REMARK SMILES IDX 45 67 39 68 40 69 43 70 41 71 67 72 68 73 76 74 69 75 70 76
REMARK SMILES IDX 74 77 77 78 71 79 72 80 75 81 73 82 52 83 53 84 61 85 54 86
REMARK SMILES IDX 55 87 59 88 62 89 56 90 57 91 60 92 58 93
REMARK H PARENT 16 6 23 27 82 46 50 57
REMARK Flexibility Score: inf
ROOT
ATOM      1  C   UNL A   1      34.405  20.376  25.240  1.00  0.00     0.021 C 
ENDROOT
BRANCH   1   2
ATOM      2  C   UNL A   1      32.938  20.766  25.058  1.00  0.00     0.116 C 
BRANCH   2   3
ATOM      3  N   UNL A   1      32.500  20.519  23.699  1.00  0.00    -0.351 N 
ATOM      4  C   UNL A   1      32.073  21.335  22.680  1.00  0.00     0.261 C 
ATOM      5  O   UNL A   1      31.846  20.751  21.615  1.00  0.00    -0.268 OA
ATOM      6  H   UNL A   1      32.511  19.565  23.455  1.00  0.00     0.163 HD
BRANCH   4   7
ATOM      7  C   UNL A   1      31.948  22.781  22.794  1.00  0.00     0.092 A 
ATOM      8  C   UNL A   1      32.072  25.244  22.548  1.00  0.00     0.013 A 
ATOM      9  C   UNL A   1      30.986  24.858  23.303  1.00  0.00     0.016 A 
ATOM     10  S   UNL A   1      33.086  23.917  22.225  1.00  0.00    -0.135 S 
ATOM     11  C   UNL A   1      30.924  23.443  23.457  1.00  0.00     0.026 A 
BRANCH   8  12
ATOM     12  C   UNL A   1      32.444  26.614  22.066  1.00  0.00     0.122 C 
BRANCH  12  13
ATOM     13  C   UNL A   1      31.574  27.663  22.675  1.00  0.00     0.113 A 
ATOM     14  N   UNL A   1      31.875  28.375  23.823  1.00  0.00    -0.335 N 
ATOM     15  C   UNL A   1      30.839  29.244  24.034  1.00  0.00     0.107 A 
ATOM     16  C   UNL A   1      29.925  28.980  23.045  1.00  0.00     0.131 A 
ATOM     17  N   UNL A   1      30.399  28.025  22.196  1.00  0.00    -0.241 NA
BRANCH  14  18
ATOM     18  C   UNL A   1      33.079  28.228  24.622  1.00  0.00     0.123 C 
BRANCH  18  19
ATOM     19  C   UNL A   1      32.992  27.369  25.890  1.00  0.00     0.018 C 
ATOM     20  C   UNL A   1      33.682  26.017  25.755  1.00  0.00     0.006 C 
ENDBRANCH  18  19
ENDBRANCH  14  18
ENDBRANCH  12  13
ENDBRANCH   8  12
ENDBRANCH   4   7
ENDBRANCH   2   3
ENDBRANCH   1   2
BRANCH   1  21
ATOM     21  C   UNL A   1      35.250  21.490  25.871  1.00  0.00     0.002 C 
BRANCH  21  22
ATOM     22  C   UNL A   1      35.360  22.787  25.050  1.00  0.00     0.002 C 
BRANCH  22  23
ATOM     23  C   UNL A   1      36.775  23.224  24.637  1.00  0.00     0.021 C 
BRANCH  23  24
ATOM     24  C   UNL A   1      37.677  23.542  25.816  1.00  0.00     0.116 C 
BRANCH  24  25
ATOM     25  N   UNL A   1      38.654  22.474  26.078  1.00  0.00    -0.352 N 
ATOM     26  C   UNL A   1      39.928  22.576  26.596  1.00  0.00     0.251 C 
ATOM     27  H   UNL A   1      38.357  21.563  25.852  1.00  0.00     0.163 HD
ATOM     28  O   UNL A   1      40.759  21.676  26.440  1.00  0.00    -0.269 OA
BRANCH  26  29
ATOM     29  C   UNL A   1      40.274  23.776  27.363  1.00  0.00     0.039 A 
ATOM     30  C   UNL A   1      41.541  24.007  27.906  1.00  0.00     0.014 A 
ATOM     31  C   UNL A   1      39.270  24.724  27.473  1.00  0.00     0.014 A 
ATOM     32  C   UNL A   1      41.783  25.236  28.514  1.00  0.00     0.010 A 
ATOM     33  C   UNL A   1      39.603  26.005  27.772  1.00  0.00     0.010 A 
ATOM     34  C   UNL A   1      40.795  26.227  28.436  1.00  0.00    -0.014 A 
BRANCH  34  35
ATOM     35  C   UNL A   1      40.942  27.547  29.017  1.00  0.00     0.031 A 
ATOM     36  C   UNL A   1      42.017  28.375  28.428  1.00  0.00     0.074 A 
ATOM     37  C   UNL A   1      39.985  28.061  29.823  1.00  0.00     0.049 A 
ATOM     38  N   UNL A   1      43.090  28.796  29.009  1.00  0.00    -0.248 NA
ATOM     39  C   UNL A   1      41.963  28.664  26.987  1.00  0.00     0.031 C 
ATOM     40  C   UNL A   1      38.691  27.482  30.219  1.00  0.00     0.029 A 
ATOM     41  N   UNL A   1      39.927  29.301  30.367  1.00  0.00    -0.354 N 
ATOM     42  C   UNL A   1      43.756  29.570  28.065  1.00  0.00     0.074 A 
ATOM     43  C   UNL A   1      43.123  29.298  26.801  1.00  0.00     0.031 C 
ATOM     44  C   UNL A   1      37.894  28.448  30.722  1.00  0.00     0.029 A 
ATOM     45  C   UNL A   1      38.673  29.662  30.847  1.00  0.00     0.049 A 
ATOM     46  H   UNL A   1      40.708  29.897  30.418  1.00  0.00     0.167 HD
ATOM     47  C   UNL A   1      44.612  30.556  28.452  1.00  0.00     0.037 A 
ATOM     48  C   UNL A   1      38.316  30.904  31.254  1.00  0.00     0.037 A 
ATOM     49  C   UNL A   1      44.983  30.409  29.840  1.00  0.00     0.049 A 
ATOM     50  C   UNL A   1      39.580  31.625  31.579  1.00  0.00     0.074 A 
ATOM     51  C   UNL A   1      45.579  29.398  30.571  1.00  0.00     0.029 A 
ATOM     52  N   UNL A   1      44.366  31.214  30.768  1.00  0.00    -0.354 N 
ATOM     53  N   UNL A   1      40.372  31.276  32.559  1.00  0.00    -0.248 NA
ATOM     54  C   UNL A   1      40.213  32.379  30.505  1.00  0.00     0.031 C 
ATOM     55  C   UNL A   1      44.845  29.353  31.794  1.00  0.00     0.029 A 
ATOM     56  C   UNL A   1      43.912  30.390  31.770  1.00  0.00     0.049 A 
ATOM     57  H   UNL A   1      44.269  32.193  30.726  1.00  0.00     0.167 HD
ATOM     58  C   UNL A   1      41.657  31.393  32.044  1.00  0.00     0.074 A 
ATOM     59  C   UNL A   1      41.496  32.130  30.790  1.00  0.00     0.031 C 
ATOM     60  C   UNL A   1      42.690  30.626  32.505  1.00  0.00     0.037 A 
BRANCH  47  61
ATOM     61  C   UNL A   1      44.824  31.844  27.697  1.00  0.00     0.064 A 
ATOM     62  C   UNL A   1      46.035  32.035  27.004  1.00  0.00     0.173 A 
ATOM     63  C   UNL A   1      44.032  32.998  27.870  1.00  0.00     0.173 A 
ATOM     64  F   UNL A   1      46.873  31.009  26.795  1.00  0.00    -0.203 F 
ATOM     65  C   UNL A   1      46.456  33.302  26.593  1.00  0.00     0.198 A 
ATOM     66  C   UNL A   1      44.429  34.252  27.408  1.00  0.00     0.198 A 
ATOM     67  F   UNL A   1      42.902  32.993  28.588  1.00  0.00    -0.203 F 
ATOM     68  F   UNL A   1      47.675  33.456  26.056  1.00  0.00    -0.200 F 
ATOM     69  C   UNL A   1      45.657  34.410  26.802  1.00  0.00     0.200 A 
ATOM     70  F   UNL A   1      43.645  35.315  27.636  1.00  0.00    -0.200 F 
ATOM     71  F   UNL A   1      46.086  35.634  26.469  1.00  0.00    -0.200 F 
ENDBRANCH  47  61
BRANCH  48  72
ATOM     72  C   UNL A   1      37.021  31.578  30.984  1.00  0.00     0.064 A 
ATOM     73  C   UNL A   1      36.142  31.918  32.024  1.00  0.00     0.173 A 
ATOM     74  C   UNL A   1      36.729  32.129  29.718  1.00  0.00     0.173 A 
ATOM     75  F   UNL A   1      36.377  31.485  33.271  1.00  0.00    -0.203 F 
ATOM     76  C   UNL A   1      35.043  32.761  31.811  1.00  0.00     0.198 A 
ATOM     77  C   UNL A   1      35.630  32.963  29.505  1.00  0.00     0.198 A 
ATOM     78  F   UNL A   1      37.556  31.947  28.678  1.00  0.00    -0.203 F 
ATOM     79  F   UNL A   1      34.258  33.108  32.840  1.00  0.00    -0.200 F 
ATOM     80  C   UNL A   1      34.793  33.288  30.554  1.00  0.00     0.200 A 
ATOM     81  F   UNL A   1      35.429  33.499  28.292  1.00  0.00    -0.200 F 
ATOM     82  F   UNL A   1      33.775  34.139  30.363  1.00  0.00    -0.200 F 
ENDBRANCH  48  72
BRANCH  60  83
ATOM     83  C   UNL A   1      42.466  29.772  33.726  1.00  0.00     0.064 A 
ATOM     84  C   UNL A   1      41.984  28.452  33.684  1.00  0.00     0.173 A 
ATOM     85  C   UNL A   1      42.937  30.236  34.962  1.00  0.00     0.173 A 
ATOM     86  F   UNL A   1      41.615  27.891  32.529  1.00  0.00    -0.203 F 
ATOM     87  C   UNL A   1      41.940  27.652  34.826  1.00  0.00     0.198 A 
ATOM     88  C   UNL A   1      42.925  29.425  36.095  1.00  0.00     0.198 A 
ATOM     89  F   UNL A   1      43.468  31.465  35.059  1.00  0.00    -0.203 F 
ATOM     90  F   UNL A   1      41.474  26.397  34.750  1.00  0.00    -0.200 F 
ATOM     91  C   UNL A   1      42.420  28.136  36.029  1.00  0.00     0.200 A 
ATOM     92  F   UNL A   1      43.439  29.882  37.245  1.00  0.00    -0.200 F 
ATOM     93  F   UNL A   1      42.423  27.354  37.118  1.00  0.00    -0.200 F 
ENDBRANCH  60  83
ENDBRANCH  34  35
ENDBRANCH  26  29
ENDBRANCH  24  25
ENDBRANCH  23  24
ENDBRANCH  22  23
ENDBRANCH  21  22
ENDBRANCH   1  21
TORSDOF 17
ENDMDL
