MODEL 1
REMARK VINA RESULT:     -13.0      0.000      0.000
REMARK SMILES Cc1cccc(C(=O)Nc2cc(C(=O)NCCCCCCNC(=O)c3ccc(-c4c5nc(c(-c6c(F)c(F)c(F)c(F)c6F)c6ccc([nH]6)c(-c6c(F)c(F)c(F)c(F)c6F)c6nc(c(-c7c(F)c(F)c(F)c(F)c7F)c7ccc4[nH]7)C=C6)C=C5)cc3)ccc2N2CC[NH+](CC(=O)NC(C)(C)C)CC2)c1
REMARK SMILES IDX 17 1 16 2 15 3 13 4 14 5 12 7 10 8 11 9 90 10 89 11 88 12
REMARK SMILES IDX 9 13 7 14 8 15 6 17 1 18 2 19 3 20 105 21 4 22 5 23 91 24
REMARK SMILES IDX 92 25 104 26 93 27 103 28 94 29 95 31 96 32 97 33 98 34
REMARK SMILES IDX 99 36 100 37 101 38 102 39 18 40 19 41 20 42 21 43 22 44
REMARK SMILES IDX 23 45 24 47 25 48 26 49 87 50 27 51 86 52 28 53 29 54 30 55
REMARK SMILES IDX 80 56 31 57 85 58 79 59 81 60 32 61 84 62 78 63 77 64 33 66
REMARK SMILES IDX 65 67 45 68 64 69 46 70 49 71 63 72 82 73 47 74 48 75 62 77
REMARK SMILES IDX 83 78 50 79 34 80 35 81 43 82 36 83 37 84 41 85 44 86 38 87
REMARK SMILES IDX 39 88 42 89 40 90 66 91 67 92 75 93 68 94 69 95 73 96 76 97
REMARK SMILES IDX 70 98 71 99 74 100 72 101 51 102 52 103 60 104 53 105 54 106
REMARK SMILES IDX 58 107 61 108 55 109 56 110 59 111 57 112
REMARK H PARENT 15 6 9 16 94 30 98 35 22 46 81 65 49 76
REMARK Flexibility Score: inf
ROOT
ATOM      1  C   UNL A   1      34.447  23.509  23.225  1.00  0.00     0.021 C 
ENDROOT
BRANCH   1   2
ATOM      2  C   UNL A   1      33.298  22.970  22.368  1.00  0.00     0.116 C 
BRANCH   2   3
ATOM      3  N   UNL A   1      33.054  23.788  21.196  1.00  0.00    -0.352 N 
ATOM      4  C   UNL A   1      32.886  25.140  21.006  1.00  0.00     0.251 C 
ATOM      5  O   UNL A   1      32.790  25.532  19.842  1.00  0.00    -0.269 OA
ATOM      6  H   UNL A   1      32.996  23.268  20.363  1.00  0.00     0.163 HD
BRANCH   4   7
ATOM      7  C   UNL A   1      32.864  26.151  22.106  1.00  0.00     0.042 A 
ATOM      8  C   UNL A   1      31.935  27.134  24.107  1.00  0.00     0.065 A 
ATOM      9  C   UNL A   1      31.800  26.328  22.978  1.00  0.00     0.042 A 
ATOM     10  C   UNL A   1      33.047  27.993  24.288  1.00  0.00     0.061 A 
ATOM     11  C   UNL A   1      34.072  27.891  23.343  1.00  0.00     0.029 A 
ATOM     12  C   UNL A   1      34.001  26.953  22.296  1.00  0.00     0.016 A 
BRANCH   8  13
ATOM     13  N   UNL A   1      30.946  27.073  25.104  1.00  0.00    -0.320 N 
ATOM     14  C   UNL A   1      30.643  26.049  25.986  1.00  0.00     0.255 C 
ATOM     15  O   UNL A   1      29.791  26.272  26.850  1.00  0.00    -0.269 OA
ATOM     16  H   UNL A   1      30.385  27.879  25.187  1.00  0.00     0.170 HD
BRANCH  14  17
ATOM     17  C   UNL A   1      31.329  24.712  26.015  1.00  0.00     0.040 A 
ATOM     18  C   UNL A   1      34.550  22.948  27.072  1.00  0.00     0.044 C 
ATOM     19  C   UNL A   1      33.159  23.178  26.547  1.00  0.00    -0.050 A 
ATOM     20  C   UNL A   1      32.529  22.170  25.811  1.00  0.00     0.003 A 
ATOM     21  C   UNL A   1      32.516  24.421  26.704  1.00  0.00     0.017 A 
ATOM     22  C   UNL A   1      31.287  22.403  25.227  1.00  0.00     0.001 A 
ATOM     23  C   UNL A   1      30.701  23.669  25.316  1.00  0.00     0.014 A 
ENDBRANCH  14  17
ENDBRANCH   8  13
BRANCH  10  24
ATOM     24  N   UNL A   1      33.140  28.817  25.404  1.00  0.00    -0.359 N 
ATOM     25  C   UNL A   1      32.394  30.082  25.553  1.00  0.00     0.178 C 
ATOM     26  C   UNL A   1      34.447  28.880  26.061  1.00  0.00     0.178 C 
ATOM     27  C   UNL A   1      32.361  30.539  27.052  1.00  0.00     0.284 C 
ATOM     28  C   UNL A   1      34.217  29.066  27.570  1.00  0.00     0.284 C 
ATOM     29  N   UNL A   1      33.559  30.331  27.901  1.00  0.00    -0.324 N 
ATOM     30  H   UNL A   1      33.196  30.266  28.853  1.00  0.00     0.348 HD
BRANCH  29  31
ATOM     31  C   UNL A   1      34.488  31.469  28.030  1.00  0.00     0.363 C 
BRANCH  31  32
ATOM     32  C   UNL A   1      34.490  32.176  29.379  1.00  0.00     0.275 C 
ATOM     33  O   UNL A   1      34.854  31.563  30.392  1.00  0.00    -0.268 OA
ATOM     34  N   UNL A   1      34.115  33.471  29.572  1.00  0.00    -0.347 N 
ATOM     35  H   UNL A   1      34.337  33.756  30.487  1.00  0.00     0.164 HD
BRANCH  34  36
ATOM     36  C   UNL A   1      33.473  34.591  28.827  1.00  0.00     0.032 C 
ATOM     37  C   UNL A   1      32.877  35.636  29.790  1.00  0.00     0.034 C 
ATOM     38  C   UNL A   1      34.608  35.308  28.062  1.00  0.00     0.034 C 
ATOM     39  C   UNL A   1      32.419  34.171  27.799  1.00  0.00     0.034 C 
ENDBRANCH  34  36
ENDBRANCH  31  32
ENDBRANCH  29  31
ENDBRANCH  10  24
ENDBRANCH   4   7
ENDBRANCH   2   3
ENDBRANCH   1   2
BRANCH   1  40
ATOM     40  C   UNL A   1      35.829  22.986  22.821  1.00  0.00     0.002 C 
BRANCH  40  41
ATOM     41  C   UNL A   1      36.690  22.407  23.959  1.00  0.00     0.002 C 
BRANCH  41  42
ATOM     42  C   UNL A   1      37.513  23.425  24.753  1.00  0.00     0.021 C 
BRANCH  42  43
ATOM     43  C   UNL A   1      38.026  22.886  26.080  1.00  0.00     0.116 C 
BRANCH  43  44
ATOM     44  N   UNL A   1      39.480  22.783  26.136  1.00  0.00    -0.352 N 
ATOM     45  C   UNL A   1      40.428  23.740  26.468  1.00  0.00     0.251 C 
ATOM     46  H   UNL A   1      39.844  21.899  25.901  1.00  0.00     0.163 HD
ATOM     47  O   UNL A   1      41.610  23.487  26.410  1.00  0.00    -0.269 OA
BRANCH  45  48
ATOM     48  C   UNL A   1      39.962  25.026  27.044  1.00  0.00     0.039 A 
ATOM     49  C   UNL A   1      40.314  26.197  26.362  1.00  0.00     0.014 A 
ATOM     50  C   UNL A   1      39.428  25.085  28.326  1.00  0.00     0.014 A 
ATOM     51  C   UNL A   1      40.387  27.394  27.067  1.00  0.00     0.010 A 
ATOM     52  C   UNL A   1      39.590  26.248  29.052  1.00  0.00     0.010 A 
ATOM     53  C   UNL A   1      40.149  27.375  28.440  1.00  0.00    -0.014 A 
BRANCH  53  54
ATOM     54  C   UNL A   1      40.582  28.439  29.337  1.00  0.00     0.031 A 
ATOM     55  C   UNL A   1      39.657  29.518  29.727  1.00  0.00     0.074 A 
ATOM     56  C   UNL A   1      41.811  28.366  29.897  1.00  0.00     0.049 A 
ATOM     57  N   UNL A   1      40.025  30.637  30.252  1.00  0.00    -0.248 NA
ATOM     58  C   UNL A   1      38.221  29.429  29.507  1.00  0.00     0.031 C 
ATOM     59  C   UNL A   1      42.325  29.136  31.027  1.00  0.00     0.029 A 
ATOM     60  N   UNL A   1      42.940  27.705  29.387  1.00  0.00    -0.354 N 
ATOM     61  C   UNL A   1      38.896  31.299  30.674  1.00  0.00     0.074 A 
ATOM     62  C   UNL A   1      37.797  30.530  30.135  1.00  0.00     0.031 C 
ATOM     63  C   UNL A   1      43.664  29.170  30.950  1.00  0.00     0.029 A 
ATOM     64  C   UNL A   1      44.032  28.556  29.688  1.00  0.00     0.049 A 
ATOM     65  H   UNL A   1      42.968  26.838  28.921  1.00  0.00     0.167 HD
ATOM     66  C   UNL A   1      39.033  32.357  31.526  1.00  0.00     0.037 A 
ATOM     67  C   UNL A   1      44.738  29.168  28.691  1.00  0.00     0.037 A 
ATOM     68  C   UNL A   1      40.441  32.707  31.724  1.00  0.00     0.049 A 
ATOM     69  C   UNL A   1      44.736  30.683  28.744  1.00  0.00     0.074 A 
ATOM     70  C   UNL A   1      41.378  32.468  32.716  1.00  0.00     0.029 A 
ATOM     71  N   UNL A   1      41.154  33.184  30.640  1.00  0.00    -0.354 N 
ATOM     72  N   UNL A   1      44.015  31.394  29.565  1.00  0.00    -0.248 NA
ATOM     73  C   UNL A   1      45.468  31.513  27.785  1.00  0.00     0.031 C 
ATOM     74  C   UNL A   1      42.664  32.817  32.209  1.00  0.00     0.029 A 
ATOM     75  C   UNL A   1      42.505  33.265  30.911  1.00  0.00     0.049 A 
ATOM     76  H   UNL A   1      40.748  33.436  29.778  1.00  0.00     0.167 HD
ATOM     77  C   UNL A   1      44.117  32.718  29.228  1.00  0.00     0.074 A 
ATOM     78  C   UNL A   1      45.037  32.744  28.107  1.00  0.00     0.031 C 
ATOM     79  C   UNL A   1      43.404  33.695  29.856  1.00  0.00     0.037 A 
BRANCH  66  80
ATOM     80  C   UNL A   1      37.908  32.939  32.357  1.00  0.00     0.064 A 
ATOM     81  C   UNL A   1      37.029  33.897  31.803  1.00  0.00     0.173 A 
ATOM     82  C   UNL A   1      37.671  32.647  33.711  1.00  0.00     0.173 A 
ATOM     83  F   UNL A   1      37.045  34.193  30.498  1.00  0.00    -0.203 F 
ATOM     84  C   UNL A   1      36.093  34.593  32.573  1.00  0.00     0.198 A 
ATOM     85  C   UNL A   1      36.778  33.384  34.497  1.00  0.00     0.198 A 
ATOM     86  F   UNL A   1      38.239  31.595  34.310  1.00  0.00    -0.203 F 
ATOM     87  F   UNL A   1      35.293  35.496  31.989  1.00  0.00    -0.200 F 
ATOM     88  C   UNL A   1      35.997  34.368  33.929  1.00  0.00     0.200 A 
ATOM     89  F   UNL A   1      36.677  33.125  35.808  1.00  0.00    -0.200 F 
ATOM     90  F   UNL A   1      35.136  35.070  34.678  1.00  0.00    -0.200 F 
ENDBRANCH  66  80
BRANCH  67  91
ATOM     91  C   UNL A   1      44.774  28.373  27.433  1.00  0.00     0.064 A 
ATOM     92  C   UNL A   1      45.557  27.202  27.390  1.00  0.00     0.173 A 
ATOM     93  C   UNL A   1      43.808  28.540  26.434  1.00  0.00     0.173 A 
ATOM     94  F   UNL A   1      46.497  26.987  28.326  1.00  0.00    -0.203 F 
ATOM     95  C   UNL A   1      45.300  26.192  26.466  1.00  0.00     0.198 A 
ATOM     96  C   UNL A   1      43.571  27.536  25.494  1.00  0.00     0.198 A 
ATOM     97  F   UNL A   1      43.013  29.620  26.428  1.00  0.00    -0.203 F 
ATOM     98  F   UNL A   1      45.980  25.037  26.531  1.00  0.00    -0.200 F 
ATOM     99  C   UNL A   1      44.291  26.352  25.534  1.00  0.00     0.200 A 
ATOM    100  F   UNL A   1      42.575  27.680  24.608  1.00  0.00    -0.200 F 
ATOM    101  F   UNL A   1      43.979  25.349  24.701  1.00  0.00    -0.200 F 
ENDBRANCH  67  91
BRANCH  79 102
ATOM    102  C   UNL A   1      43.492  35.150  29.497  1.00  0.00     0.064 A 
ATOM    103  C   UNL A   1      42.553  35.778  28.665  1.00  0.00     0.173 A 
ATOM    104  C   UNL A   1      44.594  35.938  29.895  1.00  0.00     0.173 A 
ATOM    105  F   UNL A   1      41.503  35.099  28.181  1.00  0.00    -0.203 F 
ATOM    106  C   UNL A   1      42.682  37.119  28.296  1.00  0.00     0.198 A 
ATOM    107  C   UNL A   1      44.749  37.259  29.482  1.00  0.00     0.198 A 
ATOM    108  F   UNL A   1      45.536  35.456  30.719  1.00  0.00    -0.203 F 
ATOM    109  F   UNL A   1      41.732  37.698  27.548  1.00  0.00    -0.200 F 
ATOM    110  C   UNL A   1      43.786  37.855  28.695  1.00  0.00     0.200 A 
ATOM    111  F   UNL A   1      45.834  37.950  29.859  1.00  0.00    -0.200 F 
ATOM    112  F   UNL A   1      43.918  39.136  28.324  1.00  0.00    -0.200 F 
ENDBRANCH  79 102
ENDBRANCH  53  54
ENDBRANCH  45  48
ENDBRANCH  43  44
ENDBRANCH  42  43
ENDBRANCH  41  42
ENDBRANCH  40  41
ENDBRANCH   1  40
TORSDOF 19
ENDMDL
MODEL 2
REMARK VINA RESULT:     -11.9      3.453     10.432
REMARK SMILES Cc1cccc(C(=O)Nc2cc(C(=O)NCCCCCCNC(=O)c3ccc(-c4c5nc(c(-c6c(F)c(F)c(F)c(F)c6F)c6ccc([nH]6)c(-c6c(F)c(F)c(F)c(F)c6F)c6nc(c(-c7c(F)c(F)c(F)c(F)c7F)c7ccc4[nH]7)C=C6)C=C5)cc3)ccc2N2CC[NH+](CC(=O)NC(C)(C)C)CC2)c1
REMARK SMILES IDX 17 1 16 2 15 3 13 4 14 5 12 7 10 8 11 9 90 10 89 11 88 12
REMARK SMILES IDX 9 13 7 14 8 15 6 17 1 18 2 19 3 20 105 21 4 22 5 23 91 24
REMARK SMILES IDX 92 25 104 26 93 27 103 28 94 29 95 31 96 32 97 33 98 34
REMARK SMILES IDX 99 36 100 37 101 38 102 39 18 40 19 41 20 42 21 43 22 44
REMARK SMILES IDX 23 45 24 47 25 48 26 49 87 50 27 51 86 52 28 53 29 54 30 55
REMARK SMILES IDX 80 56 31 57 85 58 79 59 81 60 32 61 84 62 78 63 77 64 33 66
REMARK SMILES IDX 65 67 45 68 64 69 46 70 49 71 63 72 82 73 47 74 48 75 62 77
REMARK SMILES IDX 83 78 50 79 34 80 35 81 43 82 36 83 37 84 41 85 44 86 38 87
REMARK SMILES IDX 39 88 42 89 40 90 66 91 67 92 75 93 68 94 69 95 73 96 76 97
REMARK SMILES IDX 70 98 71 99 74 100 72 101 51 102 52 103 60 104 53 105 54 106
REMARK SMILES IDX 58 107 61 108 55 109 56 110 59 111 57 112
REMARK H PARENT 15 6 9 16 94 30 98 35 22 46 81 65 49 76
REMARK Flexibility Score: inf
ROOT
ATOM      1  C   UNL A   1      34.403  32.824  29.013  1.00  0.00     0.021 C 
ENDROOT
BRANCH   1   2
ATOM      2  C   UNL A   1      34.025  31.852  27.892  1.00  0.00     0.116 C 
BRANCH   2   3
ATOM      3  N   UNL A   1      32.790  32.226  27.231  1.00  0.00    -0.352 N 
ATOM      4  C   UNL A   1      31.818  31.512  26.570  1.00  0.00     0.251 C 
ATOM      5  O   UNL A   1      30.822  32.135  26.199  1.00  0.00    -0.269 OA
ATOM      6  H   UNL A   1      32.609  33.193  27.261  1.00  0.00     0.163 HD
BRANCH   4   7
ATOM      7  C   UNL A   1      31.875  30.039  26.323  1.00  0.00     0.042 A 
ATOM      8  C   UNL A   1      31.853  28.095  24.890  1.00  0.00     0.065 A 
ATOM      9  C   UNL A   1      31.572  29.442  25.108  1.00  0.00     0.042 A 
ATOM     10  C   UNL A   1      32.219  27.223  25.946  1.00  0.00     0.061 A 
ATOM     11  C   UNL A   1      32.417  27.812  27.198  1.00  0.00     0.029 A 
ATOM     12  C   UNL A   1      32.291  29.203  27.372  1.00  0.00     0.016 A 
BRANCH   8  13
ATOM     13  N   UNL A   1      31.793  27.595  23.578  1.00  0.00    -0.320 N 
ATOM     14  C   UNL A   1      30.860  27.836  22.583  1.00  0.00     0.255 C 
ATOM     15  O   UNL A   1      31.079  27.359  21.466  1.00  0.00    -0.269 OA
ATOM     16  H   UNL A   1      32.522  26.980  23.330  1.00  0.00     0.170 HD
BRANCH  14  17
ATOM     17  C   UNL A   1      29.639  28.697  22.744  1.00  0.00     0.040 A 
ATOM     18  C   UNL A   1      28.446  32.327  22.833  1.00  0.00     0.044 C 
ATOM     19  C   UNL A   1      28.430  30.823  22.835  1.00  0.00    -0.050 A 
ATOM     20  C   UNL A   1      27.278  30.150  23.253  1.00  0.00     0.003 A 
ATOM     21  C   UNL A   1      29.582  30.081  22.512  1.00  0.00     0.017 A 
ATOM     22  C   UNL A   1      27.280  28.762  23.364  1.00  0.00     0.001 A 
ATOM     23  C   UNL A   1      28.456  28.046  23.126  1.00  0.00     0.014 A 
ENDBRANCH  14  17
ENDBRANCH   8  13
BRANCH  10  24
ATOM     24  N   UNL A   1      32.457  25.874  25.710  1.00  0.00    -0.359 N 
ATOM     25  C   UNL A   1      31.852  24.785  26.501  1.00  0.00     0.178 C 
ATOM     26  C   UNL A   1      33.798  25.521  25.241  1.00  0.00     0.178 C 
ATOM     27  C   UNL A   1      31.950  23.418  25.739  1.00  0.00     0.284 C 
ATOM     28  C   UNL A   1      33.673  24.319  24.290  1.00  0.00     0.284 C 
ATOM     29  N   UNL A   1      33.166  23.114  24.947  1.00  0.00    -0.324 N 
ATOM     30  H   UNL A   1      32.853  22.462  24.227  1.00  0.00     0.348 HD
BRANCH  29  31
ATOM     31  C   UNL A   1      34.211  22.316  25.615  1.00  0.00     0.363 C 
BRANCH  31  32
ATOM     32  C   UNL A   1      33.716  21.265  26.602  1.00  0.00     0.275 C 
ATOM     33  O   UNL A   1      33.707  21.519  27.813  1.00  0.00    -0.268 OA
ATOM     34  N   UNL A   1      33.266  20.029  26.251  1.00  0.00    -0.347 N 
ATOM     35  H   UNL A   1      32.863  19.581  27.028  1.00  0.00     0.164 HD
BRANCH  34  36
ATOM     36  C   UNL A   1      33.195  19.143  25.054  1.00  0.00     0.032 C 
ATOM     37  C   UNL A   1      32.525  19.860  23.866  1.00  0.00     0.034 C 
ATOM     38  C   UNL A   1      34.656  18.877  24.626  1.00  0.00     0.034 C 
ATOM     39  C   UNL A   1      32.527  17.785  25.285  1.00  0.00     0.034 C 
ENDBRANCH  34  36
ENDBRANCH  31  32
ENDBRANCH  29  31
ENDBRANCH  10  24
ENDBRANCH   4   7
ENDBRANCH   2   3
ENDBRANCH   1   2
BRANCH   1  40
ATOM     40  C   UNL A   1      33.652  34.159  28.964  1.00  0.00     0.002 C 
BRANCH  40  41
ATOM     41  C   UNL A   1      32.903  34.558  30.249  1.00  0.00     0.002 C 
BRANCH  41  42
ATOM     42  C   UNL A   1      32.878  36.056  30.566  1.00  0.00     0.021 C 
BRANCH  42  43
ATOM     43  C   UNL A   1      34.212  36.590  31.067  1.00  0.00     0.116 C 
BRANCH  43  44
ATOM     44  N   UNL A   1      34.405  36.404  32.500  1.00  0.00    -0.352 N 
ATOM     45  C   UNL A   1      34.944  35.330  33.194  1.00  0.00     0.251 C 
ATOM     46  H   UNL A   1      34.106  37.155  33.063  1.00  0.00     0.163 HD
ATOM     47  O   UNL A   1      34.979  35.328  34.404  1.00  0.00    -0.269 OA
BRANCH  45  48
ATOM     48  C   UNL A   1      35.616  34.256  32.422  1.00  0.00     0.039 A 
ATOM     49  C   UNL A   1      35.644  32.978  32.992  1.00  0.00     0.014 A 
ATOM     50  C   UNL A   1      36.400  34.555  31.313  1.00  0.00     0.014 A 
ATOM     51  C   UNL A   1      36.654  32.095  32.625  1.00  0.00     0.010 A 
ATOM     52  C   UNL A   1      37.459  33.721  31.014  1.00  0.00     0.010 A 
ATOM     53  C   UNL A   1      37.630  32.532  31.732  1.00  0.00    -0.014 A 
BRANCH  53  54
ATOM     54  C   UNL A   1      38.925  31.880  31.587  1.00  0.00     0.031 A 
ATOM     55  C   UNL A   1      39.057  30.632  30.812  1.00  0.00     0.074 A 
ATOM     56  C   UNL A   1      40.027  32.491  32.078  1.00  0.00     0.049 A 
ATOM     57  N   UNL A   1      40.070  29.838  30.882  1.00  0.00    -0.248 NA
ATOM     58  C   UNL A   1      38.012  30.158  29.917  1.00  0.00     0.031 C 
ATOM     59  C   UNL A   1      41.424  32.180  31.790  1.00  0.00     0.029 A 
ATOM     60  N   UNL A   1      40.088  33.407  33.141  1.00  0.00    -0.354 N 
ATOM     61  C   UNL A   1      39.947  28.905  29.879  1.00  0.00     0.074 A 
ATOM     62  C   UNL A   1      38.620  29.114  29.345  1.00  0.00     0.031 C 
ATOM     63  C   UNL A   1      42.180  32.615  32.810  1.00  0.00     0.029 A 
ATOM     64  C   UNL A   1      41.272  33.076  33.844  1.00  0.00     0.049 A 
ATOM     65  H   UNL A   1      39.447  34.124  33.353  1.00  0.00     0.167 HD
ATOM     66  C   UNL A   1      41.033  28.143  29.550  1.00  0.00     0.037 A 
ATOM     67  C   UNL A   1      41.217  32.586  35.118  1.00  0.00     0.037 A 
ATOM     68  C   UNL A   1      42.143  28.366  30.478  1.00  0.00     0.049 A 
ATOM     69  C   UNL A   1      41.824  31.208  35.300  1.00  0.00     0.074 A 
ATOM     70  C   UNL A   1      43.315  29.104  30.443  1.00  0.00     0.029 A 
ATOM     71  N   UNL A   1      41.978  27.984  31.797  1.00  0.00    -0.354 N 
ATOM     72  N   UNL A   1      42.245  30.450  34.326  1.00  0.00    -0.248 NA
ATOM     73  C   UNL A   1      41.892  30.535  36.598  1.00  0.00     0.031 C 
ATOM     74  C   UNL A   1      43.852  29.153  31.762  1.00  0.00     0.029 A 
ATOM     75  C   UNL A   1      43.006  28.446  32.595  1.00  0.00     0.049 A 
ATOM     76  H   UNL A   1      41.220  27.449  32.128  1.00  0.00     0.167 HD
ATOM     77  C   UNL A   1      42.566  29.214  34.820  1.00  0.00     0.074 A 
ATOM     78  C   UNL A   1      42.328  29.313  36.248  1.00  0.00     0.031 C 
ATOM     79  C   UNL A   1      42.955  28.180  34.022  1.00  0.00     0.037 A 
BRANCH  66  80
ATOM     80  C   UNL A   1      41.171  27.361  28.262  1.00  0.00     0.064 A 
ATOM     81  C   UNL A   1      40.599  26.075  28.138  1.00  0.00     0.173 A 
ATOM     82  C   UNL A   1      41.896  27.785  27.134  1.00  0.00     0.173 A 
ATOM     83  F   UNL A   1      39.779  25.578  29.073  1.00  0.00    -0.203 F 
ATOM     84  C   UNL A   1      40.848  25.242  27.043  1.00  0.00     0.198 A 
ATOM     85  C   UNL A   1      42.197  26.933  26.066  1.00  0.00     0.198 A 
ATOM     86  F   UNL A   1      42.282  29.057  26.989  1.00  0.00    -0.203 F 
ATOM     87  F   UNL A   1      40.281  24.028  26.990  1.00  0.00    -0.200 F 
ATOM     88  C   UNL A   1      41.683  25.654  26.027  1.00  0.00     0.200 A 
ATOM     89  F   UNL A   1      42.983  27.367  25.071  1.00  0.00    -0.200 F 
ATOM     90  F   UNL A   1      41.963  24.839  25.001  1.00  0.00    -0.200 F 
ENDBRANCH  66  80
BRANCH  67  91
ATOM     91  C   UNL A   1      40.045  33.093  35.884  1.00  0.00     0.064 A 
ATOM     92  C   UNL A   1      38.949  32.234  36.098  1.00  0.00     0.173 A 
ATOM     93  C   UNL A   1      40.134  34.237  36.685  1.00  0.00     0.173 A 
ATOM     94  F   UNL A   1      38.815  31.119  35.361  1.00  0.00    -0.203 F 
ATOM     95  C   UNL A   1      38.056  32.446  37.146  1.00  0.00     0.198 A 
ATOM     96  C   UNL A   1      39.222  34.460  37.717  1.00  0.00     0.198 A 
ATOM     97  F   UNL A   1      41.164  35.086  36.549  1.00  0.00    -0.203 F 
ATOM     98  F   UNL A   1      37.097  31.543  37.401  1.00  0.00    -0.200 F 
ATOM     99  C   UNL A   1      38.209  33.548  37.968  1.00  0.00     0.200 A 
ATOM    100  F   UNL A   1      39.387  35.513  38.531  1.00  0.00    -0.200 F 
ATOM    101  F   UNL A   1      37.408  33.710  39.031  1.00  0.00    -0.200 F 
ENDBRANCH  67  91
BRANCH  79 102
ATOM    102  C   UNL A   1      43.301  26.814  34.540  1.00  0.00     0.064 A 
ATOM    103  C   UNL A   1      44.624  26.358  34.635  1.00  0.00     0.173 A 
ATOM    104  C   UNL A   1      42.296  25.876  34.860  1.00  0.00     0.173 A 
ATOM    105  F   UNL A   1      45.650  27.152  34.294  1.00  0.00    -0.203 F 
ATOM    106  C   UNL A   1      44.923  25.064  35.068  1.00  0.00     0.198 A 
ATOM    107  C   UNL A   1      42.594  24.570  35.240  1.00  0.00     0.198 A 
ATOM    108  F   UNL A   1      40.997  26.209  34.841  1.00  0.00    -0.203 F 
ATOM    109  F   UNL A   1      46.203  24.686  35.200  1.00  0.00    -0.200 F 
ATOM    110  C   UNL A   1      43.909  24.167  35.358  1.00  0.00     0.200 A 
ATOM    111  F   UNL A   1      41.600  23.708  35.496  1.00  0.00    -0.200 F 
ATOM    112  F   UNL A   1      44.198  22.920  35.755  1.00  0.00    -0.200 F 
ENDBRANCH  79 102
ENDBRANCH  53  54
ENDBRANCH  45  48
ENDBRANCH  43  44
ENDBRANCH  42  43
ENDBRANCH  41  42
ENDBRANCH  40  41
ENDBRANCH   1  40
TORSDOF 19
ENDMDL
MODEL 3
REMARK VINA RESULT:     -11.7      3.537     10.215
REMARK SMILES Cc1cccc(C(=O)Nc2cc(C(=O)NCCCCCCNC(=O)c3ccc(-c4c5nc(c(-c6c(F)c(F)c(F)c(F)c6F)c6ccc([nH]6)c(-c6c(F)c(F)c(F)c(F)c6F)c6nc(c(-c7c(F)c(F)c(F)c(F)c7F)c7ccc4[nH]7)C=C6)C=C5)cc3)ccc2N2CC[NH+](CC(=O)NC(C)(C)C)CC2)c1
REMARK SMILES IDX 17 1 16 2 15 3 13 4 14 5 12 7 10 8 11 9 90 10 89 11 88 12
REMARK SMILES IDX 9 13 7 14 8 15 6 17 1 18 2 19 3 20 105 21 4 22 5 23 91 24
REMARK SMILES IDX 92 25 104 26 93 27 103 28 94 29 95 31 96 32 97 33 98 34
REMARK SMILES IDX 99 36 100 37 101 38 102 39 18 40 19 41 20 42 21 43 22 44
REMARK SMILES IDX 23 45 24 47 25 48 26 49 87 50 27 51 86 52 28 53 29 54 30 55
REMARK SMILES IDX 80 56 31 57 85 58 79 59 81 60 32 61 84 62 78 63 77 64 33 66
REMARK SMILES IDX 65 67 45 68 64 69 46 70 49 71 63 72 82 73 47 74 48 75 62 77
REMARK SMILES IDX 83 78 50 79 34 80 35 81 43 82 36 83 37 84 41 85 44 86 38 87
REMARK SMILES IDX 39 88 42 89 40 90 66 91 67 92 75 93 68 94 69 95 73 96 76 97
REMARK SMILES IDX 70 98 71 99 74 100 72 101 51 102 52 103 60 104 53 105 54 106
REMARK SMILES IDX 58 107 61 108 55 109 56 110 59 111 57 112
REMARK H PARENT 15 6 9 16 94 30 98 35 22 46 81 65 49 76
REMARK Flexibility Score: inf
ROOT
ATOM      1  C   UNL A   1      35.700  31.002  28.971  1.00  0.00     0.021 C 
ENDROOT
BRANCH   1   2
ATOM      2  C   UNL A   1      35.134  30.665  27.589  1.00  0.00     0.116 C 
BRANCH   2   3
ATOM      3  N   UNL A   1      33.900  31.372  27.311  1.00  0.00    -0.352 N 
ATOM      4  C   UNL A   1      32.655  30.969  26.886  1.00  0.00     0.251 C 
ATOM      5  O   UNL A   1      31.775  31.830  26.841  1.00  0.00    -0.269 OA
ATOM      6  H   UNL A   1      33.966  32.344  27.455  1.00  0.00     0.163 HD
BRANCH   4   7
ATOM      7  C   UNL A   1      32.299  29.562  26.532  1.00  0.00     0.042 A 
ATOM      8  C   UNL A   1      32.011  27.744  24.969  1.00  0.00     0.065 A 
ATOM      9  C   UNL A   1      32.128  29.107  25.233  1.00  0.00     0.042 A 
ATOM     10  C   UNL A   1      31.813  26.792  26.001  1.00  0.00     0.061 A 
ATOM     11  C   UNL A   1      31.876  27.274  27.312  1.00  0.00     0.029 A 
ATOM     12  C   UNL A   1      32.160  28.628  27.572  1.00  0.00     0.016 A 
BRANCH   8  13
ATOM     13  N   UNL A   1      32.117  27.300  23.640  1.00  0.00    -0.320 N 
ATOM     14  C   UNL A   1      31.270  27.520  22.566  1.00  0.00     0.255 C 
ATOM     15  O   UNL A   1      31.632  27.111  21.459  1.00  0.00    -0.269 OA
ATOM     16  H   UNL A   1      32.910  26.751  23.443  1.00  0.00     0.170 HD
BRANCH  14  17
ATOM     17  C   UNL A   1      29.978  28.285  22.636  1.00  0.00     0.040 A 
ATOM     18  C   UNL A   1      26.317  28.014  23.698  1.00  0.00     0.044 C 
ATOM     19  C   UNL A   1      27.614  28.584  23.193  1.00  0.00    -0.050 A 
ATOM     20  C   UNL A   1      27.608  29.806  22.513  1.00  0.00     0.003 A 
ATOM     21  C   UNL A   1      28.821  27.868  23.312  1.00  0.00     0.017 A 
ATOM     22  C   UNL A   1      28.782  30.296  21.946  1.00  0.00     0.001 A 
ATOM     23  C   UNL A   1      29.951  29.533  21.994  1.00  0.00     0.014 A 
ENDBRANCH  14  17
ENDBRANCH   8  13
BRANCH  10  24
ATOM     24  N   UNL A   1      31.660  25.442  25.709  1.00  0.00    -0.359 N 
ATOM     25  C   UNL A   1      30.602  24.592  26.292  1.00  0.00     0.178 C 
ATOM     26  C   UNL A   1      32.888  24.684  25.465  1.00  0.00     0.178 C 
ATOM     27  C   UNL A   1      30.417  23.278  25.458  1.00  0.00     0.284 C 
ATOM     28  C   UNL A   1      32.584  23.601  24.418  1.00  0.00     0.284 C 
ATOM     29  N   UNL A   1      31.608  22.611  24.879  1.00  0.00    -0.324 N 
ATOM     30  H   UNL A   1      31.255  22.105  24.066  1.00  0.00     0.348 HD
BRANCH  29  31
ATOM     31  C   UNL A   1      32.200  21.511  25.661  1.00  0.00     0.363 C 
BRANCH  31  32
ATOM     32  C   UNL A   1      32.895  20.421  24.856  1.00  0.00     0.275 C 
ATOM     33  O   UNL A   1      32.228  19.495  24.375  1.00  0.00    -0.268 OA
ATOM     34  N   UNL A   1      34.234  20.378  24.609  1.00  0.00    -0.347 N 
ATOM     35  H   UNL A   1      34.436  19.676  23.951  1.00  0.00     0.164 HD
BRANCH  34  36
ATOM     36  C   UNL A   1      35.488  21.067  25.027  1.00  0.00     0.032 C 
ATOM     37  C   UNL A   1      36.696  20.112  24.971  1.00  0.00     0.034 C 
ATOM     38  C   UNL A   1      35.754  22.160  23.968  1.00  0.00     0.034 C 
ATOM     39  C   UNL A   1      35.431  21.753  26.394  1.00  0.00     0.034 C 
ENDBRANCH  34  36
ENDBRANCH  31  32
ENDBRANCH  29  31
ENDBRANCH  10  24
ENDBRANCH   4   7
ENDBRANCH   2   3
ENDBRANCH   1   2
BRANCH   1  40
ATOM     40  C   UNL A   1      35.150  32.299  29.574  1.00  0.00     0.002 C 
BRANCH  40  41
ATOM     41  C   UNL A   1      34.765  32.239  31.064  1.00  0.00     0.002 C 
BRANCH  41  42
ATOM     42  C   UNL A   1      34.312  33.563  31.687  1.00  0.00     0.021 C 
BRANCH  42  43
ATOM     43  C   UNL A   1      35.192  34.744  31.305  1.00  0.00     0.116 C 
BRANCH  43  44
ATOM     44  N   UNL A   1      36.102  35.151  32.370  1.00  0.00    -0.352 N 
ATOM     45  C   UNL A   1      37.242  34.525  32.854  1.00  0.00     0.251 C 
ATOM     46  H   UNL A   1      35.872  35.999  32.814  1.00  0.00     0.163 HD
ATOM     47  O   UNL A   1      37.853  34.988  33.790  1.00  0.00    -0.269 OA
BRANCH  45  48
ATOM     48  C   UNL A   1      37.782  33.364  32.105  1.00  0.00     0.039 A 
ATOM     49  C   UNL A   1      37.808  32.131  32.766  1.00  0.00     0.014 A 
ATOM     50  C   UNL A   1      38.464  33.540  30.905  1.00  0.00     0.014 A 
ATOM     51  C   UNL A   1      38.734  31.171  32.371  1.00  0.00     0.010 A 
ATOM     52  C   UNL A   1      39.448  32.632  30.570  1.00  0.00     0.010 A 
ATOM     53  C   UNL A   1      39.635  31.490  31.357  1.00  0.00    -0.014 A 
BRANCH  53  54
ATOM     54  C   UNL A   1      40.878  30.761  31.138  1.00  0.00     0.031 A 
ATOM     55  C   UNL A   1      40.882  29.489  30.391  1.00  0.00     0.074 A 
ATOM     56  C   UNL A   1      42.044  31.319  31.532  1.00  0.00     0.049 A 
ATOM     57  N   UNL A   1      41.852  28.640  30.409  1.00  0.00    -0.248 NA
ATOM     58  C   UNL A   1      39.750  29.056  29.586  1.00  0.00     0.031 C 
ATOM     59  C   UNL A   1      43.398  30.920  31.153  1.00  0.00     0.029 A 
ATOM     60  N   UNL A   1      42.234  32.254  32.562  1.00  0.00    -0.354 N 
ATOM     61  C   UNL A   1      41.604  27.692  29.444  1.00  0.00     0.074 A 
ATOM     62  C   UNL A   1      40.255  27.965  29.001  1.00  0.00     0.031 C 
ATOM     63  C   UNL A   1      44.249  31.335  32.104  1.00  0.00     0.029 A 
ATOM     64  C   UNL A   1      43.447  31.872  33.188  1.00  0.00     0.049 A 
ATOM     65  H   UNL A   1      41.652  33.012  32.799  1.00  0.00     0.167 HD
ATOM     66  C   UNL A   1      42.618  26.862  29.060  1.00  0.00     0.037 A 
ATOM     67  C   UNL A   1      43.457  31.416  34.475  1.00  0.00     0.037 A 
ATOM     68  C   UNL A   1      43.804  27.041  29.900  1.00  0.00     0.049 A 
ATOM     69  C   UNL A   1      43.998  30.010  34.651  1.00  0.00     0.074 A 
ATOM     70  C   UNL A   1      45.009  27.709  29.760  1.00  0.00     0.029 A 
ATOM     71  N   UNL A   1      43.715  26.701  31.237  1.00  0.00    -0.354 N 
ATOM     72  N   UNL A   1      44.303  29.206  33.671  1.00  0.00    -0.248 NA
ATOM     73  C   UNL A   1      44.123  29.365  35.959  1.00  0.00     0.031 C 
ATOM     74  C   UNL A   1      45.644  27.758  31.036  1.00  0.00     0.029 A 
ATOM     75  C   UNL A   1      44.822  27.121  31.947  1.00  0.00     0.049 A 
ATOM     76  H   UNL A   1      42.955  26.218  31.636  1.00  0.00     0.167 HD
ATOM     77  C   UNL A   1      44.590  27.966  34.175  1.00  0.00     0.074 A 
ATOM     78  C   UNL A   1      44.463  28.112  35.612  1.00  0.00     0.031 C 
ATOM     79  C   UNL A   1      44.861  26.892  33.380  1.00  0.00     0.037 A 
BRANCH  66  80
ATOM     80  C   UNL A   1      42.618  26.042  27.787  1.00  0.00     0.064 A 
ATOM     81  C   UNL A   1      41.769  24.920  27.656  1.00  0.00     0.173 A 
ATOM     82  C   UNL A   1      43.461  26.264  26.684  1.00  0.00     0.173 A 
ATOM     83  F   UNL A   1      40.824  24.644  28.563  1.00  0.00    -0.203 F 
ATOM     84  C   UNL A   1      41.858  24.030  26.582  1.00  0.00     0.198 A 
ATOM     85  C   UNL A   1      43.595  25.344  25.639  1.00  0.00     0.198 A 
ATOM     86  F   UNL A   1      44.135  27.411  26.539  1.00  0.00    -0.203 F 
ATOM     87  F   UNL A   1      41.029  22.979  26.520  1.00  0.00    -0.200 F 
ATOM     88  C   UNL A   1      42.801  24.218  25.595  1.00  0.00     0.200 A 
ATOM     89  F   UNL A   1      44.495  25.566  24.670  1.00  0.00    -0.200 F 
ATOM     90  F   UNL A   1      42.922  23.340  24.590  1.00  0.00    -0.200 F 
ENDBRANCH  66  80
BRANCH  67  91
ATOM     91  C   UNL A   1      42.375  32.008  35.309  1.00  0.00     0.064 A 
ATOM     92  C   UNL A   1      42.527  33.327  35.783  1.00  0.00     0.173 A 
ATOM     93  C   UNL A   1      41.090  31.454  35.343  1.00  0.00     0.173 A 
ATOM     94  F   UNL A   1      43.737  33.911  35.770  1.00  0.00    -0.203 F 
ATOM     95  C   UNL A   1      41.425  34.094  36.156  1.00  0.00     0.198 A 
ATOM     96  C   UNL A   1      39.993  32.218  35.742  1.00  0.00     0.198 A 
ATOM     97  F   UNL A   1      40.872  30.212  34.886  1.00  0.00    -0.203 F 
ATOM     98  F   UNL A   1      41.589  35.384  36.483  1.00  0.00    -0.200 F 
ATOM     99  C   UNL A   1      40.157  33.544  36.112  1.00  0.00     0.200 A 
ATOM    100  F   UNL A   1      38.761  31.694  35.673  1.00  0.00    -0.200 F 
ATOM    101  F   UNL A   1      39.085  34.302  36.383  1.00  0.00    -0.200 F 
ENDBRANCH  67  91
BRANCH  79 102
ATOM    102  C   UNL A   1      45.167  25.521  33.910  1.00  0.00     0.064 A 
ATOM    103  C   UNL A   1      46.463  24.984  33.904  1.00  0.00     0.173 A 
ATOM    104  C   UNL A   1      44.138  24.658  34.346  1.00  0.00     0.173 A 
ATOM    105  F   UNL A   1      47.501  25.701  33.450  1.00  0.00    -0.203 F 
ATOM    106  C   UNL A   1      46.719  23.685  34.351  1.00  0.00     0.198 A 
ATOM    107  C   UNL A   1      44.388  23.346  34.739  1.00  0.00     0.198 A 
ATOM    108  F   UNL A   1      42.866  25.073  34.429  1.00  0.00    -0.203 F 
ATOM    109  F   UNL A   1      47.979  23.230  34.384  1.00  0.00    -0.200 F 
ATOM    110  C   UNL A   1      45.681  22.863  34.756  1.00  0.00     0.200 A 
ATOM    111  F   UNL A   1      43.369  22.557  35.108  1.00  0.00    -0.200 F 
ATOM    112  F   UNL A   1      45.926  21.611  35.166  1.00  0.00    -0.200 F 
ENDBRANCH  79 102
ENDBRANCH  53  54
ENDBRANCH  45  48
ENDBRANCH  43  44
ENDBRANCH  42  43
ENDBRANCH  41  42
ENDBRANCH  40  41
ENDBRANCH   1  40
TORSDOF 19
ENDMDL
