MODEL 1
REMARK VINA RESULT:     -11.0      0.000      0.000
REMARK SMILES CC[N@@H+]([C@@H]1CSCC(C)(C)C1)[C@@H]1COC[C@@H]1C(=O)NCCCCCCNC(=O)c1ccc(-c2c3nc(c(-c4c(F)c(F)c(F)c(F)c4F)c4ccc([nH]4)c(-c4c(F)c(F)c(F)c(F)c4F)c4nc(c(-c5c(F)c(F)c(F)c(F)c5F)c5ccc2[nH]5)C=C4)C=C3)cc1
REMARK SMILES IDX 22 1 21 2 20 3 19 4 17 5 18 6 16 8 12 9 13 10 14 11 15 12
REMARK SMILES IDX 3 13 2 15 1 16 4 17 5 18 11 19 6 20 8 21 7 22 9 23 10 24
REMARK SMILES IDX 23 25 24 26 25 27 26 28 27 29 28 31 29 32 30 33 91 34 31 35
REMARK SMILES IDX 90 36 32 37 33 38 34 39 84 40 35 41 89 42 83 43 85 44 36 45
REMARK SMILES IDX 88 46 82 47 81 48 37 50 69 51 49 52 68 53 50 54 53 55 67 56
REMARK SMILES IDX 86 57 51 58 52 59 66 61 87 62 54 63 38 64 39 65 47 66 40 67
REMARK SMILES IDX 41 68 45 69 48 70 42 71 43 72 46 73 44 74 70 75 71 76 79 77
REMARK SMILES IDX 72 78 73 79 77 80 80 81 74 82 75 83 78 84 76 85 55 86 56 87
REMARK SMILES IDX 64 88 57 89 58 90 62 91 65 92 59 93 60 94 63 95 61 96
REMARK H PARENT 19 7 3 14 26 30 85 49 53 60
REMARK Flexibility Score: inf
ROOT
ATOM      1  C   UNL A   1      34.071  30.521  27.226  1.00  0.00     0.002 C 
ENDROOT
BRANCH   1   2
ATOM      2  C   UNL A   1      34.732  29.147  27.181  1.00  0.00     0.021 C 
BRANCH   2   3
ATOM      3  C   UNL A   1      34.077  28.120  26.242  1.00  0.00     0.116 C 
BRANCH   3   4
ATOM      4  N   UNL A   1      34.137  28.572  24.854  1.00  0.00    -0.356 N 
ATOM      5  C   UNL A   1      33.209  28.671  23.857  1.00  0.00     0.231 C 
ATOM      6  O   UNL A   1      33.610  29.100  22.773  1.00  0.00    -0.274 OA
ATOM      7  H   UNL A   1      35.035  28.870  24.581  1.00  0.00     0.163 HD
BRANCH   5   8
ATOM      8  C   UNL A   1      31.755  28.289  24.086  1.00  0.00     0.164 C 
ATOM      9  C   UNL A   1      31.380  26.807  23.888  1.00  0.00     0.225 C 
ATOM     10  C   UNL A   1      31.192  26.744  22.363  1.00  0.00     0.226 C 
ATOM     11  O   UNL A   1      30.577  27.985  21.992  1.00  0.00    -0.374 OA
ATOM     12  C   UNL A   1      30.881  28.952  23.010  1.00  0.00     0.180 C 
BRANCH   9  13
ATOM     13  N   UNL A   1      32.096  25.673  24.520  1.00  0.00    -0.327 N 
ATOM     14  H   UNL A   1      32.991  26.087  24.783  1.00  0.00     0.348 HD
BRANCH  13  15
ATOM     15  C   UNL A   1      31.417  25.186  25.748  1.00  0.00     0.259 C 
ATOM     16  C   UNL A   1      30.004  25.738  25.878  1.00  0.00     0.071 C 
ENDBRANCH  13  15
BRANCH  13  17
ATOM     17  C   UNL A   1      32.460  24.547  23.620  1.00  0.00     0.194 C 
ATOM     18  C   UNL A   1      31.735  23.209  23.945  1.00  0.00     0.134 C 
ATOM     19  C   UNL A   1      33.946  24.285  23.240  1.00  0.00     0.073 C 
ATOM     20  S   UNL A   1      32.563  22.109  25.126  1.00  0.00    -0.155 SA
ATOM     21  C   UNL A   1      34.833  23.366  24.103  1.00  0.00    -0.021 C 
ATOM     22  C   UNL A   1      34.170  21.995  24.297  1.00  0.00     0.076 C 
ATOM     23  C   UNL A   1      35.190  24.021  25.448  1.00  0.00     0.012 C 
ATOM     24  C   UNL A   1      36.156  23.153  23.325  1.00  0.00     0.012 C 
ENDBRANCH  13  17
ENDBRANCH   9  13
ENDBRANCH   5   8
ENDBRANCH   3   4
ENDBRANCH   2   3
ENDBRANCH   1   2
BRANCH   1  25
ATOM     25  C   UNL A   1      32.539  30.504  27.249  1.00  0.00     0.002 C 
BRANCH  25  26
ATOM     26  C   UNL A   1      31.826  31.864  27.211  1.00  0.00     0.021 C 
BRANCH  26  27
ATOM     27  C   UNL A   1      32.648  33.062  26.728  1.00  0.00     0.116 C 
BRANCH  27  28
ATOM     28  N   UNL A   1      32.458  34.247  27.545  1.00  0.00    -0.352 N 
ATOM     29  C   UNL A   1      33.049  34.665  28.711  1.00  0.00     0.251 C 
ATOM     30  H   UNL A   1      31.780  34.869  27.197  1.00  0.00     0.163 HD
ATOM     31  O   UNL A   1      32.584  35.642  29.293  1.00  0.00    -0.269 OA
BRANCH  29  32
ATOM     32  C   UNL A   1      34.213  33.965  29.301  1.00  0.00     0.039 A 
ATOM     33  C   UNL A   1      35.493  34.435  28.979  1.00  0.00     0.014 A 
ATOM     34  C   UNL A   1      34.080  32.818  30.087  1.00  0.00     0.014 A 
ATOM     35  C   UNL A   1      36.628  33.799  29.492  1.00  0.00     0.010 A 
ATOM     36  C   UNL A   1      35.213  32.216  30.645  1.00  0.00     0.010 A 
ATOM     37  C   UNL A   1      36.498  32.703  30.359  1.00  0.00    -0.014 A 
BRANCH  37  38
ATOM     38  C   UNL A   1      37.693  32.089  30.997  1.00  0.00     0.031 A 
ATOM     39  C   UNL A   1      38.481  31.019  30.293  1.00  0.00     0.074 A 
ATOM     40  C   UNL A   1      38.037  32.461  32.246  1.00  0.00     0.049 A 
ATOM     41  N   UNL A   1      39.508  30.329  30.725  1.00  0.00    -0.248 NA
ATOM     42  C   UNL A   1      38.050  30.666  28.934  1.00  0.00     0.031 C 
ATOM     43  C   UNL A   1      37.336  33.462  33.050  1.00  0.00     0.029 A 
ATOM     44  N   UNL A   1      39.054  32.032  33.062  1.00  0.00    -0.354 N 
ATOM     45  C   UNL A   1      39.836  29.454  29.699  1.00  0.00     0.074 A 
ATOM     46  C   UNL A   1      38.878  29.673  28.637  1.00  0.00     0.031 C 
ATOM     47  C   UNL A   1      37.948  33.580  34.239  1.00  0.00     0.029 A 
ATOM     48  C   UNL A   1      39.060  32.637  34.296  1.00  0.00     0.049 A 
ATOM     49  H   UNL A   1      39.715  31.356  32.790  1.00  0.00     0.167 HD
ATOM     50  C   UNL A   1      40.855  28.560  29.643  1.00  0.00     0.037 A 
ATOM     51  C   UNL A   1      39.864  32.445  35.360  1.00  0.00     0.037 A 
ATOM     52  C   UNL A   1      41.823  28.357  30.690  1.00  0.00     0.049 A 
ATOM     53  C   UNL A   1      40.979  31.440  35.274  1.00  0.00     0.074 A 
ATOM     54  C   UNL A   1      42.926  27.520  30.696  1.00  0.00     0.029 A 
ATOM     55  N   UNL A   1      41.802  28.996  31.921  1.00  0.00    -0.354 N 
ATOM     56  N   UNL A   1      41.316  30.662  34.274  1.00  0.00    -0.248 NA
ATOM     57  C   UNL A   1      41.827  31.286  36.464  1.00  0.00     0.031 C 
ATOM     58  C   UNL A   1      43.547  27.618  31.946  1.00  0.00     0.029 A 
ATOM     59  C   UNL A   1      42.859  28.552  32.702  1.00  0.00     0.049 A 
ATOM     60  H   UNL A   1      41.137  29.666  32.199  1.00  0.00     0.167 HD
ATOM     61  C   UNL A   1      42.426  29.948  34.703  1.00  0.00     0.074 A 
ATOM     62  C   UNL A   1      42.716  30.394  36.050  1.00  0.00     0.031 C 
ATOM     63  C   UNL A   1      43.139  29.006  34.041  1.00  0.00     0.037 A 
BRANCH  50  64
ATOM     64  C   UNL A   1      40.981  27.725  28.401  1.00  0.00     0.064 A 
ATOM     65  C   UNL A   1      40.308  26.501  28.267  1.00  0.00     0.173 A 
ATOM     66  C   UNL A   1      41.733  28.183  27.308  1.00  0.00     0.173 A 
ATOM     67  F   UNL A   1      39.581  26.016  29.285  1.00  0.00    -0.203 F 
ATOM     68  C   UNL A   1      40.405  25.755  27.095  1.00  0.00     0.198 A 
ATOM     69  C   UNL A   1      41.805  27.448  26.129  1.00  0.00     0.198 A 
ATOM     70  F   UNL A   1      42.388  29.352  27.380  1.00  0.00    -0.203 F 
ATOM     71  F   UNL A   1      39.784  24.570  27.005  1.00  0.00    -0.200 F 
ATOM     72  C   UNL A   1      41.146  26.232  26.025  1.00  0.00     0.200 A 
ATOM     73  F   UNL A   1      42.511  27.916  25.090  1.00  0.00    -0.200 F 
ATOM     74  F   UNL A   1      41.229  25.517  24.894  1.00  0.00    -0.200 F 
ENDBRANCH  50  64
BRANCH  51  75
ATOM     75  C   UNL A   1      39.650  33.234  36.600  1.00  0.00     0.064 A 
ATOM     76  C   UNL A   1      38.759  32.794  37.588  1.00  0.00     0.173 A 
ATOM     77  C   UNL A   1      40.327  34.443  36.821  1.00  0.00     0.173 A 
ATOM     78  F   UNL A   1      38.074  31.656  37.412  1.00  0.00    -0.203 F 
ATOM     79  C   UNL A   1      38.538  33.543  38.743  1.00  0.00     0.198 A 
ATOM     80  C   UNL A   1      40.125  35.177  37.989  1.00  0.00     0.198 A 
ATOM     81  F   UNL A   1      41.193  34.905  35.908  1.00  0.00    -0.203 F 
ATOM     82  F   UNL A   1      37.648  33.122  39.651  1.00  0.00    -0.200 F 
ATOM     83  C   UNL A   1      39.226  34.731  38.944  1.00  0.00     0.200 A 
ATOM     84  F   UNL A   1      40.802  36.317  38.186  1.00  0.00    -0.200 F 
ATOM     85  F   UNL A   1      39.015  35.448  40.056  1.00  0.00    -0.200 F 
ENDBRANCH  51  75
BRANCH  63  86
ATOM     86  C   UNL A   1      44.320  28.412  34.751  1.00  0.00     0.064 A 
ATOM     87  C   UNL A   1      45.589  29.007  34.691  1.00  0.00     0.173 A 
ATOM     88  C   UNL A   1      44.174  27.252  35.526  1.00  0.00     0.173 A 
ATOM     89  F   UNL A   1      45.783  30.108  33.948  1.00  0.00    -0.203 F 
ATOM     90  C   UNL A   1      46.674  28.448  35.361  1.00  0.00     0.198 A 
ATOM     91  C   UNL A   1      45.255  26.711  36.217  1.00  0.00     0.198 A 
ATOM     92  F   UNL A   1      42.981  26.646  35.620  1.00  0.00    -0.203 F 
ATOM     93  F   UNL A   1      47.887  29.008  35.252  1.00  0.00    -0.200 F 
ATOM     94  C   UNL A   1      46.505  27.306  36.129  1.00  0.00     0.200 A 
ATOM     95  F   UNL A   1      45.089  25.614  36.968  1.00  0.00    -0.200 F 
ATOM     96  F   UNL A   1      47.549  26.773  36.777  1.00  0.00    -0.200 F 
ENDBRANCH  63  86
ENDBRANCH  37  38
ENDBRANCH  29  32
ENDBRANCH  27  28
ENDBRANCH  26  27
ENDBRANCH  25  26
ENDBRANCH   1  25
TORSDOF 16
ENDMDL
MODEL 2
REMARK VINA RESULT:     -11.0      5.334      9.514
REMARK SMILES CC[N@@H+]([C@@H]1CSCC(C)(C)C1)[C@@H]1COC[C@@H]1C(=O)NCCCCCCNC(=O)c1ccc(-c2c3nc(c(-c4c(F)c(F)c(F)c(F)c4F)c4ccc([nH]4)c(-c4c(F)c(F)c(F)c(F)c4F)c4nc(c(-c5c(F)c(F)c(F)c(F)c5F)c5ccc2[nH]5)C=C4)C=C3)cc1
REMARK SMILES IDX 22 1 21 2 20 3 19 4 17 5 18 6 16 8 12 9 13 10 14 11 15 12
REMARK SMILES IDX 3 13 2 15 1 16 4 17 5 18 11 19 6 20 8 21 7 22 9 23 10 24
REMARK SMILES IDX 23 25 24 26 25 27 26 28 27 29 28 31 29 32 30 33 91 34 31 35
REMARK SMILES IDX 90 36 32 37 33 38 34 39 84 40 35 41 89 42 83 43 85 44 36 45
REMARK SMILES IDX 88 46 82 47 81 48 37 50 69 51 49 52 68 53 50 54 53 55 67 56
REMARK SMILES IDX 86 57 51 58 52 59 66 61 87 62 54 63 38 64 39 65 47 66 40 67
REMARK SMILES IDX 41 68 45 69 48 70 42 71 43 72 46 73 44 74 70 75 71 76 79 77
REMARK SMILES IDX 72 78 73 79 77 80 80 81 74 82 75 83 78 84 76 85 55 86 56 87
REMARK SMILES IDX 64 88 57 89 58 90 62 91 65 92 59 93 60 94 63 95 61 96
REMARK H PARENT 19 7 3 14 26 30 85 49 53 60
REMARK Flexibility Score: inf
ROOT
ATOM      1  C   UNL A   1      38.554  22.450  26.004  1.00  0.00     0.002 C 
ENDROOT
BRANCH   1   2
ATOM      2  C   UNL A   1      37.781  23.758  26.147  1.00  0.00     0.021 C 
BRANCH   2   3
ATOM      3  C   UNL A   1      36.298  23.706  25.745  1.00  0.00     0.116 C 
BRANCH   3   4
ATOM      4  N   UNL A   1      35.530  22.907  26.697  1.00  0.00    -0.356 N 
ATOM      5  C   UNL A   1      34.597  21.918  26.556  1.00  0.00     0.231 C 
ATOM      6  O   UNL A   1      34.132  21.450  27.598  1.00  0.00    -0.274 OA
ATOM      7  H   UNL A   1      35.726  23.126  27.636  1.00  0.00     0.163 HD
BRANCH   5   8
ATOM      8  C   UNL A   1      34.177  21.412  25.185  1.00  0.00     0.164 C 
ATOM      9  C   UNL A   1      33.028  22.163  24.483  1.00  0.00     0.225 C 
ATOM     10  C   UNL A   1      31.798  21.512  25.138  1.00  0.00     0.226 C 
ATOM     11  O   UNL A   1      32.129  20.126  25.302  1.00  0.00    -0.374 OA
ATOM     12  C   UNL A   1      33.561  20.012  25.327  1.00  0.00     0.180 C 
BRANCH   9  13
ATOM     13  N   UNL A   1      32.983  23.632  24.294  1.00  0.00    -0.327 N 
ATOM     14  H   UNL A   1      33.961  23.906  24.400  1.00  0.00     0.348 HD
BRANCH  13  15
ATOM     15  C   UNL A   1      32.527  24.017  22.933  1.00  0.00     0.259 C 
ATOM     16  C   UNL A   1      33.179  23.168  21.850  1.00  0.00     0.071 C 
ENDBRANCH  13  15
BRANCH  13  17
ATOM     17  C   UNL A   1      32.267  24.406  25.342  1.00  0.00     0.194 C 
ATOM     18  C   UNL A   1      30.824  24.831  24.949  1.00  0.00     0.134 C 
ATOM     19  C   UNL A   1      32.986  25.553  26.109  1.00  0.00     0.073 C 
ATOM     20  S   UNL A   1      30.654  26.431  24.110  1.00  0.00    -0.155 SA
ATOM     21  C   UNL A   1      32.957  27.000  25.577  1.00  0.00    -0.021 C 
ATOM     22  C   UNL A   1      31.512  27.460  25.329  1.00  0.00     0.076 C 
ATOM     23  C   UNL A   1      33.829  27.161  24.321  1.00  0.00     0.012 C 
ATOM     24  C   UNL A   1      33.563  27.901  26.683  1.00  0.00     0.012 C 
ENDBRANCH  13  17
ENDBRANCH   9  13
ENDBRANCH   5   8
ENDBRANCH   3   4
ENDBRANCH   2   3
ENDBRANCH   1   2
BRANCH   1  25
ATOM     25  C   UNL A   1      37.978  21.464  24.982  1.00  0.00     0.002 C 
BRANCH  25  26
ATOM     26  C   UNL A   1      38.588  20.055  24.952  1.00  0.00     0.021 C 
BRANCH  26  27
ATOM     27  C   UNL A   1      39.297  19.581  26.223  1.00  0.00     0.116 C 
BRANCH  27  28
ATOM     28  N   UNL A   1      40.535  18.872  25.953  1.00  0.00    -0.352 N 
ATOM     29  C   UNL A   1      41.842  19.285  25.916  1.00  0.00     0.251 C 
ATOM     30  H   UNL A   1      40.414  17.914  25.762  1.00  0.00     0.163 HD
ATOM     31  O   UNL A   1      42.697  18.509  25.495  1.00  0.00    -0.269 OA
BRANCH  29  32
ATOM     32  C   UNL A   1      42.255  20.641  26.347  1.00  0.00     0.039 A 
ATOM     33  C   UNL A   1      42.714  21.529  25.367  1.00  0.00     0.014 A 
ATOM     34  C   UNL A   1      42.281  21.026  27.690  1.00  0.00     0.014 A 
ATOM     35  C   UNL A   1      43.136  22.814  25.722  1.00  0.00     0.010 A 
ATOM     36  C   UNL A   1      42.650  22.329  28.038  1.00  0.00     0.010 A 
ATOM     37  C   UNL A   1      43.075  23.239  27.057  1.00  0.00    -0.014 A 
BRANCH  37  38
ATOM     38  C   UNL A   1      43.416  24.639  27.429  1.00  0.00     0.031 A 
ATOM     39  C   UNL A   1      44.849  25.084  27.530  1.00  0.00     0.074 A 
ATOM     40  C   UNL A   1      42.425  25.500  27.732  1.00  0.00     0.049 A 
ATOM     41  N   UNL A   1      45.330  26.245  27.904  1.00  0.00    -0.248 NA
ATOM     42  C   UNL A   1      45.877  24.093  27.183  1.00  0.00     0.031 C 
ATOM     43  C   UNL A   1      40.997  25.184  27.705  1.00  0.00     0.029 A 
ATOM     44  N   UNL A   1      42.467  26.812  28.133  1.00  0.00    -0.354 N 
ATOM     45  C   UNL A   1      46.711  26.119  27.850  1.00  0.00     0.074 A 
ATOM     46  C   UNL A   1      46.994  24.759  27.443  1.00  0.00     0.031 C 
ATOM     47  C   UNL A   1      40.298  26.273  28.063  1.00  0.00     0.029 A 
ATOM     48  C   UNL A   1      41.228  27.352  28.380  1.00  0.00     0.049 A 
ATOM     49  H   UNL A   1      43.305  27.318  28.234  1.00  0.00     0.167 HD
ATOM     50  C   UNL A   1      47.657  27.058  28.102  1.00  0.00     0.037 A 
ATOM     51  C   UNL A   1      40.879  28.574  28.825  1.00  0.00     0.037 A 
ATOM     52  C   UNL A   1      47.376  28.418  28.485  1.00  0.00     0.049 A 
ATOM     53  C   UNL A   1      41.949  29.592  29.107  1.00  0.00     0.074 A 
ATOM     54  C   UNL A   1      48.268  29.456  28.699  1.00  0.00     0.029 A 
ATOM     55  N   UNL A   1      46.108  28.930  28.715  1.00  0.00    -0.354 N 
ATOM     56  N   UNL A   1      43.249  29.479  28.992  1.00  0.00    -0.248 NA
ATOM     57  C   UNL A   1      41.502  30.911  29.578  1.00  0.00     0.031 C 
ATOM     58  C   UNL A   1      47.543  30.583  29.102  1.00  0.00     0.029 A 
ATOM     59  C   UNL A   1      46.196  30.261  29.093  1.00  0.00     0.049 A 
ATOM     60  H   UNL A   1      45.269  28.423  28.623  1.00  0.00     0.167 HD
ATOM     61  C   UNL A   1      43.774  30.713  29.351  1.00  0.00     0.074 A 
ATOM     62  C   UNL A   1      42.650  31.567  29.674  1.00  0.00     0.031 C 
ATOM     63  C   UNL A   1      45.070  31.102  29.410  1.00  0.00     0.037 A 
BRANCH  50  64
ATOM     64  C   UNL A   1      49.096  26.649  27.971  1.00  0.00     0.064 A 
ATOM     65  C   UNL A   1      49.734  26.595  26.723  1.00  0.00     0.173 A 
ATOM     66  C   UNL A   1      49.863  26.368  29.113  1.00  0.00     0.173 A 
ATOM     67  F   UNL A   1      49.043  26.849  25.601  1.00  0.00    -0.203 F 
ATOM     68  C   UNL A   1      51.079  26.249  26.621  1.00  0.00     0.198 A 
ATOM     69  C   UNL A   1      51.214  26.050  29.008  1.00  0.00     0.198 A 
ATOM     70  F   UNL A   1      49.304  26.416  30.332  1.00  0.00    -0.203 F 
ATOM     71  F   UNL A   1      51.657  26.166  25.413  1.00  0.00    -0.200 F 
ATOM     72  C   UNL A   1      51.819  25.985  27.762  1.00  0.00     0.200 A 
ATOM     73  F   UNL A   1      51.932  25.807  30.114  1.00  0.00    -0.200 F 
ATOM     74  F   UNL A   1      53.117  25.663  27.662  1.00  0.00    -0.200 F 
ENDBRANCH  50  64
BRANCH  51  75
ATOM     75  C   UNL A   1      39.445  28.908  29.021  1.00  0.00     0.064 A 
ATOM     76  C   UNL A   1      38.663  29.378  27.956  1.00  0.00     0.173 A 
ATOM     77  C   UNL A   1      38.829  28.770  30.273  1.00  0.00     0.173 A 
ATOM     78  F   UNL A   1      39.214  29.547  26.746  1.00  0.00    -0.203 F 
ATOM     79  C   UNL A   1      37.324  29.714  28.141  1.00  0.00     0.198 A 
ATOM     80  C   UNL A   1      37.481  29.080  30.450  1.00  0.00     0.198 A 
ATOM     81  F   UNL A   1      39.532  28.320  31.322  1.00  0.00    -0.203 F 
ATOM     82  F   UNL A   1      36.611  30.203  27.117  1.00  0.00    -0.200 F 
ATOM     83  C   UNL A   1      36.733  29.559  29.386  1.00  0.00     0.200 A 
ATOM     84  F   UNL A   1      36.911  28.915  31.651  1.00  0.00    -0.200 F 
ATOM     85  F   UNL A   1      35.444  29.879  29.562  1.00  0.00    -0.200 F 
ENDBRANCH  51  75
BRANCH  63  86
ATOM     86  C   UNL A   1      45.344  32.522  29.813  1.00  0.00     0.064 A 
ATOM     87  C   UNL A   1      45.589  32.871  31.148  1.00  0.00     0.173 A 
ATOM     88  C   UNL A   1      45.392  33.539  28.847  1.00  0.00     0.173 A 
ATOM     89  F   UNL A   1      45.537  31.937  32.111  1.00  0.00    -0.203 F 
ATOM     90  C   UNL A   1      45.849  34.192  31.507  1.00  0.00     0.198 A 
ATOM     91  C   UNL A   1      45.679  34.853  29.205  1.00  0.00     0.198 A 
ATOM     92  F   UNL A   1      45.168  33.256  27.555  1.00  0.00    -0.203 F 
ATOM     93  F   UNL A   1      46.036  34.510  32.795  1.00  0.00    -0.200 F 
ATOM     94  C   UNL A   1      45.902  35.179  30.534  1.00  0.00     0.200 A 
ATOM     95  F   UNL A   1      45.740  35.804  28.264  1.00  0.00    -0.200 F 
ATOM     96  F   UNL A   1      46.157  36.449  30.880  1.00  0.00    -0.200 F 
ENDBRANCH  63  86
ENDBRANCH  37  38
ENDBRANCH  29  32
ENDBRANCH  27  28
ENDBRANCH  26  27
ENDBRANCH  25  26
ENDBRANCH   1  25
TORSDOF 16
ENDMDL
MODEL 3
REMARK VINA RESULT:     -10.9      0.510      7.419
REMARK SMILES CC[N@@H+]([C@@H]1CSCC(C)(C)C1)[C@@H]1COC[C@@H]1C(=O)NCCCCCCNC(=O)c1ccc(-c2c3nc(c(-c4c(F)c(F)c(F)c(F)c4F)c4ccc([nH]4)c(-c4c(F)c(F)c(F)c(F)c4F)c4nc(c(-c5c(F)c(F)c(F)c(F)c5F)c5ccc2[nH]5)C=C4)C=C3)cc1
REMARK SMILES IDX 22 1 21 2 20 3 19 4 17 5 18 6 16 8 12 9 13 10 14 11 15 12
REMARK SMILES IDX 3 13 2 15 1 16 4 17 5 18 11 19 6 20 8 21 7 22 9 23 10 24
REMARK SMILES IDX 23 25 24 26 25 27 26 28 27 29 28 31 29 32 30 33 91 34 31 35
REMARK SMILES IDX 90 36 32 37 33 38 34 39 84 40 35 41 89 42 83 43 85 44 36 45
REMARK SMILES IDX 88 46 82 47 81 48 37 50 69 51 49 52 68 53 50 54 53 55 67 56
REMARK SMILES IDX 86 57 51 58 52 59 66 61 87 62 54 63 38 64 39 65 47 66 40 67
REMARK SMILES IDX 41 68 45 69 48 70 42 71 43 72 46 73 44 74 70 75 71 76 79 77
REMARK SMILES IDX 72 78 73 79 77 80 80 81 74 82 75 83 78 84 76 85 55 86 56 87
REMARK SMILES IDX 64 88 57 89 58 90 62 91 65 92 59 93 60 94 63 95 61 96
REMARK H PARENT 19 7 3 14 26 30 85 49 53 60
REMARK Flexibility Score: inf
ROOT
ATOM      1  C   UNL A   1      34.073  30.610  27.359  1.00  0.00     0.002 C 
ENDROOT
BRANCH   1   2
ATOM      2  C   UNL A   1      34.704  29.231  27.189  1.00  0.00     0.021 C 
BRANCH   2   3
ATOM      3  C   UNL A   1      33.937  28.253  26.284  1.00  0.00     0.116 C 
BRANCH   3   4
ATOM      4  N   UNL A   1      34.035  28.654  24.883  1.00  0.00    -0.356 N 
ATOM      5  C   UNL A   1      33.125  28.766  23.871  1.00  0.00     0.231 C 
ATOM      6  O   UNL A   1      33.559  29.138  22.778  1.00  0.00    -0.274 OA
ATOM      7  H   UNL A   1      34.950  28.897  24.611  1.00  0.00     0.163 HD
BRANCH   5   8
ATOM      8  C   UNL A   1      31.650  28.467  24.094  1.00  0.00     0.164 C 
ATOM      9  C   UNL A   1      31.184  27.018  23.846  1.00  0.00     0.225 C 
ATOM     10  C   UNL A   1      30.988  27.022  22.320  1.00  0.00     0.226 C 
ATOM     11  O   UNL A   1      30.449  28.311  21.997  1.00  0.00    -0.374 OA
ATOM     12  C   UNL A   1      30.815  29.221  23.048  1.00  0.00     0.180 C 
BRANCH   9  13
ATOM     13  N   UNL A   1      31.831  25.821  24.432  1.00  0.00    -0.327 N 
ATOM     14  H   UNL A   1      32.418  26.216  25.167  1.00  0.00     0.348 HD
BRANCH  13  15
ATOM     15  C   UNL A   1      30.852  24.892  25.053  1.00  0.00     0.259 C 
ATOM     16  C   UNL A   1      29.860  25.622  25.948  1.00  0.00     0.071 C 
ENDBRANCH  13  15
BRANCH  13  17
ATOM     17  C   UNL A   1      32.782  25.093  23.551  1.00  0.00     0.194 C 
ATOM     18  C   UNL A   1      32.224  23.762  22.970  1.00  0.00     0.134 C 
ATOM     19  C   UNL A   1      34.274  24.928  23.961  1.00  0.00     0.073 C 
ATOM     20  S   UNL A   1      32.504  22.269  23.960  1.00  0.00    -0.155 SA
ATOM     21  C   UNL A   1      34.735  23.718  24.798  1.00  0.00    -0.021 C 
ATOM     22  C   UNL A   1      34.301  22.401  24.135  1.00  0.00     0.076 C 
ATOM     23  C   UNL A   1      34.244  23.812  26.251  1.00  0.00     0.012 C 
ATOM     24  C   UNL A   1      36.284  23.752  24.827  1.00  0.00     0.012 C 
ENDBRANCH  13  17
ENDBRANCH   9  13
ENDBRANCH   5   8
ENDBRANCH   3   4
ENDBRANCH   2   3
ENDBRANCH   1   2
BRANCH   1  25
ATOM     25  C   UNL A   1      32.544  30.640  27.265  1.00  0.00     0.002 C 
BRANCH  25  26
ATOM     26  C   UNL A   1      31.872  32.022  27.267  1.00  0.00     0.021 C 
BRANCH  26  27
ATOM     27  C   UNL A   1      32.745  33.215  26.867  1.00  0.00     0.116 C 
BRANCH  27  28
ATOM     28  N   UNL A   1      32.501  34.394  27.679  1.00  0.00    -0.352 N 
ATOM     29  C   UNL A   1      33.061  34.836  28.850  1.00  0.00     0.251 C 
ATOM     30  H   UNL A   1      31.804  34.989  27.320  1.00  0.00     0.163 HD
ATOM     31  O   UNL A   1      32.553  35.797  29.424  1.00  0.00    -0.269 OA
BRANCH  29  32
ATOM     32  C   UNL A   1      34.244  34.183  29.456  1.00  0.00     0.039 A 
ATOM     33  C   UNL A   1      34.031  33.301  30.524  1.00  0.00     0.014 A 
ATOM     34  C   UNL A   1      35.550  34.479  29.060  1.00  0.00     0.014 A 
ATOM     35  C   UNL A   1      35.114  32.673  31.146  1.00  0.00     0.010 A 
ATOM     36  C   UNL A   1      36.629  33.809  29.646  1.00  0.00     0.010 A 
ATOM     37  C   UNL A   1      36.422  32.894  30.691  1.00  0.00    -0.014 A 
BRANCH  37  38
ATOM     38  C   UNL A   1      37.570  32.147  31.273  1.00  0.00     0.031 A 
ATOM     39  C   UNL A   1      38.098  32.485  32.640  1.00  0.00     0.074 A 
ATOM     40  C   UNL A   1      38.174  31.193  30.539  1.00  0.00     0.049 A 
ATOM     41  N   UNL A   1      39.129  31.984  33.275  1.00  0.00    -0.248 NA
ATOM     42  C   UNL A   1      37.388  33.535  33.383  1.00  0.00     0.031 C 
ATOM     43  C   UNL A   1      37.780  30.792  29.188  1.00  0.00     0.029 A 
ATOM     44  N   UNL A   1      39.255  30.394  30.820  1.00  0.00    -0.354 N 
ATOM     45  C   UNL A   1      39.199  32.664  34.483  1.00  0.00     0.074 A 
ATOM     46  C   UNL A   1      38.129  33.640  34.478  1.00  0.00     0.031 C 
ATOM     47  C   UNL A   1      38.599  29.818  28.761  1.00  0.00     0.029 A 
ATOM     48  C   UNL A   1      39.598  29.551  29.791  1.00  0.00     0.049 A 
ATOM     49  H   UNL A   1      39.739  30.424  31.677  1.00  0.00     0.167 HD
ATOM     50  C   UNL A   1      40.066  32.481  35.509  1.00  0.00     0.037 A 
ATOM     51  C   UNL A   1      40.610  28.669  29.683  1.00  0.00     0.037 A 
ATOM     52  C   UNL A   1      41.117  31.495  35.524  1.00  0.00     0.049 A 
ATOM     53  C   UNL A   1      41.565  28.493  30.832  1.00  0.00     0.074 A 
ATOM     54  C   UNL A   1      42.003  31.194  36.544  1.00  0.00     0.029 A 
ATOM     55  N   UNL A   1      41.426  30.651  34.467  1.00  0.00    -0.354 N 
ATOM     56  N   UNL A   1      41.581  29.100  31.994  1.00  0.00    -0.248 NA
ATOM     57  C   UNL A   1      42.641  27.507  30.656  1.00  0.00     0.031 C 
ATOM     58  C   UNL A   1      42.877  30.200  36.089  1.00  0.00     0.029 A 
ATOM     59  C   UNL A   1      42.505  29.848  34.803  1.00  0.00     0.049 A 
ATOM     60  H   UNL A   1      40.949  30.627  33.606  1.00  0.00     0.167 HD
ATOM     61  C   UNL A   1      42.648  28.555  32.695  1.00  0.00     0.074 A 
ATOM     62  C   UNL A   1      43.247  27.556  31.833  1.00  0.00     0.031 C 
ATOM     63  C   UNL A   1      43.091  28.856  33.938  1.00  0.00     0.037 A 
BRANCH  50  64
ATOM     64  C   UNL A   1      39.920  33.367  36.712  1.00  0.00     0.064 A 
ATOM     65  C   UNL A   1      40.636  34.567  36.833  1.00  0.00     0.173 A 
ATOM     66  C   UNL A   1      39.006  33.044  37.727  1.00  0.00     0.173 A 
ATOM     67  F   UNL A   1      41.527  34.919  35.892  1.00  0.00    -0.203 F 
ATOM     68  C   UNL A   1      40.463  35.397  37.937  1.00  0.00     0.198 A 
ATOM     69  C   UNL A   1      38.816  33.889  38.817  1.00  0.00     0.198 A 
ATOM     70  F   UNL A   1      38.288  31.912  37.656  1.00  0.00    -0.203 F 
ATOM     71  F   UNL A   1      41.188  36.520  38.049  1.00  0.00    -0.200 F 
ATOM     72  C   UNL A   1      39.548  35.062  38.924  1.00  0.00     0.200 A 
ATOM     73  F   UNL A   1      37.921  33.571  39.763  1.00  0.00    -0.200 F 
ATOM     74  F   UNL A   1      39.375  35.868  39.981  1.00  0.00    -0.200 F 
ENDBRANCH  50  64
BRANCH  51  75
ATOM     75  C   UNL A   1      40.768  27.872  28.440  1.00  0.00     0.064 A 
ATOM     76  C   UNL A   1      41.524  28.359  27.365  1.00  0.00     0.173 A 
ATOM     77  C   UNL A   1      40.164  26.614  28.298  1.00  0.00     0.173 A 
ATOM     78  F   UNL A   1      42.102  29.566  27.445  1.00  0.00    -0.203 F 
ATOM     79  C   UNL A   1      41.656  27.625  26.187  1.00  0.00     0.198 A 
ATOM     80  C   UNL A   1      40.320  25.869  27.130  1.00  0.00     0.198 A 
ATOM     81  F   UNL A   1      39.435  26.102  29.299  1.00  0.00    -0.203 F 
ATOM     82  F   UNL A   1      42.347  28.134  25.158  1.00  0.00    -0.200 F 
ATOM     83  C   UNL A   1      41.058  26.379  26.073  1.00  0.00     0.200 A 
ATOM     84  F   UNL A   1      39.753  24.659  27.030  1.00  0.00    -0.200 F 
ATOM     85  F   UNL A   1      41.188  25.673  24.942  1.00  0.00    -0.200 F 
ENDBRANCH  51  75
BRANCH  63  86
ATOM     86  C   UNL A   1      44.267  28.079  34.456  1.00  0.00     0.064 A 
ATOM     87  C   UNL A   1      44.102  26.855  35.121  1.00  0.00     0.173 A 
ATOM     88  C   UNL A   1      45.574  28.549  34.258  1.00  0.00     0.173 A 
ATOM     89  F   UNL A   1      42.871  26.372  35.349  1.00  0.00    -0.203 F 
ATOM     90  C   UNL A   1      45.202  26.141  35.590  1.00  0.00     0.198 A 
ATOM     91  C   UNL A   1      46.672  27.820  34.704  1.00  0.00     0.198 A 
ATOM     92  F   UNL A   1      45.785  29.713  33.625  1.00  0.00    -0.203 F 
ATOM     93  F   UNL A   1      45.019  24.997  36.262  1.00  0.00    -0.200 F 
ATOM     94  C   UNL A   1      46.486  26.620  35.374  1.00  0.00     0.200 A 
ATOM     95  F   UNL A   1      47.912  28.278  34.487  1.00  0.00    -0.200 F 
ATOM     96  F   UNL A   1      47.544  25.930  35.822  1.00  0.00    -0.200 F 
ENDBRANCH  63  86
ENDBRANCH  37  38
ENDBRANCH  29  32
ENDBRANCH  27  28
ENDBRANCH  26  27
ENDBRANCH  25  26
ENDBRANCH   1  25
TORSDOF 16
ENDMDL
