MODEL 1
REMARK VINA RESULT:     -10.9      0.000      0.000
REMARK SMILES C[NH2+]CCCC(=O)N[C@H]1C=C[C@@H](C(=O)NCCCCCCNC(=O)c2ccc(-c3c4nc(c(-c5c(F)c(F)c(F)c(F)c5F)c5ccc([nH]5)c(-c5c(F)c(F)c(F)c(F)c5F)c5nc(c(-c6c(F)c(F)c(F)c(F)c6F)c6ccc3[nH]6)C=C5)C=C4)cc2)C1
REMARK SMILES IDX 17 1 16 2 15 3 13 4 14 5 12 7 9 8 10 9 88 10 11 11 8 12 6 13
REMARK SMILES IDX 7 14 5 16 4 17 3 18 2 19 1 20 18 23 19 24 20 25 21 26 22 27
REMARK SMILES IDX 23 28 24 30 25 31 26 32 87 33 27 34 86 35 28 36 29 37 30 38
REMARK SMILES IDX 80 39 31 40 85 41 79 42 81 43 32 44 84 45 78 46 77 47 33 49
REMARK SMILES IDX 65 50 45 51 64 52 46 53 49 54 63 55 82 56 47 57 48 58 62 60
REMARK SMILES IDX 83 61 50 62 34 63 35 64 43 65 36 66 37 67 41 68 44 69 38 70
REMARK SMILES IDX 39 71 42 72 40 73 66 74 67 75 75 76 68 77 69 78 73 79 76 80
REMARK SMILES IDX 70 81 71 82 74 83 72 84 51 85 52 86 60 87 53 88 54 89 58 90
REMARK SMILES IDX 61 91 55 92 56 93 59 94 57 95
REMARK H PARENT 15 6 8 15 2 21 2 22 22 29 81 48 49 59
REMARK Flexibility Score: inf
ROOT
ATOM      1  C   UNL A   1      32.901  28.599  27.410  1.00  0.00     0.021 C 
ENDROOT
BRANCH   1   2
ATOM      2  C   UNL A   1      31.469  28.195  27.733  1.00  0.00     0.116 C 
BRANCH   2   3
ATOM      3  N   UNL A   1      31.124  26.942  27.092  1.00  0.00    -0.356 N 
ATOM      4  C   UNL A   1      30.844  26.656  25.791  1.00  0.00     0.227 C 
ATOM      5  O   UNL A   1      30.548  25.490  25.514  1.00  0.00    -0.274 OA
ATOM      6  H   UNL A   1      31.087  26.168  27.700  1.00  0.00     0.163 HD
BRANCH   4   7
ATOM      7  C   UNL A   1      30.925  27.713  24.691  1.00  0.00     0.103 C 
ATOM      8  C   UNL A   1      31.720  27.831  22.368  1.00  0.00     0.106 C 
ATOM      9  C   UNL A   1      30.258  27.531  22.460  1.00  0.00    -0.006 C 
ATOM     10  C   UNL A   1      32.194  27.673  23.825  1.00  0.00     0.047 C 
ATOM     11  C   UNL A   1      29.809  27.526  23.716  1.00  0.00    -0.016 C 
BRANCH   8  12
ATOM     12  N   UNL A   1      32.339  26.892  21.457  1.00  0.00    -0.350 N 
ATOM     13  C   UNL A   1      32.647  25.577  21.625  1.00  0.00     0.220 C 
ATOM     14  O   UNL A   1      33.302  25.019  20.742  1.00  0.00    -0.275 OA
ATOM     15  H   UNL A   1      32.577  27.265  20.577  1.00  0.00     0.164 HD
BRANCH  13  16
ATOM     16  C   UNL A   1      32.168  24.805  22.838  1.00  0.00     0.106 C 
BRANCH  16  17
ATOM     17  C   UNL A   1      33.196  23.825  23.416  1.00  0.00     0.071 C 
BRANCH  17  18
ATOM     18  C   UNL A   1      33.623  24.046  24.869  1.00  0.00     0.260 C 
BRANCH  18  19
ATOM     19  N   UNL A   1      32.736  23.435  25.858  1.00  0.00    -0.349 N 
ATOM     20  C   UNL A   1      32.155  22.179  25.418  1.00  0.00     0.330 C 
ATOM     21  H   UNL A   1      33.272  23.262  26.709  1.00  0.00     0.346 HD
ATOM     22  H   UNL A   1      31.966  24.085  26.012  1.00  0.00     0.346 HD
ENDBRANCH  18  19
ENDBRANCH  17  18
ENDBRANCH  16  17
ENDBRANCH  13  16
ENDBRANCH   8  12
ENDBRANCH   4   7
ENDBRANCH   2   3
ENDBRANCH   1   2
BRANCH   1  23
ATOM     23  C   UNL A   1      33.011  30.010  26.829  1.00  0.00     0.002 C 
BRANCH  23  24
ATOM     24  C   UNL A   1      31.681  30.609  26.364  1.00  0.00     0.002 C 
BRANCH  24  25
ATOM     25  C   UNL A   1      31.489  32.089  26.703  1.00  0.00     0.021 C 
BRANCH  25  26
ATOM     26  C   UNL A   1      32.691  32.737  27.377  1.00  0.00     0.116 C 
BRANCH  26  27
ATOM     27  N   UNL A   1      32.456  34.143  27.671  1.00  0.00    -0.352 N 
ATOM     28  C   UNL A   1      33.036  34.933  28.628  1.00  0.00     0.251 C 
ATOM     29  H   UNL A   1      31.786  34.588  27.103  1.00  0.00     0.163 HD
ATOM     30  O   UNL A   1      32.580  36.044  28.884  1.00  0.00    -0.269 OA
BRANCH  28  31
ATOM     31  C   UNL A   1      34.209  34.428  29.366  1.00  0.00     0.039 A 
ATOM     32  C   UNL A   1      34.014  33.756  30.575  1.00  0.00     0.014 A 
ATOM     33  C   UNL A   1      35.497  34.611  28.855  1.00  0.00     0.014 A 
ATOM     34  C   UNL A   1      35.111  33.213  31.244  1.00  0.00     0.010 A 
ATOM     35  C   UNL A   1      36.578  34.006  29.484  1.00  0.00     0.010 A 
ATOM     36  C   UNL A   1      36.397  33.306  30.687  1.00  0.00    -0.014 A 
BRANCH  36  37
ATOM     37  C   UNL A   1      37.574  32.690  31.345  1.00  0.00     0.031 A 
ATOM     38  C   UNL A   1      38.300  31.559  30.674  1.00  0.00     0.074 A 
ATOM     39  C   UNL A   1      37.938  33.094  32.578  1.00  0.00     0.049 A 
ATOM     40  N   UNL A   1      39.280  30.817  31.125  1.00  0.00    -0.248 NA
ATOM     41  C   UNL A   1      37.845  31.194  29.322  1.00  0.00     0.031 C 
ATOM     42  C   UNL A   1      37.289  34.158  33.345  1.00  0.00     0.029 A 
ATOM     43  N   UNL A   1      38.935  32.646  33.409  1.00  0.00    -0.354 N 
ATOM     44  C   UNL A   1      39.540  29.889  30.125  1.00  0.00     0.074 A 
ATOM     45  C   UNL A   1      38.586  30.127  29.064  1.00  0.00     0.031 C 
ATOM     46  C   UNL A   1      37.914  34.293  34.526  1.00  0.00     0.029 A 
ATOM     47  C   UNL A   1      38.976  33.296  34.617  1.00  0.00     0.049 A 
ATOM     48  H   UNL A   1      39.559  31.926  33.161  1.00  0.00     0.167 HD
ATOM     49  C   UNL A   1      40.503  28.938  30.088  1.00  0.00     0.037 A 
ATOM     50  C   UNL A   1      39.773  33.098  35.686  1.00  0.00     0.037 A 
ATOM     51  C   UNL A   1      41.465  28.725  31.137  1.00  0.00     0.049 A 
ATOM     52  C   UNL A   1      40.820  32.017  35.628  1.00  0.00     0.074 A 
ATOM     53  C   UNL A   1      42.520  27.831  31.170  1.00  0.00     0.029 A 
ATOM     54  N   UNL A   1      41.484  29.412  32.343  1.00  0.00    -0.354 N 
ATOM     55  N   UNL A   1      41.104  31.190  34.651  1.00  0.00    -0.248 NA
ATOM     56  C   UNL A   1      41.658  31.843  36.822  1.00  0.00     0.031 C 
ATOM     57  C   UNL A   1      43.143  27.937  32.417  1.00  0.00     0.029 A 
ATOM     58  C   UNL A   1      42.517  28.941  33.137  1.00  0.00     0.049 A 
ATOM     59  H   UNL A   1      40.857  30.127  32.596  1.00  0.00     0.167 HD
ATOM     60  C   UNL A   1      42.174  30.426  35.095  1.00  0.00     0.074 A 
ATOM     61  C   UNL A   1      42.495  30.892  36.428  1.00  0.00     0.031 C 
ATOM     62  C   UNL A   1      42.834  29.430  34.455  1.00  0.00     0.037 A 
BRANCH  49  63
ATOM     63  C   UNL A   1      40.563  28.053  28.877  1.00  0.00     0.064 A 
ATOM     64  C   UNL A   1      39.835  26.855  28.800  1.00  0.00     0.173 A 
ATOM     65  C   UNL A   1      41.329  28.426  27.762  1.00  0.00     0.173 A 
ATOM     66  F   UNL A   1      39.095  26.447  29.842  1.00  0.00    -0.203 F 
ATOM     67  C   UNL A   1      39.897  26.051  27.665  1.00  0.00     0.198 A 
ATOM     68  C   UNL A   1      41.362  27.636  26.616  1.00  0.00     0.198 A 
ATOM     69  F   UNL A   1      42.039  29.565  27.778  1.00  0.00    -0.203 F 
ATOM     70  F   UNL A   1      39.234  24.886  27.636  1.00  0.00    -0.200 F 
ATOM     71  C   UNL A   1      40.652  26.445  26.572  1.00  0.00     0.200 A 
ATOM     72  F   UNL A   1      42.080  28.027  25.554  1.00  0.00    -0.200 F 
ATOM     73  F   UNL A   1      40.703  25.674  25.477  1.00  0.00    -0.200 F 
ENDBRANCH  49  63
BRANCH  50  74
ATOM     74  C   UNL A   1      39.626  33.952  36.892  1.00  0.00     0.064 A 
ATOM     75  C   UNL A   1      38.850  33.528  37.981  1.00  0.00     0.173 A 
ATOM     76  C   UNL A   1      40.245  35.207  36.984  1.00  0.00     0.173 A 
ATOM     77  F   UNL A   1      38.221  32.345  37.934  1.00  0.00    -0.203 F 
ATOM     78  C   UNL A   1      38.679  34.337  39.103  1.00  0.00     0.198 A 
ATOM     79  C   UNL A   1      40.099  36.001  38.119  1.00  0.00     0.198 A 
ATOM     80  F   UNL A   1      41.003  35.658  35.974  1.00  0.00    -0.203 F 
ATOM     81  F   UNL A   1      37.891  33.928  40.107  1.00  0.00    -0.200 F 
ATOM     82  C   UNL A   1      39.309  35.570  39.174  1.00  0.00     0.200 A 
ATOM     83  F   UNL A   1      40.722  37.186  38.190  1.00  0.00    -0.200 F 
ATOM     84  F   UNL A   1      39.148  36.346  40.255  1.00  0.00    -0.200 F 
ENDBRANCH  50  74
BRANCH  62  85
ATOM     85  C   UNL A   1      44.005  28.808  35.159  1.00  0.00     0.064 A 
ATOM     86  C   UNL A   1      45.304  29.322  35.032  1.00  0.00     0.173 A 
ATOM     87  C   UNL A   1      43.811  27.720  36.024  1.00  0.00     0.173 A 
ATOM     88  F   UNL A   1      45.545  30.352  34.206  1.00  0.00    -0.203 F 
ATOM     89  C   UNL A   1      46.368  28.758  35.731  1.00  0.00     0.198 A 
ATOM     90  C   UNL A   1      44.870  27.179  36.746  1.00  0.00     0.198 A 
ATOM     91  F   UNL A   1      42.587  27.195  36.186  1.00  0.00    -0.203 F 
ATOM     92  F   UNL A   1      47.607  29.239  35.563  1.00  0.00    -0.200 F 
ATOM     93  C   UNL A   1      46.149  27.695  36.595  1.00  0.00     0.200 A 
ATOM     94  F   UNL A   1      44.653  26.163  37.592  1.00  0.00    -0.200 F 
ATOM     95  F   UNL A   1      47.171  27.164  37.279  1.00  0.00    -0.200 F 
ENDBRANCH  62  85
ENDBRANCH  36  37
ENDBRANCH  28  31
ENDBRANCH  26  27
ENDBRANCH  25  26
ENDBRANCH  24  25
ENDBRANCH  23  24
ENDBRANCH   1  23
TORSDOF 18
ENDMDL
MODEL 2
REMARK VINA RESULT:     -10.8      0.968      2.097
REMARK SMILES C[NH2+]CCCC(=O)N[C@H]1C=C[C@@H](C(=O)NCCCCCCNC(=O)c2ccc(-c3c4nc(c(-c5c(F)c(F)c(F)c(F)c5F)c5ccc([nH]5)c(-c5c(F)c(F)c(F)c(F)c5F)c5nc(c(-c6c(F)c(F)c(F)c(F)c6F)c6ccc3[nH]6)C=C5)C=C4)cc2)C1
REMARK SMILES IDX 17 1 16 2 15 3 13 4 14 5 12 7 9 8 10 9 88 10 11 11 8 12 6 13
REMARK SMILES IDX 7 14 5 16 4 17 3 18 2 19 1 20 18 23 19 24 20 25 21 26 22 27
REMARK SMILES IDX 23 28 24 30 25 31 26 32 87 33 27 34 86 35 28 36 29 37 30 38
REMARK SMILES IDX 80 39 31 40 85 41 79 42 81 43 32 44 84 45 78 46 77 47 33 49
REMARK SMILES IDX 65 50 45 51 64 52 46 53 49 54 63 55 82 56 47 57 48 58 62 60
REMARK SMILES IDX 83 61 50 62 34 63 35 64 43 65 36 66 37 67 41 68 44 69 38 70
REMARK SMILES IDX 39 71 42 72 40 73 66 74 67 75 75 76 68 77 69 78 73 79 76 80
REMARK SMILES IDX 70 81 71 82 74 83 72 84 51 85 52 86 60 87 53 88 54 89 58 90
REMARK SMILES IDX 61 91 55 92 56 93 59 94 57 95
REMARK H PARENT 15 6 8 15 2 21 2 22 22 29 81 48 49 59
REMARK Flexibility Score: inf
ROOT
ATOM      1  C   UNL A   1      31.806  29.215  24.366  1.00  0.00     0.021 C 
ENDROOT
BRANCH   1   2
ATOM      2  C   UNL A   1      32.796  28.794  23.288  1.00  0.00     0.116 C 
BRANCH   2   3
ATOM      3  N   UNL A   1      32.162  27.942  22.302  1.00  0.00    -0.356 N 
ATOM      4  C   UNL A   1      32.354  26.627  22.007  1.00  0.00     0.227 C 
ATOM      5  O   UNL A   1      31.689  26.145  21.085  1.00  0.00    -0.274 OA
ATOM      6  H   UNL A   1      31.476  28.390  21.755  1.00  0.00     0.163 HD
BRANCH   4   7
ATOM      7  C   UNL A   1      33.320  25.749  22.801  1.00  0.00     0.103 C 
ATOM      8  C   UNL A   1      33.225  24.325  24.801  1.00  0.00     0.106 C 
ATOM      9  C   UNL A   1      33.008  23.555  23.538  1.00  0.00    -0.006 C 
ATOM     10  C   UNL A   1      33.151  25.788  24.328  1.00  0.00     0.047 C 
ATOM     11  C   UNL A   1      33.119  24.312  22.446  1.00  0.00    -0.016 C 
BRANCH   8  12
ATOM     12  N   UNL A   1      32.190  23.974  25.751  1.00  0.00    -0.350 N 
ATOM     13  C   UNL A   1      32.273  23.305  26.934  1.00  0.00     0.220 C 
ATOM     14  O   UNL A   1      31.222  23.007  27.505  1.00  0.00    -0.275 OA
ATOM     15  H   UNL A   1      31.283  24.265  25.502  1.00  0.00     0.164 HD
BRANCH  13  16
ATOM     16  C   UNL A   1      33.614  22.969  27.556  1.00  0.00     0.106 C 
BRANCH  16  17
ATOM     17  C   UNL A   1      33.997  21.487  27.482  1.00  0.00     0.071 C 
BRANCH  17  18
ATOM     18  C   UNL A   1      33.819  20.792  26.129  1.00  0.00     0.260 C 
BRANCH  18  19
ATOM     19  N   UNL A   1      33.127  19.505  26.200  1.00  0.00    -0.349 N 
ATOM     20  C   UNL A   1      32.584  19.069  24.927  1.00  0.00     0.330 C 
ATOM     21  H   UNL A   1      33.788  18.801  26.527  1.00  0.00     0.346 HD
ATOM     22  H   UNL A   1      32.340  19.623  26.838  1.00  0.00     0.346 HD
ENDBRANCH  18  19
ENDBRANCH  17  18
ENDBRANCH  16  17
ENDBRANCH  13  16
ENDBRANCH   8  12
ENDBRANCH   4   7
ENDBRANCH   2   3
ENDBRANCH   1   2
BRANCH   1  23
ATOM     23  C   UNL A   1      32.478  29.850  25.584  1.00  0.00     0.002 C 
BRANCH  23  24
ATOM     24  C   UNL A   1      31.508  30.504  26.574  1.00  0.00     0.002 C 
BRANCH  24  25
ATOM     25  C   UNL A   1      31.506  32.035  26.555  1.00  0.00     0.021 C 
BRANCH  25  26
ATOM     26  C   UNL A   1      32.672  32.671  27.300  1.00  0.00     0.116 C 
BRANCH  26  27
ATOM     27  N   UNL A   1      32.423  34.073  27.600  1.00  0.00    -0.352 N 
ATOM     28  C   UNL A   1      32.990  34.863  28.566  1.00  0.00     0.251 C 
ATOM     29  H   UNL A   1      31.753  34.516  27.031  1.00  0.00     0.163 HD
ATOM     30  O   UNL A   1      32.523  35.968  28.825  1.00  0.00    -0.269 OA
BRANCH  28  31
ATOM     31  C   UNL A   1      34.162  34.362  29.308  1.00  0.00     0.039 A 
ATOM     32  C   UNL A   1      33.964  33.652  30.494  1.00  0.00     0.014 A 
ATOM     33  C   UNL A   1      35.454  34.589  28.823  1.00  0.00     0.014 A 
ATOM     34  C   UNL A   1      35.063  33.115  31.165  1.00  0.00     0.010 A 
ATOM     35  C   UNL A   1      36.539  33.990  29.452  1.00  0.00     0.010 A 
ATOM     36  C   UNL A   1      36.355  33.252  30.632  1.00  0.00    -0.014 A 
BRANCH  36  37
ATOM     37  C   UNL A   1      37.535  32.645  31.292  1.00  0.00     0.031 A 
ATOM     38  C   UNL A   1      38.272  31.521  30.619  1.00  0.00     0.074 A 
ATOM     39  C   UNL A   1      37.893  33.049  32.526  1.00  0.00     0.049 A 
ATOM     40  N   UNL A   1      39.256  30.785  31.071  1.00  0.00    -0.248 NA
ATOM     41  C   UNL A   1      37.822  31.155  29.265  1.00  0.00     0.031 C 
ATOM     42  C   UNL A   1      37.234  34.105  33.294  1.00  0.00     0.029 A 
ATOM     43  N   UNL A   1      38.891  32.606  33.358  1.00  0.00    -0.354 N 
ATOM     44  C   UNL A   1      39.526  29.862  30.069  1.00  0.00     0.074 A 
ATOM     45  C   UNL A   1      38.572  30.095  29.007  1.00  0.00     0.031 C 
ATOM     46  C   UNL A   1      37.856  34.243  34.476  1.00  0.00     0.029 A 
ATOM     47  C   UNL A   1      38.925  33.254  34.568  1.00  0.00     0.049 A 
ATOM     48  H   UNL A   1      39.522  31.893  33.110  1.00  0.00     0.167 HD
ATOM     49  C   UNL A   1      40.496  28.919  30.033  1.00  0.00     0.037 A 
ATOM     50  C   UNL A   1      39.721  33.060  35.638  1.00  0.00     0.037 A 
ATOM     51  C   UNL A   1      41.458  28.711  31.084  1.00  0.00     0.049 A 
ATOM     52  C   UNL A   1      40.776  31.987  35.580  1.00  0.00     0.074 A 
ATOM     53  C   UNL A   1      42.520  27.825  31.117  1.00  0.00     0.029 A 
ATOM     54  N   UNL A   1      41.469  29.395  32.291  1.00  0.00    -0.354 N 
ATOM     55  N   UNL A   1      41.069  31.165  34.603  1.00  0.00    -0.248 NA
ATOM     56  C   UNL A   1      41.614  31.817  36.775  1.00  0.00     0.031 C 
ATOM     57  C   UNL A   1      43.139  27.933  32.366  1.00  0.00     0.029 A 
ATOM     58  C   UNL A   1      42.503  28.930  33.086  1.00  0.00     0.049 A 
ATOM     59  H   UNL A   1      40.835  30.105  32.544  1.00  0.00     0.167 HD
ATOM     60  C   UNL A   1      42.144  30.409  35.047  1.00  0.00     0.074 A 
ATOM     61  C   UNL A   1      42.458  30.874  36.382  1.00  0.00     0.031 C 
ATOM     62  C   UNL A   1      42.814  29.420  34.406  1.00  0.00     0.037 A 
BRANCH  49  63
ATOM     63  C   UNL A   1      40.566  28.036  28.820  1.00  0.00     0.064 A 
ATOM     64  C   UNL A   1      39.839  26.839  28.734  1.00  0.00     0.173 A 
ATOM     65  C   UNL A   1      41.341  28.412  27.713  1.00  0.00     0.173 A 
ATOM     66  F   UNL A   1      39.090  26.428  29.769  1.00  0.00    -0.203 F 
ATOM     67  C   UNL A   1      39.910  26.038  27.598  1.00  0.00     0.198 A 
ATOM     68  C   UNL A   1      41.383  27.625  26.565  1.00  0.00     0.198 A 
ATOM     69  F   UNL A   1      42.052  29.550  27.738  1.00  0.00    -0.203 F 
ATOM     70  F   UNL A   1      39.246  24.873  27.560  1.00  0.00    -0.200 F 
ATOM     71  C   UNL A   1      40.674  26.434  26.512  1.00  0.00     0.200 A 
ATOM     72  F   UNL A   1      42.110  28.018  25.510  1.00  0.00    -0.200 F 
ATOM     73  F   UNL A   1      40.733  25.666  25.416  1.00  0.00    -0.200 F 
ENDBRANCH  49  63
BRANCH  50  74
ATOM     74  C   UNL A   1      39.565  33.910  36.846  1.00  0.00     0.064 A 
ATOM     75  C   UNL A   1      38.798  33.474  37.936  1.00  0.00     0.173 A 
ATOM     76  C   UNL A   1      40.165  35.174  36.937  1.00  0.00     0.173 A 
ATOM     77  F   UNL A   1      38.187  32.281  37.890  1.00  0.00    -0.203 F 
ATOM     78  C   UNL A   1      38.619  34.279  39.060  1.00  0.00     0.198 A 
ATOM     79  C   UNL A   1      40.011  35.965  38.074  1.00  0.00     0.198 A 
ATOM     80  F   UNL A   1      40.914  35.638  35.926  1.00  0.00    -0.203 F 
ATOM     81  F   UNL A   1      37.840  33.856  40.065  1.00  0.00    -0.200 F 
ATOM     82  C   UNL A   1      39.230  35.521  39.131  1.00  0.00     0.200 A 
ATOM     83  F   UNL A   1      40.616  37.159  38.145  1.00  0.00    -0.200 F 
ATOM     84  F   UNL A   1      39.060  36.293  40.213  1.00  0.00    -0.200 F 
ENDBRANCH  50  74
BRANCH  62  85
ATOM     85  C   UNL A   1      43.988  28.805  35.112  1.00  0.00     0.064 A 
ATOM     86  C   UNL A   1      45.286  29.319  34.974  1.00  0.00     0.173 A 
ATOM     87  C   UNL A   1      43.799  27.725  35.987  1.00  0.00     0.173 A 
ATOM     88  F   UNL A   1      45.522  30.341  34.138  1.00  0.00    -0.203 F 
ATOM     89  C   UNL A   1      46.353  28.762  35.675  1.00  0.00     0.198 A 
ATOM     90  C   UNL A   1      44.861  27.192  36.710  1.00  0.00     0.198 A 
ATOM     91  F   UNL A   1      42.576  27.200  36.159  1.00  0.00    -0.203 F 
ATOM     92  F   UNL A   1      47.591  29.243  35.498  1.00  0.00    -0.200 F 
ATOM     93  C   UNL A   1      46.138  27.707  36.550  1.00  0.00     0.200 A 
ATOM     94  F   UNL A   1      44.648  26.183  37.566  1.00  0.00    -0.200 F 
ATOM     95  F   UNL A   1      47.164  27.184  37.234  1.00  0.00    -0.200 F 
ENDBRANCH  62  85
ENDBRANCH  36  37
ENDBRANCH  28  31
ENDBRANCH  26  27
ENDBRANCH  25  26
ENDBRANCH  24  25
ENDBRANCH  23  24
ENDBRANCH   1  23
TORSDOF 18
ENDMDL
MODEL 3
REMARK VINA RESULT:     -10.8      1.772      7.875
REMARK SMILES C[NH2+]CCCC(=O)N[C@H]1C=C[C@@H](C(=O)NCCCCCCNC(=O)c2ccc(-c3c4nc(c(-c5c(F)c(F)c(F)c(F)c5F)c5ccc([nH]5)c(-c5c(F)c(F)c(F)c(F)c5F)c5nc(c(-c6c(F)c(F)c(F)c(F)c6F)c6ccc3[nH]6)C=C5)C=C4)cc2)C1
REMARK SMILES IDX 17 1 16 2 15 3 13 4 14 5 12 7 9 8 10 9 88 10 11 11 8 12 6 13
REMARK SMILES IDX 7 14 5 16 4 17 3 18 2 19 1 20 18 23 19 24 20 25 21 26 22 27
REMARK SMILES IDX 23 28 24 30 25 31 26 32 87 33 27 34 86 35 28 36 29 37 30 38
REMARK SMILES IDX 80 39 31 40 85 41 79 42 81 43 32 44 84 45 78 46 77 47 33 49
REMARK SMILES IDX 65 50 45 51 64 52 46 53 49 54 63 55 82 56 47 57 48 58 62 60
REMARK SMILES IDX 83 61 50 62 34 63 35 64 43 65 36 66 37 67 41 68 44 69 38 70
REMARK SMILES IDX 39 71 42 72 40 73 66 74 67 75 75 76 68 77 69 78 73 79 76 80
REMARK SMILES IDX 70 81 71 82 74 83 72 84 51 85 52 86 60 87 53 88 54 89 58 90
REMARK SMILES IDX 61 91 55 92 56 93 59 94 57 95
REMARK H PARENT 15 6 8 15 2 21 2 22 22 29 81 48 49 59
REMARK Flexibility Score: inf
ROOT
ATOM      1  C   UNL A   1      34.704  32.636  29.255  1.00  0.00     0.021 C 
ENDROOT
BRANCH   1   2
ATOM      2  C   UNL A   1      34.691  31.416  28.343  1.00  0.00     0.116 C 
BRANCH   2   3
ATOM      3  N   UNL A   1      33.563  31.458  27.434  1.00  0.00    -0.356 N 
ATOM      4  C   UNL A   1      32.808  30.455  26.907  1.00  0.00     0.227 C 
ATOM      5  O   UNL A   1      31.909  30.769  26.122  1.00  0.00    -0.274 OA
ATOM      6  H   UNL A   1      33.299  32.363  27.151  1.00  0.00     0.163 HD
BRANCH   4   7
ATOM      7  C   UNL A   1      33.020  28.991  27.290  1.00  0.00     0.103 C 
ATOM      8  C   UNL A   1      32.255  26.796  26.491  1.00  0.00     0.106 C 
ATOM      9  C   UNL A   1      33.566  27.198  25.897  1.00  0.00    -0.006 C 
ATOM     10  C   UNL A   1      31.780  28.089  27.179  1.00  0.00     0.047 C 
ATOM     11  C   UNL A   1      34.015  28.360  26.373  1.00  0.00    -0.016 C 
BRANCH   8  12
ATOM     12  N   UNL A   1      31.373  26.350  25.433  1.00  0.00    -0.350 N 
ATOM     13  C   UNL A   1      30.910  25.103  25.143  1.00  0.00     0.220 C 
ATOM     14  O   UNL A   1      30.272  24.952  24.098  1.00  0.00    -0.275 OA
ATOM     15  H   UNL A   1      31.061  27.060  24.827  1.00  0.00     0.164 HD
BRANCH  13  16
ATOM     16  C   UNL A   1      31.130  23.941  26.090  1.00  0.00     0.106 C 
BRANCH  16  17
ATOM     17  C   UNL A   1      32.410  23.139  25.827  1.00  0.00     0.071 C 
BRANCH  17  18
ATOM     18  C   UNL A   1      32.284  21.908  24.925  1.00  0.00     0.260 C 
BRANCH  18  19
ATOM     19  N   UNL A   1      32.151  20.643  25.647  1.00  0.00    -0.349 N 
ATOM     20  C   UNL A   1      33.063  19.613  25.184  1.00  0.00     0.330 C 
ATOM     21  H   UNL A   1      32.334  20.815  26.636  1.00  0.00     0.346 HD
ATOM     22  H   UNL A   1      31.204  20.302  25.483  1.00  0.00     0.346 HD
ENDBRANCH  18  19
ENDBRANCH  17  18
ENDBRANCH  16  17
ENDBRANCH  13  16
ENDBRANCH   8  12
ENDBRANCH   4   7
ENDBRANCH   2   3
ENDBRANCH   1   2
BRANCH   1  23
ATOM     23  C   UNL A   1      35.383  33.851  28.622  1.00  0.00     0.002 C 
BRANCH  23  24
ATOM     24  C   UNL A   1      34.415  34.911  28.087  1.00  0.00     0.002 C 
BRANCH  24  25
ATOM     25  C   UNL A   1      33.205  35.187  28.984  1.00  0.00     0.021 C 
BRANCH  25  26
ATOM     26  C   UNL A   1      33.300  36.480  29.783  1.00  0.00     0.116 C 
BRANCH  26  27
ATOM     27  N   UNL A   1      32.425  36.464  30.946  1.00  0.00    -0.352 N 
ATOM     28  C   UNL A   1      32.509  35.700  32.080  1.00  0.00     0.251 C 
ATOM     29  H   UNL A   1      31.665  37.090  30.913  1.00  0.00     0.163 HD
ATOM     30  O   UNL A   1      31.578  35.657  32.877  1.00  0.00    -0.269 OA
BRANCH  28  31
ATOM     31  C   UNL A   1      33.731  34.910  32.327  1.00  0.00     0.039 A 
ATOM     32  C   UNL A   1      34.977  35.525  32.188  1.00  0.00     0.014 A 
ATOM     33  C   UNL A   1      33.639  33.567  32.704  1.00  0.00     0.014 A 
ATOM     34  C   UNL A   1      36.135  34.807  32.489  1.00  0.00     0.010 A 
ATOM     35  C   UNL A   1      34.788  32.878  33.073  1.00  0.00     0.010 A 
ATOM     36  C   UNL A   1      36.047  33.488  32.964  1.00  0.00    -0.014 A 
BRANCH  36  37
ATOM     37  C   UNL A   1      37.255  32.719  33.344  1.00  0.00     0.031 A 
ATOM     38  C   UNL A   1      37.970  33.035  34.628  1.00  0.00     0.074 A 
ATOM     39  C   UNL A   1      37.753  31.794  32.500  1.00  0.00     0.049 A 
ATOM     40  N   UNL A   1      39.097  32.557  35.090  1.00  0.00    -0.248 NA
ATOM     41  C   UNL A   1      37.347  34.048  35.496  1.00  0.00     0.031 C 
ATOM     42  C   UNL A   1      37.168  31.424  31.211  1.00  0.00     0.029 A 
ATOM     43  N   UNL A   1      38.874  31.008  32.594  1.00  0.00    -0.354 N 
ATOM     44  C   UNL A   1      39.327  33.224  36.287  1.00  0.00     0.074 A 
ATOM     45  C   UNL A   1      38.250  34.175  36.457  1.00  0.00     0.031 C 
ATOM     46  C   UNL A   1      37.923  30.471  30.642  1.00  0.00     0.029 A 
ATOM     47  C   UNL A   1      39.069  30.197  31.503  1.00  0.00     0.049 A 
ATOM     48  H   UNL A   1      39.480  31.025  33.369  1.00  0.00     0.167 HD
ATOM     49  C   UNL A   1      40.335  33.042  37.172  1.00  0.00     0.037 A 
ATOM     50  C   UNL A   1      40.070  29.340  31.224  1.00  0.00     0.037 A 
ATOM     51  C   UNL A   1      41.388  32.075  37.007  1.00  0.00     0.049 A 
ATOM     52  C   UNL A   1      41.192  29.175  32.215  1.00  0.00     0.074 A 
ATOM     53  C   UNL A   1      42.419  31.769  37.876  1.00  0.00     0.029 A 
ATOM     54  N   UNL A   1      41.546  31.262  35.894  1.00  0.00    -0.354 N 
ATOM     55  N   UNL A   1      41.364  29.759  33.375  1.00  0.00    -0.248 NA
ATOM     56  C   UNL A   1      42.258  28.229  31.857  1.00  0.00     0.031 C 
ATOM     57  C   UNL A   1      43.234  30.811  37.265  1.00  0.00     0.029 A 
ATOM     58  C   UNL A   1      42.675  30.474  36.043  1.00  0.00     0.049 A 
ATOM     59  H   UNL A   1      40.945  31.248  35.115  1.00  0.00     0.167 HD
ATOM     60  C   UNL A   1      42.532  29.227  33.902  1.00  0.00     0.074 A 
ATOM     61  C   UNL A   1      43.025  28.266  32.938  1.00  0.00     0.031 C 
ATOM     62  C   UNL A   1      43.140  29.507  35.081  1.00  0.00     0.037 A 
BRANCH  49  63
ATOM     63  C   UNL A   1      40.350  33.909  38.398  1.00  0.00     0.064 A 
ATOM     64  C   UNL A   1      41.049  35.125  38.435  1.00  0.00     0.173 A 
ATOM     65  C   UNL A   1      39.624  33.537  39.539  1.00  0.00     0.173 A 
ATOM     66  F   UNL A   1      41.768  35.523  37.374  1.00  0.00    -0.203 F 
ATOM     67  C   UNL A   1      41.046  35.920  39.578  1.00  0.00     0.198 A 
ATOM     68  C   UNL A   1      39.595  34.351  40.669  1.00  0.00     0.198 A 
ATOM     69  F   UNL A   1      38.931  32.388  39.557  1.00  0.00    -0.203 F 
ATOM     70  F   UNL A   1      41.763  37.052  39.606  1.00  0.00    -0.200 F 
ATOM     71  C   UNL A   1      40.313  35.538  40.690  1.00  0.00     0.200 A 
ATOM     72  F   UNL A   1      38.873  33.987  41.738  1.00  0.00    -0.200 F 
ATOM     73  F   UNL A   1      40.303  36.308  41.786  1.00  0.00    -0.200 F 
ENDBRANCH  49  63
BRANCH  50  74
ATOM     74  C   UNL A   1      40.049  28.557  29.961  1.00  0.00     0.064 A 
ATOM     75  C   UNL A   1      39.443  27.294  29.910  1.00  0.00     0.173 A 
ATOM     76  C   UNL A   1      40.638  29.044  28.785  1.00  0.00     0.173 A 
ATOM     77  F   UNL A   1      38.884  26.775  31.013  1.00  0.00    -0.203 F 
ATOM     78  C   UNL A   1      39.447  26.538  28.739  1.00  0.00     0.198 A 
ATOM     79  C   UNL A   1      40.614  28.301  27.606  1.00  0.00     0.198 A 
ATOM     80  F   UNL A   1      41.227  30.249  28.776  1.00  0.00    -0.203 F 
ATOM     81  F   UNL A   1      38.904  25.313  28.733  1.00  0.00    -0.200 F 
ATOM     82  C   UNL A   1      40.028  27.044  27.586  1.00  0.00     0.200 A 
ATOM     83  F   UNL A   1      41.163  28.801  26.490  1.00  0.00    -0.200 F 
ATOM     84  F   UNL A   1      40.029  26.319  26.459  1.00  0.00    -0.200 F 
ENDBRANCH  50  74
BRANCH  62  85
ATOM     85  C   UNL A   1      44.378  28.729  35.426  1.00  0.00     0.064 A 
ATOM     86  C   UNL A   1      44.317  27.506  36.109  1.00  0.00     0.173 A 
ATOM     87  C   UNL A   1      45.638  29.188  35.010  1.00  0.00     0.173 A 
ATOM     88  F   UNL A   1      43.139  27.032  36.541  1.00  0.00    -0.203 F 
ATOM     89  C   UNL A   1      45.474  26.779  36.377  1.00  0.00     0.198 A 
ATOM     90  C   UNL A   1      46.788  28.444  35.250  1.00  0.00     0.198 A 
ATOM     91  F   UNL A   1      45.749  30.350  34.348  1.00  0.00    -0.203 F 
ATOM     92  F   UNL A   1      45.397  25.632  37.066  1.00  0.00    -0.200 F 
ATOM     93  C   UNL A   1      46.707  27.243  35.939  1.00  0.00     0.200 A 
ATOM     94  F   UNL A   1      47.975  28.886  34.813  1.00  0.00    -0.200 F 
ATOM     95  F   UNL A   1      47.816  26.533  36.184  1.00  0.00    -0.200 F 
ENDBRANCH  62  85
ENDBRANCH  36  37
ENDBRANCH  28  31
ENDBRANCH  26  27
ENDBRANCH  25  26
ENDBRANCH  24  25
ENDBRANCH  23  24
ENDBRANCH   1  23
TORSDOF 18
ENDMDL
