MODEL 1
REMARK VINA RESULT:     -13.6      0.000      0.000
REMARK SMILES C[C@@H](NC(=O)[C@H]1CC=CC[C@@H]1C(=O)NCCCCCCNC(=O)c1ccc(-c2c3nc(c(-c4c(F)c(F)c(F)c(F)c4F)c4ccc([nH]4)c(-c4c(F)c(F)c(F)c(F)c4F)c4nc(c(-c5c(F)c(F)c(F)c(F)c5F)c5ccc2[nH]5)C=C4)C=C3)cc1)c1ccc(-n2ccnc2)cc1
REMARK SMILES IDX 16 1 15 2 14 3 12 4 13 5 11 7 6 8 7 9 8 10 10 11 9 12 4 13
REMARK SMILES IDX 3 14 5 16 2 17 1 18 87 19 88 20 97 21 89 22 96 23 90 24
REMARK SMILES IDX 91 25 92 26 95 27 93 28 94 29 17 30 18 31 19 32 20 33 21 34
REMARK SMILES IDX 22 35 23 37 24 38 25 39 86 40 26 41 85 42 27 43 28 44 29 45
REMARK SMILES IDX 79 46 30 47 84 48 78 49 80 50 31 51 83 52 77 53 76 54 32 56
REMARK SMILES IDX 64 57 44 58 63 59 45 60 48 61 62 62 81 63 46 64 47 65 61 67
REMARK SMILES IDX 82 68 49 69 33 70 34 71 42 72 35 73 36 74 40 75 43 76 37 77
REMARK SMILES IDX 38 78 41 79 39 80 65 81 66 82 74 83 67 84 68 85 72 86 75 87
REMARK SMILES IDX 69 88 70 89 73 90 71 91 50 92 51 93 59 94 52 95 53 96 57 97
REMARK SMILES IDX 60 98 54 99 55 100 58 101 56 102
REMARK H PARENT 14 6 3 15 21 36 80 55 48 66
REMARK Flexibility Score: inf
ROOT
ATOM      1  C   UNL A   1      34.862  31.608  27.897  1.00  0.00     0.021 C 
ENDROOT
BRANCH   1   2
ATOM      2  C   UNL A   1      33.945  30.401  27.609  1.00  0.00     0.116 C 
BRANCH   2   3
ATOM      3  N   UNL A   1      33.687  30.130  26.161  1.00  0.00    -0.356 N 
ATOM      4  C   UNL A   1      32.599  29.317  25.539  1.00  0.00     0.224 C 
ATOM      5  O   UNL A   1      31.828  30.322  25.327  1.00  0.00    -0.275 OA
ATOM      6  H   UNL A   1      34.321  30.544  25.532  1.00  0.00     0.163 HD
BRANCH   4   7
ATOM      7  C   UNL A   1      32.434  27.193  25.026  1.00  0.00     0.095 C 
ATOM      8  C   UNL A   1      32.145  26.461  23.388  1.00  0.00     0.095 C 
ATOM      9  C   UNL A   1      30.884  25.592  23.184  1.00  0.00     0.041 C 
ATOM     10  C   UNL A   1      30.326  24.845  24.328  1.00  0.00    -0.030 C 
ATOM     11  C   UNL A   1      31.948  25.781  25.970  1.00  0.00     0.041 C 
ATOM     12  C   UNL A   1      30.794  24.934  25.566  1.00  0.00    -0.030 C 
BRANCH   8  13
ATOM     13  C   UNL A   1      33.445  25.917  22.737  1.00  0.00     0.224 C 
ATOM     14  N   UNL A   1      34.393  25.268  23.501  1.00  0.00    -0.349 N 
ATOM     15  H   UNL A   1      35.321  25.528  23.301  1.00  0.00     0.164 HD
ATOM     16  O   UNL A   1      33.785  26.249  21.598  1.00  0.00    -0.275 OA
BRANCH  14  17
ATOM     17  C   UNL A   1      34.263  24.248  24.571  1.00  0.00     0.109 C 
ATOM     18  C   UNL A   1      35.414  24.505  25.554  1.00  0.00     0.036 C 
BRANCH  17  19
ATOM     19  C   UNL A   1      34.248  22.837  23.984  1.00  0.00    -0.026 A 
ATOM     20  C   UNL A   1      32.630  22.101  23.610  1.00  0.00     0.008 A 
ATOM     21  C   UNL A   1      35.596  21.783  24.532  1.00  0.00     0.008 A 
ATOM     22  C   UNL A   1      32.379  20.353  23.823  1.00  0.00     0.027 A 
ATOM     23  C   UNL A   1      35.255  20.050  24.977  1.00  0.00     0.027 A 
ATOM     24  C   UNL A   1      33.646  19.328  24.572  1.00  0.00     0.046 A 
BRANCH  24  25
ATOM     25  N   UNL A   1      33.507  17.925  24.481  1.00  0.00    -0.306 N 
ATOM     26  C   UNL A   1      32.916  17.077  25.380  1.00  0.00     0.113 A 
ATOM     27  C   UNL A   1      34.139  17.127  23.556  1.00  0.00     0.204 A 
ATOM     28  C   UNL A   1      33.281  15.808  24.986  1.00  0.00     0.131 A 
ATOM     29  N   UNL A   1      34.030  15.848  23.843  1.00  0.00    -0.245 NA
ENDBRANCH  24  25
ENDBRANCH  17  19
ENDBRANCH  14  17
ENDBRANCH   8  13
ENDBRANCH   4   7
ENDBRANCH   2   3
ENDBRANCH   1   2
BRANCH   1  30
ATOM     30  C   UNL A   1      34.526  32.512  29.080  1.00  0.00     0.002 C 
BRANCH  30  31
ATOM     31  C   UNL A   1      34.607  34.014  28.824  1.00  0.00     0.002 C 
BRANCH  31  32
ATOM     32  C   UNL A   1      33.290  34.793  28.914  1.00  0.00     0.021 C 
BRANCH  32  33
ATOM     33  C   UNL A   1      33.358  36.167  29.585  1.00  0.00     0.116 C 
BRANCH  33  34
ATOM     34  N   UNL A   1      32.485  36.270  30.742  1.00  0.00    -0.352 N 
ATOM     35  C   UNL A   1      32.558  35.682  31.979  1.00  0.00     0.251 C 
ATOM     36  H   UNL A   1      31.709  36.863  30.617  1.00  0.00     0.163 HD
ATOM     37  O   UNL A   1      31.597  35.754  32.740  1.00  0.00    -0.269 OA
BRANCH  35  38
ATOM     38  C   UNL A   1      33.772  34.958  32.422  1.00  0.00     0.039 A 
ATOM     39  C   UNL A   1      35.016  35.583  32.267  1.00  0.00     0.014 A 
ATOM     40  C   UNL A   1      33.715  33.643  32.890  1.00  0.00     0.014 A 
ATOM     41  C   UNL A   1      36.190  34.906  32.608  1.00  0.00     0.010 A 
ATOM     42  C   UNL A   1      34.882  32.989  33.290  1.00  0.00     0.010 A 
ATOM     43  C   UNL A   1      36.132  33.606  33.133  1.00  0.00    -0.014 A 
BRANCH  43  44
ATOM     44  C   UNL A   1      37.375  32.864  33.470  1.00  0.00     0.031 A 
ATOM     45  C   UNL A   1      38.107  33.160  34.751  1.00  0.00     0.074 A 
ATOM     46  C   UNL A   1      37.872  31.957  32.609  1.00  0.00     0.049 A 
ATOM     47  N   UNL A   1      39.227  32.656  35.205  1.00  0.00    -0.248 NA
ATOM     48  C   UNL A   1      37.511  34.180  35.628  1.00  0.00     0.031 C 
ATOM     49  C   UNL A   1      37.288  31.617  31.313  1.00  0.00     0.029 A 
ATOM     50  N   UNL A   1      38.989  31.163  32.691  1.00  0.00    -0.354 N 
ATOM     51  C   UNL A   1      39.477  33.309  36.406  1.00  0.00     0.074 A 
ATOM     52  C   UNL A   1      38.421  34.282  36.585  1.00  0.00     0.031 C 
ATOM     53  C   UNL A   1      38.044  30.675  30.724  1.00  0.00     0.029 A 
ATOM     54  C   UNL A   1      39.176  30.361  31.592  1.00  0.00     0.049 A 
ATOM     55  H   UNL A   1      39.599  31.169  33.464  1.00  0.00     0.167 HD
ATOM     56  C   UNL A   1      40.481  33.099  37.293  1.00  0.00     0.037 A 
ATOM     57  C   UNL A   1      40.148  29.471  31.318  1.00  0.00     0.037 A 
ATOM     58  C   UNL A   1      41.516  32.112  37.128  1.00  0.00     0.049 A 
ATOM     59  C   UNL A   1      41.229  29.223  32.335  1.00  0.00     0.074 A 
ATOM     60  C   UNL A   1      42.554  31.793  37.985  1.00  0.00     0.029 A 
ATOM     61  N   UNL A   1      41.638  31.278  36.025  1.00  0.00    -0.354 N 
ATOM     62  N   UNL A   1      41.422  29.806  33.493  1.00  0.00    -0.248 NA
ATOM     63  C   UNL A   1      42.213  28.180  32.016  1.00  0.00     0.031 C 
ATOM     64  C   UNL A   1      43.320  30.785  37.389  1.00  0.00     0.029 A 
ATOM     65  C   UNL A   1      42.736  30.447  36.179  1.00  0.00     0.049 A 
ATOM     66  H   UNL A   1      41.033  31.277  35.248  1.00  0.00     0.167 HD
ATOM     67  C   UNL A   1      42.533  29.188  34.051  1.00  0.00     0.074 A 
ATOM     68  C   UNL A   1      42.961  28.172  33.110  1.00  0.00     0.031 C 
ATOM     69  C   UNL A   1      43.143  29.439  35.235  1.00  0.00     0.037 A 
BRANCH  56  70
ATOM     70  C   UNL A   1      40.496  33.954  38.527  1.00  0.00     0.064 A 
ATOM     71  C   UNL A   1      41.232  35.148  38.583  1.00  0.00     0.173 A 
ATOM     72  C   UNL A   1      39.762  33.584  39.664  1.00  0.00     0.173 A 
ATOM     73  F   UNL A   1      41.961  35.542  37.528  1.00  0.00    -0.203 F 
ATOM     74  C   UNL A   1      41.266  35.917  39.743  1.00  0.00     0.198 A 
ATOM     75  C   UNL A   1      39.773  34.371  40.813  1.00  0.00     0.198 A 
ATOM     76  F   UNL A   1      39.035  32.456  39.662  1.00  0.00    -0.203 F 
ATOM     77  F   UNL A   1      42.024  37.020  39.793  1.00  0.00    -0.200 F 
ATOM     78  C   UNL A   1      40.532  35.531  40.856  1.00  0.00     0.200 A 
ATOM     79  F   UNL A   1      39.055  34.003  41.883  1.00  0.00    -0.200 F 
ATOM     80  F   UNL A   1      40.567  36.270  41.973  1.00  0.00    -0.200 F 
ENDBRANCH  56  70
BRANCH  57  81
ATOM     81  C   UNL A   1      40.114  28.719  30.039  1.00  0.00     0.064 A 
ATOM     82  C   UNL A   1      40.719  29.234  28.884  1.00  0.00     0.173 A 
ATOM     83  C   UNL A   1      39.495  27.463  29.949  1.00  0.00     0.173 A 
ATOM     84  F   UNL A   1      41.305  30.439  28.917  1.00  0.00    -0.203 F 
ATOM     85  C   UNL A   1      40.695  28.528  27.683  1.00  0.00     0.198 A 
ATOM     86  C   UNL A   1      39.494  26.747  28.754  1.00  0.00     0.198 A 
ATOM     87  F   UNL A   1      38.909  26.924  31.028  1.00  0.00    -0.203 F 
ATOM     88  F   UNL A   1      41.252  29.057  26.586  1.00  0.00    -0.200 F 
ATOM     89  C   UNL A   1      40.089  27.281  27.621  1.00  0.00     0.200 A 
ATOM     90  F   UNL A   1      38.920  25.537  28.700  1.00  0.00    -0.200 F 
ATOM     91  F   UNL A   1      40.076  26.598  26.468  1.00  0.00    -0.200 F 
ENDBRANCH  57  81
BRANCH  69  92
ATOM     92  C   UNL A   1      44.321  28.582  35.594  1.00  0.00     0.064 A 
ATOM     93  C   UNL A   1      45.627  28.936  35.227  1.00  0.00     0.173 A 
ATOM     94  C   UNL A   1      44.142  27.408  36.342  1.00  0.00     0.173 A 
ATOM     95  F   UNL A   1      45.847  30.041  34.500  1.00  0.00    -0.203 F 
ATOM     96  C   UNL A   1      46.710  28.132  35.575  1.00  0.00     0.198 A 
ATOM     97  C   UNL A   1      45.229  26.621  36.710  1.00  0.00     0.198 A 
ATOM     98  F   UNL A   1      42.912  27.028  36.721  1.00  0.00    -0.203 F 
ATOM     99  F   UNL A   1      47.944  28.467  35.177  1.00  0.00    -0.200 F 
ATOM    100  C   UNL A   1      46.511  26.980  36.321  1.00  0.00     0.200 A 
ATOM    101  F   UNL A   1      45.037  25.512  37.438  1.00  0.00    -0.200 F 
ATOM    102  F   UNL A   1      47.555  26.210  36.657  1.00  0.00    -0.200 F 
ENDBRANCH  69  92
ENDBRANCH  43  44
ENDBRANCH  35  38
ENDBRANCH  33  34
ENDBRANCH  32  33
ENDBRANCH  31  32
ENDBRANCH  30  31
ENDBRANCH   1  30
TORSDOF 17
ENDMDL
MODEL 2
REMARK VINA RESULT:     -12.9      0.976      2.411
REMARK SMILES C[C@@H](NC(=O)[C@H]1CC=CC[C@@H]1C(=O)NCCCCCCNC(=O)c1ccc(-c2c3nc(c(-c4c(F)c(F)c(F)c(F)c4F)c4ccc([nH]4)c(-c4c(F)c(F)c(F)c(F)c4F)c4nc(c(-c5c(F)c(F)c(F)c(F)c5F)c5ccc2[nH]5)C=C4)C=C3)cc1)c1ccc(-n2ccnc2)cc1
REMARK SMILES IDX 16 1 15 2 14 3 12 4 13 5 11 7 6 8 7 9 8 10 10 11 9 12 4 13
REMARK SMILES IDX 3 14 5 16 2 17 1 18 87 19 88 20 97 21 89 22 96 23 90 24
REMARK SMILES IDX 91 25 92 26 95 27 93 28 94 29 17 30 18 31 19 32 20 33 21 34
REMARK SMILES IDX 22 35 23 37 24 38 25 39 86 40 26 41 85 42 27 43 28 44 29 45
REMARK SMILES IDX 79 46 30 47 84 48 78 49 80 50 31 51 83 52 77 53 76 54 32 56
REMARK SMILES IDX 64 57 44 58 63 59 45 60 48 61 62 62 81 63 46 64 47 65 61 67
REMARK SMILES IDX 82 68 49 69 33 70 34 71 42 72 35 73 36 74 40 75 43 76 37 77
REMARK SMILES IDX 38 78 41 79 39 80 65 81 66 82 74 83 67 84 68 85 72 86 75 87
REMARK SMILES IDX 69 88 70 89 73 90 71 91 50 92 51 93 59 94 52 95 53 96 57 97
REMARK SMILES IDX 60 98 54 99 55 100 58 101 56 102
REMARK H PARENT 14 6 3 15 21 36 80 55 48 66
REMARK Flexibility Score: inf
ROOT
ATOM      1  C   UNL A   1      33.811  31.423  27.703  1.00  0.00     0.021 C 
ENDROOT
BRANCH   1   2
ATOM      2  C   UNL A   1      34.344  30.032  27.300  1.00  0.00     0.116 C 
BRANCH   2   3
ATOM      3  N   UNL A   1      34.017  29.606  25.905  1.00  0.00    -0.356 N 
ATOM      4  C   UNL A   1      33.066  28.550  25.446  1.00  0.00     0.224 C 
ATOM      5  O   UNL A   1      32.090  29.364  25.259  1.00  0.00    -0.275 OA
ATOM      6  H   UNL A   1      34.494  30.088  25.190  1.00  0.00     0.163 HD
BRANCH   4   7
ATOM      7  C   UNL A   1      33.291  26.402  25.073  1.00  0.00     0.095 C 
ATOM      8  C   UNL A   1      32.319  25.040  25.783  1.00  0.00     0.095 C 
ATOM      9  C   UNL A   1      33.058  23.968  26.615  1.00  0.00     0.041 C 
ATOM     10  C   UNL A   1      34.469  23.659  26.311  1.00  0.00    -0.030 C 
ATOM     11  C   UNL A   1      34.673  25.426  24.568  1.00  0.00     0.041 C 
ATOM     12  C   UNL A   1      35.188  24.312  25.407  1.00  0.00    -0.030 C 
BRANCH   8  13
ATOM     13  C   UNL A   1      31.238  24.503  24.807  1.00  0.00     0.224 C 
ATOM     14  N   UNL A   1      31.603  23.861  23.642  1.00  0.00    -0.349 N 
ATOM     15  H   UNL A   1      31.078  24.126  22.853  1.00  0.00     0.164 HD
ATOM     16  O   UNL A   1      30.055  24.836  24.908  1.00  0.00    -0.275 OA
BRANCH  14  17
ATOM     17  C   UNL A   1      32.645  22.841  23.366  1.00  0.00     0.109 C 
ATOM     18  C   UNL A   1      32.987  22.965  21.875  1.00  0.00     0.036 C 
BRANCH  17  19
ATOM     19  C   UNL A   1      32.174  21.448  23.784  1.00  0.00    -0.026 A 
ATOM     20  C   UNL A   1      32.536  20.914  25.483  1.00  0.00     0.008 A 
ATOM     21  C   UNL A   1      32.153  20.236  22.459  1.00  0.00     0.008 A 
ATOM     22  C   UNL A   1      32.902  19.207  25.818  1.00  0.00     0.027 A 
ATOM     23  C   UNL A   1      32.768  18.550  22.777  1.00  0.00     0.027 A 
ATOM     24  C   UNL A   1      33.097  18.030  24.478  1.00  0.00     0.046 A 
BRANCH  24  25
ATOM     25  N   UNL A   1      33.128  16.654  24.799  1.00  0.00    -0.306 N 
ATOM     26  C   UNL A   1      32.128  15.893  25.347  1.00  0.00     0.113 A 
ATOM     27  C   UNL A   1      34.259  15.871  24.812  1.00  0.00     0.204 A 
ATOM     28  C   UNL A   1      32.728  14.713  25.726  1.00  0.00     0.131 A 
ATOM     29  N   UNL A   1      34.050  14.703  25.378  1.00  0.00    -0.245 NA
ENDBRANCH  24  25
ENDBRANCH  17  19
ENDBRANCH  14  17
ENDBRANCH   8  13
ENDBRANCH   4   7
ENDBRANCH   2   3
ENDBRANCH   1   2
BRANCH   1  30
ATOM     30  C   UNL A   1      34.486  32.155  28.860  1.00  0.00     0.002 C 
BRANCH  30  31
ATOM     31  C   UNL A   1      34.592  33.670  28.728  1.00  0.00     0.002 C 
BRANCH  31  32
ATOM     32  C   UNL A   1      33.273  34.451  28.759  1.00  0.00     0.021 C 
BRANCH  32  33
ATOM     33  C   UNL A   1      33.356  35.906  29.226  1.00  0.00     0.116 C 
BRANCH  33  34
ATOM     34  N   UNL A   1      32.527  36.170  30.390  1.00  0.00    -0.352 N 
ATOM     35  C   UNL A   1      32.616  35.712  31.680  1.00  0.00     0.251 C 
ATOM     36  H   UNL A   1      31.774  36.783  30.225  1.00  0.00     0.163 HD
ATOM     37  O   UNL A   1      31.684  35.908  32.456  1.00  0.00    -0.269 OA
BRANCH  35  38
ATOM     38  C   UNL A   1      33.811  34.983  32.162  1.00  0.00     0.039 A 
ATOM     39  C   UNL A   1      35.051  35.633  32.124  1.00  0.00     0.014 A 
ATOM     40  C   UNL A   1      33.747  33.642  32.553  1.00  0.00     0.014 A 
ATOM     41  C   UNL A   1      36.212  34.955  32.505  1.00  0.00     0.010 A 
ATOM     42  C   UNL A   1      34.898  32.985  32.993  1.00  0.00     0.010 A 
ATOM     43  C   UNL A   1      36.144  33.627  32.954  1.00  0.00    -0.014 A 
BRANCH  43  44
ATOM     44  C   UNL A   1      37.376  32.886  33.331  1.00  0.00     0.031 A 
ATOM     45  C   UNL A   1      38.065  33.182  34.636  1.00  0.00     0.074 A 
ATOM     46  C   UNL A   1      37.901  31.979  32.487  1.00  0.00     0.049 A 
ATOM     47  N   UNL A   1      39.170  32.679  35.126  1.00  0.00    -0.248 NA
ATOM     48  C   UNL A   1      37.440  34.203  35.492  1.00  0.00     0.031 C 
ATOM     49  C   UNL A   1      37.359  31.638  31.172  1.00  0.00     0.029 A 
ATOM     50  N   UNL A   1      39.015  31.186  32.605  1.00  0.00    -0.354 N 
ATOM     51  C   UNL A   1      39.380  33.332  36.334  1.00  0.00     0.074 A 
ATOM     52  C   UNL A   1      38.319  34.305  36.478  1.00  0.00     0.031 C 
ATOM     53  C   UNL A   1      38.135  30.697  30.609  1.00  0.00     0.029 A 
ATOM     54  C   UNL A   1      39.238  30.384  31.513  1.00  0.00     0.049 A 
ATOM     55  H   UNL A   1      39.599  31.192  33.398  1.00  0.00     0.167 HD
ATOM     56  C   UNL A   1      40.354  33.123  37.253  1.00  0.00     0.037 A 
ATOM     57  C   UNL A   1      40.219  29.494  31.271  1.00  0.00     0.037 A 
ATOM     58  C   UNL A   1      41.395  32.136  37.122  1.00  0.00     0.049 A 
ATOM     59  C   UNL A   1      41.266  29.247  32.323  1.00  0.00     0.074 A 
ATOM     60  C   UNL A   1      42.405  31.818  38.013  1.00  0.00     0.029 A 
ATOM     61  N   UNL A   1      41.553  31.302  36.024  1.00  0.00    -0.354 N 
ATOM     62  N   UNL A   1      41.421  29.830  33.487  1.00  0.00    -0.248 NA
ATOM     63  C   UNL A   1      42.261  28.204  32.037  1.00  0.00     0.031 C 
ATOM     64  C   UNL A   1      43.190  30.810  37.443  1.00  0.00     0.029 A 
ATOM     65  C   UNL A   1      42.646  30.472  36.214  1.00  0.00     0.049 A 
ATOM     66  H   UNL A   1      40.974  31.300  35.228  1.00  0.00     0.167 HD
ATOM     67  C   UNL A   1      42.513  29.212  34.081  1.00  0.00     0.074 A 
ATOM     68  C   UNL A   1      42.972  28.196  33.155  1.00  0.00     0.031 C 
ATOM     69  C   UNL A   1      43.084  29.463  35.285  1.00  0.00     0.037 A 
BRANCH  56  70
ATOM     70  C   UNL A   1      40.329  33.978  38.487  1.00  0.00     0.064 A 
ATOM     71  C   UNL A   1      39.610  33.596  39.631  1.00  0.00     0.173 A 
ATOM     72  C   UNL A   1      41.035  35.190  38.533  1.00  0.00     0.173 A 
ATOM     73  F   UNL A   1      38.908  32.453  39.635  1.00  0.00    -0.203 F 
ATOM     74  C   UNL A   1      39.566  34.412  40.758  1.00  0.00     0.198 A 
ATOM     75  C   UNL A   1      41.014  35.990  39.674  1.00  0.00     0.198 A 
ATOM     76  F   UNL A   1      41.744  35.601  37.471  1.00  0.00    -0.203 F 
ATOM     77  F   UNL A   1      38.824  34.054  41.814  1.00  0.00    -0.200 F 
ATOM     78  C   UNL A   1      40.271  35.606  40.780  1.00  0.00     0.200 A 
ATOM     79  F   UNL A   1      41.705  37.138  39.698  1.00  0.00    -0.200 F 
ATOM     80  F   UNL A   1      40.227  36.392  41.865  1.00  0.00    -0.200 F 
ENDBRANCH  56  70
BRANCH  57  81
ATOM     81  C   UNL A   1      40.227  28.741  29.992  1.00  0.00     0.064 A 
ATOM     82  C   UNL A   1      39.545  27.524  29.869  1.00  0.00     0.173 A 
ATOM     83  C   UNL A   1      40.899  29.232  28.862  1.00  0.00     0.173 A 
ATOM     84  F   UNL A   1      38.905  27.005  30.927  1.00  0.00    -0.203 F 
ATOM     85  C   UNL A   1      39.543  26.817  28.667  1.00  0.00     0.198 A 
ATOM     86  C   UNL A   1      40.877  28.537  27.655  1.00  0.00     0.198 A 
ATOM     87  F   UNL A   1      41.561  30.396  28.928  1.00  0.00    -0.203 F 
ATOM     88  F   UNL A   1      38.911  25.639  28.586  1.00  0.00    -0.200 F 
ATOM     89  C   UNL A   1      40.204  27.329  27.559  1.00  0.00     0.200 A 
ATOM     90  F   UNL A   1      41.503  29.040  26.583  1.00  0.00    -0.200 F 
ATOM     91  F   UNL A   1      40.194  26.654  26.402  1.00  0.00    -0.200 F 
ENDBRANCH  57  81
BRANCH  69  92
ATOM     92  C   UNL A   1      44.250  28.607  35.682  1.00  0.00     0.064 A 
ATOM     93  C   UNL A   1      44.073  27.392  36.359  1.00  0.00     0.173 A 
ATOM     94  C   UNL A   1      45.558  28.993  35.351  1.00  0.00     0.173 A 
ATOM     95  F   UNL A   1      42.843  26.987  36.709  1.00  0.00    -0.203 F 
ATOM     96  C   UNL A   1      45.167  26.606  36.714  1.00  0.00     0.198 A 
ATOM     97  C   UNL A   1      46.646  28.192  35.685  1.00  0.00     0.198 A 
ATOM     98  F   UNL A   1      45.780  30.145  34.700  1.00  0.00    -0.203 F 
ATOM     99  F   UNL A   1      44.977  25.470  37.399  1.00  0.00    -0.200 F 
ATOM    100  C   UNL A   1      46.450  27.003  36.371  1.00  0.00     0.200 A 
ATOM    101  F   UNL A   1      47.886  28.572  35.345  1.00  0.00    -0.200 F 
ATOM    102  F   UNL A   1      47.501  26.243  36.710  1.00  0.00    -0.200 F 
ENDBRANCH  69  92
ENDBRANCH  43  44
ENDBRANCH  35  38
ENDBRANCH  33  34
ENDBRANCH  32  33
ENDBRANCH  31  32
ENDBRANCH  30  31
ENDBRANCH   1  30
TORSDOF 17
ENDMDL
MODEL 3
REMARK VINA RESULT:     -12.9      6.491     12.591
REMARK SMILES C[C@@H](NC(=O)[C@H]1CC=CC[C@@H]1C(=O)NCCCCCCNC(=O)c1ccc(-c2c3nc(c(-c4c(F)c(F)c(F)c(F)c4F)c4ccc([nH]4)c(-c4c(F)c(F)c(F)c(F)c4F)c4nc(c(-c5c(F)c(F)c(F)c(F)c5F)c5ccc2[nH]5)C=C4)C=C3)cc1)c1ccc(-n2ccnc2)cc1
REMARK SMILES IDX 16 1 15 2 14 3 12 4 13 5 11 7 6 8 7 9 8 10 10 11 9 12 4 13
REMARK SMILES IDX 3 14 5 16 2 17 1 18 87 19 88 20 97 21 89 22 96 23 90 24
REMARK SMILES IDX 91 25 92 26 95 27 93 28 94 29 17 30 18 31 19 32 20 33 21 34
REMARK SMILES IDX 22 35 23 37 24 38 25 39 86 40 26 41 85 42 27 43 28 44 29 45
REMARK SMILES IDX 79 46 30 47 84 48 78 49 80 50 31 51 83 52 77 53 76 54 32 56
REMARK SMILES IDX 64 57 44 58 63 59 45 60 48 61 62 62 81 63 46 64 47 65 61 67
REMARK SMILES IDX 82 68 49 69 33 70 34 71 42 72 35 73 36 74 40 75 43 76 37 77
REMARK SMILES IDX 38 78 41 79 39 80 65 81 66 82 74 83 67 84 68 85 72 86 75 87
REMARK SMILES IDX 69 88 70 89 73 90 71 91 50 92 51 93 59 94 52 95 53 96 57 97
REMARK SMILES IDX 60 98 54 99 55 100 58 101 56 102
REMARK H PARENT 14 6 3 15 21 36 80 55 48 66
REMARK Flexibility Score: inf
ROOT
ATOM      1  C   UNL A   1      40.465  22.245  26.634  1.00  0.00     0.021 C 
ENDROOT
BRANCH   1   2
ATOM      2  C   UNL A   1      39.133  21.722  26.057  1.00  0.00     0.116 C 
BRANCH   2   3
ATOM      3  N   UNL A   1      38.288  22.750  25.376  1.00  0.00    -0.356 N 
ATOM      4  C   UNL A   1      36.836  23.045  25.565  1.00  0.00     0.224 C 
ATOM      5  O   UNL A   1      37.033  23.993  26.410  1.00  0.00    -0.275 OA
ATOM      6  H   UNL A   1      38.753  23.310  24.711  1.00  0.00     0.163 HD
BRANCH   4   7
ATOM      7  C   UNL A   1      35.020  22.255  24.627  1.00  0.00     0.095 C 
ATOM      8  C   UNL A   1      33.451  23.123  24.332  1.00  0.00     0.095 C 
ATOM      9  C   UNL A   1      32.168  22.561  24.985  1.00  0.00     0.041 C 
ATOM     10  C   UNL A   1      32.062  21.113  25.246  1.00  0.00    -0.030 C 
ATOM     11  C   UNL A   1      34.379  20.616  24.482  1.00  0.00     0.041 C 
ATOM     12  C   UNL A   1      33.046  20.250  25.029  1.00  0.00    -0.030 C 
BRANCH   8  13
ATOM     13  C   UNL A   1      33.298  23.603  22.863  1.00  0.00     0.224 C 
ATOM     14  N   UNL A   1      32.197  24.338  22.478  1.00  0.00    -0.349 N 
ATOM     15  H   UNL A   1      31.810  24.066  21.615  1.00  0.00     0.164 HD
ATOM     16  O   UNL A   1      34.007  23.152  21.960  1.00  0.00    -0.275 OA
BRANCH  14  17
ATOM     17  C   UNL A   1      31.490  25.467  23.132  1.00  0.00     0.109 C 
ATOM     18  C   UNL A   1      31.036  26.404  22.003  1.00  0.00     0.036 C 
BRANCH  17  19
ATOM     19  C   UNL A   1      32.378  26.138  24.179  1.00  0.00    -0.026 A 
ATOM     20  C   UNL A   1      31.722  26.281  25.868  1.00  0.00     0.008 A 
ATOM     21  C   UNL A   1      33.457  27.422  23.536  1.00  0.00     0.008 A 
ATOM     22  C   UNL A   1      32.122  27.703  26.858  1.00  0.00     0.027 A 
ATOM     23  C   UNL A   1      33.654  28.977  24.465  1.00  0.00     0.027 A 
ATOM     24  C   UNL A   1      33.017  29.089  26.154  1.00  0.00     0.046 A 
BRANCH  24  25
ATOM     25  N   UNL A   1      33.531  30.067  27.036  1.00  0.00    -0.306 N 
ATOM     26  C   UNL A   1      33.063  31.335  27.254  1.00  0.00     0.113 A 
ATOM     27  C   UNL A   1      34.740  29.984  27.688  1.00  0.00     0.204 A 
ATOM     28  C   UNL A   1      34.050  31.975  27.970  1.00  0.00     0.131 A 
ATOM     29  N   UNL A   1      35.083  31.124  28.248  1.00  0.00    -0.245 NA
ENDBRANCH  24  25
ENDBRANCH  17  19
ENDBRANCH  14  17
ENDBRANCH   8  13
ENDBRANCH   4   7
ENDBRANCH   2   3
ENDBRANCH   1   2
BRANCH   1  30
ATOM     30  C   UNL A   1      41.746  21.474  26.325  1.00  0.00     0.002 C 
BRANCH  30  31
ATOM     31  C   UNL A   1      41.906  20.127  27.023  1.00  0.00     0.002 C 
BRANCH  31  32
ATOM     32  C   UNL A   1      42.237  18.930  26.125  1.00  0.00     0.021 C 
BRANCH  32  33
ATOM     33  C   UNL A   1      43.695  18.462  26.127  1.00  0.00     0.116 C 
BRANCH  33  34
ATOM     34  N   UNL A   1      44.295  18.490  24.803  1.00  0.00    -0.352 N 
ATOM     35  C   UNL A   1      44.713  19.541  24.028  1.00  0.00     0.251 C 
ATOM     36  H   UNL A   1      44.422  17.604  24.394  1.00  0.00     0.163 HD
ATOM     37  O   UNL A   1      45.007  19.344  22.852  1.00  0.00    -0.269 OA
BRANCH  35  38
ATOM     38  C   UNL A   1      44.820  20.913  24.575  1.00  0.00     0.039 A 
ATOM     39  C   UNL A   1      44.359  21.981  23.795  1.00  0.00     0.014 A 
ATOM     40  C   UNL A   1      45.455  21.172  25.792  1.00  0.00     0.014 A 
ATOM     41  C   UNL A   1      44.506  23.296  24.246  1.00  0.00     0.010 A 
ATOM     42  C   UNL A   1      45.545  22.480  26.272  1.00  0.00     0.010 A 
ATOM     43  C   UNL A   1      45.091  23.556  25.495  1.00  0.00    -0.014 A 
BRANCH  43  44
ATOM     44  C   UNL A   1      45.281  24.951  25.971  1.00  0.00     0.031 A 
ATOM     45  C   UNL A   1      46.636  25.599  25.887  1.00  0.00     0.074 A 
ATOM     46  C   UNL A   1      44.251  25.621  26.520  1.00  0.00     0.049 A 
ATOM     47  N   UNL A   1      47.018  26.786  26.288  1.00  0.00    -0.248 NA
ATOM     48  C   UNL A   1      47.715  24.792  25.295  1.00  0.00     0.031 C 
ATOM     49  C   UNL A   1      42.902  25.088  26.708  1.00  0.00     0.029 A 
ATOM     50  N   UNL A   1      44.181  26.893  27.031  1.00  0.00    -0.354 N 
ATOM     51  C   UNL A   1      48.377  26.860  26.014  1.00  0.00     0.074 A 
ATOM     52  C   UNL A   1      48.767  25.581  25.462  1.00  0.00     0.031 C 
ATOM     53  C   UNL A   1      42.135  26.029  27.282  1.00  0.00     0.029 A 
ATOM     54  C   UNL A   1      42.941  27.223  27.521  1.00  0.00     0.049 A 
ATOM     55  H   UNL A   1      44.948  27.511  27.046  1.00  0.00     0.167 HD
ATOM     56  C   UNL A   1      49.221  27.908  26.183  1.00  0.00     0.037 A 
ATOM     57  C   UNL A   1      42.504  28.360  28.094  1.00  0.00     0.037 A 
ATOM     58  C   UNL A   1      48.828  29.190  26.706  1.00  0.00     0.049 A 
ATOM     59  C   UNL A   1      43.447  29.525  28.232  1.00  0.00     0.074 A 
ATOM     60  C   UNL A   1      49.595  30.328  26.880  1.00  0.00     0.029 A 
ATOM     61  N   UNL A   1      47.546  29.502  27.139  1.00  0.00    -0.354 N 
ATOM     62  N   UNL A   1      44.717  29.602  27.916  1.00  0.00    -0.248 NA
ATOM     63  C   UNL A   1      42.889  30.766  28.787  1.00  0.00     0.031 C 
ATOM     64  C   UNL A   1      48.786  31.321  27.442  1.00  0.00     0.029 A 
ATOM     65  C   UNL A   1      47.503  30.815  27.582  1.00  0.00     0.049 A 
ATOM     66  H   UNL A   1      46.781  28.883  27.132  1.00  0.00     0.167 HD
ATOM     67  C   UNL A   1      45.105  30.901  28.211  1.00  0.00     0.074 A 
ATOM     68  C   UNL A   1      43.930  31.583  28.716  1.00  0.00     0.031 C 
ATOM     69  C   UNL A   1      46.324  31.478  28.076  1.00  0.00     0.037 A 
BRANCH  56  70
ATOM     70  C   UNL A   1      50.654  27.705  25.784  1.00  0.00     0.064 A 
ATOM     71  C   UNL A   1      51.634  27.348  26.725  1.00  0.00     0.173 A 
ATOM     72  C   UNL A   1      51.056  27.861  24.449  1.00  0.00     0.173 A 
ATOM     73  F   UNL A   1      51.306  27.198  28.017  1.00  0.00    -0.203 F 
ATOM     74  C   UNL A   1      52.966  27.194  26.351  1.00  0.00     0.198 A 
ATOM     75  C   UNL A   1      52.384  27.677  24.073  1.00  0.00     0.198 A 
ATOM     76  F   UNL A   1      50.160  28.195  23.508  1.00  0.00    -0.203 F 
ATOM     77  F   UNL A   1      53.892  26.912  27.277  1.00  0.00    -0.200 F 
ATOM     78  C   UNL A   1      53.340  27.354  25.025  1.00  0.00     0.200 A 
ATOM     79  F   UNL A   1      52.742  27.821  22.789  1.00  0.00    -0.200 F 
ATOM     80  F   UNL A   1      54.623  27.209  24.666  1.00  0.00    -0.200 F 
ENDBRANCH  56  70
BRANCH  57  81
ATOM     81  C   UNL A   1      41.092  28.461  28.539  1.00  0.00     0.064 A 
ATOM     82  C   UNL A   1      40.097  28.935  27.674  1.00  0.00     0.173 A 
ATOM     83  C   UNL A   1      40.704  28.067  29.828  1.00  0.00     0.173 A 
ATOM     84  F   UNL A   1      40.423  29.342  26.438  1.00  0.00    -0.203 F 
ATOM     85  C   UNL A   1      38.768  29.025  28.085  1.00  0.00     0.198 A 
ATOM     86  C   UNL A   1      39.372  28.134  30.230  1.00  0.00     0.198 A 
ATOM     87  F   UNL A   1      41.619  27.599  30.690  1.00  0.00    -0.203 F 
ATOM     88  F   UNL A   1      37.842  29.514  27.250  1.00  0.00    -0.200 F 
ATOM     89  C   UNL A   1      38.406  28.617  29.361  1.00  0.00     0.200 A 
ATOM     90  F   UNL A   1      39.023  27.727  31.458  1.00  0.00    -0.200 F 
ATOM     91  F   UNL A   1      37.127  28.695  29.752  1.00  0.00    -0.200 F 
ENDBRANCH  57  81
BRANCH  69  92
ATOM     92  C   UNL A   1      46.443  32.925  28.452  1.00  0.00     0.064 A 
ATOM     93  C   UNL A   1      46.136  33.948  27.544  1.00  0.00     0.173 A 
ATOM     94  C   UNL A   1      46.839  33.290  29.748  1.00  0.00     0.173 A 
ATOM     95  F   UNL A   1      45.767  33.650  26.290  1.00  0.00    -0.203 F 
ATOM     96  C   UNL A   1      46.245  35.287  27.913  1.00  0.00     0.198 A 
ATOM     97  C   UNL A   1      46.923  34.629  30.120  1.00  0.00     0.198 A 
ATOM     98  F   UNL A   1      47.140  32.348  30.654  1.00  0.00    -0.203 F 
ATOM     99  F   UNL A   1      45.988  36.249  27.016  1.00  0.00    -0.200 F 
ATOM    100  C   UNL A   1      46.632  35.625  29.201  1.00  0.00     0.200 A 
ATOM    101  F   UNL A   1      47.287  34.954  31.368  1.00  0.00    -0.200 F 
ATOM    102  F   UNL A   1      46.732  36.915  29.555  1.00  0.00    -0.200 F 
ENDBRANCH  69  92
ENDBRANCH  43  44
ENDBRANCH  35  38
ENDBRANCH  33  34
ENDBRANCH  32  33
ENDBRANCH  31  32
ENDBRANCH  30  31
ENDBRANCH   1  30
TORSDOF 17
ENDMDL
