MODEL 1
REMARK VINA RESULT:     -12.9      0.000      0.000
REMARK SMILES O=C(NCCCCCCNC(=O)c1cc(Br)n(Cc2ccn(C3CCCC3)n2)c1)c1ccc(-c2c3nc(c(-c4c(F)c(F)c(F)c(F)c4F)c4ccc([nH]4)c(-c4c(F)c(F)c(F)c(F)c4F)c4nc(c(-c5c(F)c(F)c(F)c(F)c5F)c5ccc2[nH]5)C=C4)C=C3)cc1
REMARK SMILES IDX 7 1 6 2 5 3 4 4 3 5 1 6 2 7 30 9 31 10 92 11 32 12 91 13
REMARK SMILES IDX 33 14 34 15 35 16 85 17 36 18 90 19 84 20 86 21 37 22 89 23
REMARK SMILES IDX 83 24 82 25 38 27 70 28 50 29 69 30 51 31 54 32 68 33 87 34
REMARK SMILES IDX 52 35 53 36 67 38 88 39 55 40 39 41 40 42 48 43 41 44 42 45
REMARK SMILES IDX 46 46 49 47 43 48 44 49 47 50 45 51 71 52 72 53 80 54 73 55
REMARK SMILES IDX 74 56 78 57 81 58 75 59 76 60 79 61 77 62 56 63 57 64 65 65
REMARK SMILES IDX 58 66 59 67 63 68 66 69 60 70 61 71 64 72 62 73 8 74 9 75
REMARK SMILES IDX 10 76 11 77 12 79 13 80 14 81 29 82 15 83 17 84 16 85 18 86
REMARK SMILES IDX 19 87 20 88 28 89 21 90 22 91 23 92 24 93 27 94 25 95 26 96
REMARK H PARENT 3 8 86 26 54 37 10 78
REMARK Flexibility Score: inf
ROOT
ATOM      1  C   UNL A   1      35.223  22.104  25.994  1.00  0.00     0.002 C 
ENDROOT
BRANCH   1   2
ATOM      2  C   UNL A   1      36.007  21.142  25.098  1.00  0.00     0.002 C 
BRANCH   2   3
ATOM      3  C   UNL A   1      37.385  21.637  24.648  1.00  0.00     0.021 C 
BRANCH   3   4
ATOM      4  C   UNL A   1      38.213  22.311  25.745  1.00  0.00     0.116 C 
BRANCH   4   5
ATOM      5  N   UNL A   1      39.598  21.890  25.771  1.00  0.00    -0.352 N 
ATOM      6  O   UNL A   1      41.773  21.741  26.123  1.00  0.00    -0.269 OA
ATOM      7  C   UNL A   1      40.759  22.434  26.244  1.00  0.00     0.251 C 
ATOM      8  H   UNL A   1      39.734  21.009  25.353  1.00  0.00     0.163 HD
BRANCH   7   9
ATOM      9  C   UNL A   1      40.890  23.789  26.857  1.00  0.00     0.039 A 
ATOM     10  C   UNL A   1      41.730  24.127  27.917  1.00  0.00     0.014 A 
ATOM     11  C   UNL A   1      40.089  24.805  26.303  1.00  0.00     0.014 A 
ATOM     12  C   UNL A   1      41.735  25.417  28.447  1.00  0.00     0.010 A 
ATOM     13  C   UNL A   1      40.109  26.105  26.810  1.00  0.00     0.010 A 
ATOM     14  C   UNL A   1      40.918  26.409  27.904  1.00  0.00    -0.014 A 
BRANCH  14  15
ATOM     15  C   UNL A   1      40.997  27.749  28.488  1.00  0.00     0.031 A 
ATOM     16  C   UNL A   1      42.123  28.637  28.055  1.00  0.00     0.074 A 
ATOM     17  C   UNL A   1      40.037  28.280  29.270  1.00  0.00     0.049 A 
ATOM     18  N   UNL A   1      42.947  29.320  28.791  1.00  0.00    -0.248 NA
ATOM     19  C   UNL A   1      42.333  28.803  26.610  1.00  0.00     0.031 C 
ATOM     20  C   UNL A   1      38.705  27.742  29.548  1.00  0.00     0.029 A 
ATOM     21  N   UNL A   1      40.028  29.496  29.896  1.00  0.00    -0.354 N 
ATOM     22  C   UNL A   1      43.690  30.109  27.912  1.00  0.00     0.074 A 
ATOM     23  C   UNL A   1      43.306  29.715  26.580  1.00  0.00     0.031 C 
ATOM     24  C   UNL A   1      37.949  28.712  30.103  1.00  0.00     0.029 A 
ATOM     25  C   UNL A   1      38.777  29.885  30.333  1.00  0.00     0.049 A 
ATOM     26  H   UNL A   1      40.838  30.043  30.024  1.00  0.00     0.167 HD
ATOM     27  C   UNL A   1      44.483  31.138  28.323  1.00  0.00     0.037 A 
ATOM     28  C   UNL A   1      38.417  31.107  30.787  1.00  0.00     0.037 A 
ATOM     29  C   UNL A   1      44.839  31.049  29.709  1.00  0.00     0.049 A 
ATOM     30  C   UNL A   1      39.630  31.848  31.199  1.00  0.00     0.074 A 
ATOM     31  C   UNL A   1      45.527  30.139  30.487  1.00  0.00     0.029 A 
ATOM     32  N   UNL A   1      44.287  31.938  30.594  1.00  0.00    -0.354 N 
ATOM     33  N   UNL A   1      40.350  31.581  32.251  1.00  0.00    -0.248 NA
ATOM     34  C   UNL A   1      40.230  32.777  30.252  1.00  0.00     0.031 C 
ATOM     35  C   UNL A   1      44.976  30.263  31.796  1.00  0.00     0.029 A 
ATOM     36  C   UNL A   1      43.967  31.223  31.718  1.00  0.00     0.049 A 
ATOM     37  H   UNL A   1      44.148  32.902  30.450  1.00  0.00     0.167 HD
ATOM     38  C   UNL A   1      41.629  31.996  31.918  1.00  0.00     0.074 A 
ATOM     39  C   UNL A   1      41.462  32.853  30.755  1.00  0.00     0.031 C 
ATOM     40  C   UNL A   1      42.726  31.375  32.437  1.00  0.00     0.037 A 
BRANCH  27  41
ATOM     41  C   UNL A   1      44.764  32.374  27.509  1.00  0.00     0.064 A 
ATOM     42  C   UNL A   1      45.993  32.514  26.832  1.00  0.00     0.173 A 
ATOM     43  C   UNL A   1      43.977  33.540  27.597  1.00  0.00     0.173 A 
ATOM     44  F   UNL A   1      46.840  31.479  26.734  1.00  0.00    -0.203 F 
ATOM     45  C   UNL A   1      46.414  33.741  26.312  1.00  0.00     0.198 A 
ATOM     46  C   UNL A   1      44.377  34.752  27.032  1.00  0.00     0.198 A 
ATOM     47  F   UNL A   1      42.846  33.567  28.316  1.00  0.00    -0.203 F 
ATOM     48  F   UNL A   1      47.633  33.850  25.765  1.00  0.00    -0.200 F 
ATOM     49  C   UNL A   1      45.605  34.858  26.409  1.00  0.00     0.200 A 
ATOM     50  F   UNL A   1      43.592  35.831  27.157  1.00  0.00    -0.200 F 
ATOM     51  F   UNL A   1      46.024  36.043  25.948  1.00  0.00    -0.200 F 
ENDBRANCH  27  41
BRANCH  28  52
ATOM     52  C   UNL A   1      37.089  31.749  30.694  1.00  0.00     0.064 A 
ATOM     53  C   UNL A   1      36.237  31.829  31.804  1.00  0.00     0.173 A 
ATOM     54  C   UNL A   1      36.722  32.501  29.562  1.00  0.00     0.173 A 
ATOM     55  F   UNL A   1      36.546  31.190  32.942  1.00  0.00    -0.203 F 
ATOM     56  C   UNL A   1      35.079  32.614  31.780  1.00  0.00     0.198 A 
ATOM     57  C   UNL A   1      35.561  33.271  29.532  1.00  0.00     0.198 A 
ATOM     58  F   UNL A   1      37.529  32.570  28.493  1.00  0.00    -0.203 F 
ATOM     59  F   UNL A   1      34.313  32.706  32.876  1.00  0.00    -0.200 F 
ATOM     60  C   UNL A   1      34.744  33.334  30.645  1.00  0.00     0.200 A 
ATOM     61  F   UNL A   1      35.269  33.991  28.440  1.00  0.00    -0.200 F 
ATOM     62  F   UNL A   1      33.656  34.116  30.635  1.00  0.00    -0.200 F 
ENDBRANCH  28  52
BRANCH  40  63
ATOM     63  C   UNL A   1      42.531  30.508  33.643  1.00  0.00     0.064 A 
ATOM     64  C   UNL A   1      42.599  30.996  34.958  1.00  0.00     0.173 A 
ATOM     65  C   UNL A   1      42.123  29.180  33.460  1.00  0.00     0.173 A 
ATOM     66  F   UNL A   1      42.875  32.285  35.198  1.00  0.00    -0.203 F 
ATOM     67  C   UNL A   1      42.320  30.172  36.045  1.00  0.00     0.198 A 
ATOM     68  C   UNL A   1      41.812  28.368  34.547  1.00  0.00     0.198 A 
ATOM     69  F   UNL A   1      41.976  28.684  32.221  1.00  0.00    -0.203 F 
ATOM     70  F   UNL A   1      42.400  30.656  37.292  1.00  0.00    -0.200 F 
ATOM     71  C   UNL A   1      41.922  28.860  35.838  1.00  0.00     0.200 A 
ATOM     72  F   UNL A   1      41.377  27.116  34.344  1.00  0.00    -0.200 F 
ATOM     73  F   UNL A   1      41.614  28.079  36.884  1.00  0.00    -0.200 F 
ENDBRANCH  40  63
ENDBRANCH  14  15
ENDBRANCH   7   9
ENDBRANCH   4   5
ENDBRANCH   3   4
ENDBRANCH   2   3
ENDBRANCH   1   2
BRANCH   1  74
ATOM     74  C   UNL A   1      34.158  21.450  26.883  1.00  0.00     0.021 C 
BRANCH  74  75
ATOM     75  C   UNL A   1      33.520  22.390  27.907  1.00  0.00     0.116 C 
BRANCH  75  76
ATOM     76  N   UNL A   1      32.077  22.416  27.749  1.00  0.00    -0.352 N 
ATOM     77  C   UNL A   1      31.325  23.289  27.012  1.00  0.00     0.252 C 
ATOM     78  H   UNL A   1      31.579  21.718  28.232  1.00  0.00     0.163 HD
ATOM     79  O   UNL A   1      30.119  23.398  27.249  1.00  0.00    -0.269 OA
BRANCH  77  80
ATOM     80  C   UNL A   1      31.974  24.038  25.952  1.00  0.00     0.058 A 
ATOM     81  C   UNL A   1      32.100  23.682  24.577  1.00  0.00     0.049 A 
ATOM     82  C   UNL A   1      32.517  25.306  26.077  1.00  0.00     0.101 A 
ATOM     83  C   UNL A   1      32.673  24.747  23.921  1.00  0.00     0.086 A 
ATOM     84  N   UNL A   1      32.980  25.714  24.845  1.00  0.00    -0.335 N 
ATOM     85  Br  UNL A   1      32.900  24.805  22.066  1.00  0.00    -0.031 Br
BRANCH  84  86
ATOM     86  C   UNL A   1      33.551  27.032  24.581  1.00  0.00     0.180 C 
BRANCH  86  87
ATOM     87  C   UNL A   1      32.538  28.128  24.691  1.00  0.00     0.082 A 
ATOM     88  C   UNL A   1      32.453  29.161  25.660  1.00  0.00     0.047 A 
ATOM     89  N   UNL A   1      31.591  28.277  23.750  1.00  0.00    -0.176 NA
ATOM     90  C   UNL A   1      31.408  29.954  25.259  1.00  0.00     0.109 A 
ATOM     91  N   UNL A   1      30.927  29.394  24.111  1.00  0.00    -0.269 N 
BRANCH  91  92
ATOM     92  C   UNL A   1      29.847  29.919  23.307  1.00  0.00     0.107 C 
ATOM     93  C   UNL A   1      28.664  28.974  23.109  1.00  0.00     0.027 C 
ATOM     94  C   UNL A   1      29.186  31.172  23.878  1.00  0.00     0.027 C 
ATOM     95  C   UNL A   1      27.585  29.887  22.541  1.00  0.00     0.002 C 
ATOM     96  C   UNL A   1      27.856  31.272  23.132  1.00  0.00     0.002 C 
ENDBRANCH  91  92
ENDBRANCH  86  87
ENDBRANCH  84  86
ENDBRANCH  77  80
ENDBRANCH  75  76
ENDBRANCH  74  75
ENDBRANCH   1  74
TORSDOF 16
ENDMDL
MODEL 2
REMARK VINA RESULT:     -12.8      3.513      9.194
REMARK SMILES O=C(NCCCCCCNC(=O)c1cc(Br)n(Cc2ccn(C3CCCC3)n2)c1)c1ccc(-c2c3nc(c(-c4c(F)c(F)c(F)c(F)c4F)c4ccc([nH]4)c(-c4c(F)c(F)c(F)c(F)c4F)c4nc(c(-c5c(F)c(F)c(F)c(F)c5F)c5ccc2[nH]5)C=C4)C=C3)cc1
REMARK SMILES IDX 7 1 6 2 5 3 4 4 3 5 1 6 2 7 30 9 31 10 92 11 32 12 91 13
REMARK SMILES IDX 33 14 34 15 35 16 85 17 36 18 90 19 84 20 86 21 37 22 89 23
REMARK SMILES IDX 83 24 82 25 38 27 70 28 50 29 69 30 51 31 54 32 68 33 87 34
REMARK SMILES IDX 52 35 53 36 67 38 88 39 55 40 39 41 40 42 48 43 41 44 42 45
REMARK SMILES IDX 46 46 49 47 43 48 44 49 47 50 45 51 71 52 72 53 80 54 73 55
REMARK SMILES IDX 74 56 78 57 81 58 75 59 76 60 79 61 77 62 56 63 57 64 65 65
REMARK SMILES IDX 58 66 59 67 63 68 66 69 60 70 61 71 64 72 62 73 8 74 9 75
REMARK SMILES IDX 10 76 11 77 12 79 13 80 14 81 29 82 15 83 17 84 16 85 18 86
REMARK SMILES IDX 19 87 20 88 28 89 21 90 22 91 23 92 24 93 27 94 25 95 26 96
REMARK H PARENT 3 8 86 26 54 37 10 78
REMARK Flexibility Score: inf
ROOT
ATOM      1  C   UNL A   1      32.519  28.428  25.072  1.00  0.00     0.002 C 
ENDROOT
BRANCH   1   2
ATOM      2  C   UNL A   1      31.973  28.936  26.409  1.00  0.00     0.002 C 
BRANCH   2   3
ATOM      3  C   UNL A   1      32.418  30.347  26.807  1.00  0.00     0.021 C 
BRANCH   3   4
ATOM      4  C   UNL A   1      33.865  30.447  27.297  1.00  0.00     0.116 C 
BRANCH   4   5
ATOM      5  N   UNL A   1      34.049  31.394  28.377  1.00  0.00    -0.352 N 
ATOM      6  O   UNL A   1      34.859  32.583  30.053  1.00  0.00    -0.269 OA
ATOM      7  C   UNL A   1      35.038  31.630  29.290  1.00  0.00     0.251 C 
ATOM      8  H   UNL A   1      33.287  32.009  28.475  1.00  0.00     0.163 HD
BRANCH   7   9
ATOM      9  C   UNL A   1      36.281  30.817  29.444  1.00  0.00     0.039 A 
ATOM     10  C   UNL A   1      36.342  29.495  29.883  1.00  0.00     0.014 A 
ATOM     11  C   UNL A   1      37.490  31.458  29.113  1.00  0.00     0.014 A 
ATOM     12  C   UNL A   1      37.568  28.846  30.040  1.00  0.00     0.010 A 
ATOM     13  C   UNL A   1      38.718  30.806  29.241  1.00  0.00     0.010 A 
ATOM     14  C   UNL A   1      38.760  29.501  29.730  1.00  0.00    -0.014 A 
BRANCH  14  15
ATOM     15  C   UNL A   1      40.007  28.750  29.887  1.00  0.00     0.031 A 
ATOM     16  C   UNL A   1      40.571  28.608  31.267  1.00  0.00     0.074 A 
ATOM     17  C   UNL A   1      40.591  28.056  28.891  1.00  0.00     0.049 A 
ATOM     18  N   UNL A   1      41.783  28.830  31.676  1.00  0.00    -0.248 NA
ATOM     19  C   UNL A   1      39.664  28.128  32.320  1.00  0.00     0.031 C 
ATOM     20  C   UNL A   1      40.052  27.766  27.562  1.00  0.00     0.029 A 
ATOM     21  N   UNL A   1      41.768  27.359  28.918  1.00  0.00    -0.354 N 
ATOM     22  C   UNL A   1      41.834  28.390  32.999  1.00  0.00     0.074 A 
ATOM     23  C   UNL A   1      40.490  28.013  33.360  1.00  0.00     0.031 C 
ATOM     24  C   UNL A   1      40.792  26.790  26.994  1.00  0.00     0.029 A 
ATOM     25  C   UNL A   1      41.919  26.484  27.860  1.00  0.00     0.049 A 
ATOM     26  H   UNL A   1      42.445  27.471  29.625  1.00  0.00     0.167 HD
ATOM     27  C   UNL A   1      42.999  28.230  33.687  1.00  0.00     0.037 A 
ATOM     28  C   UNL A   1      42.859  25.521  27.727  1.00  0.00     0.037 A 
ATOM     29  C   UNL A   1      44.090  28.964  33.116  1.00  0.00     0.049 A 
ATOM     30  C   UNL A   1      43.990  25.821  28.633  1.00  0.00     0.074 A 
ATOM     31  C   UNL A   1      44.353  30.299  32.877  1.00  0.00     0.029 A 
ATOM     32  N   UNL A   1      45.092  28.279  32.481  1.00  0.00    -0.354 N 
ATOM     33  N   UNL A   1      44.846  26.789  28.469  1.00  0.00    -0.248 NA
ATOM     34  C   UNL A   1      44.027  25.169  29.935  1.00  0.00     0.031 C 
ATOM     35  C   UNL A   1      45.220  30.321  31.746  1.00  0.00     0.029 A 
ATOM     36  C   UNL A   1      45.402  28.994  31.355  1.00  0.00     0.049 A 
ATOM     37  H   UNL A   1      45.508  27.437  32.777  1.00  0.00     0.167 HD
ATOM     38  C   UNL A   1      45.254  27.120  29.751  1.00  0.00     0.074 A 
ATOM     39  C   UNL A   1      44.841  26.002  30.585  1.00  0.00     0.031 C 
ATOM     40  C   UNL A   1      45.626  28.394  30.062  1.00  0.00     0.037 A 
BRANCH  27  41
ATOM     41  C   UNL A   1      43.213  27.210  34.774  1.00  0.00     0.064 A 
ATOM     42  C   UNL A   1      43.376  27.622  36.113  1.00  0.00     0.173 A 
ATOM     43  C   UNL A   1      43.535  25.864  34.505  1.00  0.00     0.173 A 
ATOM     44  F   UNL A   1      43.144  28.895  36.468  1.00  0.00    -0.203 F 
ATOM     45  C   UNL A   1      43.856  26.757  37.099  1.00  0.00     0.198 A 
ATOM     46  C   UNL A   1      43.968  24.989  35.503  1.00  0.00     0.198 A 
ATOM     47  F   UNL A   1      43.537  25.383  33.254  1.00  0.00    -0.203 F 
ATOM     48  F   UNL A   1      44.090  27.220  38.336  1.00  0.00    -0.200 F 
ATOM     49  C   UNL A   1      44.149  25.441  36.795  1.00  0.00     0.200 A 
ATOM     50  F   UNL A   1      44.271  23.722  35.186  1.00  0.00    -0.200 F 
ATOM     51  F   UNL A   1      44.649  24.622  37.729  1.00  0.00    -0.200 F 
ENDBRANCH  27  41
BRANCH  28  52
ATOM     52  C   UNL A   1      42.740  24.238  27.003  1.00  0.00     0.064 A 
ATOM     53  C   UNL A   1      43.314  24.058  25.737  1.00  0.00     0.173 A 
ATOM     54  C   UNL A   1      42.250  23.084  27.644  1.00  0.00     0.173 A 
ATOM     55  F   UNL A   1      43.858  25.097  25.087  1.00  0.00    -0.203 F 
ATOM     56  C   UNL A   1      43.388  22.794  25.143  1.00  0.00     0.198 A 
ATOM     57  C   UNL A   1      42.311  21.827  27.046  1.00  0.00     0.198 A 
ATOM     58  F   UNL A   1      41.781  23.142  28.899  1.00  0.00    -0.203 F 
ATOM     59  F   UNL A   1      43.988  22.651  23.953  1.00  0.00    -0.200 F 
ATOM     60  C   UNL A   1      42.887  21.681  25.798  1.00  0.00     0.200 A 
ATOM     61  F   UNL A   1      41.854  20.754  27.706  1.00  0.00    -0.200 F 
ATOM     62  F   UNL A   1      42.993  20.465  25.246  1.00  0.00    -0.200 F 
ENDBRANCH  28  52
BRANCH  40  63
ATOM     63  C   UNL A   1      45.948  29.322  28.931  1.00  0.00     0.064 A 
ATOM     64  C   UNL A   1      44.970  30.048  28.231  1.00  0.00     0.173 A 
ATOM     65  C   UNL A   1      47.293  29.594  28.642  1.00  0.00     0.173 A 
ATOM     66  F   UNL A   1      43.671  29.917  28.535  1.00  0.00    -0.203 F 
ATOM     67  C   UNL A   1      45.324  30.967  27.247  1.00  0.00     0.198 A 
ATOM     68  C   UNL A   1      47.645  30.537  27.682  1.00  0.00     0.198 A 
ATOM     69  F   UNL A   1      48.267  28.977  29.330  1.00  0.00    -0.203 F 
ATOM     70  F   UNL A   1      44.374  31.642  26.586  1.00  0.00    -0.200 F 
ATOM     71  C   UNL A   1      46.661  31.215  26.978  1.00  0.00     0.200 A 
ATOM     72  F   UNL A   1      48.937  30.814  27.458  1.00  0.00    -0.200 F 
ATOM     73  F   UNL A   1      47.002  32.130  26.059  1.00  0.00    -0.200 F 
ENDBRANCH  40  63
ENDBRANCH  14  15
ENDBRANCH   7   9
ENDBRANCH   4   5
ENDBRANCH   3   4
ENDBRANCH   2   3
ENDBRANCH   1   2
BRANCH   1  74
ATOM     74  C   UNL A   1      31.871  29.043  23.825  1.00  0.00     0.021 C 
BRANCH  74  75
ATOM     75  C   UNL A   1      31.136  28.042  22.931  1.00  0.00     0.116 C 
BRANCH  75  76
ATOM     76  N   UNL A   1      29.776  27.844  23.396  1.00  0.00    -0.352 N 
ATOM     77  C   UNL A   1      29.204  26.691  23.864  1.00  0.00     0.252 C 
ATOM     78  H   UNL A   1      29.192  28.636  23.373  1.00  0.00     0.163 HD
ATOM     79  O   UNL A   1      27.975  26.595  23.892  1.00  0.00    -0.269 OA
BRANCH  77  80
ATOM     80  C   UNL A   1      30.073  25.632  24.341  1.00  0.00     0.058 A 
ATOM     81  C   UNL A   1      30.459  25.351  25.684  1.00  0.00     0.049 A 
ATOM     82  C   UNL A   1      30.618  24.625  23.561  1.00  0.00     0.101 A 
ATOM     83  C   UNL A   1      31.183  24.181  25.674  1.00  0.00     0.086 A 
ATOM     84  N   UNL A   1      31.329  23.769  24.374  1.00  0.00    -0.335 N 
ATOM     85  Br  UNL A   1      31.776  23.333  27.231  1.00  0.00    -0.031 Br
BRANCH  84  86
ATOM     86  C   UNL A   1      31.979  22.548  23.907  1.00  0.00     0.180 C 
BRANCH  86  87
ATOM     87  C   UNL A   1      33.469  22.676  23.853  1.00  0.00     0.082 A 
ATOM     88  C   UNL A   1      34.274  23.220  22.821  1.00  0.00     0.047 A 
ATOM     89  N   UNL A   1      34.221  22.323  24.910  1.00  0.00    -0.176 NA
ATOM     90  C   UNL A   1      35.558  23.189  23.302  1.00  0.00     0.109 A 
ATOM     91  N   UNL A   1      35.480  22.653  24.555  1.00  0.00    -0.269 N 
BRANCH  91  92
ATOM     92  C   UNL A   1      36.589  22.468  25.462  1.00  0.00     0.107 C 
ATOM     93  C   UNL A   1      37.685  21.526  24.968  1.00  0.00     0.027 C 
ATOM     94  C   UNL A   1      37.362  23.746  25.784  1.00  0.00     0.027 C 
ATOM     95  C   UNL A   1      38.829  21.789  25.938  1.00  0.00     0.002 C 
ATOM     96  C   UNL A   1      38.685  23.251  26.367  1.00  0.00     0.002 C 
ENDBRANCH  91  92
ENDBRANCH  86  87
ENDBRANCH  84  86
ENDBRANCH  77  80
ENDBRANCH  75  76
ENDBRANCH  74  75
ENDBRANCH   1  74
TORSDOF 16
ENDMDL
MODEL 3
REMARK VINA RESULT:     -12.7      2.569      3.875
REMARK SMILES O=C(NCCCCCCNC(=O)c1cc(Br)n(Cc2ccn(C3CCCC3)n2)c1)c1ccc(-c2c3nc(c(-c4c(F)c(F)c(F)c(F)c4F)c4ccc([nH]4)c(-c4c(F)c(F)c(F)c(F)c4F)c4nc(c(-c5c(F)c(F)c(F)c(F)c5F)c5ccc2[nH]5)C=C4)C=C3)cc1
REMARK SMILES IDX 7 1 6 2 5 3 4 4 3 5 1 6 2 7 30 9 31 10 92 11 32 12 91 13
REMARK SMILES IDX 33 14 34 15 35 16 85 17 36 18 90 19 84 20 86 21 37 22 89 23
REMARK SMILES IDX 83 24 82 25 38 27 70 28 50 29 69 30 51 31 54 32 68 33 87 34
REMARK SMILES IDX 52 35 53 36 67 38 88 39 55 40 39 41 40 42 48 43 41 44 42 45
REMARK SMILES IDX 46 46 49 47 43 48 44 49 47 50 45 51 71 52 72 53 80 54 73 55
REMARK SMILES IDX 74 56 78 57 81 58 75 59 76 60 79 61 77 62 56 63 57 64 65 65
REMARK SMILES IDX 58 66 59 67 63 68 66 69 60 70 61 71 64 72 62 73 8 74 9 75
REMARK SMILES IDX 10 76 11 77 12 79 13 80 14 81 29 82 15 83 17 84 16 85 18 86
REMARK SMILES IDX 19 87 20 88 28 89 21 90 22 91 23 92 24 93 27 94 25 95 26 96
REMARK H PARENT 3 8 86 26 54 37 10 78
REMARK Flexibility Score: inf
ROOT
ATOM      1  C   UNL A   1      40.374  22.242  26.397  1.00  0.00     0.002 C 
ENDROOT
BRANCH   1   2
ATOM      2  C   UNL A   1      40.786  20.921  27.053  1.00  0.00     0.002 C 
BRANCH   2   3
ATOM      3  C   UNL A   1      41.099  19.776  26.084  1.00  0.00     0.021 C 
BRANCH   3   4
ATOM      4  C   UNL A   1      42.515  19.206  26.203  1.00  0.00     0.116 C 
BRANCH   4   5
ATOM      5  N   UNL A   1      43.397  19.610  25.128  1.00  0.00    -0.352 N 
ATOM      6  O   UNL A   1      44.766  20.726  23.802  1.00  0.00    -0.269 OA
ATOM      7  C   UNL A   1      44.040  20.771  24.799  1.00  0.00     0.251 C 
ATOM      8  H   UNL A   1      43.574  18.883  24.489  1.00  0.00     0.163 HD
BRANCH   7   9
ATOM      9  C   UNL A   1      43.908  22.067  25.526  1.00  0.00     0.039 A 
ATOM     10  C   UNL A   1      44.316  22.313  26.837  1.00  0.00     0.014 A 
ATOM     11  C   UNL A   1      43.317  23.126  24.811  1.00  0.00     0.014 A 
ATOM     12  C   UNL A   1      44.097  23.553  27.437  1.00  0.00     0.010 A 
ATOM     13  C   UNL A   1      43.119  24.378  25.397  1.00  0.00     0.010 A 
ATOM     14  C   UNL A   1      43.489  24.587  26.725  1.00  0.00    -0.014 A 
BRANCH  14  15
ATOM     15  C   UNL A   1      43.319  25.872  27.406  1.00  0.00     0.031 A 
ATOM     16  C   UNL A   1      44.319  26.951  27.128  1.00  0.00     0.074 A 
ATOM     17  C   UNL A   1      42.237  26.188  28.144  1.00  0.00     0.049 A 
ATOM     18  N   UNL A   1      44.975  27.687  27.974  1.00  0.00    -0.248 NA
ATOM     19  C   UNL A   1      44.601  27.264  25.720  1.00  0.00     0.031 C 
ATOM     20  C   UNL A   1      40.988  25.435  28.275  1.00  0.00     0.029 A 
ATOM     21  N   UNL A   1      41.996  27.334  28.850  1.00  0.00    -0.354 N 
ATOM     22  C   UNL A   1      45.645  28.647  27.215  1.00  0.00     0.074 A 
ATOM     23  C   UNL A   1      45.419  28.310  25.832  1.00  0.00     0.031 C 
ATOM     24  C   UNL A   1      40.054  26.233  28.834  1.00  0.00     0.029 A 
ATOM     25  C   UNL A   1      40.672  27.494  29.212  1.00  0.00     0.049 A 
ATOM     26  H   UNL A   1      42.700  27.983  29.081  1.00  0.00     0.167 HD
ATOM     27  C   UNL A   1      46.239  29.746  27.759  1.00  0.00     0.037 A 
ATOM     28  C   UNL A   1      40.096  28.607  29.720  1.00  0.00     0.037 A 
ATOM     29  C   UNL A   1      46.508  29.599  29.160  1.00  0.00     0.049 A 
ATOM     30  C   UNL A   1      41.149  29.485  30.279  1.00  0.00     0.074 A 
ATOM     31  C   UNL A   1      47.274  28.742  29.925  1.00  0.00     0.029 A 
ATOM     32  N   UNL A   1      45.765  30.320  30.058  1.00  0.00    -0.354 N 
ATOM     33  N   UNL A   1      41.827  29.244  31.364  1.00  0.00    -0.248 NA
ATOM     34  C   UNL A   1      41.660  30.568  29.450  1.00  0.00     0.031 C 
ATOM     35  C   UNL A   1      46.622  28.675  31.191  1.00  0.00     0.029 A 
ATOM     36  C   UNL A   1      45.484  29.476  31.099  1.00  0.00     0.049 A 
ATOM     37  H   UNL A   1      45.488  31.261  29.971  1.00  0.00     0.167 HD
ATOM     38  C   UNL A   1      43.046  29.871  31.165  1.00  0.00     0.074 A 
ATOM     39  C   UNL A   1      42.828  30.786  30.055  1.00  0.00     0.031 C 
ATOM     40  C   UNL A   1      44.188  29.382  31.725  1.00  0.00     0.037 A 
BRANCH  27  41
ATOM     41  C   UNL A   1      46.380  31.072  27.059  1.00  0.00     0.064 A 
ATOM     42  C   UNL A   1      47.644  31.688  26.953  1.00  0.00     0.173 A 
ATOM     43  C   UNL A   1      45.274  31.883  26.732  1.00  0.00     0.173 A 
ATOM     44  F   UNL A   1      48.758  31.021  27.287  1.00  0.00    -0.203 F 
ATOM     45  C   UNL A   1      47.784  33.027  26.577  1.00  0.00     0.198 A 
ATOM     46  C   UNL A   1      45.421  33.206  26.309  1.00  0.00     0.198 A 
ATOM     47  F   UNL A   1      44.016  31.454  26.907  1.00  0.00    -0.203 F 
ATOM     48  F   UNL A   1      48.997  33.598  26.587  1.00  0.00    -0.200 F 
ATOM     49  C   UNL A   1      46.674  33.784  26.253  1.00  0.00     0.200 A 
ATOM     50  F   UNL A   1      44.332  33.933  26.022  1.00  0.00    -0.200 F 
ATOM     51  F   UNL A   1      46.803  35.078  25.933  1.00  0.00    -0.200 F 
ENDBRANCH  27  41
BRANCH  28  52
ATOM     52  C   UNL A   1      38.694  29.049  29.566  1.00  0.00     0.064 A 
ATOM     53  C   UNL A   1      37.891  29.331  30.679  1.00  0.00     0.173 A 
ATOM     54  C   UNL A   1      38.183  29.421  28.307  1.00  0.00     0.173 A 
ATOM     55  F   UNL A   1      38.331  29.063  31.916  1.00  0.00    -0.203 F 
ATOM     56  C   UNL A   1      36.642  29.947  30.540  1.00  0.00     0.198 A 
ATOM     57  C   UNL A   1      36.933  30.021  28.167  1.00  0.00     0.198 A 
ATOM     58  F   UNL A   1      38.925  29.286  27.198  1.00  0.00    -0.203 F 
ATOM     59  F   UNL A   1      35.922  30.247  31.629  1.00  0.00    -0.200 F 
ATOM     60  C   UNL A   1      36.166  30.291  29.285  1.00  0.00     0.200 A 
ATOM     61  F   UNL A   1      36.501  30.380  26.951  1.00  0.00    -0.200 F 
ATOM     62  F   UNL A   1      34.988  30.916  29.155  1.00  0.00    -0.200 F 
ENDBRANCH  28  52
BRANCH  40  63
ATOM     63  C   UNL A   1      44.047  28.400  32.848  1.00  0.00     0.064 A 
ATOM     64  C   UNL A   1      43.898  27.018  32.645  1.00  0.00     0.173 A 
ATOM     65  C   UNL A   1      44.212  28.851  34.164  1.00  0.00     0.173 A 
ATOM     66  F   UNL A   1      43.846  26.508  31.407  1.00  0.00    -0.203 F 
ATOM     67  C   UNL A   1      43.862  26.134  33.720  1.00  0.00     0.198 A 
ATOM     68  C   UNL A   1      44.209  27.962  35.235  1.00  0.00     0.198 A 
ATOM     69  F   UNL A   1      44.426  30.154  34.408  1.00  0.00    -0.203 F 
ATOM     70  F   UNL A   1      43.710  24.820  33.503  1.00  0.00    -0.200 F 
ATOM     71  C   UNL A   1      44.024  26.606  35.013  1.00  0.00     0.200 A 
ATOM     72  F   UNL A   1      44.418  28.413  36.480  1.00  0.00    -0.200 F 
ATOM     73  F   UNL A   1      44.031  25.749  36.044  1.00  0.00    -0.200 F 
ENDBRANCH  40  63
ENDBRANCH  14  15
ENDBRANCH   7   9
ENDBRANCH   4   5
ENDBRANCH   3   4
ENDBRANCH   2   3
ENDBRANCH   1   2
BRANCH   1  74
ATOM     74  C   UNL A   1      38.999  22.779  26.814  1.00  0.00     0.021 C 
BRANCH  74  75
ATOM     75  C   UNL A   1      37.947  22.764  25.704  1.00  0.00     0.116 C 
BRANCH  75  76
ATOM     76  N   UNL A   1      37.832  21.438  25.125  1.00  0.00    -0.352 N 
ATOM     77  C   UNL A   1      36.722  20.641  25.056  1.00  0.00     0.252 C 
ATOM     78  H   UNL A   1      38.655  21.066  24.734  1.00  0.00     0.163 HD
ATOM     79  O   UNL A   1      36.857  19.432  24.855  1.00  0.00    -0.269 OA
BRANCH  77  80
ATOM     80  C   UNL A   1      35.416  21.260  25.194  1.00  0.00     0.058 A 
ATOM     81  C   UNL A   1      34.671  21.479  26.389  1.00  0.00     0.049 A 
ATOM     82  C   UNL A   1      34.691  21.846  24.170  1.00  0.00     0.101 A 
ATOM     83  C   UNL A   1      33.554  22.212  26.056  1.00  0.00     0.086 A 
ATOM     84  N   UNL A   1      33.537  22.386  24.696  1.00  0.00    -0.335 N 
ATOM     85  Br  UNL A   1      32.348  22.870  27.323  1.00  0.00    -0.031 Br
BRANCH  84  86
ATOM     86  C   UNL A   1      32.563  23.149  23.919  1.00  0.00     0.180 C 
BRANCH  86  87
ATOM     87  C   UNL A   1      32.971  24.576  23.732  1.00  0.00     0.082 A 
ATOM     88  C   UNL A   1      33.428  25.218  22.553  1.00  0.00     0.047 A 
ATOM     89  N   UNL A   1      32.850  25.458  24.740  1.00  0.00    -0.176 NA
ATOM     90  C   UNL A   1      33.575  26.540  22.890  1.00  0.00     0.109 A 
ATOM     91  N   UNL A   1      33.212  26.640  24.201  1.00  0.00    -0.269 N 
BRANCH  91  92
ATOM     92  C   UNL A   1      33.167  27.861  24.972  1.00  0.00     0.107 C 
ATOM     93  C   UNL A   1      31.766  28.370  25.307  1.00  0.00     0.027 C 
ATOM     94  C   UNL A   1      33.829  27.766  26.346  1.00  0.00     0.027 C 
ATOM     95  C   UNL A   1      32.028  29.428  26.370  1.00  0.00     0.002 C 
ATOM     96  C   UNL A   1      33.288  28.973  27.111  1.00  0.00     0.002 C 
ENDBRANCH  91  92
ENDBRANCH  86  87
ENDBRANCH  84  86
ENDBRANCH  77  80
ENDBRANCH  75  76
ENDBRANCH  74  75
ENDBRANCH   1  74
TORSDOF 16
ENDMDL
