MODEL 1
REMARK VINA RESULT:     -11.5      0.000      0.000
REMARK SMILES Cc1nn(C)c(C)c1CNC(=O)NCC(=O)NCC(=O)NCCCCCCNC(=O)c1ccc(-c2c3nc(c(-c4c(F)c(F)c(F)c(F)c4F)c4ccc([nH]4)c(-c4c(F)c(F)c(F)c(F)c4F)c4nc(c(-c5c(F)c(F)c(F)c(F)c5F)c5ccc2[nH]5)C=C4)C=C3)cc1
REMARK SMILES IDX 23 1 22 2 21 3 19 4 20 5 18 7 17 8 15 9 16 10 14 12 13 13
REMARK SMILES IDX 10 14 11 15 12 17 9 19 8 20 1 21 2 22 3 23 4 24 6 25 5 26
REMARK SMILES IDX 7 27 24 28 25 29 26 30 27 31 28 32 29 33 30 35 31 36 32 37
REMARK SMILES IDX 93 38 33 39 92 40 34 41 35 42 36 43 86 44 37 45 91 46 85 47
REMARK SMILES IDX 87 48 38 49 90 50 84 51 83 52 39 54 71 55 51 56 70 57 52 58
REMARK SMILES IDX 55 59 69 60 88 61 53 62 54 63 68 65 89 66 56 67 40 68 41 69
REMARK SMILES IDX 49 70 42 71 43 72 47 73 50 74 44 75 45 76 48 77 46 78 72 79
REMARK SMILES IDX 73 80 81 81 74 82 75 83 79 84 82 85 76 86 77 87 80 88 78 89
REMARK SMILES IDX 57 90 58 91 66 92 59 93 60 94 64 95 67 96 61 97 62 98 65 99
REMARK SMILES IDX 63 100
REMARK H PARENT 21 6 17 11 10 16 13 18 28 34 87 53 55 64
REMARK Flexibility Score: inf
ROOT
ATOM      1  C   UNL A   1      35.558  22.895  25.785  1.00  0.00     0.021 C 
ENDROOT
BRANCH   1   2
ATOM      2  C   UNL A   1      35.355  24.166  24.977  1.00  0.00     0.116 C 
BRANCH   2   3
ATOM      3  N   UNL A   1      34.728  23.933  23.701  1.00  0.00    -0.355 N 
ATOM      4  C   UNL A   1      33.928  24.776  22.985  1.00  0.00     0.239 C 
ATOM      5  O   UNL A   1      33.653  24.463  21.824  1.00  0.00    -0.273 OA
ATOM      6  H   UNL A   1      34.898  23.054  23.292  1.00  0.00     0.163 HD
BRANCH   4   7
ATOM      7  C   UNL A   1      33.521  26.153  23.540  1.00  0.00     0.216 C 
BRANCH   7   8
ATOM      8  N   UNL A   1      32.102  26.360  23.796  1.00  0.00    -0.346 N 
ATOM      9  C   UNL A   1      31.307  26.078  24.862  1.00  0.00     0.239 C 
ATOM     10  O   UNL A   1      30.151  26.513  24.808  1.00  0.00    -0.273 OA
ATOM     11  H   UNL A   1      31.625  26.790  23.050  1.00  0.00     0.164 HD
BRANCH   9  12
ATOM     12  C   UNL A   1      31.786  25.375  26.150  1.00  0.00     0.217 C 
BRANCH  12  13
ATOM     13  N   UNL A   1      30.832  24.551  26.875  1.00  0.00    -0.329 N 
ATOM     14  N   UNL A   1      30.807  22.396  25.921  1.00  0.00    -0.334 N 
ATOM     15  C   UNL A   1      30.383  23.296  26.806  1.00  0.00     0.315 C 
ATOM     16  H   UNL A   1      30.373  21.519  26.027  1.00  0.00     0.165 HD
ATOM     17  O   UNL A   1      29.524  22.959  27.624  1.00  0.00    -0.249 OA
ATOM     18  H   UNL A   1      30.406  25.049  27.611  1.00  0.00     0.165 HD
BRANCH  14  19
ATOM     19  C   UNL A   1      31.761  22.424  24.843  1.00  0.00     0.157 C 
BRANCH  19  20
ATOM     20  C   UNL A   1      32.260  21.056  24.521  1.00  0.00     0.015 A 
ATOM     21  C   UNL A   1      31.778  21.089  21.938  1.00  0.00     0.069 C 
ATOM     22  C   UNL A   1      32.229  20.480  23.216  1.00  0.00     0.065 A 
ATOM     23  N   UNL A   1      32.676  19.223  23.213  1.00  0.00    -0.178 NA
ATOM     24  N   UNL A   1      33.005  18.984  24.491  1.00  0.00    -0.272 N 
ATOM     25  C   UNL A   1      32.864  20.077  25.308  1.00  0.00     0.040 A 
ATOM     26  C   UNL A   1      33.434  17.650  24.843  1.00  0.00     0.174 C 
ATOM     27  C   UNL A   1      33.291  20.038  26.731  1.00  0.00     0.067 C 
ENDBRANCH  19  20
ENDBRANCH  14  19
ENDBRANCH  12  13
ENDBRANCH   9  12
ENDBRANCH   7   8
ENDBRANCH   4   7
ENDBRANCH   2   3
ENDBRANCH   1   2
BRANCH   1  28
ATOM     28  C   UNL A   1      36.843  22.151  25.435  1.00  0.00     0.002 C 
BRANCH  28  29
ATOM     29  C   UNL A   1      36.644  20.693  25.003  1.00  0.00     0.002 C 
BRANCH  29  30
ATOM     30  C   UNL A   1      37.928  19.875  24.840  1.00  0.00     0.021 C 
BRANCH  30  31
ATOM     31  C   UNL A   1      39.054  20.255  25.797  1.00  0.00     0.116 C 
BRANCH  31  32
ATOM     32  N   UNL A   1      40.037  19.192  25.935  1.00  0.00    -0.352 N 
ATOM     33  C   UNL A   1      41.395  19.268  26.113  1.00  0.00     0.251 C 
ATOM     34  H   UNL A   1      39.672  18.279  25.894  1.00  0.00     0.163 HD
ATOM     35  O   UNL A   1      42.089  18.266  26.007  1.00  0.00    -0.269 OA
BRANCH  33  36
ATOM     36  C   UNL A   1      42.024  20.571  26.414  1.00  0.00     0.039 A 
ATOM     37  C   UNL A   1      42.426  21.384  25.352  1.00  0.00     0.014 A 
ATOM     38  C   UNL A   1      42.217  20.987  27.734  1.00  0.00     0.014 A 
ATOM     39  C   UNL A   1      42.957  22.648  25.614  1.00  0.00     0.010 A 
ATOM     40  C   UNL A   1      42.680  22.274  27.991  1.00  0.00     0.010 A 
ATOM     41  C   UNL A   1      43.047  23.120  26.933  1.00  0.00    -0.014 A 
BRANCH  41  42
ATOM     42  C   UNL A   1      43.482  24.510  27.222  1.00  0.00     0.031 A 
ATOM     43  C   UNL A   1      42.505  25.519  27.757  1.00  0.00     0.074 A 
ATOM     44  C   UNL A   1      44.746  24.877  26.932  1.00  0.00     0.049 A 
ATOM     45  N   UNL A   1      42.686  26.792  28.006  1.00  0.00    -0.248 NA
ATOM     46  C   UNL A   1      41.140  25.043  28.028  1.00  0.00     0.031 C 
ATOM     47  C   UNL A   1      45.773  23.997  26.371  1.00  0.00     0.029 A 
ATOM     48  N   UNL A   1      45.381  26.087  27.058  1.00  0.00    -0.354 N 
ATOM     49  C   UNL A   1      41.459  27.270  28.446  1.00  0.00     0.074 A 
ATOM     50  C   UNL A   1      40.529  26.163  28.390  1.00  0.00     0.031 C 
ATOM     51  C   UNL A   1      46.915  24.688  26.227  1.00  0.00     0.029 A 
ATOM     52  C   UNL A   1      46.690  26.070  26.639  1.00  0.00     0.049 A 
ATOM     53  H   UNL A   1      44.941  26.892  27.417  1.00  0.00     0.167 HD
ATOM     54  C   UNL A   1      41.144  28.516  28.873  1.00  0.00     0.037 A 
ATOM     55  C   UNL A   1      47.600  27.061  26.578  1.00  0.00     0.037 A 
ATOM     56  C   UNL A   1      42.082  29.607  28.949  1.00  0.00     0.049 A 
ATOM     57  C   UNL A   1      47.209  28.442  27.031  1.00  0.00     0.074 A 
ATOM     58  C   UNL A   1      41.879  30.883  29.445  1.00  0.00     0.029 A 
ATOM     59  N   UNL A   1      43.395  29.554  28.507  1.00  0.00    -0.354 N 
ATOM     60  N   UNL A   1      46.070  28.859  27.528  1.00  0.00    -0.248 NA
ATOM     61  C   UNL A   1      48.231  29.490  26.912  1.00  0.00     0.031 C 
ATOM     62  C   UNL A   1      43.048  31.622  29.243  1.00  0.00     0.029 A 
ATOM     63  C   UNL A   1      44.001  30.788  28.679  1.00  0.00     0.049 A 
ATOM     64  H   UNL A   1      43.832  28.757  28.127  1.00  0.00     0.167 HD
ATOM     65  C   UNL A   1      46.248  30.208  27.807  1.00  0.00     0.074 A 
ATOM     66  C   UNL A   1      47.611  30.534  27.443  1.00  0.00     0.031 C 
ATOM     67  C   UNL A   1      45.361  31.098  28.317  1.00  0.00     0.037 A 
BRANCH  54  68
ATOM     68  C   UNL A   1      39.726  28.780  29.288  1.00  0.00     0.064 A 
ATOM     69  C   UNL A   1      39.302  28.620  30.616  1.00  0.00     0.173 A 
ATOM     70  C   UNL A   1      38.795  29.267  28.357  1.00  0.00     0.173 A 
ATOM     71  F   UNL A   1      40.149  28.151  31.544  1.00  0.00    -0.203 F 
ATOM     72  C   UNL A   1      37.995  28.917  30.992  1.00  0.00     0.198 A 
ATOM     73  C   UNL A   1      37.496  29.591  28.743  1.00  0.00     0.198 A 
ATOM     74  F   UNL A   1      39.149  29.443  27.076  1.00  0.00    -0.203 F 
ATOM     75  F   UNL A   1      37.601  28.719  32.258  1.00  0.00    -0.200 F 
ATOM     76  C   UNL A   1      37.096  29.412  30.057  1.00  0.00     0.200 A 
ATOM     77  F   UNL A   1      36.635  30.085  27.842  1.00  0.00    -0.200 F 
ATOM     78  F   UNL A   1      35.843  29.713  30.426  1.00  0.00    -0.200 F 
ENDBRANCH  54  68
BRANCH  55  79
ATOM     79  C   UNL A   1      48.973  26.788  26.077  1.00  0.00     0.064 A 
ATOM     80  C   UNL A   1      49.305  27.009  24.733  1.00  0.00     0.173 A 
ATOM     81  C   UNL A   1      49.971  26.272  26.917  1.00  0.00     0.173 A 
ATOM     82  F   UNL A   1      48.380  27.481  23.884  1.00  0.00    -0.203 F 
ATOM     83  C   UNL A   1      50.572  26.699  24.242  1.00  0.00     0.198 A 
ATOM     84  C   UNL A   1      51.247  25.992  26.433  1.00  0.00     0.198 A 
ATOM     85  F   UNL A   1      49.709  26.042  28.213  1.00  0.00    -0.203 F 
ATOM     86  F   UNL A   1      50.842  26.864  22.940  1.00  0.00    -0.200 F 
ATOM     87  C   UNL A   1      51.543  26.195  25.093  1.00  0.00     0.200 A 
ATOM     88  F   UNL A   1      52.188  25.520  27.262  1.00  0.00    -0.200 F 
ATOM     89  F   UNL A   1      52.759  25.893  24.621  1.00  0.00    -0.200 F 
ENDBRANCH  55  79
BRANCH  67  90
ATOM     90  C   UNL A   1      45.843  32.503  28.537  1.00  0.00     0.064 A 
ATOM     91  C   UNL A   1      46.504  32.877  29.717  1.00  0.00     0.173 A 
ATOM     92  C   UNL A   1      45.678  33.476  27.541  1.00  0.00     0.173 A 
ATOM     93  F   UNL A   1      46.673  31.989  30.708  1.00  0.00    -0.203 F 
ATOM     94  C   UNL A   1      46.958  34.181  29.900  1.00  0.00     0.198 A 
ATOM     95  C   UNL A   1      46.164  34.769  27.712  1.00  0.00     0.198 A 
ATOM     96  F   UNL A   1      45.058  33.169  26.390  1.00  0.00    -0.203 F 
ATOM     97  F   UNL A   1      47.540  34.530  31.055  1.00  0.00    -0.200 F 
ATOM     98  C   UNL A   1      46.796  35.122  28.895  1.00  0.00     0.200 A 
ATOM     99  F   UNL A   1      46.021  35.673  26.733  1.00  0.00    -0.200 F 
ATOM    100  F   UNL A   1      47.243  36.374  29.068  1.00  0.00    -0.200 F 
ENDBRANCH  67  90
ENDBRANCH  41  42
ENDBRANCH  33  36
ENDBRANCH  31  32
ENDBRANCH  30  31
ENDBRANCH  29  30
ENDBRANCH  28  29
ENDBRANCH   1  28
TORSDOF 18
ENDMDL
MODEL 2
REMARK VINA RESULT:     -11.5      6.209     10.679
REMARK SMILES Cc1nn(C)c(C)c1CNC(=O)NCC(=O)NCC(=O)NCCCCCCNC(=O)c1ccc(-c2c3nc(c(-c4c(F)c(F)c(F)c(F)c4F)c4ccc([nH]4)c(-c4c(F)c(F)c(F)c(F)c4F)c4nc(c(-c5c(F)c(F)c(F)c(F)c5F)c5ccc2[nH]5)C=C4)C=C3)cc1
REMARK SMILES IDX 23 1 22 2 21 3 19 4 20 5 18 7 17 8 15 9 16 10 14 12 13 13
REMARK SMILES IDX 10 14 11 15 12 17 9 19 8 20 1 21 2 22 3 23 4 24 6 25 5 26
REMARK SMILES IDX 7 27 24 28 25 29 26 30 27 31 28 32 29 33 30 35 31 36 32 37
REMARK SMILES IDX 93 38 33 39 92 40 34 41 35 42 36 43 86 44 37 45 91 46 85 47
REMARK SMILES IDX 87 48 38 49 90 50 84 51 83 52 39 54 71 55 51 56 70 57 52 58
REMARK SMILES IDX 55 59 69 60 88 61 53 62 54 63 68 65 89 66 56 67 40 68 41 69
REMARK SMILES IDX 49 70 42 71 43 72 47 73 50 74 44 75 45 76 48 77 46 78 72 79
REMARK SMILES IDX 73 80 81 81 74 82 75 83 79 84 82 85 76 86 77 87 80 88 78 89
REMARK SMILES IDX 57 90 58 91 66 92 59 93 60 94 64 95 67 96 61 97 62 98 65 99
REMARK SMILES IDX 63 100
REMARK H PARENT 21 6 17 11 10 16 13 18 28 34 87 53 55 64
REMARK Flexibility Score: inf
ROOT
ATOM      1  C   UNL A   1      34.966  31.201  28.488  1.00  0.00     0.021 C 
ENDROOT
BRANCH   1   2
ATOM      2  C   UNL A   1      34.057  30.902  27.308  1.00  0.00     0.116 C 
BRANCH   2   3
ATOM      3  N   UNL A   1      33.042  29.924  27.606  1.00  0.00    -0.355 N 
ATOM      4  C   UNL A   1      32.153  29.340  26.752  1.00  0.00     0.239 C 
ATOM      5  O   UNL A   1      31.496  28.382  27.168  1.00  0.00    -0.273 OA
ATOM      6  H   UNL A   1      32.981  29.641  28.547  1.00  0.00     0.163 HD
BRANCH   4   7
ATOM      7  C   UNL A   1      32.088  29.746  25.268  1.00  0.00     0.216 C 
BRANCH   7   8
ATOM      8  N   UNL A   1      31.164  28.999  24.426  1.00  0.00    -0.346 N 
ATOM      9  C   UNL A   1      31.339  27.986  23.538  1.00  0.00     0.239 C 
ATOM     10  O   UNL A   1      30.308  27.478  23.081  1.00  0.00    -0.273 OA
ATOM     11  H   UNL A   1      30.226  29.285  24.519  1.00  0.00     0.164 HD
BRANCH   9  12
ATOM     12  C   UNL A   1      32.706  27.368  23.174  1.00  0.00     0.217 C 
BRANCH  12  13
ATOM     13  N   UNL A   1      32.893  26.869  21.820  1.00  0.00    -0.329 N 
ATOM     14  N   UNL A   1      32.271  24.596  21.754  1.00  0.00    -0.334 N 
ATOM     15  C   UNL A   1      32.731  25.708  21.183  1.00  0.00     0.315 C 
ATOM     16  H   UNL A   1      32.207  23.841  21.127  1.00  0.00     0.165 HD
ATOM     17  O   UNL A   1      33.024  25.677  19.986  1.00  0.00    -0.249 OA
ATOM     18  H   UNL A   1      33.224  27.572  21.215  1.00  0.00     0.165 HD
BRANCH  14  19
ATOM     19  C   UNL A   1      31.847  24.258  23.089  1.00  0.00     0.157 C 
BRANCH  19  20
ATOM     20  C   UNL A   1      32.798  23.311  23.739  1.00  0.00     0.015 A 
ATOM     21  C   UNL A   1      32.035  21.120  22.505  1.00  0.00     0.069 C 
ATOM     22  C   UNL A   1      32.838  21.910  23.475  1.00  0.00     0.065 A 
ATOM     23  N   UNL A   1      33.736  21.282  24.236  1.00  0.00    -0.178 NA
ATOM     24  N   UNL A   1      34.283  22.257  24.977  1.00  0.00    -0.272 N 
ATOM     25  C   UNL A   1      33.825  23.511  24.659  1.00  0.00     0.040 A 
ATOM     26  C   UNL A   1      35.238  21.882  25.994  1.00  0.00     0.174 C 
ATOM     27  C   UNL A   1      34.402  24.727  25.292  1.00  0.00     0.067 C 
ENDBRANCH  19  20
ENDBRANCH  14  19
ENDBRANCH  12  13
ENDBRANCH   9  12
ENDBRANCH   7   8
ENDBRANCH   4   7
ENDBRANCH   2   3
ENDBRANCH   1   2
BRANCH   1  28
ATOM     28  C   UNL A   1      34.557  32.444  29.272  1.00  0.00     0.002 C 
BRANCH  28  29
ATOM     29  C   UNL A   1      34.430  33.720  28.431  1.00  0.00     0.002 C 
BRANCH  29  30
ATOM     30  C   UNL A   1      33.215  34.596  28.746  1.00  0.00     0.021 C 
BRANCH  30  31
ATOM     31  C   UNL A   1      33.531  35.875  29.517  1.00  0.00     0.116 C 
BRANCH  31  32
ATOM     32  N   UNL A   1      32.584  36.113  30.595  1.00  0.00    -0.352 N 
ATOM     33  C   UNL A   1      32.598  35.665  31.891  1.00  0.00     0.251 C 
ATOM     34  H   UNL A   1      31.817  36.681  30.358  1.00  0.00     0.163 HD
ATOM     35  O   UNL A   1      31.611  35.802  32.602  1.00  0.00    -0.269 OA
BRANCH  33  36
ATOM     36  C   UNL A   1      33.803  34.997  32.425  1.00  0.00     0.039 A 
ATOM     37  C   UNL A   1      33.687  33.694  32.916  1.00  0.00     0.014 A 
ATOM     38  C   UNL A   1      35.038  35.650  32.443  1.00  0.00     0.014 A 
ATOM     39  C   UNL A   1      34.826  33.019  33.359  1.00  0.00     0.010 A 
ATOM     40  C   UNL A   1      36.182  34.953  32.818  1.00  0.00     0.010 A 
ATOM     41  C   UNL A   1      36.088  33.628  33.271  1.00  0.00    -0.014 A 
BRANCH  41  42
ATOM     42  C   UNL A   1      37.325  32.879  33.610  1.00  0.00     0.031 A 
ATOM     43  C   UNL A   1      38.072  33.176  34.881  1.00  0.00     0.074 A 
ATOM     44  C   UNL A   1      37.809  31.978  32.734  1.00  0.00     0.049 A 
ATOM     45  N   UNL A   1      39.202  32.673  35.311  1.00  0.00    -0.248 NA
ATOM     46  C   UNL A   1      37.486  34.188  35.774  1.00  0.00     0.031 C 
ATOM     47  C   UNL A   1      37.195  31.633  31.450  1.00  0.00     0.029 A 
ATOM     48  N   UNL A   1      38.936  31.194  32.782  1.00  0.00    -0.354 N 
ATOM     49  C   UNL A   1      39.468  33.315  36.513  1.00  0.00     0.074 A 
ATOM     50  C   UNL A   1      38.407  34.276  36.724  1.00  0.00     0.031 C 
ATOM     51  C   UNL A   1      37.935  30.690  30.846  1.00  0.00     0.029 A 
ATOM     52  C   UNL A   1      39.100  30.397  31.674  1.00  0.00     0.049 A 
ATOM     53  H   UNL A   1      39.565  31.201  33.539  1.00  0.00     0.167 HD
ATOM     54  C   UNL A   1      40.497  33.108  37.369  1.00  0.00     0.037 A 
ATOM     55  C   UNL A   1      40.089  29.540  31.355  1.00  0.00     0.037 A 
ATOM     56  C   UNL A   1      41.537  32.132  37.163  1.00  0.00     0.049 A 
ATOM     57  C   UNL A   1      41.235  29.355  32.314  1.00  0.00     0.074 A 
ATOM     58  C   UNL A   1      42.576  31.791  38.012  1.00  0.00     0.029 A 
ATOM     59  N   UNL A   1      41.676  31.351  36.026  1.00  0.00    -0.354 N 
ATOM     60  N   UNL A   1      41.429  29.904  33.488  1.00  0.00    -0.248 NA
ATOM     61  C   UNL A   1      42.300  28.433  31.900  1.00  0.00     0.031 C 
ATOM     62  C   UNL A   1      43.381  30.851  37.361  1.00  0.00     0.029 A 
ATOM     63  C   UNL A   1      42.808  30.560  36.132  1.00  0.00     0.049 A 
ATOM     64  H   UNL A   1      41.061  31.357  35.257  1.00  0.00     0.167 HD
ATOM     65  C   UNL A   1      42.620  29.373  33.965  1.00  0.00     0.074 A 
ATOM     66  C   UNL A   1      43.093  28.442  32.961  1.00  0.00     0.031 C 
ATOM     67  C   UNL A   1      43.266  29.634  35.127  1.00  0.00     0.037 A 
BRANCH  54  68
ATOM     68  C   UNL A   1      40.563  33.953  38.608  1.00  0.00     0.064 A 
ATOM     69  C   UNL A   1      41.282  35.157  38.645  1.00  0.00     0.173 A 
ATOM     70  C   UNL A   1      39.838  33.588  39.753  1.00  0.00     0.173 A 
ATOM     71  F   UNL A   1      41.997  35.549  37.580  1.00  0.00    -0.203 F 
ATOM     72  C   UNL A   1      41.291  35.952  39.787  1.00  0.00     0.198 A 
ATOM     73  C   UNL A   1      39.824  34.400  40.884  1.00  0.00     0.198 A 
ATOM     74  F   UNL A   1      39.128  32.450  39.770  1.00  0.00    -0.203 F 
ATOM     75  F   UNL A   1      42.017  37.078  39.813  1.00  0.00    -0.200 F 
ATOM     76  C   UNL A   1      40.554  35.578  40.902  1.00  0.00     0.200 A 
ATOM     77  F   UNL A   1      39.098  34.045  41.953  1.00  0.00    -0.200 F 
ATOM     78  F   UNL A   1      40.550  36.354  41.995  1.00  0.00    -0.200 F 
ENDBRANCH  54  68
BRANCH  55  79
ATOM     79  C   UNL A   1      40.041  28.782  30.077  1.00  0.00     0.064 A 
ATOM     80  C   UNL A   1      39.421  27.525  30.009  1.00  0.00     0.173 A 
ATOM     81  C   UNL A   1      40.637  29.276  28.908  1.00  0.00     0.173 A 
ATOM     82  F   UNL A   1      38.856  26.998  31.105  1.00  0.00    -0.203 F 
ATOM     83  C   UNL A   1      39.424  26.782  28.831  1.00  0.00     0.198 A 
ATOM     84  C   UNL A   1      40.611  28.546  27.721  1.00  0.00     0.198 A 
ATOM     85  F   UNL A   1      41.242  30.474  28.915  1.00  0.00    -0.203 F 
ATOM     86  F   UNL A   1      38.878  25.559  28.812  1.00  0.00    -0.200 F 
ATOM     87  C   UNL A   1      40.015  27.295  27.687  1.00  0.00     0.200 A 
ATOM     88  F   UNL A   1      41.171  29.052  26.613  1.00  0.00    -0.200 F 
ATOM     89  F   UNL A   1      40.023  26.578  26.555  1.00  0.00    -0.200 F 
ENDBRANCH  55  79
BRANCH  67  90
ATOM     90  C   UNL A   1      44.540  28.884  35.392  1.00  0.00     0.064 A 
ATOM     91  C   UNL A   1      44.538  27.630  36.020  1.00  0.00     0.173 A 
ATOM     92  C   UNL A   1      45.773  29.408  34.977  1.00  0.00     0.173 A 
ATOM     93  F   UNL A   1      43.388  27.091  36.452  1.00  0.00    -0.203 F 
ATOM     94  C   UNL A   1      45.728  26.941  36.246  1.00  0.00     0.198 A 
ATOM     95  C   UNL A   1      46.956  28.702  35.172  1.00  0.00     0.198 A 
ATOM     96  F   UNL A   1      45.830  30.602  34.365  1.00  0.00    -0.203 F 
ATOM     97  F   UNL A   1      45.708  25.768  36.894  1.00  0.00    -0.200 F 
ATOM     98  C   UNL A   1      46.933  27.473  35.814  1.00  0.00     0.200 A 
ATOM     99  F   UNL A   1      48.118  29.210  34.738  1.00  0.00    -0.200 F 
ATOM    100  F   UNL A   1      48.076  26.803  36.021  1.00  0.00    -0.200 F 
ENDBRANCH  67  90
ENDBRANCH  41  42
ENDBRANCH  33  36
ENDBRANCH  31  32
ENDBRANCH  30  31
ENDBRANCH  29  30
ENDBRANCH  28  29
ENDBRANCH   1  28
TORSDOF 18
ENDMDL
MODEL 3
REMARK VINA RESULT:     -11.4      1.947      7.809
REMARK SMILES Cc1nn(C)c(C)c1CNC(=O)NCC(=O)NCC(=O)NCCCCCCNC(=O)c1ccc(-c2c3nc(c(-c4c(F)c(F)c(F)c(F)c4F)c4ccc([nH]4)c(-c4c(F)c(F)c(F)c(F)c4F)c4nc(c(-c5c(F)c(F)c(F)c(F)c5F)c5ccc2[nH]5)C=C4)C=C3)cc1
REMARK SMILES IDX 23 1 22 2 21 3 19 4 20 5 18 7 17 8 15 9 16 10 14 12 13 13
REMARK SMILES IDX 10 14 11 15 12 17 9 19 8 20 1 21 2 22 3 23 4 24 6 25 5 26
REMARK SMILES IDX 7 27 24 28 25 29 26 30 27 31 28 32 29 33 30 35 31 36 32 37
REMARK SMILES IDX 93 38 33 39 92 40 34 41 35 42 36 43 86 44 37 45 91 46 85 47
REMARK SMILES IDX 87 48 38 49 90 50 84 51 83 52 39 54 71 55 51 56 70 57 52 58
REMARK SMILES IDX 55 59 69 60 88 61 53 62 54 63 68 65 89 66 56 67 40 68 41 69
REMARK SMILES IDX 49 70 42 71 43 72 47 73 50 74 44 75 45 76 48 77 46 78 72 79
REMARK SMILES IDX 73 80 81 81 74 82 75 83 79 84 82 85 76 86 77 87 80 88 78 89
REMARK SMILES IDX 57 90 58 91 66 92 59 93 60 94 64 95 67 96 61 97 62 98 65 99
REMARK SMILES IDX 63 100
REMARK H PARENT 21 6 17 11 10 16 13 18 28 34 87 53 55 64
REMARK Flexibility Score: inf
ROOT
ATOM      1  C   UNL A   1      40.249  22.451  26.434  1.00  0.00     0.021 C 
ENDROOT
BRANCH   1   2
ATOM      2  C   UNL A   1      38.957  21.703  26.156  1.00  0.00     0.116 C 
BRANCH   2   3
ATOM      3  N   UNL A   1      38.286  22.151  24.962  1.00  0.00    -0.355 N 
ATOM      4  C   UNL A   1      37.134  22.875  24.860  1.00  0.00     0.239 C 
ATOM      5  O   UNL A   1      36.832  23.325  23.752  1.00  0.00    -0.273 OA
ATOM      6  H   UNL A   1      38.714  21.904  24.111  1.00  0.00     0.163 HD
BRANCH   4   7
ATOM      7  C   UNL A   1      36.323  23.263  26.109  1.00  0.00     0.216 C 
BRANCH   7   8
ATOM      8  N   UNL A   1      35.466  22.233  26.679  1.00  0.00    -0.346 N 
ATOM      9  C   UNL A   1      34.135  22.186  26.948  1.00  0.00     0.239 C 
ATOM     10  O   UNL A   1      33.692  21.092  27.315  1.00  0.00    -0.273 OA
ATOM     11  H   UNL A   1      35.946  21.406  26.915  1.00  0.00     0.164 HD
BRANCH   9  12
ATOM     12  C   UNL A   1      33.153  23.353  26.710  1.00  0.00     0.217 C 
BRANCH  12  13
ATOM     13  N   UNL A   1      31.795  23.218  27.216  1.00  0.00    -0.329 N 
ATOM     14  N   UNL A   1      30.283  23.626  25.454  1.00  0.00    -0.334 N 
ATOM     15  C   UNL A   1      30.560  23.334  26.724  1.00  0.00     0.315 C 
ATOM     16  H   UNL A   1      29.317  23.657  25.270  1.00  0.00     0.165 HD
ATOM     17  O   UNL A   1      29.623  23.150  27.504  1.00  0.00    -0.249 OA
ATOM     18  H   UNL A   1      31.784  22.978  28.171  1.00  0.00     0.165 HD
BRANCH  14  19
ATOM     19  C   UNL A   1      31.087  23.906  24.292  1.00  0.00     0.157 C 
BRANCH  19  20
ATOM     20  C   UNL A   1      31.267  25.372  24.094  1.00  0.00     0.015 A 
ATOM     21  C   UNL A   1      33.886  25.395  23.885  1.00  0.00     0.069 C 
ATOM     22  C   UNL A   1      32.534  26.010  23.942  1.00  0.00     0.065 A 
ATOM     23  N   UNL A   1      32.420  27.335  23.844  1.00  0.00    -0.178 NA
ATOM     24  N   UNL A   1      31.100  27.561  23.920  1.00  0.00    -0.272 N 
ATOM     25  C   UNL A   1      30.349  26.414  23.979  1.00  0.00     0.040 A 
ATOM     26  C   UNL A   1      30.647  28.933  23.948  1.00  0.00     0.174 C 
ATOM     27  C   UNL A   1      28.863  26.463  23.948  1.00  0.00     0.067 C 
ENDBRANCH  19  20
ENDBRANCH  14  19
ENDBRANCH  12  13
ENDBRANCH   9  12
ENDBRANCH   7   8
ENDBRANCH   4   7
ENDBRANCH   2   3
ENDBRANCH   1   2
BRANCH   1  28
ATOM     28  C   UNL A   1      41.502  21.628  26.154  1.00  0.00     0.002 C 
BRANCH  28  29
ATOM     29  C   UNL A   1      41.450  20.184  26.669  1.00  0.00     0.002 C 
BRANCH  29  30
ATOM     30  C   UNL A   1      42.013  19.125  25.716  1.00  0.00     0.021 C 
BRANCH  30  31
ATOM     31  C   UNL A   1      43.409  18.622  26.073  1.00  0.00     0.116 C 
BRANCH  31  32
ATOM     32  N   UNL A   1      44.272  18.529  24.906  1.00  0.00    -0.352 N 
ATOM     33  C   UNL A   1      44.866  19.523  24.170  1.00  0.00     0.251 C 
ATOM     34  H   UNL A   1      44.457  17.613  24.597  1.00  0.00     0.163 HD
ATOM     35  O   UNL A   1      45.397  19.264  23.098  1.00  0.00    -0.269 OA
BRANCH  33  36
ATOM     36  C   UNL A   1      44.847  20.915  24.666  1.00  0.00     0.039 A 
ATOM     37  C   UNL A   1      45.243  21.164  25.983  1.00  0.00     0.014 A 
ATOM     38  C   UNL A   1      44.440  21.966  23.841  1.00  0.00     0.014 A 
ATOM     39  C   UNL A   1      45.299  22.479  26.449  1.00  0.00     0.010 A 
ATOM     40  C   UNL A   1      44.565  23.279  24.284  1.00  0.00     0.010 A 
ATOM     41  C   UNL A   1      45.004  23.549  25.589  1.00  0.00    -0.014 A 
BRANCH  41  42
ATOM     42  C   UNL A   1      45.189  24.956  26.026  1.00  0.00     0.031 A 
ATOM     43  C   UNL A   1      46.546  25.599  25.972  1.00  0.00     0.074 A 
ATOM     44  C   UNL A   1      44.140  25.628  26.538  1.00  0.00     0.049 A 
ATOM     45  N   UNL A   1      46.912  26.791  26.372  1.00  0.00    -0.248 NA
ATOM     46  C   UNL A   1      47.643  24.790  25.418  1.00  0.00     0.031 C 
ATOM     47  C   UNL A   1      42.783  25.096  26.680  1.00  0.00     0.029 A 
ATOM     48  N   UNL A   1      44.050  26.901  27.046  1.00  0.00    -0.354 N 
ATOM     49  C   UNL A   1      48.277  26.869  26.132  1.00  0.00     0.074 A 
ATOM     50  C   UNL A   1      48.686  25.590  25.593  1.00  0.00     0.031 C 
ATOM     51  C   UNL A   1      41.992  26.042  27.211  1.00  0.00     0.029 A 
ATOM     52  C   UNL A   1      42.792  27.229  27.492  1.00  0.00     0.049 A 
ATOM     53  H   UNL A   1      44.814  27.521  27.085  1.00  0.00     0.167 HD
ATOM     54  C   UNL A   1      49.109  27.920  26.329  1.00  0.00     0.037 A 
ATOM     55  C   UNL A   1      42.340  28.355  28.077  1.00  0.00     0.037 A 
ATOM     56  C   UNL A   1      48.690  29.198  26.844  1.00  0.00     0.049 A 
ATOM     57  C   UNL A   1      43.297  29.493  28.311  1.00  0.00     0.074 A 
ATOM     58  C   UNL A   1      49.441  30.350  27.002  1.00  0.00     0.029 A 
ATOM     59  N   UNL A   1      47.411  29.490  27.294  1.00  0.00    -0.354 N 
ATOM     60  N   UNL A   1      44.567  29.585  27.998  1.00  0.00    -0.248 NA
ATOM     61  C   UNL A   1      42.757  30.683  28.982  1.00  0.00     0.031 C 
ATOM     62  C   UNL A   1      48.635  31.317  27.609  1.00  0.00     0.029 A 
ATOM     63  C   UNL A   1      47.363  30.790  27.770  1.00  0.00     0.049 A 
ATOM     64  H   UNL A   1      46.649  28.865  27.276  1.00  0.00     0.167 HD
ATOM     65  C   UNL A   1      44.968  30.850  28.407  1.00  0.00     0.074 A 
ATOM     66  C   UNL A   1      43.802  31.497  28.971  1.00  0.00     0.031 C 
ATOM     67  C   UNL A   1      46.193  31.424  28.325  1.00  0.00     0.037 A 
BRANCH  54  68
ATOM     68  C   UNL A   1      50.561  27.739  25.997  1.00  0.00     0.064 A 
ATOM     69  C   UNL A   1      51.506  27.389  26.973  1.00  0.00     0.173 A 
ATOM     70  C   UNL A   1      51.003  27.849  24.669  1.00  0.00     0.173 A 
ATOM     71  F   UNL A   1      51.138  27.277  28.259  1.00  0.00    -0.203 F 
ATOM     72  C   UNL A   1      52.840  27.177  26.637  1.00  0.00     0.198 A 
ATOM     73  C   UNL A   1      52.332  27.607  24.331  1.00  0.00     0.198 A 
ATOM     74  F   UNL A   1      50.141  28.176  23.695  1.00  0.00    -0.203 F 
ATOM     75  F   UNL A   1      53.732  26.882  27.594  1.00  0.00    -0.200 F 
ATOM     76  C   UNL A   1      53.250  27.276  25.316  1.00  0.00     0.200 A 
ATOM     77  F   UNL A   1      52.722  27.687  23.052  1.00  0.00    -0.200 F 
ATOM     78  F   UNL A   1      54.532  27.055  24.992  1.00  0.00    -0.200 F 
ENDBRANCH  54  68
BRANCH  55  79
ATOM     79  C   UNL A   1      40.912  28.471  28.477  1.00  0.00     0.064 A 
ATOM     80  C   UNL A   1      39.956  28.981  27.588  1.00  0.00     0.173 A 
ATOM     81  C   UNL A   1      40.478  28.107  29.760  1.00  0.00     0.173 A 
ATOM     82  F   UNL A   1      40.325  29.364  26.356  1.00  0.00    -0.203 F 
ATOM     83  C   UNL A   1      38.628  29.150  27.975  1.00  0.00     0.198 A 
ATOM     84  C   UNL A   1      39.144  28.245  30.136  1.00  0.00     0.198 A 
ATOM     85  F   UNL A   1      41.350  27.611  30.651  1.00  0.00    -0.203 F 
ATOM     86  F   UNL A   1      37.749  29.697  27.124  1.00  0.00    -0.200 F 
ATOM     87  C   UNL A   1      38.222  28.777  29.247  1.00  0.00     0.200 A 
ATOM     88  F   UNL A   1      38.752  27.870  31.361  1.00  0.00    -0.200 F 
ATOM     89  F   UNL A   1      36.947  28.944  29.621  1.00  0.00    -0.200 F 
ENDBRANCH  55  79
BRANCH  67  90
ATOM     90  C   UNL A   1      46.332  32.830  28.832  1.00  0.00     0.064 A 
ATOM     91  C   UNL A   1      46.639  33.102  30.173  1.00  0.00     0.173 A 
ATOM     92  C   UNL A   1      46.198  33.919  27.956  1.00  0.00     0.173 A 
ATOM     93  F   UNL A   1      46.761  32.099  31.055  1.00  0.00    -0.203 F 
ATOM     94  C   UNL A   1      46.779  34.413  30.624  1.00  0.00     0.198 A 
ATOM     95  C   UNL A   1      46.374  35.225  28.402  1.00  0.00     0.198 A 
ATOM     96  F   UNL A   1      45.912  33.714  26.661  1.00  0.00    -0.203 F 
ATOM     97  F   UNL A   1      47.020  34.651  31.921  1.00  0.00    -0.200 F 
ATOM     98  C   UNL A   1      46.656  35.471  29.737  1.00  0.00     0.200 A 
ATOM     99  F   UNL A   1      46.271  36.246  27.540  1.00  0.00    -0.200 F 
ATOM    100  F   UNL A   1      46.802  36.731  30.170  1.00  0.00    -0.200 F 
ENDBRANCH  67  90
ENDBRANCH  41  42
ENDBRANCH  33  36
ENDBRANCH  31  32
ENDBRANCH  30  31
ENDBRANCH  29  30
ENDBRANCH  28  29
ENDBRANCH   1  28
TORSDOF 18
ENDMDL
