MODEL 1
REMARK VINA RESULT:     -12.5      0.000      0.000
REMARK SMILES NC(=O)c1ccc(NC(=O)Cc2ccccc2C(=O)NCCCCCCNC(=O)c2ccc(-c3c4nc(c(-c5c(F)c(F)c(F)c(F)c5F)c5ccc([nH]5)c(-c5c(F)c(F)c(F)c(F)c5F)c5nc(c(-c6c(F)c(F)c(F)c(F)c6F)c6ccc3[nH]6)C=C5)C=C4)cc2)cc1
REMARK SMILES IDX 22 1 21 2 20 3 18 4 19 5 17 7 12 8 13 9 14 10 16 11 15 12
REMARK SMILES IDX 11 13 9 14 8 15 10 17 7 18 4 19 5 20 94 21 6 22 93 23 2 24
REMARK SMILES IDX 1 25 3 28 23 29 24 30 25 31 26 32 27 33 28 34 29 36 30 37
REMARK SMILES IDX 31 38 92 39 32 40 91 41 33 42 34 43 35 44 85 45 36 46 90 47
REMARK SMILES IDX 84 48 86 49 37 50 89 51 83 52 82 53 38 55 70 56 50 57 69 58
REMARK SMILES IDX 51 59 54 60 68 61 87 62 52 63 53 64 67 66 88 67 55 68 39 69
REMARK SMILES IDX 40 70 48 71 41 72 42 73 46 74 49 75 43 76 44 77 47 78 45 79
REMARK SMILES IDX 71 80 72 81 80 82 73 83 74 84 78 85 81 86 75 87 76 88 79 89
REMARK SMILES IDX 77 90 56 91 57 92 65 93 58 94 59 95 63 96 66 97 60 98 61 99
REMARK SMILES IDX 64 100 62 101
REMARK H PARENT 20 6 8 16 1 26 1 27 27 35 86 54 54 65
REMARK Flexibility Score: inf
ROOT
ATOM      1  C   UNL A   1      33.066  25.193  26.130  1.00  0.00     0.021 C 
ENDROOT
BRANCH   1   2
ATOM      2  C   UNL A   1      31.618  24.771  26.388  1.00  0.00     0.116 C 
BRANCH   2   3
ATOM      3  N   UNL A   1      30.982  24.433  25.127  1.00  0.00    -0.352 N 
ATOM      4  C   UNL A   1      30.542  24.998  23.965  1.00  0.00     0.251 C 
ATOM      5  O   UNL A   1      29.945  24.190  23.241  1.00  0.00    -0.269 OA
ATOM      6  H   UNL A   1      30.809  23.464  25.101  1.00  0.00     0.163 HD
BRANCH   4   7
ATOM      7  C   UNL A   1      30.768  26.385  23.406  1.00  0.00     0.043 A 
ATOM      8  C   UNL A   1      31.853  26.951  22.690  1.00  0.00    -0.026 A 
ATOM      9  C   UNL A   1      31.802  28.326  22.342  1.00  0.00     0.005 A 
ATOM     10  C   UNL A   1      30.682  29.111  22.592  1.00  0.00     0.000 A 
ATOM     11  C   UNL A   1      29.626  27.205  23.594  1.00  0.00     0.014 A 
ATOM     12  C   UNL A   1      29.573  28.539  23.186  1.00  0.00     0.001 A 
BRANCH   8  13
ATOM     13  C   UNL A   1      33.102  26.242  22.247  1.00  0.00     0.136 C 
BRANCH  13  14
ATOM     14  C   UNL A   1      33.017  25.157  21.154  1.00  0.00     0.228 C 
ATOM     15  N   UNL A   1      32.975  23.794  21.259  1.00  0.00    -0.326 N 
ATOM     16  H   UNL A   1      32.955  23.373  20.369  1.00  0.00     0.169 HD
ATOM     17  O   UNL A   1      33.066  25.557  19.975  1.00  0.00    -0.274 OA
BRANCH  15  18
ATOM     18  C   UNL A   1      32.954  22.822  22.279  1.00  0.00     0.041 A 
ATOM     19  C   UNL A   1      32.884  20.841  24.317  1.00  0.00     0.039 A 
ATOM     20  C   UNL A   1      33.666  21.972  24.455  1.00  0.00     0.016 A 
ATOM     21  C   UNL A   1      32.130  20.681  23.150  1.00  0.00     0.016 A 
ATOM     22  C   UNL A   1      33.690  22.914  23.435  1.00  0.00     0.027 A 
ATOM     23  C   UNL A   1      32.160  21.674  22.141  1.00  0.00     0.027 A 
BRANCH  19  24
ATOM     24  C   UNL A   1      32.916  19.885  25.448  1.00  0.00     0.248 C 
ATOM     25  N   UNL A   1      33.529  20.291  26.594  1.00  0.00    -0.366 N 
ATOM     26  H   UNL A   1      33.572  19.685  27.370  1.00  0.00     0.159 HD
ATOM     27  H   UNL A   1      33.928  21.188  26.646  1.00  0.00     0.159 HD
ATOM     28  O   UNL A   1      32.352  18.801  25.382  1.00  0.00    -0.270 OA
ENDBRANCH  19  24
ENDBRANCH  15  18
ENDBRANCH  13  14
ENDBRANCH   8  13
ENDBRANCH   4   7
ENDBRANCH   2   3
ENDBRANCH   1   2
BRANCH   1  29
ATOM     29  C   UNL A   1      33.229  26.711  26.139  1.00  0.00     0.002 C 
BRANCH  29  30
ATOM     30  C   UNL A   1      32.066  27.453  26.800  1.00  0.00     0.002 C 
BRANCH  30  31
ATOM     31  C   UNL A   1      31.789  28.848  26.235  1.00  0.00     0.021 C 
BRANCH  31  32
ATOM     32  C   UNL A   1      33.034  29.696  26.000  1.00  0.00     0.116 C 
BRANCH  32  33
ATOM     33  N   UNL A   1      32.799  31.101  26.299  1.00  0.00    -0.352 N 
ATOM     34  C   UNL A   1      33.400  31.903  27.232  1.00  0.00     0.251 C 
ATOM     35  H   UNL A   1      32.109  31.538  25.749  1.00  0.00     0.163 HD
ATOM     36  O   UNL A   1      32.933  33.003  27.502  1.00  0.00    -0.269 OA
BRANCH  34  37
ATOM     37  C   UNL A   1      34.615  31.426  27.918  1.00  0.00     0.039 A 
ATOM     38  C   UNL A   1      35.706  32.287  28.045  1.00  0.00     0.014 A 
ATOM     39  C   UNL A   1      34.676  30.123  28.421  1.00  0.00     0.014 A 
ATOM     40  C   UNL A   1      36.851  31.851  28.708  1.00  0.00     0.010 A 
ATOM     41  C   UNL A   1      35.784  29.720  29.155  1.00  0.00     0.010 A 
ATOM     42  C   UNL A   1      36.891  30.571  29.285  1.00  0.00    -0.014 A 
BRANCH  42  43
ATOM     43  C   UNL A   1      38.101  30.084  29.989  1.00  0.00     0.031 A 
ATOM     44  C   UNL A   1      38.395  30.562  31.384  1.00  0.00     0.074 A 
ATOM     45  C   UNL A   1      38.954  29.257  29.356  1.00  0.00     0.049 A 
ATOM     46  N   UNL A   1      39.424  30.301  32.150  1.00  0.00    -0.248 NA
ATOM     47  C   UNL A   1      37.417  31.482  31.986  1.00  0.00     0.031 C 
ATOM     48  C   UNL A   1      38.796  28.766  27.987  1.00  0.00     0.029 A 
ATOM     49  N   UNL A   1      40.129  28.691  29.781  1.00  0.00    -0.354 N 
ATOM     50  C   UNL A   1      39.222  31.037  33.312  1.00  0.00     0.074 A 
ATOM     51  C   UNL A   1      38.011  31.803  33.125  1.00  0.00     0.031 C 
ATOM     52  C   UNL A   1      39.822  27.951  27.693  1.00  0.00     0.029 A 
ATOM     53  C   UNL A   1      40.727  27.893  28.836  1.00  0.00     0.049 A 
ATOM     54  H   UNL A   1      40.508  28.842  30.678  1.00  0.00     0.167 HD
ATOM     55  C   UNL A   1      39.966  31.048  34.443  1.00  0.00     0.037 A 
ATOM     56  C   UNL A   1      41.878  27.199  28.891  1.00  0.00     0.037 A 
ATOM     57  C   UNL A   1      41.159  30.264  34.627  1.00  0.00     0.049 A 
ATOM     58  C   UNL A   1      42.689  27.230  30.159  1.00  0.00     0.074 A 
ATOM     59  C   UNL A   1      41.960  30.161  35.750  1.00  0.00     0.029 A 
ATOM     60  N   UNL A   1      41.723  29.449  33.656  1.00  0.00    -0.354 N 
ATOM     61  N   UNL A   1      42.455  27.873  31.277  1.00  0.00    -0.248 NA
ATOM     62  C   UNL A   1      43.918  26.425  30.176  1.00  0.00     0.031 C 
ATOM     63  C   UNL A   1      43.040  29.326  35.440  1.00  0.00     0.029 A 
ATOM     64  C   UNL A   1      42.875  28.855  34.148  1.00  0.00     0.049 A 
ATOM     65  H   UNL A   1      41.359  29.312  32.752  1.00  0.00     0.167 HD
ATOM     66  C   UNL A   1      43.484  27.525  32.142  1.00  0.00     0.074 A 
ATOM     67  C   UNL A   1      44.337  26.601  31.421  1.00  0.00     0.031 C 
ATOM     68  C   UNL A   1      43.703  27.927  33.418  1.00  0.00     0.037 A 
BRANCH  55  69
ATOM     69  C   UNL A   1      39.510  31.939  35.564  1.00  0.00     0.064 A 
ATOM     70  C   UNL A   1      38.577  31.506  36.520  1.00  0.00     0.173 A 
ATOM     71  C   UNL A   1      40.024  33.237  35.696  1.00  0.00     0.173 A 
ATOM     72  F   UNL A   1      38.042  30.278  36.435  1.00  0.00    -0.203 F 
ATOM     73  C   UNL A   1      38.149  32.350  37.541  1.00  0.00     0.198 A 
ATOM     74  C   UNL A   1      39.621  34.067  36.740  1.00  0.00     0.198 A 
ATOM     75  F   UNL A   1      40.922  33.703  34.816  1.00  0.00    -0.203 F 
ATOM     76  F   UNL A   1      37.210  31.935  38.403  1.00  0.00    -0.200 F 
ATOM     77  C   UNL A   1      38.676  33.627  37.654  1.00  0.00     0.200 A 
ATOM     78  F   UNL A   1      40.143  35.296  36.857  1.00  0.00    -0.200 F 
ATOM     79  F   UNL A   1      38.267  34.438  38.640  1.00  0.00    -0.200 F 
ENDBRANCH  55  69
BRANCH  56  80
ATOM     80  C   UNL A   1      42.313  26.388  27.723  1.00  0.00     0.064 A 
ATOM     81  C   UNL A   1      43.277  26.873  26.828  1.00  0.00     0.173 A 
ATOM     82  C   UNL A   1      41.775  25.117  27.474  1.00  0.00     0.173 A 
ATOM     83  F   UNL A   1      43.810  28.090  27.013  1.00  0.00    -0.203 F 
ATOM     84  C   UNL A   1      43.668  26.129  25.717  1.00  0.00     0.198 A 
ATOM     85  C   UNL A   1      42.190  24.361  26.380  1.00  0.00     0.198 A 
ATOM     86  F   UNL A   1      40.854  24.604  28.304  1.00  0.00    -0.203 F 
ATOM     87  F   UNL A   1      44.555  26.638  24.851  1.00  0.00    -0.200 F 
ATOM     88  C   UNL A   1      43.129  24.871  25.498  1.00  0.00     0.200 A 
ATOM     89  F   UNL A   1      41.679  23.138  26.182  1.00  0.00    -0.200 F 
ATOM     90  F   UNL A   1      43.508  24.153  24.432  1.00  0.00    -0.200 F 
ENDBRANCH  56  80
BRANCH  68  91
ATOM     91  C   UNL A   1      44.879  27.330  34.136  1.00  0.00     0.064 A 
ATOM     92  C   UNL A   1      44.784  26.124  34.847  1.00  0.00     0.173 A 
ATOM     93  C   UNL A   1      46.132  27.963  34.083  1.00  0.00     0.173 A 
ATOM     94  F   UNL A   1      43.607  25.487  34.940  1.00  0.00    -0.203 F 
ATOM     95  C   UNL A   1      45.889  25.594  35.507  1.00  0.00     0.198 A 
ATOM     96  C   UNL A   1      47.242  27.410  34.714  1.00  0.00     0.198 A 
ATOM     97  F   UNL A   1      46.280  29.113  33.409  1.00  0.00    -0.203 F 
ATOM     98  F   UNL A   1      45.760  24.473  36.230  1.00  0.00    -0.200 F 
ATOM     99  C   UNL A   1      47.118  26.233  35.433  1.00  0.00     0.200 A 
ATOM    100  F   UNL A   1      48.433  28.019  34.625  1.00  0.00    -0.200 F 
ATOM    101  F   UNL A   1      48.182  25.716  36.064  1.00  0.00    -0.200 F 
ENDBRANCH  68  91
ENDBRANCH  42  43
ENDBRANCH  34  37
ENDBRANCH  32  33
ENDBRANCH  31  32
ENDBRANCH  30  31
ENDBRANCH  29  30
ENDBRANCH   1  29
TORSDOF 17
ENDMDL
MODEL 2
REMARK VINA RESULT:     -12.4      2.062      8.075
REMARK SMILES NC(=O)c1ccc(NC(=O)Cc2ccccc2C(=O)NCCCCCCNC(=O)c2ccc(-c3c4nc(c(-c5c(F)c(F)c(F)c(F)c5F)c5ccc([nH]5)c(-c5c(F)c(F)c(F)c(F)c5F)c5nc(c(-c6c(F)c(F)c(F)c(F)c6F)c6ccc3[nH]6)C=C5)C=C4)cc2)cc1
REMARK SMILES IDX 22 1 21 2 20 3 18 4 19 5 17 7 12 8 13 9 14 10 16 11 15 12
REMARK SMILES IDX 11 13 9 14 8 15 10 17 7 18 4 19 5 20 94 21 6 22 93 23 2 24
REMARK SMILES IDX 1 25 3 28 23 29 24 30 25 31 26 32 27 33 28 34 29 36 30 37
REMARK SMILES IDX 31 38 92 39 32 40 91 41 33 42 34 43 35 44 85 45 36 46 90 47
REMARK SMILES IDX 84 48 86 49 37 50 89 51 83 52 82 53 38 55 70 56 50 57 69 58
REMARK SMILES IDX 51 59 54 60 68 61 87 62 52 63 53 64 67 66 88 67 55 68 39 69
REMARK SMILES IDX 40 70 48 71 41 72 42 73 46 74 49 75 43 76 44 77 47 78 45 79
REMARK SMILES IDX 71 80 72 81 80 82 73 83 74 84 78 85 81 86 75 87 76 88 79 89
REMARK SMILES IDX 77 90 56 91 57 92 65 93 58 94 59 95 63 96 66 97 60 98 61 99
REMARK SMILES IDX 64 100 62 101
REMARK H PARENT 20 6 8 16 1 26 1 27 27 35 86 54 54 65
REMARK Flexibility Score: inf
ROOT
ATOM      1  C   UNL A   1      31.791  28.875  27.241  1.00  0.00     0.021 C 
ENDROOT
BRANCH   1   2
ATOM      2  C   UNL A   1      32.048  27.374  27.085  1.00  0.00     0.116 C 
BRANCH   2   3
ATOM      3  N   UNL A   1      32.785  27.137  25.856  1.00  0.00    -0.352 N 
ATOM      4  C   UNL A   1      33.659  26.260  25.285  1.00  0.00     0.251 C 
ATOM      5  O   UNL A   1      34.061  26.644  24.178  1.00  0.00    -0.269 OA
ATOM      6  H   UNL A   1      32.585  27.858  25.216  1.00  0.00     0.163 HD
BRANCH   4   7
ATOM      7  C   UNL A   1      34.103  24.887  25.739  1.00  0.00     0.043 A 
ATOM      8  C   UNL A   1      33.397  23.818  26.347  1.00  0.00    -0.026 A 
ATOM      9  C   UNL A   1      34.111  22.649  26.720  1.00  0.00     0.005 A 
ATOM     10  C   UNL A   1      35.458  22.478  26.417  1.00  0.00     0.000 A 
ATOM     11  C   UNL A   1      35.460  24.650  25.401  1.00  0.00     0.014 A 
ATOM     12  C   UNL A   1      36.127  23.466  25.721  1.00  0.00     0.001 A 
BRANCH   8  13
ATOM     13  C   UNL A   1      31.929  23.779  26.665  1.00  0.00     0.136 C 
BRANCH  13  14
ATOM     14  C   UNL A   1      30.933  23.261  25.607  1.00  0.00     0.228 C 
ATOM     15  N   UNL A   1      30.335  23.907  24.561  1.00  0.00    -0.326 N 
ATOM     16  H   UNL A   1      29.718  23.307  24.083  1.00  0.00     0.169 HD
ATOM     17  O   UNL A   1      30.537  22.088  25.751  1.00  0.00    -0.274 OA
BRANCH  15  18
ATOM     18  C   UNL A   1      30.351  25.188  23.973  1.00  0.00     0.041 A 
ATOM     19  C   UNL A   1      30.356  27.782  22.809  1.00  0.00     0.039 A 
ATOM     20  C   UNL A   1      31.102  26.757  22.258  1.00  0.00     0.016 A 
ATOM     21  C   UNL A   1      29.602  27.524  23.959  1.00  0.00     0.016 A 
ATOM     22  C   UNL A   1      31.090  25.504  22.859  1.00  0.00     0.027 A 
ATOM     23  C   UNL A   1      29.595  26.228  24.530  1.00  0.00     0.027 A 
BRANCH  19  24
ATOM     24  C   UNL A   1      30.425  29.086  22.111  1.00  0.00     0.248 C 
ATOM     25  N   UNL A   1      31.650  29.668  21.992  1.00  0.00    -0.366 N 
ATOM     26  H   UNL A   1      31.740  30.536  21.534  1.00  0.00     0.159 HD
ATOM     27  H   UNL A   1      32.445  29.222  22.363  1.00  0.00     0.159 HD
ATOM     28  O   UNL A   1      29.434  29.587  21.599  1.00  0.00    -0.270 OA
ENDBRANCH  19  24
ENDBRANCH  15  18
ENDBRANCH  13  14
ENDBRANCH   8  13
ENDBRANCH   4   7
ENDBRANCH   2   3
ENDBRANCH   1   2
BRANCH   1  29
ATOM     29  C   UNL A   1      32.288  29.669  26.035  1.00  0.00     0.002 C 
BRANCH  29  30
ATOM     30  C   UNL A   1      31.306  30.741  25.556  1.00  0.00     0.002 C 
BRANCH  30  31
ATOM     31  C   UNL A   1      31.151  31.937  26.496  1.00  0.00     0.021 C 
BRANCH  31  32
ATOM     32  C   UNL A   1      32.465  32.514  27.011  1.00  0.00     0.116 C 
BRANCH  32  33
ATOM     33  N   UNL A   1      32.332  33.911  27.397  1.00  0.00    -0.352 N 
ATOM     34  C   UNL A   1      32.981  34.605  28.384  1.00  0.00     0.251 C 
ATOM     35  H   UNL A   1      31.683  34.432  26.872  1.00  0.00     0.163 HD
ATOM     36  O   UNL A   1      32.594  35.717  28.721  1.00  0.00    -0.269 OA
BRANCH  34  37
ATOM     37  C   UNL A   1      34.149  33.995  29.046  1.00  0.00     0.039 A 
ATOM     38  C   UNL A   1      35.427  34.468  28.739  1.00  0.00     0.014 A 
ATOM     39  C   UNL A   1      33.979  32.948  29.956  1.00  0.00     0.014 A 
ATOM     40  C   UNL A   1      36.535  33.910  29.374  1.00  0.00     0.010 A 
ATOM     41  C   UNL A   1      35.076  32.454  30.650  1.00  0.00     0.010 A 
ATOM     42  C   UNL A   1      36.366  32.913  30.348  1.00  0.00    -0.014 A 
BRANCH  42  43
ATOM     43  C   UNL A   1      37.531  32.301  31.030  1.00  0.00     0.031 A 
ATOM     44  C   UNL A   1      38.301  31.203  30.351  1.00  0.00     0.074 A 
ATOM     45  C   UNL A   1      37.860  32.698  32.273  1.00  0.00     0.049 A 
ATOM     46  N   UNL A   1      39.312  30.502  30.796  1.00  0.00    -0.248 NA
ATOM     47  C   UNL A   1      37.853  30.820  29.002  1.00  0.00     0.031 C 
ATOM     48  C   UNL A   1      37.156  33.721  33.049  1.00  0.00     0.029 A 
ATOM     49  N   UNL A   1      38.867  32.282  33.106  1.00  0.00    -0.354 N 
ATOM     50  C   UNL A   1      39.607  29.589  29.791  1.00  0.00     0.074 A 
ATOM     51  C   UNL A   1      38.630  29.780  28.744  1.00  0.00     0.031 C 
ATOM     52  C   UNL A   1      37.769  33.871  34.234  1.00  0.00     0.029 A 
ATOM     53  C   UNL A   1      38.882  32.931  34.317  1.00  0.00     0.049 A 
ATOM     54  H   UNL A   1      39.518  31.585  32.860  1.00  0.00     0.167 HD
ATOM     55  C   UNL A   1      40.620  28.692  29.737  1.00  0.00     0.037 A 
ATOM     56  C   UNL A   1      39.702  32.777  35.373  1.00  0.00     0.037 A 
ATOM     57  C   UNL A   1      41.602  28.525  30.777  1.00  0.00     0.049 A 
ATOM     58  C   UNL A   1      40.819  31.771  35.288  1.00  0.00     0.074 A 
ATOM     59  C   UNL A   1      42.699  27.683  30.801  1.00  0.00     0.029 A 
ATOM     60  N   UNL A   1      41.599  29.216  31.980  1.00  0.00    -0.354 N 
ATOM     61  N   UNL A   1      41.133  30.961  34.307  1.00  0.00    -0.248 NA
ATOM     62  C   UNL A   1      41.705  31.670  36.456  1.00  0.00     0.031 C 
ATOM     63  C   UNL A   1      43.329  27.825  32.043  1.00  0.00     0.029 A 
ATOM     64  C   UNL A   1      42.664  28.804  32.764  1.00  0.00     0.049 A 
ATOM     65  H   UNL A   1      40.938  29.898  32.239  1.00  0.00     0.167 HD
ATOM     66  C   UNL A   1      42.270  30.281  34.721  1.00  0.00     0.074 A 
ATOM     67  C   UNL A   1      42.598  30.785  36.039  1.00  0.00     0.031 C 
ATOM     68  C   UNL A   1      42.982  29.328  34.068  1.00  0.00     0.037 A 
BRANCH  55  69
ATOM     69  C   UNL A   1      40.713  27.824  28.514  1.00  0.00     0.064 A 
ATOM     70  C   UNL A   1      41.482  28.196  27.399  1.00  0.00     0.173 A 
ATOM     71  C   UNL A   1      40.038  26.595  28.459  1.00  0.00     0.173 A 
ATOM     72  F   UNL A   1      42.138  29.367  27.390  1.00  0.00    -0.203 F 
ATOM     73  C   UNL A   1      41.541  27.390  26.265  1.00  0.00     0.198 A 
ATOM     74  C   UNL A   1      40.128  25.775  27.338  1.00  0.00     0.198 A 
ATOM     75  F   UNL A   1      39.292  26.186  29.496  1.00  0.00    -0.203 F 
ATOM     76  F   UNL A   1      42.230  27.798  25.190  1.00  0.00    -0.200 F 
ATOM     77  C   UNL A   1      40.870  26.178  26.238  1.00  0.00     0.200 A 
ATOM     78  F   UNL A   1      39.491  24.596  27.319  1.00  0.00    -0.200 F 
ATOM     79  F   UNL A   1      40.931  25.400  25.147  1.00  0.00    -0.200 F 
ENDBRANCH  55  69
BRANCH  56  80
ATOM     80  C   UNL A   1      39.518  33.619  36.584  1.00  0.00     0.064 A 
ATOM     81  C   UNL A   1      40.134  34.874  36.689  1.00  0.00     0.173 A 
ATOM     82  C   UNL A   1      38.728  33.189  37.660  1.00  0.00     0.173 A 
ATOM     83  F   UNL A   1      40.913  35.324  35.694  1.00  0.00    -0.203 F 
ATOM     84  C   UNL A   1      39.986  35.655  37.834  1.00  0.00     0.198 A 
ATOM     85  C   UNL A   1      38.556  33.984  38.791  1.00  0.00     0.198 A 
ATOM     86  F   UNL A   1      38.111  31.999  37.607  1.00  0.00    -0.203 F 
ATOM     87  F   UNL A   1      40.626  36.828  37.928  1.00  0.00    -0.200 F 
ATOM     88  C   UNL A   1      39.192  35.212  38.881  1.00  0.00     0.200 A 
ATOM     89  F   UNL A   1      37.774  33.560  39.793  1.00  0.00    -0.200 F 
ATOM     90  F   UNL A   1      39.047  35.966  39.980  1.00  0.00    -0.200 F 
ENDBRANCH  56  80
BRANCH  68  91
ATOM     91  C   UNL A   1      44.218  28.809  34.746  1.00  0.00     0.064 A 
ATOM     92  C   UNL A   1      44.193  27.675  35.573  1.00  0.00     0.173 A 
ATOM     93  C   UNL A   1      45.455  29.439  34.535  1.00  0.00     0.173 A 
ATOM     94  F   UNL A   1      43.034  27.044  35.818  1.00  0.00    -0.203 F 
ATOM     95  C   UNL A   1      45.352  27.216  36.192  1.00  0.00     0.198 A 
ATOM     96  C   UNL A   1      46.618  28.955  35.127  1.00  0.00     0.198 A 
ATOM     97  F   UNL A   1      45.537  30.521  33.745  1.00  0.00    -0.203 F 
ATOM     98  F   UNL A   1      45.293  26.169  37.026  1.00  0.00    -0.200 F 
ATOM     99  C   UNL A   1      46.564  27.851  35.963  1.00  0.00     0.200 A 
ATOM    100  F   UNL A   1      47.790  29.559  34.889  1.00  0.00    -0.200 F 
ATOM    101  F   UNL A   1      47.680  27.402  36.554  1.00  0.00    -0.200 F 
ENDBRANCH  68  91
ENDBRANCH  42  43
ENDBRANCH  34  37
ENDBRANCH  32  33
ENDBRANCH  31  32
ENDBRANCH  30  31
ENDBRANCH  29  30
ENDBRANCH   1  29
TORSDOF 17
ENDMDL
MODEL 3
REMARK VINA RESULT:     -12.1      1.808      4.124
REMARK SMILES NC(=O)c1ccc(NC(=O)Cc2ccccc2C(=O)NCCCCCCNC(=O)c2ccc(-c3c4nc(c(-c5c(F)c(F)c(F)c(F)c5F)c5ccc([nH]5)c(-c5c(F)c(F)c(F)c(F)c5F)c5nc(c(-c6c(F)c(F)c(F)c(F)c6F)c6ccc3[nH]6)C=C5)C=C4)cc2)cc1
REMARK SMILES IDX 22 1 21 2 20 3 18 4 19 5 17 7 12 8 13 9 14 10 16 11 15 12
REMARK SMILES IDX 11 13 9 14 8 15 10 17 7 18 4 19 5 20 94 21 6 22 93 23 2 24
REMARK SMILES IDX 1 25 3 28 23 29 24 30 25 31 26 32 27 33 28 34 29 36 30 37
REMARK SMILES IDX 31 38 92 39 32 40 91 41 33 42 34 43 35 44 85 45 36 46 90 47
REMARK SMILES IDX 84 48 86 49 37 50 89 51 83 52 82 53 38 55 70 56 50 57 69 58
REMARK SMILES IDX 51 59 54 60 68 61 87 62 52 63 53 64 67 66 88 67 55 68 39 69
REMARK SMILES IDX 40 70 48 71 41 72 42 73 46 74 49 75 43 76 44 77 47 78 45 79
REMARK SMILES IDX 71 80 72 81 80 82 73 83 74 84 78 85 81 86 75 87 76 88 79 89
REMARK SMILES IDX 77 90 56 91 57 92 65 93 58 94 59 95 63 96 66 97 60 98 61 99
REMARK SMILES IDX 64 100 62 101
REMARK H PARENT 20 6 8 16 1 26 1 27 27 35 86 54 54 65
REMARK Flexibility Score: inf
ROOT
ATOM      1  C   UNL A   1      32.232  28.138  26.196  1.00  0.00     0.021 C 
ENDROOT
BRANCH   1   2
ATOM      2  C   UNL A   1      33.266  27.203  25.565  1.00  0.00     0.116 C 
BRANCH   2   3
ATOM      3  N   UNL A   1      33.114  25.871  26.122  1.00  0.00    -0.352 N 
ATOM      4  C   UNL A   1      33.541  24.586  25.955  1.00  0.00     0.251 C 
ATOM      5  O   UNL A   1      32.957  23.790  26.704  1.00  0.00    -0.269 OA
ATOM      6  H   UNL A   1      32.487  25.907  26.880  1.00  0.00     0.163 HD
BRANCH   4   7
ATOM      7  C   UNL A   1      34.660  24.031  25.102  1.00  0.00     0.043 A 
ATOM      8  C   UNL A   1      34.675  23.509  23.784  1.00  0.00    -0.026 A 
ATOM      9  C   UNL A   1      35.893  22.998  23.263  1.00  0.00     0.005 A 
ATOM     10  C   UNL A   1      37.091  23.084  23.964  1.00  0.00     0.000 A 
ATOM     11  C   UNL A   1      35.912  24.147  25.761  1.00  0.00     0.014 A 
ATOM     12  C   UNL A   1      37.109  23.695  25.203  1.00  0.00     0.001 A 
BRANCH   8  13
ATOM     13  C   UNL A   1      33.509  23.422  22.841  1.00  0.00     0.136 C 
BRANCH  13  14
ATOM     14  C   UNL A   1      32.094  23.167  23.399  1.00  0.00     0.228 C 
ATOM     15  N   UNL A   1      31.039  24.021  23.565  1.00  0.00    -0.326 N 
ATOM     16  H   UNL A   1      30.274  23.560  23.981  1.00  0.00     0.169 HD
ATOM     17  O   UNL A   1      31.874  22.024  23.845  1.00  0.00    -0.274 OA
BRANCH  15  18
ATOM     18  C   UNL A   1      30.736  25.374  23.311  1.00  0.00     0.041 A 
ATOM     19  C   UNL A   1      30.092  28.099  22.818  1.00  0.00     0.039 A 
ATOM     20  C   UNL A   1      31.196  27.514  22.227  1.00  0.00     0.016 A 
ATOM     21  C   UNL A   1      29.297  27.328  23.672  1.00  0.00     0.016 A 
ATOM     22  C   UNL A   1      31.493  26.184  22.500  1.00  0.00     0.027 A 
ATOM     23  C   UNL A   1      29.616  25.969  23.908  1.00  0.00     0.027 A 
BRANCH  19  24
ATOM     24  C   UNL A   1      29.847  29.519  22.478  1.00  0.00     0.248 C 
ATOM     25  N   UNL A   1      30.713  30.114  21.612  1.00  0.00    -0.366 N 
ATOM     26  H   UNL A   1      30.586  31.058  21.358  1.00  0.00     0.159 HD
ATOM     27  H   UNL A   1      31.465  29.601  21.238  1.00  0.00     0.159 HD
ATOM     28  O   UNL A   1      28.866  30.115  22.900  1.00  0.00    -0.270 OA
ENDBRANCH  19  24
ENDBRANCH  15  18
ENDBRANCH  13  14
ENDBRANCH   8  13
ENDBRANCH   4   7
ENDBRANCH   2   3
ENDBRANCH   1   2
BRANCH   1  29
ATOM     29  C   UNL A   1      32.571  29.608  25.965  1.00  0.00     0.002 C 
BRANCH  29  30
ATOM     30  C   UNL A   1      31.354  30.480  25.651  1.00  0.00     0.002 C 
BRANCH  30  31
ATOM     31  C   UNL A   1      31.275  31.784  26.447  1.00  0.00     0.021 C 
BRANCH  31  32
ATOM     32  C   UNL A   1      32.622  32.332  26.903  1.00  0.00     0.116 C 
BRANCH  32  33
ATOM     33  N   UNL A   1      32.529  33.720  27.331  1.00  0.00    -0.352 N 
ATOM     34  C   UNL A   1      33.199  34.365  28.337  1.00  0.00     0.251 C 
ATOM     35  H   UNL A   1      31.893  34.275  26.824  1.00  0.00     0.163 HD
ATOM     36  O   UNL A   1      32.843  35.477  28.709  1.00  0.00    -0.269 OA
BRANCH  34  37
ATOM     37  C   UNL A   1      34.351  33.704  28.977  1.00  0.00     0.039 A 
ATOM     38  C   UNL A   1      34.122  32.665  29.881  1.00  0.00     0.014 A 
ATOM     39  C   UNL A   1      35.653  34.124  28.692  1.00  0.00     0.014 A 
ATOM     40  C   UNL A   1      35.206  32.023  30.476  1.00  0.00     0.010 A 
ATOM     41  C   UNL A   1      36.732  33.426  29.220  1.00  0.00     0.010 A 
ATOM     42  C   UNL A   1      36.518  32.385  30.135  1.00  0.00    -0.014 A 
BRANCH  42  43
ATOM     43  C   UNL A   1      37.686  31.720  30.761  1.00  0.00     0.031 A 
ATOM     44  C   UNL A   1      38.108  32.107  32.151  1.00  0.00     0.074 A 
ATOM     45  C   UNL A   1      38.390  30.811  30.061  1.00  0.00     0.049 A 
ATOM     46  N   UNL A   1      39.129  31.687  32.854  1.00  0.00    -0.248 NA
ATOM     47  C   UNL A   1      37.291  33.127  32.829  1.00  0.00     0.031 C 
ATOM     48  C   UNL A   1      38.102  30.391  28.689  1.00  0.00     0.029 A 
ATOM     49  N   UNL A   1      39.498  30.081  30.407  1.00  0.00    -0.354 N 
ATOM     50  C   UNL A   1      39.083  32.402  34.045  1.00  0.00     0.074 A 
ATOM     51  C   UNL A   1      37.978  33.327  33.943  1.00  0.00     0.031 C 
ATOM     52  C   UNL A   1      38.994  29.459  28.319  1.00  0.00     0.029 A 
ATOM     53  C   UNL A   1      39.938  29.244  29.411  1.00  0.00     0.049 A 
ATOM     54  H   UNL A   1      39.937  30.150  31.287  1.00  0.00     0.167 HD
ATOM     55  C   UNL A   1      39.877  32.277  35.135  1.00  0.00     0.037 A 
ATOM     56  C   UNL A   1      40.988  28.403  29.386  1.00  0.00     0.037 A 
ATOM     57  C   UNL A   1      40.962  31.337  35.234  1.00  0.00     0.049 A 
ATOM     58  C   UNL A   1      41.857  28.284  30.610  1.00  0.00     0.074 A 
ATOM     59  C   UNL A   1      41.796  31.091  36.310  1.00  0.00     0.029 A 
ATOM     60  N   UNL A   1      41.365  30.489  34.213  1.00  0.00    -0.354 N 
ATOM     61  N   UNL A   1      41.765  28.914  31.756  1.00  0.00    -0.248 NA
ATOM     62  C   UNL A   1      42.967  27.325  30.540  1.00  0.00     0.031 C 
ATOM     63  C   UNL A   1      42.739  30.133  35.921  1.00  0.00     0.029 A 
ATOM     64  C   UNL A   1      42.450  29.733  34.627  1.00  0.00     0.049 A 
ATOM     65  H   UNL A   1      40.943  30.432  33.326  1.00  0.00     0.167 HD
ATOM     66  C   UNL A   1      42.779  28.403  32.555  1.00  0.00     0.074 A 
ATOM     67  C   UNL A   1      43.466  27.401  31.765  1.00  0.00     0.031 C 
ATOM     68  C   UNL A   1      43.111  28.730  33.829  1.00  0.00     0.037 A 
BRANCH  55  69
ATOM     69  C   UNL A   1      39.598  33.181  36.303  1.00  0.00     0.064 A 
ATOM     70  C   UNL A   1      40.279  34.397  36.477  1.00  0.00     0.173 A 
ATOM     71  C   UNL A   1      38.625  32.837  37.253  1.00  0.00     0.173 A 
ATOM     72  F   UNL A   1      41.229  34.770  35.606  1.00  0.00    -0.203 F 
ATOM     73  C   UNL A   1      40.024  35.213  37.576  1.00  0.00     0.198 A 
ATOM     74  C   UNL A   1      38.347  33.673  38.332  1.00  0.00     0.198 A 
ATOM     75  F   UNL A   1      37.940  31.690  37.136  1.00  0.00    -0.203 F 
ATOM     76  F   UNL A   1      40.733  36.336  37.753  1.00  0.00    -0.200 F 
ATOM     77  C   UNL A   1      39.054  34.853  38.498  1.00  0.00     0.200 A 
ATOM     78  F   UNL A   1      37.398  33.331  39.215  1.00  0.00    -0.200 F 
ATOM     79  F   UNL A   1      38.806  35.642  39.554  1.00  0.00    -0.200 F 
ENDBRANCH  55  69
BRANCH  56  80
ATOM     80  C   UNL A   1      41.254  27.583  28.175  1.00  0.00     0.064 A 
ATOM     81  C   UNL A   1      40.639  26.336  27.999  1.00  0.00     0.173 A 
ATOM     82  C   UNL A   1      42.127  28.026  27.170  1.00  0.00     0.173 A 
ATOM     83  F   UNL A   1      39.809  25.861  28.939  1.00  0.00    -0.203 F 
ATOM     84  C   UNL A   1      40.906  25.552  26.878  1.00  0.00     0.198 A 
ATOM     85  C   UNL A   1      42.369  27.255  26.034  1.00  0.00     0.198 A 
ATOM     86  F   UNL A   1      42.736  29.216  27.285  1.00  0.00    -0.203 F 
ATOM     87  F   UNL A   1      40.343  24.342  26.761  1.00  0.00    -0.200 F 
ATOM     88  C   UNL A   1      41.766  26.015  25.894  1.00  0.00     0.200 A 
ATOM     89  F   UNL A   1      43.187  27.714  25.078  1.00  0.00    -0.200 F 
ATOM     90  F   UNL A   1      42.018  25.263  24.814  1.00  0.00    -0.200 F 
ENDBRANCH  56  80
BRANCH  68  91
ATOM     91  C   UNL A   1      44.231  27.959  34.468  1.00  0.00     0.064 A 
ATOM     92  C   UNL A   1      45.559  28.412  34.436  1.00  0.00     0.173 A 
ATOM     93  C   UNL A   1      43.962  26.763  35.152  1.00  0.00     0.173 A 
ATOM     94  F   UNL A   1      45.871  29.542  33.784  1.00  0.00    -0.203 F 
ATOM     95  C   UNL A   1      46.580  27.676  35.033  1.00  0.00     0.198 A 
ATOM     96  C   UNL A   1      44.980  26.050  35.778  1.00  0.00     0.198 A 
ATOM     97  F   UNL A   1      42.709  26.290  35.222  1.00  0.00    -0.203 F 
ATOM     98  F   UNL A   1      47.848  28.096  34.937  1.00  0.00    -0.200 F 
ATOM     99  C   UNL A   1      46.288  26.501  35.710  1.00  0.00     0.200 A 
ATOM    100  F   UNL A   1      44.694  24.924  36.448  1.00  0.00    -0.200 F 
ATOM    101  F   UNL A   1      47.272  25.799  36.289  1.00  0.00    -0.200 F 
ENDBRANCH  68  91
ENDBRANCH  42  43
ENDBRANCH  34  37
ENDBRANCH  32  33
ENDBRANCH  31  32
ENDBRANCH  30  31
ENDBRANCH  29  30
ENDBRANCH   1  29
TORSDOF 17
ENDMDL
