MODEL 1
REMARK VINA RESULT:     -11.5      0.000      0.000
REMARK SMILES O=C(NCCCCCCNC(=O)[C@H]1C[C@@H]1C(=O)Nc1ccc(Cl)c(Br)c1)c1ccc(-c2c3nc(c(-c4c(F)c(F)c(F)c(F)c4F)c4ccc([nH]4)c(-c4c(F)c(F)c(F)c(F)c4F)c4nc(c(-c5c(F)c(F)c(F)c(F)c5F)c5ccc2[nH]5)C=C4)C=C3)cc1
REMARK SMILES IDX 6 1 5 2 4 3 3 4 1 5 2 6 27 8 28 9 89 10 29 11 88 12 30 13
REMARK SMILES IDX 31 14 32 15 82 16 33 17 87 18 81 19 83 20 34 21 86 22 80 23
REMARK SMILES IDX 79 24 35 26 67 27 47 28 66 29 48 30 51 31 65 32 84 33 49 34
REMARK SMILES IDX 50 35 64 37 85 38 52 39 36 40 37 41 45 42 38 43 39 44 43 45
REMARK SMILES IDX 46 46 40 47 41 48 44 49 42 50 68 51 69 52 77 53 70 54 71 55
REMARK SMILES IDX 75 56 78 57 72 58 73 59 76 60 74 61 53 62 54 63 62 64 55 65
REMARK SMILES IDX 56 66 60 67 63 68 57 69 58 70 61 71 59 72 7 73 8 74 9 75
REMARK SMILES IDX 10 76 11 77 12 79 13 80 14 81 15 82 16 83 17 84 18 85 19 87
REMARK SMILES IDX 20 88 26 89 21 90 24 91 22 92 25 93 23 94
REMARK H PARENT 3 7 83 25 51 36 10 78 18 86
REMARK Flexibility Score: inf
ROOT
ATOM      1  C   UNL A   1      34.387  34.168  28.643  1.00  0.00     0.002 C 
ENDROOT
BRANCH   1   2
ATOM      2  C   UNL A   1      33.072  34.923  28.847  1.00  0.00     0.021 C 
BRANCH   2   3
ATOM      3  C   UNL A   1      33.210  36.338  29.399  1.00  0.00     0.116 C 
BRANCH   3   4
ATOM      4  N   UNL A   1      32.448  36.534  30.618  1.00  0.00    -0.352 N 
ATOM      5  O   UNL A   1      31.775  36.129  32.727  1.00  0.00    -0.269 OA
ATOM      6  C   UNL A   1      32.622  35.967  31.854  1.00  0.00     0.251 C 
ATOM      7  H   UNL A   1      31.697  37.166  30.547  1.00  0.00     0.163 HD
BRANCH   6   8
ATOM      8  C   UNL A   1      33.822  35.149  32.146  1.00  0.00     0.039 A 
ATOM      9  C   UNL A   1      33.644  33.826  32.563  1.00  0.00     0.014 A 
ATOM     10  C   UNL A   1      35.108  35.694  32.079  1.00  0.00     0.014 A 
ATOM     11  C   UNL A   1      34.753  33.041  32.890  1.00  0.00     0.010 A 
ATOM     12  C   UNL A   1      36.217  34.895  32.355  1.00  0.00     0.010 A 
ATOM     13  C   UNL A   1      36.049  33.567  32.780  1.00  0.00    -0.014 A 
BRANCH  13  14
ATOM     14  C   UNL A   1      37.240  32.777  33.178  1.00  0.00     0.031 A 
ATOM     15  C   UNL A   1      37.888  33.037  34.510  1.00  0.00     0.074 A 
ATOM     16  C   UNL A   1      37.755  31.851  32.346  1.00  0.00     0.049 A 
ATOM     17  N   UNL A   1      39.009  32.566  34.995  1.00  0.00    -0.248 NA
ATOM     18  C   UNL A   1      37.185  33.964  35.413  1.00  0.00     0.031 C 
ATOM     19  C   UNL A   1      37.205  31.485  31.041  1.00  0.00     0.029 A 
ATOM     20  N   UNL A   1      38.863  31.052  32.478  1.00  0.00    -0.354 N 
ATOM     21  C   UNL A   1      39.148  33.143  36.251  1.00  0.00     0.074 A 
ATOM     22  C   UNL A   1      38.021  34.030  36.439  1.00  0.00     0.031 C 
ATOM     23  C   UNL A   1      37.965  30.519  30.502  1.00  0.00     0.029 A 
ATOM     24  C   UNL A   1      39.081  30.231  31.399  1.00  0.00     0.049 A 
ATOM     25  H   UNL A   1      39.447  31.067  33.270  1.00  0.00     0.167 HD
ATOM     26  C   UNL A   1      40.120  32.936  37.171  1.00  0.00     0.037 A 
ATOM     27  C   UNL A   1      40.077  29.356  31.159  1.00  0.00     0.037 A 
ATOM     28  C   UNL A   1      41.231  32.041  36.991  1.00  0.00     0.049 A 
ATOM     29  C   UNL A   1      41.173  29.188  32.178  1.00  0.00     0.074 A 
ATOM     30  C   UNL A   1      42.288  31.791  37.850  1.00  0.00     0.029 A 
ATOM     31  N   UNL A   1      41.420  31.234  35.879  1.00  0.00    -0.354 N 
ATOM     32  N   UNL A   1      41.316  29.768  33.344  1.00  0.00    -0.248 NA
ATOM     33  C   UNL A   1      42.250  28.245  31.842  1.00  0.00     0.031 C 
ATOM     34  C   UNL A   1      43.125  30.845  37.252  1.00  0.00     0.029 A 
ATOM     35  C   UNL A   1      42.571  30.479  36.036  1.00  0.00     0.049 A 
ATOM     36  H   UNL A   1      40.826  31.203  35.096  1.00  0.00     0.167 HD
ATOM     37  C   UNL A   1      42.473  29.233  33.897  1.00  0.00     0.074 A 
ATOM     38  C   UNL A   1      42.992  28.278  32.940  1.00  0.00     0.031 C 
ATOM     39  C   UNL A   1      43.053  29.509  35.089  1.00  0.00     0.037 A 
BRANCH  26  40
ATOM     40  C   UNL A   1      40.019  33.678  38.469  1.00  0.00     0.064 A 
ATOM     41  C   UNL A   1      40.746  34.857  38.690  1.00  0.00     0.173 A 
ATOM     42  C   UNL A   1      39.136  33.251  39.472  1.00  0.00     0.173 A 
ATOM     43  F   UNL A   1      41.614  35.297  37.767  1.00  0.00    -0.203 F 
ATOM     44  C   UNL A   1      40.599  35.576  39.873  1.00  0.00     0.198 A 
ATOM     45  C   UNL A   1      38.973  33.986  40.643  1.00  0.00     0.198 A 
ATOM     46  F   UNL A   1      38.416  32.131  39.308  1.00  0.00    -0.203 F 
ATOM     47  F   UNL A   1      41.324  36.686  40.074  1.00  0.00    -0.200 F 
ATOM     48  C   UNL A   1      39.706  35.147  40.842  1.00  0.00     0.200 A 
ATOM     49  F   UNL A   1      38.103  33.577  41.575  1.00  0.00    -0.200 F 
ATOM     50  F   UNL A   1      39.552  35.852  41.972  1.00  0.00    -0.200 F 
ENDBRANCH  26  40
BRANCH  27  51
ATOM     51  C   UNL A   1      40.080  28.549  29.912  1.00  0.00     0.064 A 
ATOM     52  C   UNL A   1      39.460  27.292  29.874  1.00  0.00     0.173 A 
ATOM     53  C   UNL A   1      40.715  28.999  28.746  1.00  0.00     0.173 A 
ATOM     54  F   UNL A   1      38.861  26.809  30.972  1.00  0.00    -0.203 F 
ATOM     55  C   UNL A   1      39.491  26.508  28.724  1.00  0.00     0.198 A 
ATOM     56  C   UNL A   1      40.723  28.225  27.588  1.00  0.00     0.198 A 
ATOM     57  F   UNL A   1      41.324  30.194  28.731  1.00  0.00    -0.203 F 
ATOM     58  F   UNL A   1      38.930  25.290  28.730  1.00  0.00    -0.200 F 
ATOM     59  C   UNL A   1      40.118  26.977  27.579  1.00  0.00     0.200 A 
ATOM     60  F   UNL A   1      41.323  28.685  26.481  1.00  0.00    -0.200 F 
ATOM     61  F   UNL A   1      40.149  26.221  26.472  1.00  0.00    -0.200 F 
ENDBRANCH  27  51
BRANCH  39  62
ATOM     62  C   UNL A   1      44.279  28.729  35.460  1.00  0.00     0.064 A 
ATOM     63  C   UNL A   1      45.566  29.178  35.135  1.00  0.00     0.173 A 
ATOM     64  C   UNL A   1      44.161  27.539  36.195  1.00  0.00     0.173 A 
ATOM     65  F   UNL A   1      45.727  30.304  34.423  1.00  0.00    -0.203 F 
ATOM     66  C   UNL A   1      46.692  28.453  35.515  1.00  0.00     0.198 A 
ATOM     67  C   UNL A   1      45.290  26.830  36.595  1.00  0.00     0.198 A 
ATOM     68  F   UNL A   1      42.951  27.072  36.537  1.00  0.00    -0.203 F 
ATOM     69  F   UNL A   1      47.912  28.881  35.159  1.00  0.00    -0.200 F 
ATOM     70  C   UNL A   1      46.554  27.285  36.250  1.00  0.00     0.200 A 
ATOM     71  F   UNL A   1      45.155  25.709  37.315  1.00  0.00    -0.200 F 
ATOM     72  F   UNL A   1      47.640  26.593  36.620  1.00  0.00    -0.200 F 
ENDBRANCH  39  62
ENDBRANCH  13  14
ENDBRANCH   6   8
ENDBRANCH   3   4
ENDBRANCH   2   3
ENDBRANCH   1   2
BRANCH   1  73
ATOM     73  C   UNL A   1      34.396  32.708  29.106  1.00  0.00     0.002 C 
BRANCH  73  74
ATOM     74  C   UNL A   1      34.852  31.676  28.068  1.00  0.00     0.021 C 
BRANCH  74  75
ATOM     75  C   UNL A   1      33.759  31.145  27.144  1.00  0.00     0.116 C 
BRANCH  75  76
ATOM     76  N   UNL A   1      33.147  29.956  27.687  1.00  0.00    -0.356 N 
ATOM     77  C   UNL A   1      33.046  28.698  27.180  1.00  0.00     0.223 C 
ATOM     78  H   UNL A   1      32.733  30.075  28.572  1.00  0.00     0.163 HD
ATOM     79  O   UNL A   1      32.285  27.905  27.726  1.00  0.00    -0.275 OA
BRANCH  77  80
ATOM     80  C   UNL A   1      33.836  28.251  26.006  1.00  0.00     0.091 C 
ATOM     81  C   UNL A   1      33.957  26.855  25.452  1.00  0.00     0.028 C 
ATOM     82  C   UNL A   1      33.005  27.817  24.803  1.00  0.00     0.092 C 
BRANCH  82  83
ATOM     83  C   UNL A   1      33.262  28.349  23.435  1.00  0.00     0.228 C 
ATOM     84  O   UNL A   1      34.405  28.607  23.069  1.00  0.00    -0.274 OA
ATOM     85  N   UNL A   1      32.206  28.377  22.547  1.00  0.00    -0.326 N 
ATOM     86  H   UNL A   1      32.442  28.407  21.591  1.00  0.00     0.169 HD
BRANCH  85  87
ATOM     87  C   UNL A   1      30.835  28.370  22.847  1.00  0.00     0.042 A 
ATOM     88  C   UNL A   1      30.166  27.188  23.158  1.00  0.00     0.028 A 
ATOM     89  C   UNL A   1      30.132  29.573  22.850  1.00  0.00     0.043 A 
ATOM     90  C   UNL A   1      28.786  27.178  23.363  1.00  0.00     0.024 A 
ATOM     91  C   UNL A   1      28.743  29.571  23.048  1.00  0.00     0.038 A 
ATOM     92  C   UNL A   1      28.065  28.368  23.289  1.00  0.00     0.055 A 
ATOM     93  Br  UNL A   1      27.843  31.240  22.938  1.00  0.00    -0.049 Br
ATOM     94  Cl  UNL A   1      26.354  28.278  23.503  1.00  0.00    -0.083 Cl
ENDBRANCH  85  87
ENDBRANCH  82  83
ENDBRANCH  77  80
ENDBRANCH  75  76
ENDBRANCH  74  75
ENDBRANCH  73  74
ENDBRANCH   1  73
TORSDOF 15
ENDMDL
MODEL 2
REMARK VINA RESULT:     -11.5      4.886      9.712
REMARK SMILES O=C(NCCCCCCNC(=O)[C@H]1C[C@@H]1C(=O)Nc1ccc(Cl)c(Br)c1)c1ccc(-c2c3nc(c(-c4c(F)c(F)c(F)c(F)c4F)c4ccc([nH]4)c(-c4c(F)c(F)c(F)c(F)c4F)c4nc(c(-c5c(F)c(F)c(F)c(F)c5F)c5ccc2[nH]5)C=C4)C=C3)cc1
REMARK SMILES IDX 6 1 5 2 4 3 3 4 1 5 2 6 27 8 28 9 89 10 29 11 88 12 30 13
REMARK SMILES IDX 31 14 32 15 82 16 33 17 87 18 81 19 83 20 34 21 86 22 80 23
REMARK SMILES IDX 79 24 35 26 67 27 47 28 66 29 48 30 51 31 65 32 84 33 49 34
REMARK SMILES IDX 50 35 64 37 85 38 52 39 36 40 37 41 45 42 38 43 39 44 43 45
REMARK SMILES IDX 46 46 40 47 41 48 44 49 42 50 68 51 69 52 77 53 70 54 71 55
REMARK SMILES IDX 75 56 78 57 72 58 73 59 76 60 74 61 53 62 54 63 62 64 55 65
REMARK SMILES IDX 56 66 60 67 63 68 57 69 58 70 61 71 59 72 7 73 8 74 9 75
REMARK SMILES IDX 10 76 11 77 12 79 13 80 14 81 15 82 16 83 17 84 18 85 19 87
REMARK SMILES IDX 20 88 26 89 21 90 24 91 22 92 25 93 23 94
REMARK H PARENT 3 7 83 25 51 36 10 78 18 86
REMARK Flexibility Score: inf
ROOT
ATOM      1  C   UNL A   1      35.680  22.778  23.516  1.00  0.00     0.002 C 
ENDROOT
BRANCH   1   2
ATOM      2  C   UNL A   1      36.526  23.706  24.389  1.00  0.00     0.021 C 
BRANCH   2   3
ATOM      3  C   UNL A   1      36.698  23.264  25.839  1.00  0.00     0.116 C 
BRANCH   3   4
ATOM      4  N   UNL A   1      37.836  22.382  26.018  1.00  0.00    -0.352 N 
ATOM      5  O   UNL A   1      39.988  21.825  26.366  1.00  0.00    -0.269 OA
ATOM      6  C   UNL A   1      39.109  22.678  26.431  1.00  0.00     0.251 C 
ATOM      7  H   UNL A   1      37.669  21.434  25.814  1.00  0.00     0.163 HD
BRANCH   6   8
ATOM      8  C   UNL A   1      39.440  24.026  26.947  1.00  0.00     0.039 A 
ATOM      9  C   UNL A   1      40.005  24.959  26.071  1.00  0.00     0.014 A 
ATOM     10  C   UNL A   1      39.262  24.353  28.295  1.00  0.00     0.014 A 
ATOM     11  C   UNL A   1      40.370  26.224  26.537  1.00  0.00     0.010 A 
ATOM     12  C   UNL A   1      39.579  25.633  28.748  1.00  0.00     0.010 A 
ATOM     13  C   UNL A   1      40.152  26.574  27.877  1.00  0.00    -0.014 A 
BRANCH  13  14
ATOM     14  C   UNL A   1      40.585  27.889  28.414  1.00  0.00     0.031 A 
ATOM     15  C   UNL A   1      42.046  28.134  28.677  1.00  0.00     0.074 A 
ATOM     16  C   UNL A   1      39.680  28.847  28.687  1.00  0.00     0.049 A 
ATOM     17  N   UNL A   1      42.625  29.148  29.268  1.00  0.00    -0.248 NA
ATOM     18  C   UNL A   1      42.980  27.090  28.223  1.00  0.00     0.031 C 
ATOM     19  C   UNL A   1      38.240  28.744  28.453  1.00  0.00     0.029 A 
ATOM     20  N   UNL A   1      39.842  30.098  29.230  1.00  0.00    -0.354 N 
ATOM     21  C   UNL A   1      43.984  28.861  29.265  1.00  0.00     0.074 A 
ATOM     22  C   UNL A   1      44.143  27.561  28.649  1.00  0.00     0.031 C 
ATOM     23  C   UNL A   1      37.653  29.892  28.828  1.00  0.00     0.029 A 
ATOM     24  C   UNL A   1      38.665  30.792  29.373  1.00  0.00     0.049 A 
ATOM     25  H   UNL A   1      40.718  30.462  29.491  1.00  0.00     0.167 HD
ATOM     26  C   UNL A   1      45.008  29.622  29.718  1.00  0.00     0.037 A 
ATOM     27  C   UNL A   1      38.433  32.010  29.899  1.00  0.00     0.037 A 
ATOM     28  C   UNL A   1      44.852  30.922  30.314  1.00  0.00     0.049 A 
ATOM     29  C   UNL A   1      39.586  32.810  30.444  1.00  0.00     0.074 A 
ATOM     30  C   UNL A   1      45.825  31.755  30.837  1.00  0.00     0.029 A 
ATOM     31  N   UNL A   1      43.642  31.586  30.449  1.00  0.00    -0.354 N 
ATOM     32  N   UNL A   1      40.862  32.513  30.472  1.00  0.00    -0.248 NA
ATOM     33  C   UNL A   1      39.263  34.117  31.036  1.00  0.00     0.031 C 
ATOM     34  C   UNL A   1      45.203  32.917  31.304  1.00  0.00     0.029 A 
ATOM     35  C   UNL A   1      43.847  32.822  31.038  1.00  0.00     0.049 A 
ATOM     36  H   UNL A   1      42.768  31.230  30.168  1.00  0.00     0.167 HD
ATOM     37  C   UNL A   1      41.496  33.607  31.045  1.00  0.00     0.074 A 
ATOM     38  C   UNL A   1      40.466  34.579  31.347  1.00  0.00     0.031 C 
ATOM     39  C   UNL A   1      42.814  33.789  31.300  1.00  0.00     0.037 A 
BRANCH  26  40
ATOM     40  C   UNL A   1      46.397  29.078  29.572  1.00  0.00     0.064 A 
ATOM     41  C   UNL A   1      46.999  28.339  30.600  1.00  0.00     0.173 A 
ATOM     42  C   UNL A   1      47.105  29.235  28.372  1.00  0.00     0.173 A 
ATOM     43  F   UNL A   1      46.367  28.174  31.772  1.00  0.00    -0.203 F 
ATOM     44  C   UNL A   1      48.264  27.781  30.434  1.00  0.00     0.198 A 
ATOM     45  C   UNL A   1      48.360  28.657  28.200  1.00  0.00     0.198 A 
ATOM     46  F   UNL A   1      46.573  29.933  27.357  1.00  0.00    -0.203 F 
ATOM     47  F   UNL A   1      48.831  27.100  31.440  1.00  0.00    -0.200 F 
ATOM     48  C   UNL A   1      48.938  27.932  29.232  1.00  0.00     0.200 A 
ATOM     49  F   UNL A   1      49.007  28.793  27.035  1.00  0.00    -0.200 F 
ATOM     50  F   UNL A   1      50.148  27.379  29.067  1.00  0.00    -0.200 F 
ENDBRANCH  26  40
BRANCH  27  51
ATOM     51  C   UNL A   1      37.056  32.567  29.917  1.00  0.00     0.064 A 
ATOM     52  C   UNL A   1      36.605  33.391  28.876  1.00  0.00     0.173 A 
ATOM     53  C   UNL A   1      36.173  32.311  30.975  1.00  0.00     0.173 A 
ATOM     54  F   UNL A   1      37.423  33.685  27.854  1.00  0.00    -0.203 F 
ATOM     55  C   UNL A   1      35.332  33.953  28.902  1.00  0.00     0.198 A 
ATOM     56  C   UNL A   1      34.890  32.852  30.987  1.00  0.00     0.198 A 
ATOM     57  F   UNL A   1      36.557  31.530  31.996  1.00  0.00    -0.203 F 
ATOM     58  F   UNL A   1      34.943  34.774  27.916  1.00  0.00    -0.200 F 
ATOM     59  C   UNL A   1      34.472  33.679  29.955  1.00  0.00     0.200 A 
ATOM     60  F   UNL A   1      34.058  32.578  32.003  1.00  0.00    -0.200 F 
ATOM     61  F   UNL A   1      33.246  34.220  29.981  1.00  0.00    -0.200 F 
ENDBRANCH  27  51
BRANCH  39  62
ATOM     62  C   UNL A   1      43.232  35.109  31.878  1.00  0.00     0.064 A 
ATOM     63  C   UNL A   1      43.613  36.184  31.062  1.00  0.00     0.173 A 
ATOM     64  C   UNL A   1      43.199  35.313  33.266  1.00  0.00     0.173 A 
ATOM     65  F   UNL A   1      43.671  36.032  29.731  1.00  0.00    -0.203 F 
ATOM     66  C   UNL A   1      43.969  37.409  31.618  1.00  0.00     0.198 A 
ATOM     67  C   UNL A   1      43.531  36.548  33.816  1.00  0.00     0.198 A 
ATOM     68  F   UNL A   1      42.833  34.318  34.088  1.00  0.00    -0.203 F 
ATOM     69  F   UNL A   1      44.369  38.411  30.822  1.00  0.00    -0.200 F 
ATOM     70  C   UNL A   1      43.921  37.592  32.992  1.00  0.00     0.200 A 
ATOM     71  F   UNL A   1      43.472  36.726  35.142  1.00  0.00    -0.200 F 
ATOM     72  F   UNL A   1      44.257  38.776  33.523  1.00  0.00    -0.200 F 
ENDBRANCH  39  62
ENDBRANCH  13  14
ENDBRANCH   6   8
ENDBRANCH   3   4
ENDBRANCH   2   3
ENDBRANCH   1   2
BRANCH   1  73
ATOM     73  C   UNL A   1      34.185  22.732  23.845  1.00  0.00     0.002 C 
BRANCH  73  74
ATOM     74  C   UNL A   1      33.660  21.406  24.407  1.00  0.00     0.021 C 
BRANCH  74  75
ATOM     75  C   UNL A   1      32.187  21.399  24.806  1.00  0.00     0.116 C 
BRANCH  75  76
ATOM     76  N   UNL A   1      32.001  21.939  26.132  1.00  0.00    -0.356 N 
ATOM     77  C   UNL A   1      31.496  23.134  26.542  1.00  0.00     0.223 C 
ATOM     78  H   UNL A   1      32.288  21.344  26.861  1.00  0.00     0.163 HD
ATOM     79  O   UNL A   1      31.643  23.460  27.716  1.00  0.00    -0.275 OA
BRANCH  77  80
ATOM     80  C   UNL A   1      30.762  24.040  25.625  1.00  0.00     0.091 C 
ATOM     81  C   UNL A   1      30.133  25.371  25.950  1.00  0.00     0.028 C 
ATOM     82  C   UNL A   1      31.485  25.342  25.298  1.00  0.00     0.092 C 
BRANCH  82  83
ATOM     83  C   UNL A   1      31.672  25.809  23.895  1.00  0.00     0.228 C 
ATOM     84  O   UNL A   1      31.428  25.063  22.951  1.00  0.00    -0.274 OA
ATOM     85  N   UNL A   1      31.961  27.143  23.694  1.00  0.00    -0.326 N 
ATOM     86  H   UNL A   1      31.758  27.501  22.799  1.00  0.00     0.169 HD
BRANCH  85  87
ATOM     87  C   UNL A   1      32.511  28.048  24.615  1.00  0.00     0.042 A 
ATOM     88  C   UNL A   1      33.746  27.810  25.217  1.00  0.00     0.028 A 
ATOM     89  C   UNL A   1      31.815  29.215  24.922  1.00  0.00     0.043 A 
ATOM     90  C   UNL A   1      34.240  28.668  26.200  1.00  0.00     0.024 A 
ATOM     91  C   UNL A   1      32.303  30.079  25.914  1.00  0.00     0.038 A 
ATOM     92  C   UNL A   1      33.510  29.797  26.567  1.00  0.00     0.055 A 
ATOM     93  Br  UNL A   1      31.246  31.598  26.344  1.00  0.00    -0.049 Br
ATOM     94  Cl  UNL A   1      34.155  30.788  27.825  1.00  0.00    -0.083 Cl
ENDBRANCH  85  87
ENDBRANCH  82  83
ENDBRANCH  77  80
ENDBRANCH  75  76
ENDBRANCH  74  75
ENDBRANCH  73  74
ENDBRANCH   1  73
TORSDOF 15
ENDMDL
MODEL 3
REMARK VINA RESULT:     -11.5      1.735      7.634
REMARK SMILES O=C(NCCCCCCNC(=O)[C@H]1C[C@@H]1C(=O)Nc1ccc(Cl)c(Br)c1)c1ccc(-c2c3nc(c(-c4c(F)c(F)c(F)c(F)c4F)c4ccc([nH]4)c(-c4c(F)c(F)c(F)c(F)c4F)c4nc(c(-c5c(F)c(F)c(F)c(F)c5F)c5ccc2[nH]5)C=C4)C=C3)cc1
REMARK SMILES IDX 6 1 5 2 4 3 3 4 1 5 2 6 27 8 28 9 89 10 29 11 88 12 30 13
REMARK SMILES IDX 31 14 32 15 82 16 33 17 87 18 81 19 83 20 34 21 86 22 80 23
REMARK SMILES IDX 79 24 35 26 67 27 47 28 66 29 48 30 51 31 65 32 84 33 49 34
REMARK SMILES IDX 50 35 64 37 85 38 52 39 36 40 37 41 45 42 38 43 39 44 43 45
REMARK SMILES IDX 46 46 40 47 41 48 44 49 42 50 68 51 69 52 77 53 70 54 71 55
REMARK SMILES IDX 75 56 78 57 72 58 73 59 76 60 74 61 53 62 54 63 62 64 55 65
REMARK SMILES IDX 56 66 60 67 63 68 57 69 58 70 61 71 59 72 7 73 8 74 9 75
REMARK SMILES IDX 10 76 11 77 12 79 13 80 14 81 15 82 16 83 17 84 18 85 19 87
REMARK SMILES IDX 20 88 26 89 21 90 24 91 22 92 25 93 23 94
REMARK H PARENT 3 7 83 25 51 36 10 78 18 86
REMARK Flexibility Score: inf
ROOT
ATOM      1  C   UNL A   1      31.463  30.683  26.255  1.00  0.00     0.002 C 
ENDROOT
BRANCH   1   2
ATOM      2  C   UNL A   1      31.411  32.192  26.501  1.00  0.00     0.021 C 
BRANCH   2   3
ATOM      3  C   UNL A   1      32.587  32.768  27.281  1.00  0.00     0.116 C 
BRANCH   3   4
ATOM      4  N   UNL A   1      32.393  34.164  27.626  1.00  0.00    -0.352 N 
ATOM      5  O   UNL A   1      32.597  36.043  28.848  1.00  0.00    -0.269 OA
ATOM      6  C   UNL A   1      33.010  34.916  28.592  1.00  0.00     0.251 C 
ATOM      7  H   UNL A   1      31.721  34.640  27.087  1.00  0.00     0.163 HD
BRANCH   6   8
ATOM      8  C   UNL A   1      34.168  34.377  29.342  1.00  0.00     0.039 A 
ATOM      9  C   UNL A   1      35.450  34.556  28.811  1.00  0.00     0.014 A 
ATOM     10  C   UNL A   1      33.995  33.642  30.518  1.00  0.00     0.014 A 
ATOM     11  C   UNL A   1      36.560  34.021  29.470  1.00  0.00     0.010 A 
ATOM     12  C   UNL A   1      35.108  33.153  31.202  1.00  0.00     0.010 A 
ATOM     13  C   UNL A   1      36.398  33.323  30.675  1.00  0.00    -0.014 A 
BRANCH  13  14
ATOM     14  C   UNL A   1      37.552  32.692  31.363  1.00  0.00     0.031 A 
ATOM     15  C   UNL A   1      38.286  31.563  30.693  1.00  0.00     0.074 A 
ATOM     16  C   UNL A   1      37.926  33.106  32.588  1.00  0.00     0.049 A 
ATOM     17  N   UNL A   1      39.224  30.783  31.168  1.00  0.00    -0.248 NA
ATOM     18  C   UNL A   1      37.903  31.264  29.303  1.00  0.00     0.031 C 
ATOM     19  C   UNL A   1      37.316  34.207  33.334  1.00  0.00     0.029 A 
ATOM     20  N   UNL A   1      38.912  32.643  33.424  1.00  0.00    -0.354 N 
ATOM     21  C   UNL A   1      39.534  29.900  30.142  1.00  0.00     0.074 A 
ATOM     22  C   UNL A   1      38.660  30.212  29.032  1.00  0.00     0.031 C 
ATOM     23  C   UNL A   1      37.954  34.348  34.507  1.00  0.00     0.029 A 
ATOM     24  C   UNL A   1      38.985  33.320  34.617  1.00  0.00     0.049 A 
ATOM     25  H   UNL A   1      39.509  31.896  33.191  1.00  0.00     0.167 HD
ATOM     26  C   UNL A   1      40.479  28.929  30.122  1.00  0.00     0.037 A 
ATOM     27  C   UNL A   1      39.786  33.121  35.682  1.00  0.00     0.037 A 
ATOM     28  C   UNL A   1      41.360  28.631  31.219  1.00  0.00     0.049 A 
ATOM     29  C   UNL A   1      40.789  31.998  35.651  1.00  0.00     0.074 A 
ATOM     30  C   UNL A   1      42.324  27.642  31.308  1.00  0.00     0.029 A 
ATOM     31  N   UNL A   1      41.396  29.334  32.413  1.00  0.00    -0.354 N 
ATOM     32  N   UNL A   1      41.048  31.144  34.692  1.00  0.00    -0.248 NA
ATOM     33  C   UNL A   1      41.609  31.810  36.857  1.00  0.00     0.031 C 
ATOM     34  C   UNL A   1      42.933  27.736  32.563  1.00  0.00     0.029 A 
ATOM     35  C   UNL A   1      42.373  28.806  33.241  1.00  0.00     0.049 A 
ATOM     36  H   UNL A   1      40.814  30.095  32.639  1.00  0.00     0.167 HD
ATOM     37  C   UNL A   1      42.083  30.346  35.161  1.00  0.00     0.074 A 
ATOM     38  C   UNL A   1      42.409  30.819  36.490  1.00  0.00     0.031 C 
ATOM     39  C   UNL A   1      42.706  29.312  34.546  1.00  0.00     0.037 A 
BRANCH  26  40
ATOM     40  C   UNL A   1      40.623  28.124  28.866  1.00  0.00     0.064 A 
ATOM     41  C   UNL A   1      39.912  26.929  28.684  1.00  0.00     0.173 A 
ATOM     42  C   UNL A   1      41.420  28.584  27.808  1.00  0.00     0.173 A 
ATOM     43  F   UNL A   1      39.148  26.441  29.672  1.00  0.00    -0.203 F 
ATOM     44  C   UNL A   1      40.001  26.220  27.489  1.00  0.00     0.198 A 
ATOM     45  C   UNL A   1      41.488  27.885  26.606  1.00  0.00     0.198 A 
ATOM     46  F   UNL A   1      42.118  29.724  27.931  1.00  0.00    -0.203 F 
ATOM     47  F   UNL A   1      39.333  25.065  27.347  1.00  0.00    -0.200 F 
ATOM     48  C   UNL A   1      40.779  26.703  26.449  1.00  0.00     0.200 A 
ATOM     49  F   UNL A   1      42.231  28.358  25.596  1.00  0.00    -0.200 F 
ATOM     50  F   UNL A   1      40.848  26.028  25.292  1.00  0.00    -0.200 F 
ENDBRANCH  26  40
BRANCH  27  51
ATOM     51  C   UNL A   1      39.696  34.016  36.864  1.00  0.00     0.064 A 
ATOM     52  C   UNL A   1      38.910  33.662  37.970  1.00  0.00     0.173 A 
ATOM     53  C   UNL A   1      40.367  35.246  36.908  1.00  0.00     0.173 A 
ATOM     54  F   UNL A   1      38.229  32.506  37.963  1.00  0.00    -0.203 F 
ATOM     55  C   UNL A   1      38.784  34.510  39.066  1.00  0.00     0.198 A 
ATOM     56  C   UNL A   1      40.262  36.083  38.016  1.00  0.00     0.198 A 
ATOM     57  F   UNL A   1      41.130  35.632  35.875  1.00  0.00    -0.203 F 
ATOM     58  F   UNL A   1      37.990  34.168  40.090  1.00  0.00    -0.200 F 
ATOM     59  C   UNL A   1      39.465  35.719  39.092  1.00  0.00     0.200 A 
ATOM     60  F   UNL A   1      40.928  37.246  38.041  1.00  0.00    -0.200 F 
ATOM     61  F   UNL A   1      39.343  36.537  40.147  1.00  0.00    -0.200 F 
ENDBRANCH  27  51
BRANCH  39  62
ATOM     62  C   UNL A   1      43.845  28.660  35.271  1.00  0.00     0.064 A 
ATOM     63  C   UNL A   1      45.172  29.072  35.083  1.00  0.00     0.173 A 
ATOM     64  C   UNL A   1      43.596  27.643  36.206  1.00  0.00     0.173 A 
ATOM     65  F   UNL A   1      45.459  30.033  34.191  1.00  0.00    -0.203 F 
ATOM     66  C   UNL A   1      46.212  28.473  35.788  1.00  0.00     0.198 A 
ATOM     67  C   UNL A   1      44.637  27.064  36.928  1.00  0.00     0.198 A 
ATOM     68  F   UNL A   1      42.343  27.219  36.428  1.00  0.00    -0.203 F 
ATOM     69  F   UNL A   1      47.477  28.855  35.563  1.00  0.00    -0.200 F 
ATOM     70  C   UNL A   1      45.943  27.476  36.714  1.00  0.00     0.200 A 
ATOM     71  F   UNL A   1      44.373  26.110  37.830  1.00  0.00    -0.200 F 
ATOM     72  F   UNL A   1      46.946  26.907  37.397  1.00  0.00    -0.200 F 
ENDBRANCH  39  62
ENDBRANCH  13  14
ENDBRANCH   6   8
ENDBRANCH   3   4
ENDBRANCH   2   3
ENDBRANCH   1   2
BRANCH   1  73
ATOM     73  C   UNL A   1      32.301  29.874  27.250  1.00  0.00     0.002 C 
BRANCH  73  74
ATOM     74  C   UNL A   1      32.701  28.464  26.803  1.00  0.00     0.021 C 
BRANCH  74  75
ATOM     75  C   UNL A   1      31.605  27.659  26.108  1.00  0.00     0.116 C 
BRANCH  75  76
ATOM     76  N   UNL A   1      31.326  26.433  26.817  1.00  0.00    -0.356 N 
ATOM     77  C   UNL A   1      31.843  25.184  26.668  1.00  0.00     0.223 C 
ATOM     78  H   UNL A   1      30.648  26.514  27.526  1.00  0.00     0.163 HD
ATOM     79  O   UNL A   1      31.290  24.248  27.239  1.00  0.00    -0.275 OA
BRANCH  77  80
ATOM     80  C   UNL A   1      33.058  24.920  25.858  1.00  0.00     0.091 C 
ATOM     81  C   UNL A   1      33.696  23.588  25.557  1.00  0.00     0.028 C 
ATOM     82  C   UNL A   1      32.802  24.218  24.529  1.00  0.00     0.092 C 
BRANCH  82  83
ATOM     83  C   UNL A   1      33.351  24.736  23.245  1.00  0.00     0.228 C 
ATOM     84  O   UNL A   1      34.477  24.416  22.873  1.00  0.00    -0.274 OA
ATOM     85  N   UNL A   1      32.499  25.437  22.417  1.00  0.00    -0.326 N 
ATOM     86  H   UNL A   1      32.755  25.482  21.467  1.00  0.00     0.169 HD
BRANCH  85  87
ATOM     87  C   UNL A   1      31.311  26.096  22.771  1.00  0.00     0.042 A 
ATOM     88  C   UNL A   1      30.286  25.433  23.443  1.00  0.00     0.028 A 
ATOM     89  C   UNL A   1      31.162  27.445  22.458  1.00  0.00     0.043 A 
ATOM     90  C   UNL A   1      29.073  26.070  23.707  1.00  0.00     0.024 A 
ATOM     91  C   UNL A   1      29.942  28.092  22.715  1.00  0.00     0.038 A 
ATOM     92  C   UNL A   1      28.889  27.398  23.326  1.00  0.00     0.055 A 
ATOM     93  Br  UNL A   1      29.784  29.904  22.169  1.00  0.00    -0.049 Br
ATOM     94  Cl  UNL A   1      27.348  28.110  23.638  1.00  0.00    -0.083 Cl
ENDBRANCH  85  87
ENDBRANCH  82  83
ENDBRANCH  77  80
ENDBRANCH  75  76
ENDBRANCH  74  75
ENDBRANCH  73  74
ENDBRANCH   1  73
TORSDOF 15
ENDMDL
