MODEL 1
REMARK VINA RESULT:     -10.5      0.000      0.000
REMARK SMILES CC(C)[C@@H](CO)NC(=O)CC(C)(C)CC(=O)NCCCCCCNC(=O)c1ccc(-c2c3nc(c(-c4c(F)c(F)c(F)c(F)c4F)c4ccc([nH]4)c(-c4c(F)c(F)c(F)c(F)c4F)c4nc(c(-c5c(F)c(F)c(F)c(F)c5F)c5ccc2[nH]5)C=C4)C=C3)cc1
REMARK SMILES IDX 18 1 17 2 15 3 16 4 14 6 11 7 12 8 13 9 10 10 8 11 7 12 9 14
REMARK SMILES IDX 4 15 2 16 1 17 3 18 5 19 6 20 19 22 20 23 21 24 22 25 23 26
REMARK SMILES IDX 24 27 25 28 26 30 27 31 28 32 89 33 29 34 88 35 30 36 31 37
REMARK SMILES IDX 32 38 82 39 33 40 87 41 81 42 83 43 34 44 86 45 80 46 79 47
REMARK SMILES IDX 35 49 67 50 47 51 66 52 48 53 51 54 65 55 84 56 49 57 50 58
REMARK SMILES IDX 64 60 85 61 52 62 36 63 37 64 45 65 38 66 39 67 43 68 46 69
REMARK SMILES IDX 40 70 41 71 44 72 42 73 68 74 69 75 77 76 70 77 71 78 75 79
REMARK SMILES IDX 78 80 72 81 73 82 76 83 74 84 53 85 54 86 62 87 55 88 56 89
REMARK SMILES IDX 60 90 63 91 57 92 58 93 61 94 59 95
REMARK H PARENT 17 5 7 13 6 21 24 29 83 48 51 59
REMARK Flexibility Score: inf
ROOT
ATOM      1  C   UNL A   1      31.925  28.438  24.504  1.00  0.00     0.116 C 
ENDROOT
BRANCH   1   2
ATOM      2  N   UNL A   1      30.892  27.481  24.844  1.00  0.00    -0.356 N 
ATOM      3  C   UNL A   1      30.620  26.265  24.293  1.00  0.00     0.220 C 
ATOM      4  O   UNL A   1      29.554  25.727  24.581  1.00  0.00    -0.275 OA
ATOM      5  H   UNL A   1      30.298  27.750  25.582  1.00  0.00     0.163 HD
BRANCH   3   6
ATOM      6  C   UNL A   1      31.647  25.594  23.398  1.00  0.00     0.107 C 
BRANCH   6   7
ATOM      7  C   UNL A   1      32.504  24.451  24.000  1.00  0.00    -0.018 C 
ATOM      8  C   UNL A   1      32.935  24.917  25.404  1.00  0.00     0.012 C 
ATOM      9  C   UNL A   1      33.828  24.209  23.254  1.00  0.00     0.012 C 
BRANCH   7  10
ATOM     10  C   UNL A   1      31.772  23.079  24.011  1.00  0.00     0.107 C 
BRANCH  10  11
ATOM     11  C   UNL A   1      31.299  22.479  25.326  1.00  0.00     0.220 C 
ATOM     12  N   UNL A   1      31.922  21.395  25.858  1.00  0.00    -0.351 N 
ATOM     13  H   UNL A   1      31.480  21.015  26.652  1.00  0.00     0.163 HD
ATOM     14  O   UNL A   1      30.313  22.919  25.914  1.00  0.00    -0.275 OA
BRANCH  12  15
ATOM     15  C   UNL A   1      33.135  20.706  25.445  1.00  0.00     0.110 C 
BRANCH  15  16
ATOM     16  C   UNL A   1      34.335  21.096  26.356  1.00  0.00     0.007 C 
ATOM     17  C   UNL A   1      35.353  21.920  25.560  1.00  0.00     0.009 C 
ATOM     18  C   UNL A   1      33.956  21.873  27.629  1.00  0.00     0.009 C 
ENDBRANCH  15  16
BRANCH  15  19
ATOM     19  C   UNL A   1      32.887  19.182  25.376  1.00  0.00     0.181 C 
BRANCH  19  20
ATOM     20  O   UNL A   1      32.847  18.585  26.668  1.00  0.00    -0.394 OA
ATOM     21  H   UNL A   1      33.502  19.013  27.241  1.00  0.00     0.210 HD
ENDBRANCH  19  20
ENDBRANCH  15  19
ENDBRANCH  12  15
ENDBRANCH  10  11
ENDBRANCH   7  10
ENDBRANCH   6   7
ENDBRANCH   3   6
ENDBRANCH   1   2
BRANCH   1  22
ATOM     22  C   UNL A   1      32.767  28.748  25.741  1.00  0.00     0.021 C 
BRANCH  22  23
ATOM     23  C   UNL A   1      32.718  30.207  26.182  1.00  0.00     0.002 C 
BRANCH  23  24
ATOM     24  C   UNL A   1      31.366  30.889  25.977  1.00  0.00     0.002 C 
BRANCH  24  25
ATOM     25  C   UNL A   1      31.255  32.315  26.527  1.00  0.00     0.021 C 
BRANCH  25  26
ATOM     26  C   UNL A   1      32.547  32.903  27.093  1.00  0.00     0.116 C 
BRANCH  26  27
ATOM     27  N   UNL A   1      32.356  34.235  27.636  1.00  0.00    -0.352 N 
ATOM     28  C   UNL A   1      33.001  34.865  28.668  1.00  0.00     0.251 C 
ATOM     29  H   UNL A   1      31.654  34.768  27.198  1.00  0.00     0.163 HD
ATOM     30  O   UNL A   1      32.576  35.930  29.100  1.00  0.00    -0.269 OA
BRANCH  28  31
ATOM     31  C   UNL A   1      34.201  34.254  29.275  1.00  0.00     0.039 A 
ATOM     32  C   UNL A   1      34.029  33.399  30.366  1.00  0.00     0.014 A 
ATOM     33  C   UNL A   1      35.484  34.545  28.802  1.00  0.00     0.014 A 
ATOM     34  C   UNL A   1      35.142  32.799  30.956  1.00  0.00     0.010 A 
ATOM     35  C   UNL A   1      36.590  33.896  29.350  1.00  0.00     0.010 A 
ATOM     36  C   UNL A   1      36.428  33.024  30.438  1.00  0.00    -0.014 A 
BRANCH  36  37
ATOM     37  C   UNL A   1      37.604  32.344  31.033  1.00  0.00     0.031 A 
ATOM     38  C   UNL A   1      38.089  32.720  32.403  1.00  0.00     0.074 A 
ATOM     39  C   UNL A   1      38.249  31.402  30.320  1.00  0.00     0.049 A 
ATOM     40  N   UNL A   1      39.084  32.221  33.094  1.00  0.00    -0.248 NA
ATOM     41  C   UNL A   1      37.382  33.819  33.079  1.00  0.00     0.031 C 
ATOM     42  C   UNL A   1      37.908  30.994  28.957  1.00  0.00     0.029 A 
ATOM     43  N   UNL A   1      39.326  30.617  30.643  1.00  0.00    -0.354 N 
ATOM     44  C   UNL A   1      39.124  32.945  34.277  1.00  0.00     0.074 A 
ATOM     45  C   UNL A   1      38.089  33.954  34.192  1.00  0.00     0.031 C 
ATOM     46  C   UNL A   1      38.738  30.013  28.571  1.00  0.00     0.029 A 
ATOM     47  C   UNL A   1      39.683  29.739  29.649  1.00  0.00     0.049 A 
ATOM     48  H   UNL A   1      39.798  30.676  31.504  1.00  0.00     0.167 HD
ATOM     49  C   UNL A   1      39.934  32.768  35.347  1.00  0.00     0.037 A 
ATOM     50  C   UNL A   1      40.658  28.811  29.617  1.00  0.00     0.037 A 
ATOM     51  C   UNL A   1      40.944  31.747  35.439  1.00  0.00     0.049 A 
ATOM     52  C   UNL A   1      41.527  28.619  30.828  1.00  0.00     0.074 A 
ATOM     53  C   UNL A   1      41.770  31.442  36.506  1.00  0.00     0.029 A 
ATOM     54  N   UNL A   1      41.267  30.864  34.419  1.00  0.00    -0.354 N 
ATOM     55  N   UNL A   1      41.503  29.255  31.973  1.00  0.00    -0.248 NA
ATOM     56  C   UNL A   1      42.553  27.570  30.745  1.00  0.00     0.031 C 
ATOM     57  C   UNL A   1      42.619  30.400  36.119  1.00  0.00     0.029 A 
ATOM     58  C   UNL A   1      42.294  30.028  34.825  1.00  0.00     0.049 A 
ATOM     59  H   UNL A   1      40.830  30.836  33.537  1.00  0.00     0.167 HD
ATOM     60  C   UNL A   1      42.491  28.674  32.755  1.00  0.00     0.074 A 
ATOM     61  C   UNL A   1      43.085  27.619  31.959  1.00  0.00     0.031 C 
ATOM     62  C   UNL A   1      42.875  28.986  34.017  1.00  0.00     0.037 A 
BRANCH  49  63
ATOM     63  C   UNL A   1      39.754  33.696  36.513  1.00  0.00     0.064 A 
ATOM     64  C   UNL A   1      38.905  33.375  37.584  1.00  0.00     0.173 A 
ATOM     65  C   UNL A   1      40.466  34.904  36.580  1.00  0.00     0.173 A 
ATOM     66  F   UNL A   1      38.194  32.238  37.562  1.00  0.00    -0.203 F 
ATOM     67  C   UNL A   1      38.754  34.241  38.663  1.00  0.00     0.198 A 
ATOM     68  C   UNL A   1      40.333  35.754  37.675  1.00  0.00     0.198 A 
ATOM     69  F   UNL A   1      41.294  35.256  35.586  1.00  0.00    -0.203 F 
ATOM     70  F   UNL A   1      37.902  33.934  39.652  1.00  0.00    -0.200 F 
ATOM     71  C   UNL A   1      39.473  35.425  38.711  1.00  0.00     0.200 A 
ATOM     72  F   UNL A   1      41.036  36.894  37.725  1.00  0.00    -0.200 F 
ATOM     73  F   UNL A   1      39.331  36.255  39.755  1.00  0.00    -0.200 F 
ENDBRANCH  49  63
BRANCH  50  74
ATOM     74  C   UNL A   1      40.831  27.966  28.410  1.00  0.00     0.064 A 
ATOM     75  C   UNL A   1      41.660  28.377  27.356  1.00  0.00     0.173 A 
ATOM     76  C   UNL A   1      40.183  26.728  28.286  1.00  0.00     0.173 A 
ATOM     77  F   UNL A   1      42.285  29.562  27.421  1.00  0.00    -0.203 F 
ATOM     78  C   UNL A   1      41.820  27.591  26.218  1.00  0.00     0.198 A 
ATOM     79  C   UNL A   1      40.365  25.931  27.159  1.00  0.00     0.198 A 
ATOM     80  F   UNL A   1      39.385  26.288  29.270  1.00  0.00    -0.203 F 
ATOM     81  F   UNL A   1      42.588  28.026  25.209  1.00  0.00    -0.200 F 
ATOM     82  C   UNL A   1      41.178  26.366  26.122  1.00  0.00     0.200 A 
ATOM     83  F   UNL A   1      39.752  24.742  27.076  1.00  0.00    -0.200 F 
ATOM     84  F   UNL A   1      41.337  25.607  25.030  1.00  0.00    -0.200 F 
ENDBRANCH  50  74
BRANCH  62  85
ATOM     85  C   UNL A   1      43.978  28.165  34.617  1.00  0.00     0.064 A 
ATOM     86  C   UNL A   1      43.717  26.946  35.257  1.00  0.00     0.173 A 
ATOM     87  C   UNL A   1      45.312  28.592  34.528  1.00  0.00     0.173 A 
ATOM     88  F   UNL A   1      42.456  26.504  35.382  1.00  0.00    -0.203 F 
ATOM     89  C   UNL A   1      44.750  26.194  35.811  1.00  0.00     0.198 A 
ATOM     90  C   UNL A   1      46.344  27.824  35.059  1.00  0.00     0.198 A 
ATOM     91  F   UNL A   1      45.613  29.749  33.920  1.00  0.00    -0.203 F 
ATOM     92  F   UNL A   1      44.473  25.055  36.460  1.00  0.00    -0.200 F 
ATOM     93  C   UNL A   1      46.062  26.630  35.706  1.00  0.00     0.200 A 
ATOM     94  F   UNL A   1      47.613  28.242  34.947  1.00  0.00    -0.200 F 
ATOM     95  F   UNL A   1      47.056  25.905  36.238  1.00  0.00    -0.200 F 
ENDBRANCH  62  85
ENDBRANCH  36  37
ENDBRANCH  28  31
ENDBRANCH  26  27
ENDBRANCH  25  26
ENDBRANCH  24  25
ENDBRANCH  23  24
ENDBRANCH  22  23
ENDBRANCH   1  22
TORSDOF 20
ENDMDL
MODEL 2
REMARK VINA RESULT:      -9.9      1.009      2.115
REMARK SMILES CC(C)[C@@H](CO)NC(=O)CC(C)(C)CC(=O)NCCCCCCNC(=O)c1ccc(-c2c3nc(c(-c4c(F)c(F)c(F)c(F)c4F)c4ccc([nH]4)c(-c4c(F)c(F)c(F)c(F)c4F)c4nc(c(-c5c(F)c(F)c(F)c(F)c5F)c5ccc2[nH]5)C=C4)C=C3)cc1
REMARK SMILES IDX 18 1 17 2 15 3 16 4 14 6 11 7 12 8 13 9 10 10 8 11 7 12 9 14
REMARK SMILES IDX 4 15 2 16 1 17 3 18 5 19 6 20 19 22 20 23 21 24 22 25 23 26
REMARK SMILES IDX 24 27 25 28 26 30 27 31 28 32 89 33 29 34 88 35 30 36 31 37
REMARK SMILES IDX 32 38 82 39 33 40 87 41 81 42 83 43 34 44 86 45 80 46 79 47
REMARK SMILES IDX 35 49 67 50 47 51 66 52 48 53 51 54 65 55 84 56 49 57 50 58
REMARK SMILES IDX 64 60 85 61 52 62 36 63 37 64 45 65 38 66 39 67 43 68 46 69
REMARK SMILES IDX 40 70 41 71 44 72 42 73 68 74 69 75 77 76 70 77 71 78 75 79
REMARK SMILES IDX 78 80 72 81 73 82 76 83 74 84 53 85 54 86 62 87 55 88 56 89
REMARK SMILES IDX 60 90 63 91 57 92 58 93 61 94 59 95
REMARK H PARENT 17 5 7 13 6 21 24 29 83 48 51 59
REMARK Flexibility Score: inf
ROOT
ATOM      1  C   UNL A   1      32.871  29.323  24.115  1.00  0.00     0.116 C 
ENDROOT
BRANCH   1   2
ATOM      2  N   UNL A   1      31.629  28.888  23.508  1.00  0.00    -0.356 N 
ATOM      3  C   UNL A   1      31.404  27.880  22.620  1.00  0.00     0.220 C 
ATOM      4  O   UNL A   1      30.311  27.839  22.060  1.00  0.00    -0.275 OA
ATOM      5  H   UNL A   1      30.830  29.398  23.778  1.00  0.00     0.163 HD
BRANCH   3   6
ATOM      6  C   UNL A   1      32.469  26.823  22.391  1.00  0.00     0.107 C 
BRANCH   6   7
ATOM      7  C   UNL A   1      32.408  25.529  23.243  1.00  0.00    -0.018 C 
ATOM      8  C   UNL A   1      31.027  24.899  22.987  1.00  0.00     0.012 C 
ATOM      9  C   UNL A   1      32.438  25.784  24.761  1.00  0.00     0.012 C 
BRANCH   7  10
ATOM     10  C   UNL A   1      33.586  24.553  22.959  1.00  0.00     0.107 C 
BRANCH  10  11
ATOM     11  C   UNL A   1      33.312  23.074  22.742  1.00  0.00     0.220 C 
ATOM     12  N   UNL A   1      33.563  22.170  23.724  1.00  0.00    -0.351 N 
ATOM     13  H   UNL A   1      33.456  21.229  23.455  1.00  0.00     0.163 HD
ATOM     14  O   UNL A   1      32.912  22.647  21.660  1.00  0.00    -0.275 OA
BRANCH  12  15
ATOM     15  C   UNL A   1      33.963  22.367  25.109  1.00  0.00     0.110 C 
BRANCH  15  16
ATOM     16  C   UNL A   1      32.843  21.902  26.084  1.00  0.00     0.007 C 
ATOM     17  C   UNL A   1      32.975  22.634  27.425  1.00  0.00     0.009 C 
ATOM     18  C   UNL A   1      31.409  22.086  25.559  1.00  0.00     0.009 C 
ENDBRANCH  15  16
BRANCH  15  19
ATOM     19  C   UNL A   1      35.328  21.692  25.373  1.00  0.00     0.181 C 
BRANCH  19  20
ATOM     20  O   UNL A   1      35.219  20.274  25.452  1.00  0.00    -0.394 OA
ATOM     21  H   UNL A   1      34.339  20.001  25.150  1.00  0.00     0.210 HD
ENDBRANCH  19  20
ENDBRANCH  15  19
ENDBRANCH  12  15
ENDBRANCH  10  11
ENDBRANCH   7  10
ENDBRANCH   6   7
ENDBRANCH   3   6
ENDBRANCH   1   2
BRANCH   1  22
ATOM     22  C   UNL A   1      32.845  29.023  25.613  1.00  0.00     0.021 C 
BRANCH  22  23
ATOM     23  C   UNL A   1      32.785  30.263  26.499  1.00  0.00     0.002 C 
BRANCH  23  24
ATOM     24  C   UNL A   1      31.404  30.908  26.599  1.00  0.00     0.002 C 
BRANCH  24  25
ATOM     25  C   UNL A   1      31.385  32.439  26.553  1.00  0.00     0.021 C 
BRANCH  25  26
ATOM     26  C   UNL A   1      32.707  33.124  26.895  1.00  0.00     0.116 C 
BRANCH  26  27
ATOM     27  N   UNL A   1      32.516  34.367  27.617  1.00  0.00    -0.352 N 
ATOM     28  C   UNL A   1      33.114  34.819  28.764  1.00  0.00     0.251 C 
ATOM     29  H   UNL A   1      31.852  34.980  27.225  1.00  0.00     0.163 HD
ATOM     30  O   UNL A   1      32.689  35.822  29.325  1.00  0.00    -0.269 OA
BRANCH  28  31
ATOM     31  C   UNL A   1      34.263  34.089  29.338  1.00  0.00     0.039 A 
ATOM     32  C   UNL A   1      35.550  34.462  28.944  1.00  0.00     0.014 A 
ATOM     33  C   UNL A   1      34.077  33.026  30.227  1.00  0.00     0.014 A 
ATOM     34  C   UNL A   1      36.654  33.798  29.477  1.00  0.00     0.010 A 
ATOM     35  C   UNL A   1      35.182  32.406  30.808  1.00  0.00     0.010 A 
ATOM     36  C   UNL A   1      36.480  32.781  30.430  1.00  0.00    -0.014 A 
BRANCH  36  37
ATOM     37  C   UNL A   1      37.658  32.112  31.034  1.00  0.00     0.031 A 
ATOM     38  C   UNL A   1      38.115  32.476  32.417  1.00  0.00     0.074 A 
ATOM     39  C   UNL A   1      38.330  31.192  30.318  1.00  0.00     0.049 A 
ATOM     40  N   UNL A   1      39.107  31.983  33.116  1.00  0.00    -0.248 NA
ATOM     41  C   UNL A   1      37.379  33.552  33.098  1.00  0.00     0.031 C 
ATOM     42  C   UNL A   1      38.017  30.798  28.944  1.00  0.00     0.029 A 
ATOM     43  N   UNL A   1      39.415  30.419  30.647  1.00  0.00    -0.354 N 
ATOM     44  C   UNL A   1      39.116  32.690  34.311  1.00  0.00     0.074 A 
ATOM     45  C   UNL A   1      38.066  33.682  34.224  1.00  0.00     0.031 C 
ATOM     46  C   UNL A   1      38.870  29.837  28.557  1.00  0.00     0.029 A 
ATOM     47  C   UNL A   1      39.803  29.563  29.645  1.00  0.00     0.049 A 
ATOM     48  H   UNL A   1      39.872  30.474  31.516  1.00  0.00     0.167 HD
ATOM     49  C   UNL A   1      39.912  32.510  35.391  1.00  0.00     0.037 A 
ATOM     50  C   UNL A   1      40.793  28.652  29.615  1.00  0.00     0.037 A 
ATOM     51  C   UNL A   1      40.937  31.505  35.484  1.00  0.00     0.049 A 
ATOM     52  C   UNL A   1      41.647  28.456  30.837  1.00  0.00     0.074 A 
ATOM     53  C   UNL A   1      41.752  31.198  36.560  1.00  0.00     0.029 A 
ATOM     54  N   UNL A   1      41.292  30.643  34.457  1.00  0.00    -0.354 N 
ATOM     55  N   UNL A   1      41.593  29.074  31.992  1.00  0.00    -0.248 NA
ATOM     56  C   UNL A   1      42.691  27.426  30.756  1.00  0.00     0.031 C 
ATOM     57  C   UNL A   1      42.625  30.175  36.171  1.00  0.00     0.029 A 
ATOM     58  C   UNL A   1      42.327  29.818  34.866  1.00  0.00     0.049 A 
ATOM     59  H   UNL A   1      40.869  30.621  33.567  1.00  0.00     0.167 HD
ATOM     60  C   UNL A   1      42.579  28.498  32.780  1.00  0.00     0.074 A 
ATOM     61  C   UNL A   1      43.203  27.466  31.978  1.00  0.00     0.031 C 
ATOM     62  C   UNL A   1      42.937  28.798  34.053  1.00  0.00     0.037 A 
BRANCH  49  63
ATOM     63  C   UNL A   1      39.698  33.417  36.568  1.00  0.00     0.064 A 
ATOM     64  C   UNL A   1      40.365  34.647  36.679  1.00  0.00     0.173 A 
ATOM     65  C   UNL A   1      38.788  33.071  37.578  1.00  0.00     0.173 A 
ATOM     66  F   UNL A   1      41.253  35.019  35.744  1.00  0.00    -0.203 F 
ATOM     67  C   UNL A   1      40.149  35.483  37.771  1.00  0.00     0.198 A 
ATOM     68  C   UNL A   1      38.555  33.922  38.656  1.00  0.00     0.198 A 
ATOM     69  F   UNL A   1      38.121  31.909  37.518  1.00  0.00    -0.203 F 
ATOM     70  F   UNL A   1      40.832  36.631  37.878  1.00  0.00    -0.200 F 
ATOM     71  C   UNL A   1      39.241  35.123  38.754  1.00  0.00     0.200 A 
ATOM     72  F   UNL A   1      37.669  33.578  39.600  1.00  0.00    -0.200 F 
ATOM     73  F   UNL A   1      39.030  35.932  39.802  1.00  0.00    -0.200 F 
ENDBRANCH  49  63
BRANCH  50  74
ATOM     74  C   UNL A   1      41.000  27.828  28.399  1.00  0.00     0.064 A 
ATOM     75  C   UNL A   1      40.316  26.615  28.227  1.00  0.00     0.173 A 
ATOM     76  C   UNL A   1      41.873  28.236  27.380  1.00  0.00     0.173 A 
ATOM     77  F   UNL A   1      39.485  26.175  29.183  1.00  0.00    -0.203 F 
ATOM     78  C   UNL A   1      40.512  25.834  27.091  1.00  0.00     0.198 A 
ATOM     79  C   UNL A   1      42.048  27.466  26.233  1.00  0.00     0.198 A 
ATOM     80  F   UNL A   1      42.544  29.391  27.495  1.00  0.00    -0.203 F 
ATOM     81  F   UNL A   1      39.875  24.661  26.969  1.00  0.00    -0.200 F 
ATOM     82  C   UNL A   1      41.373  26.263  26.091  1.00  0.00     0.200 A 
ATOM     83  F   UNL A   1      42.870  27.891  25.263  1.00  0.00    -0.200 F 
ATOM     84  F   UNL A   1      41.555  25.514  24.995  1.00  0.00    -0.200 F 
ENDBRANCH  50  74
BRANCH  62  85
ATOM     85  C   UNL A   1      44.045  27.987  34.658  1.00  0.00     0.064 A 
ATOM     86  C   UNL A   1      43.788  26.775  35.315  1.00  0.00     0.173 A 
ATOM     87  C   UNL A   1      45.377  28.414  34.558  1.00  0.00     0.173 A 
ATOM     88  F   UNL A   1      42.529  26.332  35.451  1.00  0.00    -0.203 F 
ATOM     89  C   UNL A   1      44.825  26.031  35.873  1.00  0.00     0.198 A 
ATOM     90  C   UNL A   1      46.413  27.655  35.094  1.00  0.00     0.198 A 
ATOM     91  F   UNL A   1      45.673  29.564  33.934  1.00  0.00    -0.203 F 
ATOM     92  F   UNL A   1      44.553  24.901  36.538  1.00  0.00    -0.200 F 
ATOM     93  C   UNL A   1      46.136  26.469  35.758  1.00  0.00     0.200 A 
ATOM     94  F   UNL A   1      47.680  28.074  34.972  1.00  0.00    -0.200 F 
ATOM     95  F   UNL A   1      47.133  25.752  36.294  1.00  0.00    -0.200 F 
ENDBRANCH  62  85
ENDBRANCH  36  37
ENDBRANCH  28  31
ENDBRANCH  26  27
ENDBRANCH  25  26
ENDBRANCH  24  25
ENDBRANCH  23  24
ENDBRANCH  22  23
ENDBRANCH   1  22
TORSDOF 20
ENDMDL
MODEL 3
REMARK VINA RESULT:      -9.7      4.618      9.687
REMARK SMILES CC(C)[C@@H](CO)NC(=O)CC(C)(C)CC(=O)NCCCCCCNC(=O)c1ccc(-c2c3nc(c(-c4c(F)c(F)c(F)c(F)c4F)c4ccc([nH]4)c(-c4c(F)c(F)c(F)c(F)c4F)c4nc(c(-c5c(F)c(F)c(F)c(F)c5F)c5ccc2[nH]5)C=C4)C=C3)cc1
REMARK SMILES IDX 18 1 17 2 15 3 16 4 14 6 11 7 12 8 13 9 10 10 8 11 7 12 9 14
REMARK SMILES IDX 4 15 2 16 1 17 3 18 5 19 6 20 19 22 20 23 21 24 22 25 23 26
REMARK SMILES IDX 24 27 25 28 26 30 27 31 28 32 89 33 29 34 88 35 30 36 31 37
REMARK SMILES IDX 32 38 82 39 33 40 87 41 81 42 83 43 34 44 86 45 80 46 79 47
REMARK SMILES IDX 35 49 67 50 47 51 66 52 48 53 51 54 65 55 84 56 49 57 50 58
REMARK SMILES IDX 64 60 85 61 52 62 36 63 37 64 45 65 38 66 39 67 43 68 46 69
REMARK SMILES IDX 40 70 41 71 44 72 42 73 68 74 69 75 77 76 70 77 71 78 75 79
REMARK SMILES IDX 78 80 72 81 73 82 76 83 74 84 53 85 54 86 62 87 55 88 56 89
REMARK SMILES IDX 60 90 63 91 57 92 58 93 61 94 59 95
REMARK H PARENT 17 5 7 13 6 21 24 29 83 48 51 59
REMARK Flexibility Score: inf
ROOT
ATOM      1  C   UNL A   1      33.727  24.887  23.149  1.00  0.00     0.116 C 
ENDROOT
BRANCH   1   2
ATOM      2  N   UNL A   1      33.030  25.774  22.240  1.00  0.00    -0.356 N 
ATOM      3  C   UNL A   1      31.692  25.975  22.078  1.00  0.00     0.220 C 
ATOM      4  O   UNL A   1      31.318  26.600  21.089  1.00  0.00    -0.275 OA
ATOM      5  H   UNL A   1      33.610  26.310  21.651  1.00  0.00     0.163 HD
BRANCH   3   6
ATOM      6  C   UNL A   1      30.721  25.478  23.134  1.00  0.00     0.107 C 
BRANCH   6   7
ATOM      7  C   UNL A   1      30.165  26.504  24.155  1.00  0.00    -0.018 C 
ATOM      8  C   UNL A   1      28.885  27.094  23.534  1.00  0.00     0.012 C 
ATOM      9  C   UNL A   1      31.082  27.722  24.372  1.00  0.00     0.012 C 
BRANCH   7  10
ATOM     10  C   UNL A   1      29.933  25.897  25.569  1.00  0.00     0.107 C 
BRANCH  10  11
ATOM     11  C   UNL A   1      31.002  26.038  26.641  1.00  0.00     0.220 C 
ATOM     12  N   UNL A   1      31.817  24.996  26.949  1.00  0.00    -0.351 N 
ATOM     13  H   UNL A   1      32.402  25.147  27.726  1.00  0.00     0.163 HD
ATOM     14  O   UNL A   1      31.121  27.072  27.296  1.00  0.00    -0.275 OA
BRANCH  12  15
ATOM     15  C   UNL A   1      31.965  23.694  26.317  1.00  0.00     0.110 C 
BRANCH  15  16
ATOM     16  C   UNL A   1      33.150  22.903  26.943  1.00  0.00     0.007 C 
ATOM     17  C   UNL A   1      33.190  21.479  26.376  1.00  0.00     0.009 C 
ATOM     18  C   UNL A   1      34.533  23.549  26.753  1.00  0.00     0.009 C 
ENDBRANCH  15  16
BRANCH  15  19
ATOM     19  C   UNL A   1      30.626  22.925  26.354  1.00  0.00     0.181 C 
BRANCH  19  20
ATOM     20  O   UNL A   1      30.082  22.855  27.669  1.00  0.00    -0.394 OA
ATOM     21  H   UNL A   1      30.742  22.478  28.271  1.00  0.00     0.210 HD
ENDBRANCH  19  20
ENDBRANCH  15  19
ENDBRANCH  12  15
ENDBRANCH  10  11
ENDBRANCH   7  10
ENDBRANCH   6   7
ENDBRANCH   3   6
ENDBRANCH   1   2
BRANCH   1  22
ATOM     22  C   UNL A   1      33.701  23.462  22.600  1.00  0.00     0.021 C 
BRANCH  22  23
ATOM     23  C   UNL A   1      34.675  22.509  23.284  1.00  0.00     0.002 C 
BRANCH  23  24
ATOM     24  C   UNL A   1      36.075  23.081  23.506  1.00  0.00     0.002 C 
BRANCH  24  25
ATOM     25  C   UNL A   1      37.115  22.093  24.043  1.00  0.00     0.021 C 
BRANCH  25  26
ATOM     26  C   UNL A   1      37.510  22.285  25.507  1.00  0.00     0.116 C 
BRANCH  26  27
ATOM     27  N   UNL A   1      38.487  21.307  25.948  1.00  0.00    -0.352 N 
ATOM     28  C   UNL A   1      39.729  21.491  26.496  1.00  0.00     0.251 C 
ATOM     29  H   UNL A   1      38.216  20.367  25.836  1.00  0.00     0.163 HD
ATOM     30  O   UNL A   1      40.485  20.537  26.640  1.00  0.00    -0.269 OA
BRANCH  28  31
ATOM     31  C   UNL A   1      40.170  22.842  26.898  1.00  0.00     0.039 A 
ATOM     32  C   UNL A   1      40.994  22.964  28.019  1.00  0.00     0.014 A 
ATOM     33  C   UNL A   1      39.750  23.981  26.203  1.00  0.00     0.014 A 
ATOM     34  C   UNL A   1      41.435  24.225  28.418  1.00  0.00     0.010 A 
ATOM     35  C   UNL A   1      40.243  25.234  26.564  1.00  0.00     0.010 A 
ATOM     36  C   UNL A   1      41.082  25.367  27.680  1.00  0.00    -0.014 A 
BRANCH  36  37
ATOM     37  C   UNL A   1      41.595  26.702  28.075  1.00  0.00     0.031 A 
ATOM     38  C   UNL A   1      43.035  27.061  27.853  1.00  0.00     0.074 A 
ATOM     39  C   UNL A   1      40.759  27.580  28.659  1.00  0.00     0.049 A 
ATOM     40  N   UNL A   1      43.657  28.185  28.112  1.00  0.00    -0.248 NA
ATOM     41  C   UNL A   1      43.901  26.014  27.287  1.00  0.00     0.031 C 
ATOM     42  C   UNL A   1      39.355  27.324  28.981  1.00  0.00     0.029 A 
ATOM     43  N   UNL A   1      40.969  28.867  29.087  1.00  0.00    -0.354 N 
ATOM     44  C   UNL A   1      44.980  27.978  27.748  1.00  0.00     0.074 A 
ATOM     45  C   UNL A   1      45.087  26.606  27.299  1.00  0.00     0.031 C 
ATOM     46  C   UNL A   1      38.821  28.427  29.527  1.00  0.00     0.029 A 
ATOM     47  C   UNL A   1      39.848  29.460  29.614  1.00  0.00     0.049 A 
ATOM     48  H   UNL A   1      41.840  29.321  29.022  1.00  0.00     0.167 HD
ATOM     49  C   UNL A   1      46.007  28.860  27.764  1.00  0.00     0.037 A 
ATOM     50  C   UNL A   1      39.670  30.701  30.103  1.00  0.00     0.037 A 
ATOM     51  C   UNL A   1      45.891  30.231  28.186  1.00  0.00     0.049 A 
ATOM     52  C   UNL A   1      40.820  31.668  30.087  1.00  0.00     0.074 A 
ATOM     53  C   UNL A   1      46.856  31.224  28.175  1.00  0.00     0.029 A 
ATOM     54  N   UNL A   1      44.736  30.804  28.698  1.00  0.00    -0.354 N 
ATOM     55  N   UNL A   1      42.047  31.487  29.664  1.00  0.00    -0.248 NA
ATOM     56  C   UNL A   1      40.557  33.018  30.605  1.00  0.00     0.031 C 
ATOM     57  C   UNL A   1      46.294  32.386  28.717  1.00  0.00     0.029 A 
ATOM     58  C   UNL A   1      44.969  32.129  29.027  1.00  0.00     0.049 A 
ATOM     59  H   UNL A   1      43.876  30.336  28.811  1.00  0.00     0.167 HD
ATOM     60  C   UNL A   1      42.697  32.700  29.845  1.00  0.00     0.074 A 
ATOM     61  C   UNL A   1      41.721  33.617  30.398  1.00  0.00     0.031 C 
ATOM     62  C   UNL A   1      43.986  33.025  29.579  1.00  0.00     0.037 A 
BRANCH  49  63
ATOM     63  C   UNL A   1      47.348  28.371  27.301  1.00  0.00     0.064 A 
ATOM     64  C   UNL A   1      47.674  28.299  25.938  1.00  0.00     0.173 A 
ATOM     65  C   UNL A   1      48.333  28.004  28.231  1.00  0.00     0.173 A 
ATOM     66  F   UNL A   1      46.764  28.628  25.009  1.00  0.00    -0.203 F 
ATOM     67  C   UNL A   1      48.925  27.852  25.523  1.00  0.00     0.198 A 
ATOM     68  C   UNL A   1      49.593  27.583  27.812  1.00  0.00     0.198 A 
ATOM     69  F   UNL A   1      48.075  28.058  29.546  1.00  0.00    -0.203 F 
ATOM     70  F   UNL A   1      49.197  27.749  24.214  1.00  0.00    -0.200 F 
ATOM     71  C   UNL A   1      49.885  27.501  26.460  1.00  0.00     0.200 A 
ATOM     72  F   UNL A   1      50.523  27.254  28.719  1.00  0.00    -0.200 F 
ATOM     73  F   UNL A   1      51.091  27.076  26.058  1.00  0.00    -0.200 F 
ENDBRANCH  49  63
BRANCH  50  74
ATOM     74  C   UNL A   1      38.335  31.109  30.609  1.00  0.00     0.064 A 
ATOM     75  C   UNL A   1      37.315  31.486  29.723  1.00  0.00     0.173 A 
ATOM     76  C   UNL A   1      38.047  31.121  31.981  1.00  0.00     0.173 A 
ATOM     77  F   UNL A   1      37.551  31.507  28.403  1.00  0.00    -0.203 F 
ATOM     78  C   UNL A   1      36.064  31.876  30.192  1.00  0.00     0.198 A 
ATOM     79  C   UNL A   1      36.787  31.487  32.447  1.00  0.00     0.198 A 
ATOM     80  F   UNL A   1      38.988  30.763  32.868  1.00  0.00    -0.203 F 
ATOM     81  F   UNL A   1      35.119  32.269  29.327  1.00  0.00    -0.200 F 
ATOM     82  C   UNL A   1      35.798  31.871  31.554  1.00  0.00     0.200 A 
ATOM     83  F   UNL A   1      36.530  31.468  33.763  1.00  0.00    -0.200 F 
ATOM     84  F   UNL A   1      34.592  32.241  32.004  1.00  0.00    -0.200 F 
ENDBRANCH  50  74
BRANCH  62  85
ATOM     85  C   UNL A   1      44.407  34.436  29.870  1.00  0.00     0.064 A 
ATOM     86  C   UNL A   1      44.973  34.790  31.103  1.00  0.00     0.173 A 
ATOM     87  C   UNL A   1      44.265  35.436  28.897  1.00  0.00     0.173 A 
ATOM     88  F   UNL A   1      45.114  33.872  32.071  1.00  0.00    -0.203 F 
ATOM     89  C   UNL A   1      45.359  36.103  31.360  1.00  0.00     0.198 A 
ATOM     90  C   UNL A   1      44.677  36.741  29.149  1.00  0.00     0.198 A 
ATOM     91  F   UNL A   1      43.734  35.145  27.700  1.00  0.00    -0.203 F 
ATOM     92  F   UNL A   1      45.854  36.430  32.562  1.00  0.00    -0.200 F 
ATOM     93  C   UNL A   1      45.216  37.075  30.382  1.00  0.00     0.200 A 
ATOM     94  F   UNL A   1      44.548  37.678  28.198  1.00  0.00    -0.200 F 
ATOM     95  F   UNL A   1      45.590  38.339  30.630  1.00  0.00    -0.200 F 
ENDBRANCH  62  85
ENDBRANCH  36  37
ENDBRANCH  28  31
ENDBRANCH  26  27
ENDBRANCH  25  26
ENDBRANCH  24  25
ENDBRANCH  23  24
ENDBRANCH  22  23
ENDBRANCH   1  22
TORSDOF 20
ENDMDL
