MODEL 1
REMARK VINA RESULT:     -11.3      0.000      0.000
REMARK SMILES CCC(CC)(CC(=O)Nc1cccc(Br)c1)C(=O)NCCCCCCNC(=O)c1ccc(-c2c3nc(c(-c4c(F)c(F)c(F)c(F)c4F)c4ccc([nH]4)c(-c4c(F)c(F)c(F)c(F)c4F)c4nc(c(-c5c(F)c(F)c(F)c(F)c5F)c5ccc2[nH]5)C=C4)C=C3)cc1
REMARK SMILES IDX 22 1 21 2 20 3 19 4 17 5 18 6 3 8 2 9 1 10 4 11 5 12 6 13
REMARK SMILES IDX 7 14 8 15 9 16 10 18 11 19 16 20 12 21 14 22 13 23 15 24
REMARK SMILES IDX 23 25 24 26 25 27 26 28 27 29 28 31 29 32 30 33 91 34 31 35
REMARK SMILES IDX 90 36 32 37 33 38 34 39 84 40 35 41 89 42 83 43 85 44 36 45
REMARK SMILES IDX 88 46 82 47 81 48 37 50 69 51 49 52 68 53 50 54 53 55 67 56
REMARK SMILES IDX 86 57 51 58 52 59 66 61 87 62 54 63 38 64 39 65 47 66 40 67
REMARK SMILES IDX 41 68 45 69 48 70 42 71 43 72 46 73 44 74 70 75 71 76 79 77
REMARK SMILES IDX 72 78 73 79 77 80 80 81 74 82 75 83 78 84 76 85 55 86 56 87
REMARK SMILES IDX 64 88 57 89 58 90 62 91 65 92 59 93 60 94 63 95 61 96
REMARK H PARENT 19 7 9 17 26 30 85 49 53 60
REMARK Flexibility Score: inf
ROOT
ATOM      1  C   UNL A   1      32.336  29.857  26.982  1.00  0.00     0.002 C 
ENDROOT
BRANCH   1   2
ATOM      2  C   UNL A   1      31.687  28.574  27.516  1.00  0.00     0.021 C 
BRANCH   2   3
ATOM      3  C   UNL A   1      31.397  27.509  26.465  1.00  0.00     0.116 C 
BRANCH   3   4
ATOM      4  N   UNL A   1      32.543  26.656  26.256  1.00  0.00    -0.356 N 
ATOM      5  C   UNL A   1      33.162  26.198  25.146  1.00  0.00     0.226 C 
ATOM      6  O   UNL A   1      34.028  25.341  25.350  1.00  0.00    -0.274 OA
ATOM      7  H   UNL A   1      32.958  26.344  27.093  1.00  0.00     0.163 HD
BRANCH   5   8
ATOM      8  C   UNL A   1      32.833  26.699  23.721  1.00  0.00     0.057 C 
BRANCH   8   9
ATOM      9  C   UNL A   1      33.163  28.220  23.696  1.00  0.00     0.014 C 
ATOM     10  C   UNL A   1      34.179  28.725  22.680  1.00  0.00     0.005 C 
ENDBRANCH   8   9
BRANCH   8  11
ATOM     11  C   UNL A   1      31.321  26.513  23.382  1.00  0.00     0.014 C 
ATOM     12  C   UNL A   1      30.605  27.760  22.870  1.00  0.00     0.005 C 
ENDBRANCH   8  11
BRANCH   8  13
ATOM     13  C   UNL A   1      33.742  26.007  22.658  1.00  0.00     0.117 C 
BRANCH  13  14
ATOM     14  C   UNL A   1      33.080  25.183  21.551  1.00  0.00     0.225 C 
ATOM     15  O   UNL A   1      32.867  25.682  20.444  1.00  0.00    -0.275 OA
ATOM     16  N   UNL A   1      32.868  23.833  21.721  1.00  0.00    -0.326 N 
ATOM     17  H   UNL A   1      32.693  23.318  20.900  1.00  0.00     0.169 HD
BRANCH  16  18
ATOM     18  C   UNL A   1      32.871  23.099  22.913  1.00  0.00     0.042 A 
ATOM     19  C   UNL A   1      31.690  22.938  23.634  1.00  0.00     0.026 A 
ATOM     20  C   UNL A   1      34.030  22.459  23.345  1.00  0.00     0.041 A 
ATOM     21  C   UNL A   1      31.699  22.331  24.890  1.00  0.00     0.003 A 
ATOM     22  C   UNL A   1      34.026  21.804  24.580  1.00  0.00     0.020 A 
ATOM     23  C   UNL A   1      32.879  21.780  25.377  1.00  0.00     0.016 A 
ATOM     24  Br  UNL A   1      35.592  20.939  25.191  1.00  0.00    -0.051 Br
ENDBRANCH  16  18
ENDBRANCH  13  14
ENDBRANCH   8  13
ENDBRANCH   5   8
ENDBRANCH   3   4
ENDBRANCH   2   3
ENDBRANCH   1   2
BRANCH   1  25
ATOM     25  C   UNL A   1      31.460  30.709  26.057  1.00  0.00     0.002 C 
BRANCH  25  26
ATOM     26  C   UNL A   1      31.325  32.177  26.461  1.00  0.00     0.021 C 
BRANCH  26  27
ATOM     27  C   UNL A   1      32.547  32.758  27.154  1.00  0.00     0.116 C 
BRANCH  27  28
ATOM     28  N   UNL A   1      32.343  34.134  27.571  1.00  0.00    -0.352 N 
ATOM     29  C   UNL A   1      32.982  34.827  28.564  1.00  0.00     0.251 C 
ATOM     30  H   UNL A   1      31.656  34.634  27.073  1.00  0.00     0.163 HD
ATOM     31  O   UNL A   1      32.574  35.936  28.914  1.00  0.00    -0.269 OA
BRANCH  29  32
ATOM     32  C   UNL A   1      34.156  34.231  29.231  1.00  0.00     0.039 A 
ATOM     33  C   UNL A   1      33.953  33.373  30.314  1.00  0.00     0.014 A 
ATOM     34  C   UNL A   1      35.452  34.521  28.792  1.00  0.00     0.014 A 
ATOM     35  C   UNL A   1      35.051  32.780  30.938  1.00  0.00     0.010 A 
ATOM     36  C   UNL A   1      36.538  33.864  29.360  1.00  0.00     0.010 A 
ATOM     37  C   UNL A   1      36.351  33.007  30.455  1.00  0.00    -0.014 A 
BRANCH  37  38
ATOM     38  C   UNL A   1      37.531  32.401  31.121  1.00  0.00     0.031 A 
ATOM     39  C   UNL A   1      38.280  31.288  30.440  1.00  0.00     0.074 A 
ATOM     40  C   UNL A   1      37.906  32.825  32.343  1.00  0.00     0.049 A 
ATOM     41  N   UNL A   1      39.295  30.585  30.873  1.00  0.00    -0.248 NA
ATOM     42  C   UNL A   1      37.807  30.893  29.102  1.00  0.00     0.031 C 
ATOM     43  C   UNL A   1      37.236  33.868  33.122  1.00  0.00     0.029 A 
ATOM     44  N   UNL A   1      38.944  32.426  33.148  1.00  0.00    -0.354 N 
ATOM     45  C   UNL A   1      39.578  29.671  29.866  1.00  0.00     0.074 A 
ATOM     46  C   UNL A   1      38.585  29.856  28.832  1.00  0.00     0.031 C 
ATOM     47  C   UNL A   1      37.890  34.038  34.283  1.00  0.00     0.029 A 
ATOM     48  C   UNL A   1      39.001  33.094  34.347  1.00  0.00     0.049 A 
ATOM     49  H   UNL A   1      39.587  31.726  32.890  1.00  0.00     0.167 HD
ATOM     50  C   UNL A   1      40.597  28.782  29.791  1.00  0.00     0.037 A 
ATOM     51  C   UNL A   1      39.851  32.953  35.381  1.00  0.00     0.037 A 
ATOM     52  C   UNL A   1      41.595  28.611  30.813  1.00  0.00     0.049 A 
ATOM     53  C   UNL A   1      40.968  31.946  35.277  1.00  0.00     0.074 A 
ATOM     54  C   UNL A   1      42.674  27.745  30.832  1.00  0.00     0.029 A 
ATOM     55  N   UNL A   1      41.639  29.332  31.997  1.00  0.00    -0.354 N 
ATOM     56  N   UNL A   1      41.251  31.119  34.298  1.00  0.00    -0.248 NA
ATOM     57  C   UNL A   1      41.894  31.864  36.414  1.00  0.00     0.031 C 
ATOM     58  C   UNL A   1      43.350  27.917  32.043  1.00  0.00     0.029 A 
ATOM     59  C   UNL A   1      42.726  28.929  32.754  1.00  0.00     0.049 A 
ATOM     60  H   UNL A   1      40.993  30.027  32.261  1.00  0.00     0.167 HD
ATOM     61  C   UNL A   1      42.408  30.454  34.683  1.00  0.00     0.074 A 
ATOM     62  C   UNL A   1      42.781  30.984  35.977  1.00  0.00     0.031 C 
ATOM     63  C   UNL A   1      43.100  29.491  34.026  1.00  0.00     0.037 A 
BRANCH  50  64
ATOM     64  C   UNL A   1      40.698  27.942  28.550  1.00  0.00     0.064 A 
ATOM     65  C   UNL A   1      41.455  28.362  27.444  1.00  0.00     0.173 A 
ATOM     66  C   UNL A   1      40.074  26.688  28.479  1.00  0.00     0.173 A 
ATOM     67  F   UNL A   1      42.060  29.559  27.455  1.00  0.00    -0.203 F 
ATOM     68  C   UNL A   1      41.565  27.566  26.308  1.00  0.00     0.198 A 
ATOM     69  C   UNL A   1      40.213  25.881  27.352  1.00  0.00     0.198 A 
ATOM     70  F   UNL A   1      39.340  26.237  29.508  1.00  0.00    -0.203 F 
ATOM     71  F   UNL A   1      42.257  28.008  25.247  1.00  0.00    -0.200 F 
ATOM     72  C   UNL A   1      40.953  26.323  26.266  1.00  0.00     0.200 A 
ATOM     73  F   UNL A   1      39.633  24.674  27.319  1.00  0.00    -0.200 F 
ATOM     74  F   UNL A   1      41.072  25.552  25.176  1.00  0.00    -0.200 F 
ENDBRANCH  50  64
BRANCH  51  75
ATOM     75  C   UNL A   1      39.698  33.788  36.603  1.00  0.00     0.064 A 
ATOM     76  C   UNL A   1      38.909  33.362  37.680  1.00  0.00     0.173 A 
ATOM     77  C   UNL A   1      40.302  35.051  36.699  1.00  0.00     0.173 A 
ATOM     78  F   UNL A   1      38.297  32.169  37.630  1.00  0.00    -0.203 F 
ATOM     79  C   UNL A   1      38.693  34.182  38.786  1.00  0.00     0.198 A 
ATOM     80  C   UNL A   1      40.114  35.856  37.821  1.00  0.00     0.198 A 
ATOM     81  F   UNL A   1      41.074  35.506  35.702  1.00  0.00    -0.203 F 
ATOM     82  F   UNL A   1      37.876  33.777  39.768  1.00  0.00    -0.200 F 
ATOM     83  C   UNL A   1      39.298  35.427  38.856  1.00  0.00     0.200 A 
ATOM     84  F   UNL A   1      40.713  37.053  37.892  1.00  0.00    -0.200 F 
ATOM     85  F   UNL A   1      39.083  36.220  39.915  1.00  0.00    -0.200 F 
ENDBRANCH  51  75
BRANCH  63  86
ATOM     86  C   UNL A   1      44.369  29.001  34.660  1.00  0.00     0.064 A 
ATOM     87  C   UNL A   1      45.607  29.616  34.418  1.00  0.00     0.173 A 
ATOM     88  C   UNL A   1      44.338  27.913  35.546  1.00  0.00     0.173 A 
ATOM     89  F   UNL A   1      45.693  30.651  33.570  1.00  0.00    -0.203 F 
ATOM     90  C   UNL A   1      46.772  29.136  35.012  1.00  0.00     0.198 A 
ATOM     91  C   UNL A   1      45.499  27.457  36.165  1.00  0.00     0.198 A 
ATOM     92  F   UNL A   1      43.179  27.295  35.820  1.00  0.00    -0.203 F 
ATOM     93  F   UNL A   1      47.951  29.700  34.720  1.00  0.00    -0.200 F 
ATOM     94  C   UNL A   1      46.716  28.062  35.889  1.00  0.00     0.200 A 
ATOM     95  F   UNL A   1      45.440  26.432  37.025  1.00  0.00    -0.200 F 
ATOM     96  F   UNL A   1      47.837  27.605  36.462  1.00  0.00    -0.200 F 
ENDBRANCH  63  86
ENDBRANCH  37  38
ENDBRANCH  29  32
ENDBRANCH  27  28
ENDBRANCH  26  27
ENDBRANCH  25  26
ENDBRANCH   1  25
TORSDOF 18
ENDMDL
MODEL 2
REMARK VINA RESULT:     -11.2      5.109      9.389
REMARK SMILES CCC(CC)(CC(=O)Nc1cccc(Br)c1)C(=O)NCCCCCCNC(=O)c1ccc(-c2c3nc(c(-c4c(F)c(F)c(F)c(F)c4F)c4ccc([nH]4)c(-c4c(F)c(F)c(F)c(F)c4F)c4nc(c(-c5c(F)c(F)c(F)c(F)c5F)c5ccc2[nH]5)C=C4)C=C3)cc1
REMARK SMILES IDX 22 1 21 2 20 3 19 4 17 5 18 6 3 8 2 9 1 10 4 11 5 12 6 13
REMARK SMILES IDX 7 14 8 15 9 16 10 18 11 19 16 20 12 21 14 22 13 23 15 24
REMARK SMILES IDX 23 25 24 26 25 27 26 28 27 29 28 31 29 32 30 33 91 34 31 35
REMARK SMILES IDX 90 36 32 37 33 38 34 39 84 40 35 41 89 42 83 43 85 44 36 45
REMARK SMILES IDX 88 46 82 47 81 48 37 50 69 51 49 52 68 53 50 54 53 55 67 56
REMARK SMILES IDX 86 57 51 58 52 59 66 61 87 62 54 63 38 64 39 65 47 66 40 67
REMARK SMILES IDX 41 68 45 69 48 70 42 71 43 72 46 73 44 74 70 75 71 76 79 77
REMARK SMILES IDX 72 78 73 79 77 80 80 81 74 82 75 83 78 84 76 85 55 86 56 87
REMARK SMILES IDX 64 88 57 89 58 90 62 91 65 92 59 93 60 94 63 95 61 96
REMARK H PARENT 19 7 9 17 26 30 85 49 53 60
REMARK Flexibility Score: inf
ROOT
ATOM      1  C   UNL A   1      37.184  21.873  24.708  1.00  0.00     0.002 C 
ENDROOT
BRANCH   1   2
ATOM      2  C   UNL A   1      36.720  22.730  23.524  1.00  0.00     0.021 C 
BRANCH   2   3
ATOM      3  C   UNL A   1      35.228  23.037  23.493  1.00  0.00     0.116 C 
BRANCH   3   4
ATOM      4  N   UNL A   1      34.895  24.102  24.408  1.00  0.00    -0.356 N 
ATOM      5  C   UNL A   1      33.897  24.272  25.302  1.00  0.00     0.226 C 
ATOM      6  O   UNL A   1      33.834  25.400  25.803  1.00  0.00    -0.274 OA
ATOM      7  H   UNL A   1      35.523  24.861  24.374  1.00  0.00     0.163 HD
BRANCH   5   8
ATOM      8  C   UNL A   1      32.903  23.153  25.690  1.00  0.00     0.057 C 
BRANCH   8   9
ATOM      9  C   UNL A   1      33.758  21.952  26.188  1.00  0.00     0.014 C 
ATOM     10  C   UNL A   1      34.350  22.015  27.591  1.00  0.00     0.005 C 
ENDBRANCH   8   9
BRANCH   8  11
ATOM     11  C   UNL A   1      32.057  22.686  24.464  1.00  0.00     0.014 C 
ATOM     12  C   UNL A   1      32.139  21.197  24.139  1.00  0.00     0.005 C 
ENDBRANCH   8  11
BRANCH   8  13
ATOM     13  C   UNL A   1      31.989  23.598  26.873  1.00  0.00     0.117 C 
BRANCH  13  14
ATOM     14  C   UNL A   1      30.474  23.628  26.659  1.00  0.00     0.225 C 
ATOM     15  O   UNL A   1      29.779  22.658  26.976  1.00  0.00    -0.275 OA
ATOM     16  N   UNL A   1      29.848  24.791  26.269  1.00  0.00    -0.326 N 
ATOM     17  H   UNL A   1      28.874  24.822  26.405  1.00  0.00     0.169 HD
BRANCH  16  18
ATOM     18  C   UNL A   1      30.424  25.936  25.704  1.00  0.00     0.042 A 
ATOM     19  C   UNL A   1      30.453  26.090  24.319  1.00  0.00     0.026 A 
ATOM     20  C   UNL A   1      30.896  26.962  26.517  1.00  0.00     0.041 A 
ATOM     21  C   UNL A   1      31.143  27.152  23.735  1.00  0.00     0.003 A 
ATOM     22  C   UNL A   1      31.541  28.055  25.929  1.00  0.00     0.020 A 
ATOM     23  C   UNL A   1      31.709  28.130  24.545  1.00  0.00     0.016 A 
ATOM     24  Br  UNL A   1      32.201  29.454  27.016  1.00  0.00    -0.051 Br
ENDBRANCH  16  18
ENDBRANCH  13  14
ENDBRANCH   8  13
ENDBRANCH   5   8
ENDBRANCH   3   4
ENDBRANCH   2   3
ENDBRANCH   1   2
BRANCH   1  25
ATOM     25  C   UNL A   1      36.799  20.391  24.648  1.00  0.00     0.002 C 
BRANCH  25  26
ATOM     26  C   UNL A   1      37.926  19.412  24.977  1.00  0.00     0.021 C 
BRANCH  26  27
ATOM     27  C   UNL A   1      39.093  20.023  25.737  1.00  0.00     0.116 C 
BRANCH  27  28
ATOM     28  N   UNL A   1      40.206  19.101  25.875  1.00  0.00    -0.352 N 
ATOM     29  C   UNL A   1      41.523  19.385  26.115  1.00  0.00     0.251 C 
ATOM     30  H   UNL A   1      39.983  18.146  25.784  1.00  0.00     0.163 HD
ATOM     31  O   UNL A   1      42.378  18.502  26.029  1.00  0.00    -0.269 OA
BRANCH  29  32
ATOM     32  C   UNL A   1      41.922  20.764  26.458  1.00  0.00     0.039 A 
ATOM     33  C   UNL A   1      42.110  21.689  25.430  1.00  0.00     0.014 A 
ATOM     34  C   UNL A   1      42.113  21.142  27.792  1.00  0.00     0.014 A 
ATOM     35  C   UNL A   1      42.460  23.003  25.740  1.00  0.00     0.010 A 
ATOM     36  C   UNL A   1      42.378  22.471  28.104  1.00  0.00     0.010 A 
ATOM     37  C   UNL A   1      42.579  23.409  27.080  1.00  0.00    -0.014 A 
BRANCH  37  38
ATOM     38  C   UNL A   1      42.972  24.798  27.425  1.00  0.00     0.031 A 
ATOM     39  C   UNL A   1      44.394  25.244  27.214  1.00  0.00     0.074 A 
ATOM     40  C   UNL A   1      42.066  25.642  27.955  1.00  0.00     0.049 A 
ATOM     41  N   UNL A   1      44.956  26.390  27.504  1.00  0.00    -0.248 NA
ATOM     42  C   UNL A   1      45.315  24.260  26.621  1.00  0.00     0.031 C 
ATOM     43  C   UNL A   1      40.670  25.315  28.245  1.00  0.00     0.029 A 
ATOM     44  N   UNL A   1      42.188  26.952  28.350  1.00  0.00    -0.354 N 
ATOM     45  C   UNL A   1      46.288  26.262  27.131  1.00  0.00     0.074 A 
ATOM     46  C   UNL A   1      46.470  24.907  26.663  1.00  0.00     0.031 C 
ATOM     47  C   UNL A   1      40.060  26.398  28.755  1.00  0.00     0.029 A 
ATOM     48  C   UNL A   1      41.030  27.484  28.860  1.00  0.00     0.049 A 
ATOM     49  H   UNL A   1      43.028  27.461  28.275  1.00  0.00     0.167 HD
ATOM     50  C   UNL A   1      47.263  27.201  27.142  1.00  0.00     0.037 A 
ATOM     51  C   UNL A   1      40.783  28.708  29.363  1.00  0.00     0.037 A 
ATOM     52  C   UNL A   1      47.076  28.555  27.592  1.00  0.00     0.049 A 
ATOM     53  C   UNL A   1      41.892  29.729  29.376  1.00  0.00     0.074 A 
ATOM     54  C   UNL A   1      47.997  29.586  27.637  1.00  0.00     0.029 A 
ATOM     55  N   UNL A   1      45.877  29.065  28.068  1.00  0.00    -0.354 N 
ATOM     56  N   UNL A   1      43.136  29.609  28.978  1.00  0.00    -0.248 NA
ATOM     57  C   UNL A   1      41.557  31.064  29.892  1.00  0.00     0.031 C 
ATOM     58  C   UNL A   1      47.365  30.712  28.173  1.00  0.00     0.029 A 
ATOM     59  C   UNL A   1      46.036  30.398  28.409  1.00  0.00     0.049 A 
ATOM     60  H   UNL A   1      45.038  28.556  28.152  1.00  0.00     0.167 HD
ATOM     61  C   UNL A   1      43.716  30.857  29.154  1.00  0.00     0.074 A 
ATOM     62  C   UNL A   1      42.685  31.725  29.682  1.00  0.00     0.031 C 
ATOM     63  C   UNL A   1      44.989  31.254  28.904  1.00  0.00     0.037 A 
BRANCH  50  64
ATOM     64  C   UNL A   1      48.618  26.802  26.629  1.00  0.00     0.064 A 
ATOM     65  C   UNL A   1      48.966  26.972  25.280  1.00  0.00     0.173 A 
ATOM     66  C   UNL A   1      49.593  26.291  27.498  1.00  0.00     0.173 A 
ATOM     67  F   UNL A   1      48.066  27.444  24.404  1.00  0.00    -0.203 F 
ATOM     68  C   UNL A   1      50.231  26.625  24.817  1.00  0.00     0.198 A 
ATOM     69  C   UNL A   1      50.868  25.975  27.036  1.00  0.00     0.198 A 
ATOM     70  F   UNL A   1      49.314  26.111  28.798  1.00  0.00    -0.203 F 
ATOM     71  F   UNL A   1      50.526  26.755  23.515  1.00  0.00    -0.200 F 
ATOM     72  C   UNL A   1      51.185  26.136  25.696  1.00  0.00     0.200 A 
ATOM     73  F   UNL A   1      51.793  25.516  27.891  1.00  0.00    -0.200 F 
ATOM     74  F   UNL A   1      52.408  25.816  25.251  1.00  0.00    -0.200 F 
ENDBRANCH  50  64
BRANCH  51  75
ATOM     75  C   UNL A   1      39.433  29.052  29.885  1.00  0.00     0.064 A 
ATOM     76  C   UNL A   1      38.466  29.646  29.061  1.00  0.00     0.173 A 
ATOM     77  C   UNL A   1      39.097  28.835  31.229  1.00  0.00     0.173 A 
ATOM     78  F   UNL A   1      38.743  29.889  27.772  1.00  0.00    -0.203 F 
ATOM     79  C   UNL A   1      37.233  30.049  29.570  1.00  0.00     0.198 A 
ATOM     80  C   UNL A   1      37.850  29.206  31.730  1.00  0.00     0.198 A 
ATOM     81  F   UNL A   1      39.980  28.262  32.060  1.00  0.00    -0.203 F 
ATOM     82  F   UNL A   1      36.357  30.679  28.776  1.00  0.00    -0.200 F 
ATOM     83  C   UNL A   1      36.926  29.827  30.903  1.00  0.00     0.200 A 
ATOM     84  F   UNL A   1      37.550  28.975  33.015  1.00  0.00    -0.200 F 
ATOM     85  F   UNL A   1      35.744  30.223  31.396  1.00  0.00    -0.200 F 
ENDBRANCH  51  75
BRANCH  63  86
ATOM     86  C   UNL A   1      45.317  32.701  29.127  1.00  0.00     0.064 A 
ATOM     87  C   UNL A   1      45.847  33.165  30.340  1.00  0.00     0.173 A 
ATOM     88  C   UNL A   1      45.123  33.633  28.094  1.00  0.00     0.173 A 
ATOM     89  F   UNL A   1      46.039  32.318  31.361  1.00  0.00    -0.203 F 
ATOM     90  C   UNL A   1      46.135  34.516  30.524  1.00  0.00     0.198 A 
ATOM     91  C   UNL A   1      45.445  34.976  28.270  1.00  0.00     0.198 A 
ATOM     92  F   UNL A   1      44.629  33.240  26.911  1.00  0.00    -0.203 F 
ATOM     93  F   UNL A   1      46.583  34.946  31.711  1.00  0.00    -0.200 F 
ATOM     94  C   UNL A   1      45.940  35.418  29.488  1.00  0.00     0.200 A 
ATOM     95  F   UNL A   1      45.273  35.843  27.263  1.00  0.00    -0.200 F 
ATOM     96  F   UNL A   1      46.222  36.716  29.666  1.00  0.00    -0.200 F 
ENDBRANCH  63  86
ENDBRANCH  37  38
ENDBRANCH  29  32
ENDBRANCH  27  28
ENDBRANCH  26  27
ENDBRANCH  25  26
ENDBRANCH   1  25
TORSDOF 18
ENDMDL
MODEL 3
REMARK VINA RESULT:     -11.2      5.643     11.009
REMARK SMILES CCC(CC)(CC(=O)Nc1cccc(Br)c1)C(=O)NCCCCCCNC(=O)c1ccc(-c2c3nc(c(-c4c(F)c(F)c(F)c(F)c4F)c4ccc([nH]4)c(-c4c(F)c(F)c(F)c(F)c4F)c4nc(c(-c5c(F)c(F)c(F)c(F)c5F)c5ccc2[nH]5)C=C4)C=C3)cc1
REMARK SMILES IDX 22 1 21 2 20 3 19 4 17 5 18 6 3 8 2 9 1 10 4 11 5 12 6 13
REMARK SMILES IDX 7 14 8 15 9 16 10 18 11 19 16 20 12 21 14 22 13 23 15 24
REMARK SMILES IDX 23 25 24 26 25 27 26 28 27 29 28 31 29 32 30 33 91 34 31 35
REMARK SMILES IDX 90 36 32 37 33 38 34 39 84 40 35 41 89 42 83 43 85 44 36 45
REMARK SMILES IDX 88 46 82 47 81 48 37 50 69 51 49 52 68 53 50 54 53 55 67 56
REMARK SMILES IDX 86 57 51 58 52 59 66 61 87 62 54 63 38 64 39 65 47 66 40 67
REMARK SMILES IDX 41 68 45 69 48 70 42 71 43 72 46 73 44 74 70 75 71 76 79 77
REMARK SMILES IDX 72 78 73 79 77 80 80 81 74 82 75 83 78 84 76 85 55 86 56 87
REMARK SMILES IDX 64 88 57 89 58 90 62 91 65 92 59 93 60 94 63 95 61 96
REMARK H PARENT 19 7 9 17 26 30 85 49 53 60
REMARK Flexibility Score: inf
ROOT
ATOM      1  C   UNL A   1      37.967  21.715  25.192  1.00  0.00     0.002 C 
ENDROOT
BRANCH   1   2
ATOM      2  C   UNL A   1      37.023  22.797  24.652  1.00  0.00     0.021 C 
BRANCH   2   3
ATOM      3  C   UNL A   1      36.458  23.746  25.702  1.00  0.00     0.116 C 
BRANCH   3   4
ATOM      4  N   UNL A   1      35.658  23.037  26.672  1.00  0.00    -0.356 N 
ATOM      5  C   UNL A   1      34.334  23.011  26.934  1.00  0.00     0.226 C 
ATOM      6  O   UNL A   1      34.019  22.403  27.962  1.00  0.00    -0.274 OA
ATOM      7  H   UNL A   1      36.186  22.452  27.264  1.00  0.00     0.163 HD
BRANCH   5   8
ATOM      8  C   UNL A   1      33.274  23.678  26.027  1.00  0.00     0.057 C 
BRANCH   8   9
ATOM      9  C   UNL A   1      32.668  22.547  25.146  1.00  0.00     0.014 C 
ATOM     10  C   UNL A   1      33.415  22.129  23.885  1.00  0.00     0.005 C 
ENDBRANCH   8   9
BRANCH   8  11
ATOM     11  C   UNL A   1      33.914  24.749  25.088  1.00  0.00     0.014 C 
ATOM     12  C   UNL A   1      33.803  26.193  25.569  1.00  0.00     0.005 C 
ENDBRANCH   8  11
BRANCH   8  13
ATOM     13  C   UNL A   1      32.112  24.285  26.872  1.00  0.00     0.117 C 
BRANCH  13  14
ATOM     14  C   UNL A   1      30.683  23.807  26.605  1.00  0.00     0.225 C 
ATOM     15  O   UNL A   1      30.164  22.955  27.331  1.00  0.00    -0.275 OA
ATOM     16  N   UNL A   1      29.903  24.436  25.661  1.00  0.00    -0.326 N 
ATOM     17  H   UNL A   1      28.935  24.267  25.720  1.00  0.00     0.169 HD
BRANCH  16  18
ATOM     18  C   UNL A   1      30.313  25.288  24.628  1.00  0.00     0.042 A 
ATOM     19  C   UNL A   1      30.720  24.755  23.406  1.00  0.00     0.026 A 
ATOM     20  C   UNL A   1      30.239  26.669  24.781  1.00  0.00     0.041 A 
ATOM     21  C   UNL A   1      31.262  25.575  22.416  1.00  0.00     0.003 A 
ATOM     22  C   UNL A   1      30.733  27.494  23.766  1.00  0.00     0.020 A 
ATOM     23  C   UNL A   1      31.289  26.952  22.605  1.00  0.00     0.016 A 
ATOM     24  Br  UNL A   1      30.655  29.373  23.960  1.00  0.00    -0.051 Br
ENDBRANCH  16  18
ENDBRANCH  13  14
ENDBRANCH   8  13
ENDBRANCH   5   8
ENDBRANCH   3   4
ENDBRANCH   2   3
ENDBRANCH   1   2
BRANCH   1  25
ATOM     25  C   UNL A   1      37.565  20.269  24.885  1.00  0.00     0.002 C 
BRANCH  25  26
ATOM     26  C   UNL A   1      38.543  19.203  25.380  1.00  0.00     0.021 C 
BRANCH  26  27
ATOM     27  C   UNL A   1      39.752  19.749  26.122  1.00  0.00     0.116 C 
BRANCH  27  28
ATOM     28  N   UNL A   1      40.873  18.827  26.106  1.00  0.00    -0.352 N 
ATOM     29  C   UNL A   1      42.212  19.112  26.128  1.00  0.00     0.251 C 
ATOM     30  H   UNL A   1      40.639  17.871  26.077  1.00  0.00     0.163 HD
ATOM     31  O   UNL A   1      43.043  18.224  25.932  1.00  0.00    -0.269 OA
BRANCH  29  32
ATOM     32  C   UNL A   1      42.659  20.498  26.369  1.00  0.00     0.039 A 
ATOM     33  C   UNL A   1      43.085  21.268  25.285  1.00  0.00     0.014 A 
ATOM     34  C   UNL A   1      42.661  21.035  27.661  1.00  0.00     0.014 A 
ATOM     35  C   UNL A   1      43.485  22.588  25.492  1.00  0.00     0.010 A 
ATOM     36  C   UNL A   1      42.978  22.375  27.853  1.00  0.00     0.010 A 
ATOM     37  C   UNL A   1      43.418  23.158  26.775  1.00  0.00    -0.014 A 
BRANCH  37  38
ATOM     38  C   UNL A   1      43.860  24.554  27.015  1.00  0.00     0.031 A 
ATOM     39  C   UNL A   1      42.871  25.572  27.516  1.00  0.00     0.074 A 
ATOM     40  C   UNL A   1      45.131  24.913  26.755  1.00  0.00     0.049 A 
ATOM     41  N   UNL A   1      43.036  26.852  27.734  1.00  0.00    -0.248 NA
ATOM     42  C   UNL A   1      41.505  25.092  27.785  1.00  0.00     0.031 C 
ATOM     43  C   UNL A   1      46.171  24.028  26.228  1.00  0.00     0.029 A 
ATOM     44  N   UNL A   1      45.765  26.122  26.893  1.00  0.00    -0.354 N 
ATOM     45  C   UNL A   1      41.801  27.324  28.160  1.00  0.00     0.074 A 
ATOM     46  C   UNL A   1      40.878  26.214  28.102  1.00  0.00     0.031 C 
ATOM     47  C   UNL A   1      47.316  24.719  26.104  1.00  0.00     0.029 A 
ATOM     48  C   UNL A   1      47.084  26.102  26.509  1.00  0.00     0.049 A 
ATOM     49  H   UNL A   1      45.317  26.929  27.235  1.00  0.00     0.167 HD
ATOM     50  C   UNL A   1      41.474  28.564  28.598  1.00  0.00     0.037 A 
ATOM     51  C   UNL A   1      47.997  27.090  26.480  1.00  0.00     0.037 A 
ATOM     52  C   UNL A   1      42.399  29.663  28.672  1.00  0.00     0.049 A 
ATOM     53  C   UNL A   1      47.601  28.464  26.959  1.00  0.00     0.074 A 
ATOM     54  C   UNL A   1      42.172  30.957  29.107  1.00  0.00     0.029 A 
ATOM     55  N   UNL A   1      43.735  29.592  28.306  1.00  0.00    -0.354 N 
ATOM     56  N   UNL A   1      46.441  28.886  27.403  1.00  0.00    -0.248 NA
ATOM     57  C   UNL A   1      48.648  29.495  26.950  1.00  0.00     0.031 C 
ATOM     58  C   UNL A   1      43.361  31.678  28.973  1.00  0.00     0.029 A 
ATOM     59  C   UNL A   1      44.344  30.820  28.507  1.00  0.00     0.049 A 
ATOM     60  H   UNL A   1      44.184  28.788  27.956  1.00  0.00     0.167 HD
ATOM     61  C   UNL A   1      46.631  30.212  27.765  1.00  0.00     0.074 A 
ATOM     62  C   UNL A   1      48.020  30.522  27.502  1.00  0.00     0.031 C 
ATOM     63  C   UNL A   1      45.737  31.099  28.269  1.00  0.00     0.037 A 
BRANCH  50  64
ATOM     64  C   UNL A   1      40.061  28.790  29.054  1.00  0.00     0.064 A 
ATOM     65  C   UNL A   1      39.057  29.178  28.153  1.00  0.00     0.173 A 
ATOM     66  C   UNL A   1      39.694  28.571  30.390  1.00  0.00     0.173 A 
ATOM     67  F   UNL A   1      39.358  29.414  26.867  1.00  0.00    -0.203 F 
ATOM     68  C   UNL A   1      37.745  29.361  28.578  1.00  0.00     0.198 A 
ATOM     69  C   UNL A   1      38.373  28.724  30.804  1.00  0.00     0.198 A 
ATOM     70  F   UNL A   1      40.613  28.196  31.293  1.00  0.00    -0.203 F 
ATOM     71  F   UNL A   1      36.812  29.775  27.708  1.00  0.00    -0.200 F 
ATOM     72  C   UNL A   1      37.401  29.124  29.900  1.00  0.00     0.200 A 
ATOM     73  F   UNL A   1      38.040  28.480  32.079  1.00  0.00    -0.200 F 
ATOM     74  F   UNL A   1      36.133  29.286  30.303  1.00  0.00    -0.200 F 
ENDBRANCH  50  64
BRANCH  51  75
ATOM     75  C   UNL A   1      49.379  26.827  25.995  1.00  0.00     0.064 A 
ATOM     76  C   UNL A   1      49.729  27.034  24.653  1.00  0.00     0.173 A 
ATOM     77  C   UNL A   1      50.366  26.322  26.854  1.00  0.00     0.173 A 
ATOM     78  F   UNL A   1      48.817  27.501  23.788  1.00  0.00    -0.203 F 
ATOM     79  C   UNL A   1      50.997  26.704  24.180  1.00  0.00     0.198 A 
ATOM     80  C   UNL A   1      51.645  26.025  26.387  1.00  0.00     0.198 A 
ATOM     81  F   UNL A   1      50.089  26.113  28.149  1.00  0.00    -0.203 F 
ATOM     82  F   UNL A   1      51.281  26.844  22.877  1.00  0.00    -0.200 F 
ATOM     83  C   UNL A   1      51.955  26.201  25.047  1.00  0.00     0.200 A 
ATOM     84  F   UNL A   1      52.572  25.555  27.233  1.00  0.00    -0.200 F 
ATOM     85  F   UNL A   1      53.172  25.874  24.590  1.00  0.00    -0.200 F 
ENDBRANCH  51  75
BRANCH  63  86
ATOM     86  C   UNL A   1      46.248  32.461  28.638  1.00  0.00     0.064 A 
ATOM     87  C   UNL A   1      46.750  32.746  29.917  1.00  0.00     0.173 A 
ATOM     88  C   UNL A   1      46.262  33.489  27.682  1.00  0.00     0.173 A 
ATOM     89  F   UNL A   1      46.748  31.801  30.869  1.00  0.00    -0.203 F 
ATOM     90  C   UNL A   1      47.211  34.021  30.236  1.00  0.00     0.198 A 
ATOM     91  C   UNL A   1      46.755  34.753  27.995  1.00  0.00     0.198 A 
ATOM     92  F   UNL A   1      45.803  33.267  26.441  1.00  0.00    -0.203 F 
ATOM     93  F   UNL A   1      47.628  34.287  31.481  1.00  0.00    -0.200 F 
ATOM     94  C   UNL A   1      47.219  35.020  29.274  1.00  0.00     0.200 A 
ATOM     95  F   UNL A   1      46.779  35.712  27.059  1.00  0.00    -0.200 F 
ATOM     96  F   UNL A   1      47.667  36.245  29.583  1.00  0.00    -0.200 F 
ENDBRANCH  63  86
ENDBRANCH  37  38
ENDBRANCH  29  32
ENDBRANCH  27  28
ENDBRANCH  26  27
ENDBRANCH  25  26
ENDBRANCH   1  25
TORSDOF 18
ENDMDL
