MODEL 1
REMARK VINA RESULT:     -12.4      0.000      0.000
REMARK SMILES CS(=O)(=O)N1C[C@@H]2CN(C(=O)C3CCOCC3)C[C@]2(C(=O)NCCCCCCNC(=O)c2ccc(-c3c4nc(c(-c5c(F)c(F)c(F)c(F)c5F)c5ccc([nH]5)c(-c5c(F)c(F)c(F)c(F)c5F)c5nc(c(-c6c(F)c(F)c(F)c(F)c6F)c6ccc3[nH]6)C=C5)C=C4)cc2)C1
REMARK SMILES IDX 25 1 24 2 23 3 22 4 20 5 21 6 19 8 5 9 6 10 95 11 7 12 8 13
REMARK SMILES IDX 18 14 9 15 2 16 1 17 3 18 4 19 10 20 11 21 12 22 13 23 17 24
REMARK SMILES IDX 14 25 16 26 15 27 26 28 27 29 28 30 29 31 30 32 31 34 32 35
REMARK SMILES IDX 33 36 94 37 34 38 93 39 35 40 36 41 37 42 87 43 38 44 92 45
REMARK SMILES IDX 86 46 88 47 39 48 91 49 85 50 84 51 40 53 72 54 52 55 71 56
REMARK SMILES IDX 53 57 56 58 70 59 89 60 54 61 55 62 69 64 90 65 57 66 41 67
REMARK SMILES IDX 42 68 50 69 43 70 44 71 48 72 51 73 45 74 46 75 49 76 47 77
REMARK SMILES IDX 73 78 74 79 82 80 75 81 76 82 80 83 83 84 77 85 78 86 81 87
REMARK SMILES IDX 79 88 58 89 59 90 67 91 60 92 61 93 65 94 68 95 62 96 63 97
REMARK SMILES IDX 66 98 64 99
REMARK H PARENT 22 7 29 33 88 52 56 63
REMARK Flexibility Score: inf
ROOT
ATOM      1  C   UNL A   1      33.892  30.577  27.486  1.00  0.00     0.002 C 
ENDROOT
BRANCH   1   2
ATOM      2  C   UNL A   1      34.740  29.383  27.052  1.00  0.00     0.021 C 
BRANCH   2   3
ATOM      3  C   UNL A   1      34.118  28.384  26.062  1.00  0.00     0.116 C 
BRANCH   3   4
ATOM      4  N   UNL A   1      34.111  28.972  24.734  1.00  0.00    -0.356 N 
ATOM      5  C   UNL A   1      33.726  28.362  23.564  1.00  0.00     0.229 C 
ATOM      6  O   UNL A   1      34.354  28.644  22.542  1.00  0.00    -0.274 OA
ATOM      7  H   UNL A   1      34.413  29.907  24.664  1.00  0.00     0.163 HD
BRANCH   5   8
ATOM      8  C   UNL A   1      32.477  27.401  23.610  1.00  0.00     0.086 C 
ATOM      9  N   UNL A   1      30.219  28.547  23.433  1.00  0.00    -0.201 NA
ATOM     10  C   UNL A   1      29.995  27.144  23.171  1.00  0.00     0.108 C 
ATOM     11  C   UNL A   1      31.688  28.769  23.213  1.00  0.00     0.121 C 
ATOM     12  C   UNL A   1      31.363  26.659  22.746  1.00  0.00     0.042 C 
ATOM     13  C   UNL A   1      31.463  25.175  22.996  1.00  0.00     0.125 C 
ATOM     14  C   UNL A   1      33.516  26.292  23.045  1.00  0.00     0.138 C 
ATOM     15  N   UNL A   1      32.870  24.980  23.071  1.00  0.00    -0.341 N 
BRANCH   9  16
ATOM     16  S   UNL A   1      29.224  29.755  22.795  1.00  0.00     0.211 S 
ATOM     17  C   UNL A   1      27.570  29.095  22.893  1.00  0.00     0.176 C 
ATOM     18  O   UNL A   1      29.536  29.889  21.384  1.00  0.00    -0.213 OA
ATOM     19  O   UNL A   1      29.322  30.885  23.687  1.00  0.00    -0.213 OA
ENDBRANCH   9  16
BRANCH  15  20
ATOM     20  C   UNL A   1      33.358  23.694  23.108  1.00  0.00     0.225 C 
ATOM     21  O   UNL A   1      33.853  23.193  22.090  1.00  0.00    -0.275 OA
BRANCH  20  22
ATOM     22  C   UNL A   1      33.163  22.788  24.319  1.00  0.00     0.083 C 
ATOM     23  C   UNL A   1      33.605  23.567  25.554  1.00  0.00     0.042 C 
ATOM     24  C   UNL A   1      33.716  21.366  24.218  1.00  0.00     0.042 C 
ATOM     25  C   UNL A   1      33.690  22.692  26.783  1.00  0.00     0.161 C 
ATOM     26  C   UNL A   1      33.771  20.680  25.577  1.00  0.00     0.161 C 
ATOM     27  O   UNL A   1      34.438  21.512  26.525  1.00  0.00    -0.381 OA
ENDBRANCH  20  22
ENDBRANCH  15  20
ENDBRANCH   5   8
ENDBRANCH   3   4
ENDBRANCH   2   3
ENDBRANCH   1   2
BRANCH   1  28
ATOM     28  C   UNL A   1      32.393  30.481  27.196  1.00  0.00     0.002 C 
BRANCH  28  29
ATOM     29  C   UNL A   1      31.653  31.798  26.942  1.00  0.00     0.021 C 
BRANCH  29  30
ATOM     30  C   UNL A   1      32.503  33.048  26.719  1.00  0.00     0.116 C 
BRANCH  30  31
ATOM     31  N   UNL A   1      32.225  34.166  27.589  1.00  0.00    -0.352 N 
ATOM     32  C   UNL A   1      32.971  34.674  28.624  1.00  0.00     0.251 C 
ATOM     33  H   UNL A   1      31.376  34.633  27.415  1.00  0.00     0.163 HD
ATOM     34  O   UNL A   1      32.628  35.730  29.151  1.00  0.00    -0.269 OA
BRANCH  32  35
ATOM     35  C   UNL A   1      34.135  33.939  29.177  1.00  0.00     0.039 A 
ATOM     36  C   UNL A   1      35.394  34.313  28.703  1.00  0.00     0.014 A 
ATOM     37  C   UNL A   1      34.030  32.899  30.107  1.00  0.00     0.014 A 
ATOM     38  C   UNL A   1      36.544  33.694  29.196  1.00  0.00     0.010 A 
ATOM     39  C   UNL A   1      35.188  32.319  30.646  1.00  0.00     0.010 A 
ATOM     40  C   UNL A   1      36.459  32.714  30.199  1.00  0.00    -0.014 A 
BRANCH  40  41
ATOM     41  C   UNL A   1      37.719  32.167  30.777  1.00  0.00     0.031 A 
ATOM     42  C   UNL A   1      38.196  32.564  32.145  1.00  0.00     0.074 A 
ATOM     43  C   UNL A   1      38.414  31.251  30.072  1.00  0.00     0.049 A 
ATOM     44  N   UNL A   1      39.174  32.060  32.858  1.00  0.00    -0.248 NA
ATOM     45  C   UNL A   1      37.500  33.684  32.794  1.00  0.00     0.031 C 
ATOM     46  C   UNL A   1      38.092  30.818  28.711  1.00  0.00     0.029 A 
ATOM     47  N   UNL A   1      39.512  30.498  30.409  1.00  0.00    -0.354 N 
ATOM     48  C   UNL A   1      39.200  32.786  34.042  1.00  0.00     0.074 A 
ATOM     49  C   UNL A   1      38.181  33.808  33.925  1.00  0.00     0.031 C 
ATOM     50  C   UNL A   1      38.936  29.839  28.350  1.00  0.00     0.029 A 
ATOM     51  C   UNL A   1      39.876  29.593  29.440  1.00  0.00     0.049 A 
ATOM     52  H   UNL A   1      39.994  30.597  31.261  1.00  0.00     0.167 HD
ATOM     53  C   UNL A   1      39.983  32.601  35.134  1.00  0.00     0.037 A 
ATOM     54  C   UNL A   1      40.844  28.657  29.433  1.00  0.00     0.037 A 
ATOM     55  C   UNL A   1      41.000  31.585  35.247  1.00  0.00     0.049 A 
ATOM     56  C   UNL A   1      41.699  28.474  30.658  1.00  0.00     0.074 A 
ATOM     57  C   UNL A   1      41.814  31.293  36.328  1.00  0.00     0.029 A 
ATOM     58  N   UNL A   1      41.353  30.701  34.237  1.00  0.00    -0.354 N 
ATOM     59  N   UNL A   1      41.651  29.108  31.805  1.00  0.00    -0.248 NA
ATOM     60  C   UNL A   1      42.730  27.430  30.592  1.00  0.00     0.031 C 
ATOM     61  C   UNL A   1      42.699  30.276  35.954  1.00  0.00     0.029 A 
ATOM     62  C   UNL A   1      42.391  29.884  34.661  1.00  0.00     0.049 A 
ATOM     63  H   UNL A   1      40.931  30.660  33.348  1.00  0.00     0.167 HD
ATOM     64  C   UNL A   1      42.625  28.522  32.605  1.00  0.00     0.074 A 
ATOM     65  C   UNL A   1      43.224  27.463  31.820  1.00  0.00     0.031 C 
ATOM     66  C   UNL A   1      42.990  28.836  33.873  1.00  0.00     0.037 A 
BRANCH  53  67
ATOM     67  C   UNL A   1      39.773  33.523  36.304  1.00  0.00     0.064 A 
ATOM     68  C   UNL A   1      40.395  34.780  36.373  1.00  0.00     0.173 A 
ATOM     69  C   UNL A   1      38.903  33.168  37.347  1.00  0.00     0.173 A 
ATOM     70  F   UNL A   1      41.241  35.168  35.407  1.00  0.00    -0.203 F 
ATOM     71  C   UNL A   1      40.178  35.632  37.454  1.00  0.00     0.198 A 
ATOM     72  C   UNL A   1      38.663  34.037  38.410  1.00  0.00     0.198 A 
ATOM     73  F   UNL A   1      38.275  31.984  37.331  1.00  0.00    -0.203 F 
ATOM     74  F   UNL A   1      40.823  36.805  37.521  1.00  0.00    -0.200 F 
ATOM     75  C   UNL A   1      39.307  35.263  38.467  1.00  0.00     0.200 A 
ATOM     76  F   UNL A   1      37.807  33.686  39.379  1.00  0.00    -0.200 F 
ATOM     77  F   UNL A   1      39.091  36.087  39.502  1.00  0.00    -0.200 F 
ENDBRANCH  53  67
BRANCH  54  78
ATOM     78  C   UNL A   1      41.036  27.793  28.236  1.00  0.00     0.064 A 
ATOM     79  C   UNL A   1      40.414  26.540  28.135  1.00  0.00     0.173 A 
ATOM     80  C   UNL A   1      41.861  28.196  27.176  1.00  0.00     0.173 A 
ATOM     81  F   UNL A   1      39.632  26.099  29.132  1.00  0.00    -0.203 F 
ATOM     82  C   UNL A   1      40.632  25.714  27.035  1.00  0.00     0.198 A 
ATOM     83  C   UNL A   1      42.050  27.386  26.060  1.00  0.00     0.198 A 
ATOM     84  F   UNL A   1      42.476  29.388  27.219  1.00  0.00    -0.203 F 
ATOM     85  F   UNL A   1      40.070  24.498  26.991  1.00  0.00    -0.200 F 
ATOM     86  C   UNL A   1      41.444  26.140  25.995  1.00  0.00     0.200 A 
ATOM     87  F   UNL A   1      42.821  27.808  25.049  1.00  0.00    -0.200 F 
ATOM     88  F   UNL A   1      41.650  25.347  24.934  1.00  0.00    -0.200 F 
ENDBRANCH  54  78
BRANCH  66  89
ATOM     89  C   UNL A   1      44.070  27.995  34.499  1.00  0.00     0.064 A 
ATOM     90  C   UNL A   1      45.425  28.352  34.427  1.00  0.00     0.173 A 
ATOM     91  C   UNL A   1      43.744  26.808  35.173  1.00  0.00     0.173 A 
ATOM     92  F   UNL A   1      45.795  29.471  33.785  1.00  0.00    -0.203 F 
ATOM     93  C   UNL A   1      46.415  27.527  34.955  1.00  0.00     0.198 A 
ATOM     94  C   UNL A   1      44.734  26.004  35.735  1.00  0.00     0.198 A 
ATOM     95  F   UNL A   1      42.465  26.420  35.284  1.00  0.00    -0.203 F 
ATOM     96  F   UNL A   1      47.707  27.850  34.802  1.00  0.00    -0.200 F 
ATOM     97  C   UNL A   1      46.069  26.356  35.612  1.00  0.00     0.200 A 
ATOM     98  F   UNL A   1      44.395  24.882  36.385  1.00  0.00    -0.200 F 
ATOM     99  F   UNL A   1      47.022  25.559  36.113  1.00  0.00    -0.200 F 
ENDBRANCH  66  89
ENDBRANCH  40  41
ENDBRANCH  32  35
ENDBRANCH  30  31
ENDBRANCH  29  30
ENDBRANCH  28  29
ENDBRANCH   1  28
TORSDOF 16
ENDMDL
MODEL 2
REMARK VINA RESULT:     -12.3      0.807      7.129
REMARK SMILES CS(=O)(=O)N1C[C@@H]2CN(C(=O)C3CCOCC3)C[C@]2(C(=O)NCCCCCCNC(=O)c2ccc(-c3c4nc(c(-c5c(F)c(F)c(F)c(F)c5F)c5ccc([nH]5)c(-c5c(F)c(F)c(F)c(F)c5F)c5nc(c(-c6c(F)c(F)c(F)c(F)c6F)c6ccc3[nH]6)C=C5)C=C4)cc2)C1
REMARK SMILES IDX 25 1 24 2 23 3 22 4 20 5 21 6 19 8 5 9 6 10 95 11 7 12 8 13
REMARK SMILES IDX 18 14 9 15 2 16 1 17 3 18 4 19 10 20 11 21 12 22 13 23 17 24
REMARK SMILES IDX 14 25 16 26 15 27 26 28 27 29 28 30 29 31 30 32 31 34 32 35
REMARK SMILES IDX 33 36 94 37 34 38 93 39 35 40 36 41 37 42 87 43 38 44 92 45
REMARK SMILES IDX 86 46 88 47 39 48 91 49 85 50 84 51 40 53 72 54 52 55 71 56
REMARK SMILES IDX 53 57 56 58 70 59 89 60 54 61 55 62 69 64 90 65 57 66 41 67
REMARK SMILES IDX 42 68 50 69 43 70 44 71 48 72 51 73 45 74 46 75 49 76 47 77
REMARK SMILES IDX 73 78 74 79 82 80 75 81 76 82 80 83 83 84 77 85 78 86 81 87
REMARK SMILES IDX 79 88 58 89 59 90 67 91 60 92 61 93 65 94 68 95 62 96 63 97
REMARK SMILES IDX 66 98 64 99
REMARK H PARENT 22 7 29 33 88 52 56 63
REMARK Flexibility Score: inf
ROOT
ATOM      1  C   UNL A   1      33.063  30.213  27.110  1.00  0.00     0.002 C 
ENDROOT
BRANCH   1   2
ATOM      2  C   UNL A   1      33.297  28.707  27.226  1.00  0.00     0.021 C 
BRANCH   2   3
ATOM      3  C   UNL A   1      34.094  28.017  26.106  1.00  0.00     0.116 C 
BRANCH   3   4
ATOM      4  N   UNL A   1      34.044  28.840  24.911  1.00  0.00    -0.356 N 
ATOM      5  C   UNL A   1      33.618  28.455  23.661  1.00  0.00     0.229 C 
ATOM      6  O   UNL A   1      34.214  28.923  22.688  1.00  0.00    -0.274 OA
ATOM      7  H   UNL A   1      34.347  29.772  25.004  1.00  0.00     0.163 HD
BRANCH   5   8
ATOM      8  C   UNL A   1      32.369  27.499  23.571  1.00  0.00     0.086 C 
ATOM      9  N   UNL A   1      30.127  28.663  23.326  1.00  0.00    -0.201 NA
ATOM     10  C   UNL A   1      29.919  27.280  22.965  1.00  0.00     0.108 C 
ATOM     11  C   UNL A   1      31.607  28.892  23.212  1.00  0.00     0.121 C 
ATOM     12  C   UNL A   1      31.310  26.816  22.596  1.00  0.00     0.042 C 
ATOM     13  C   UNL A   1      31.393  25.319  22.759  1.00  0.00     0.125 C 
ATOM     14  C   UNL A   1      33.440  26.422  23.004  1.00  0.00     0.138 C 
ATOM     15  N   UNL A   1      32.793  25.114  22.908  1.00  0.00    -0.341 N 
BRANCH   9  16
ATOM     16  S   UNL A   1      29.173  29.912  22.704  1.00  0.00     0.211 S 
ATOM     17  C   UNL A   1      27.504  29.285  22.738  1.00  0.00     0.176 C 
ATOM     18  O   UNL A   1      29.525  30.086  21.307  1.00  0.00    -0.213 OA
ATOM     19  O   UNL A   1      29.272  31.010  23.636  1.00  0.00    -0.213 OA
ENDBRANCH   9  16
BRANCH  15  20
ATOM     20  C   UNL A   1      33.278  23.826  22.895  1.00  0.00     0.225 C 
ATOM     21  O   UNL A   1      33.676  23.327  21.835  1.00  0.00    -0.275 OA
BRANCH  20  22
ATOM     22  C   UNL A   1      33.189  22.915  24.116  1.00  0.00     0.083 C 
ATOM     23  C   UNL A   1      34.324  23.299  25.061  1.00  0.00     0.042 C 
ATOM     24  C   UNL A   1      33.044  21.416  23.854  1.00  0.00     0.042 C 
ATOM     25  C   UNL A   1      34.489  22.307  26.189  1.00  0.00     0.161 C 
ATOM     26  C   UNL A   1      33.308  20.592  25.107  1.00  0.00     0.161 C 
ATOM     27  O   UNL A   1      34.549  20.975  25.699  1.00  0.00    -0.381 OA
ENDBRANCH  20  22
ENDBRANCH  15  20
ENDBRANCH   5   8
ENDBRANCH   3   4
ENDBRANCH   2   3
ENDBRANCH   1   2
BRANCH   1  28
ATOM     28  C   UNL A   1      31.652  30.648  26.710  1.00  0.00     0.002 C 
BRANCH  28  29
ATOM     29  C   UNL A   1      31.398  32.154  26.603  1.00  0.00     0.021 C 
BRANCH  29  30
ATOM     30  C   UNL A   1      32.565  33.087  26.927  1.00  0.00     0.116 C 
BRANCH  30  31
ATOM     31  N   UNL A   1      32.225  34.307  27.621  1.00  0.00    -0.352 N 
ATOM     32  C   UNL A   1      32.919  34.976  28.599  1.00  0.00     0.251 C 
ATOM     33  H   UNL A   1      31.373  34.720  27.353  1.00  0.00     0.163 HD
ATOM     34  O   UNL A   1      32.530  36.085  28.960  1.00  0.00    -0.269 OA
BRANCH  32  35
ATOM     35  C   UNL A   1      34.077  34.360  29.291  1.00  0.00     0.039 A 
ATOM     36  C   UNL A   1      33.794  33.596  30.426  1.00  0.00     0.014 A 
ATOM     37  C   UNL A   1      35.406  34.523  28.885  1.00  0.00     0.014 A 
ATOM     38  C   UNL A   1      34.823  32.954  31.117  1.00  0.00     0.010 A 
ATOM     39  C   UNL A   1      36.432  33.829  29.543  1.00  0.00     0.010 A 
ATOM     40  C   UNL A   1      36.151  33.033  30.664  1.00  0.00    -0.014 A 
BRANCH  40  41
ATOM     41  C   UNL A   1      37.197  32.236  31.366  1.00  0.00     0.031 A 
ATOM     42  C   UNL A   1      37.906  31.097  30.689  1.00  0.00     0.074 A 
ATOM     43  C   UNL A   1      37.550  32.585  32.619  1.00  0.00     0.049 A 
ATOM     44  N   UNL A   1      38.948  30.414  31.095  1.00  0.00    -0.248 NA
ATOM     45  C   UNL A   1      37.368  30.653  29.395  1.00  0.00     0.031 C 
ATOM     46  C   UNL A   1      36.906  33.634  33.412  1.00  0.00     0.029 A 
ATOM     47  N   UNL A   1      38.553  32.123  33.436  1.00  0.00    -0.354 N 
ATOM     48  C   UNL A   1      39.201  29.474  30.105  1.00  0.00     0.074 A 
ATOM     49  C   UNL A   1      38.163  29.632  29.107  1.00  0.00     0.031 C 
ATOM     50  C   UNL A   1      37.561  33.774  34.574  1.00  0.00     0.029 A 
ATOM     51  C   UNL A   1      38.655  32.807  34.624  1.00  0.00     0.049 A 
ATOM     52  H   UNL A   1      39.142  31.372  33.195  1.00  0.00     0.167 HD
ATOM     53  C   UNL A   1      40.217  28.580  30.023  1.00  0.00     0.037 A 
ATOM     54  C   UNL A   1      39.537  32.685  35.633  1.00  0.00     0.037 A 
ATOM     55  C   UNL A   1      41.247  28.420  31.019  1.00  0.00     0.049 A 
ATOM     56  C   UNL A   1      40.655  31.684  35.516  1.00  0.00     0.074 A 
ATOM     57  C   UNL A   1      42.341  27.572  31.004  1.00  0.00     0.029 A 
ATOM     58  N   UNL A   1      41.304  29.116  32.218  1.00  0.00    -0.354 N 
ATOM     59  N   UNL A   1      40.935  30.864  34.532  1.00  0.00    -0.248 NA
ATOM     60  C   UNL A   1      41.592  31.607  36.645  1.00  0.00     0.031 C 
ATOM     61  C   UNL A   1      43.025  27.710  32.218  1.00  0.00     0.029 A 
ATOM     62  C   UNL A   1      42.398  28.696  32.961  1.00  0.00     0.049 A 
ATOM     63  H   UNL A   1      40.662  29.807  32.502  1.00  0.00     0.167 HD
ATOM     64  C   UNL A   1      42.092  30.195  34.910  1.00  0.00     0.074 A 
ATOM     65  C   UNL A   1      42.477  30.729  36.200  1.00  0.00     0.031 C 
ATOM     66  C   UNL A   1      42.772  29.225  34.250  1.00  0.00     0.037 A 
BRANCH  53  67
ATOM     67  C   UNL A   1      40.268  27.694  28.807  1.00  0.00     0.064 A 
ATOM     68  C   UNL A   1      41.004  28.048  27.666  1.00  0.00     0.173 A 
ATOM     69  C   UNL A   1      39.612  26.452  28.800  1.00  0.00     0.173 A 
ATOM     70  F   UNL A   1      41.645  29.226  27.615  1.00  0.00    -0.203 F 
ATOM     71  C   UNL A   1      41.058  27.210  26.555  1.00  0.00     0.198 A 
ATOM     72  C   UNL A   1      39.695  25.602  27.700  1.00  0.00     0.198 A 
ATOM     73  F   UNL A   1      38.900  26.057  29.865  1.00  0.00    -0.203 F 
ATOM     74  F   UNL A   1      41.726  27.595  25.458  1.00  0.00    -0.200 F 
ATOM     75  C   UNL A   1      40.409  25.985  26.575  1.00  0.00     0.200 A 
ATOM     76  F   UNL A   1      39.083  24.411  27.728  1.00  0.00    -0.200 F 
ATOM     77  F   UNL A   1      40.469  25.175  25.509  1.00  0.00    -0.200 F 
ENDBRANCH  53  67
BRANCH  54  78
ATOM     78  C   UNL A   1      39.424  33.561  36.832  1.00  0.00     0.064 A 
ATOM     79  C   UNL A   1      38.672  33.171  37.950  1.00  0.00     0.173 A 
ATOM     80  C   UNL A   1      40.052  34.813  36.876  1.00  0.00     0.173 A 
ATOM     81  F   UNL A   1      38.034  31.991  37.949  1.00  0.00    -0.203 F 
ATOM     82  C   UNL A   1      38.530  34.012  39.051  1.00  0.00     0.198 A 
ATOM     83  C   UNL A   1      39.940  35.638  37.992  1.00  0.00     0.198 A 
ATOM     84  F   UNL A   1      40.788  35.233  35.836  1.00  0.00    -0.203 F 
ATOM     85  F   UNL A   1      37.759  33.639  40.082  1.00  0.00    -0.200 F 
ATOM     86  C   UNL A   1      39.169  35.242  39.074  1.00  0.00     0.200 A 
ATOM     87  F   UNL A   1      40.574  36.819  38.017  1.00  0.00    -0.200 F 
ATOM     88  F   UNL A   1      39.036  36.050  40.136  1.00  0.00    -0.200 F 
ENDBRANCH  54  78
BRANCH  66  89
ATOM     89  C   UNL A   1      44.024  28.704  34.903  1.00  0.00     0.064 A 
ATOM     90  C   UNL A   1      44.007  27.597  35.765  1.00  0.00     0.173 A 
ATOM     91  C   UNL A   1      45.259  29.329  34.670  1.00  0.00     0.173 A 
ATOM     92  F   UNL A   1      42.851  26.967  36.032  1.00  0.00    -0.203 F 
ATOM     93  C   UNL A   1      45.164  27.171  36.412  1.00  0.00     0.198 A 
ATOM     94  C   UNL A   1      46.423  28.876  35.288  1.00  0.00     0.198 A 
ATOM     95  F   UNL A   1      45.340  30.385  33.847  1.00  0.00    -0.203 F 
ATOM     96  F   UNL A   1      45.105  26.162  37.293  1.00  0.00    -0.200 F 
ATOM     97  C   UNL A   1      46.371  27.808  36.170  1.00  0.00     0.200 A 
ATOM     98  F   UNL A   1      47.591  29.483  35.039  1.00  0.00    -0.200 F 
ATOM     99  F   UNL A   1      47.483  27.403  36.799  1.00  0.00    -0.200 F 
ENDBRANCH  66  89
ENDBRANCH  40  41
ENDBRANCH  32  35
ENDBRANCH  30  31
ENDBRANCH  29  30
ENDBRANCH  28  29
ENDBRANCH   1  28
TORSDOF 16
ENDMDL
MODEL 3
REMARK VINA RESULT:     -12.3      5.340      9.878
REMARK SMILES CS(=O)(=O)N1C[C@@H]2CN(C(=O)C3CCOCC3)C[C@]2(C(=O)NCCCCCCNC(=O)c2ccc(-c3c4nc(c(-c5c(F)c(F)c(F)c(F)c5F)c5ccc([nH]5)c(-c5c(F)c(F)c(F)c(F)c5F)c5nc(c(-c6c(F)c(F)c(F)c(F)c6F)c6ccc3[nH]6)C=C5)C=C4)cc2)C1
REMARK SMILES IDX 25 1 24 2 23 3 22 4 20 5 21 6 19 8 5 9 6 10 95 11 7 12 8 13
REMARK SMILES IDX 18 14 9 15 2 16 1 17 3 18 4 19 10 20 11 21 12 22 13 23 17 24
REMARK SMILES IDX 14 25 16 26 15 27 26 28 27 29 28 30 29 31 30 32 31 34 32 35
REMARK SMILES IDX 33 36 94 37 34 38 93 39 35 40 36 41 37 42 87 43 38 44 92 45
REMARK SMILES IDX 86 46 88 47 39 48 91 49 85 50 84 51 40 53 72 54 52 55 71 56
REMARK SMILES IDX 53 57 56 58 70 59 89 60 54 61 55 62 69 64 90 65 57 66 41 67
REMARK SMILES IDX 42 68 50 69 43 70 44 71 48 72 51 73 45 74 46 75 49 76 47 77
REMARK SMILES IDX 73 78 74 79 82 80 75 81 76 82 80 83 83 84 77 85 78 86 81 87
REMARK SMILES IDX 79 88 58 89 59 90 67 91 60 92 61 93 65 94 68 95 62 96 63 97
REMARK SMILES IDX 66 98 64 99
REMARK H PARENT 22 7 29 33 88 52 56 63
REMARK Flexibility Score: inf
ROOT
ATOM      1  C   UNL A   1      37.689  21.940  25.164  1.00  0.00     0.002 C 
ENDROOT
BRANCH   1   2
ATOM      2  C   UNL A   1      36.797  23.112  24.754  1.00  0.00     0.021 C 
BRANCH   2   3
ATOM      3  C   UNL A   1      36.021  23.844  25.862  1.00  0.00     0.116 C 
BRANCH   3   4
ATOM      4  N   UNL A   1      35.494  22.867  26.799  1.00  0.00    -0.356 N 
ATOM      5  C   UNL A   1      34.171  22.567  27.021  1.00  0.00     0.229 C 
ATOM      6  O   UNL A   1      33.835  22.303  28.178  1.00  0.00    -0.274 OA
ATOM      7  H   UNL A   1      36.155  22.365  27.330  1.00  0.00     0.163 HD
BRANCH   5   8
ATOM      8  C   UNL A   1      33.206  22.526  25.776  1.00  0.00     0.086 C 
ATOM      9  N   UNL A   1      33.180  20.335  24.495  1.00  0.00    -0.201 NA
ATOM     10  C   UNL A   1      32.009  21.071  24.082  1.00  0.00     0.108 C 
ATOM     11  C   UNL A   1      33.603  20.947  25.800  1.00  0.00     0.121 C 
ATOM     12  C   UNL A   1      31.793  22.031  25.231  1.00  0.00     0.042 C 
ATOM     13  C   UNL A   1      31.016  23.227  24.739  1.00  0.00     0.125 C 
ATOM     14  C   UNL A   1      32.386  23.670  26.582  1.00  0.00     0.138 C 
ATOM     15  N   UNL A   1      31.350  24.216  25.705  1.00  0.00    -0.341 N 
BRANCH   9  16
ATOM     16  S   UNL A   1      33.245  18.646  24.459  1.00  0.00     0.211 S 
ATOM     17  C   UNL A   1      32.530  18.187  22.891  1.00  0.00     0.176 C 
ATOM     18  O   UNL A   1      32.352  18.145  25.487  1.00  0.00    -0.213 OA
ATOM     19  O   UNL A   1      34.643  18.287  24.451  1.00  0.00    -0.213 OA
ENDBRANCH   9  16
BRANCH  15  20
ATOM     20  C   UNL A   1      30.669  25.412  25.689  1.00  0.00     0.225 C 
ATOM     21  O   UNL A   1      29.756  25.613  26.500  1.00  0.00    -0.275 OA
BRANCH  20  22
ATOM     22  C   UNL A   1      30.883  26.451  24.593  1.00  0.00     0.083 C 
ATOM     23  C   UNL A   1      31.781  27.545  25.163  1.00  0.00     0.042 C 
ATOM     24  C   UNL A   1      29.639  26.951  23.860  1.00  0.00     0.042 C 
ATOM     25  C   UNL A   1      31.864  28.749  24.254  1.00  0.00     0.161 C 
ATOM     26  C   UNL A   1      29.925  28.208  23.047  1.00  0.00     0.161 C 
ATOM     27  O   UNL A   1      30.570  29.187  23.860  1.00  0.00    -0.381 OA
ENDBRANCH  20  22
ENDBRANCH  15  20
ENDBRANCH   5   8
ENDBRANCH   3   4
ENDBRANCH   2   3
ENDBRANCH   1   2
BRANCH   1  28
ATOM     28  C   UNL A   1      37.251  20.557  24.679  1.00  0.00     0.002 C 
BRANCH  28  29
ATOM     29  C   UNL A   1      38.183  19.386  25.000  1.00  0.00     0.021 C 
BRANCH  29  30
ATOM     30  C   UNL A   1      39.358  19.661  25.938  1.00  0.00     0.116 C 
BRANCH  30  31
ATOM     31  N   UNL A   1      40.515  18.814  25.769  1.00  0.00    -0.352 N 
ATOM     32  C   UNL A   1      41.835  19.074  26.043  1.00  0.00     0.251 C 
ATOM     33  H   UNL A   1      40.330  17.918  25.404  1.00  0.00     0.163 HD
ATOM     34  O   UNL A   1      42.656  18.163  25.967  1.00  0.00    -0.269 OA
BRANCH  32  35
ATOM     35  C   UNL A   1      42.309  20.446  26.347  1.00  0.00     0.039 A 
ATOM     36  C   UNL A   1      42.809  21.188  25.274  1.00  0.00     0.014 A 
ATOM     37  C   UNL A   1      42.301  21.009  27.629  1.00  0.00     0.014 A 
ATOM     38  C   UNL A   1      43.246  22.499  25.468  1.00  0.00     0.010 A 
ATOM     39  C   UNL A   1      42.683  22.346  27.811  1.00  0.00     0.010 A 
ATOM     40  C   UNL A   1      43.156  23.108  26.731  1.00  0.00    -0.014 A 
BRANCH  40  41
ATOM     41  C   UNL A   1      43.524  24.546  26.863  1.00  0.00     0.031 A 
ATOM     42  C   UNL A   1      42.542  25.567  27.365  1.00  0.00     0.074 A 
ATOM     43  C   UNL A   1      44.786  24.924  26.576  1.00  0.00     0.049 A 
ATOM     44  N   UNL A   1      42.749  26.819  27.695  1.00  0.00    -0.248 NA
ATOM     45  C   UNL A   1      41.144  25.137  27.500  1.00  0.00     0.031 C 
ATOM     46  C   UNL A   1      45.821  24.045  26.028  1.00  0.00     0.029 A 
ATOM     47  N   UNL A   1      45.423  26.131  26.732  1.00  0.00    -0.354 N 
ATOM     48  C   UNL A   1      41.516  27.321  28.090  1.00  0.00     0.074 A 
ATOM     49  C   UNL A   1      40.553  26.256  27.898  1.00  0.00     0.031 C 
ATOM     50  C   UNL A   1      46.976  24.724  25.946  1.00  0.00     0.029 A 
ATOM     51  C   UNL A   1      46.759  26.092  26.408  1.00  0.00     0.049 A 
ATOM     52  H   UNL A   1      44.968  26.945  27.044  1.00  0.00     0.167 HD
ATOM     53  C   UNL A   1      41.218  28.545  28.591  1.00  0.00     0.037 A 
ATOM     54  C   UNL A   1      47.708  27.044  26.488  1.00  0.00     0.037 A 
ATOM     55  C   UNL A   1      42.177  29.606  28.777  1.00  0.00     0.049 A 
ATOM     56  C   UNL A   1      47.350  28.395  27.047  1.00  0.00     0.074 A 
ATOM     57  C   UNL A   1      41.979  30.866  29.316  1.00  0.00     0.029 A 
ATOM     58  N   UNL A   1      43.515  29.537  28.417  1.00  0.00    -0.354 N 
ATOM     59  N   UNL A   1      46.198  28.825  27.502  1.00  0.00    -0.248 NA
ATOM     60  C   UNL A   1      48.432  29.386  27.119  1.00  0.00     0.031 C 
ATOM     61  C   UNL A   1      43.179  31.579  29.227  1.00  0.00     0.029 A 
ATOM     62  C   UNL A   1      44.146  30.741  28.697  1.00  0.00     0.049 A 
ATOM     63  H   UNL A   1      43.954  28.750  28.020  1.00  0.00     0.167 HD
ATOM     64  C   UNL A   1      46.423  30.125  27.940  1.00  0.00     0.074 A 
ATOM     65  C   UNL A   1      47.829  30.399  27.722  1.00  0.00     0.031 C 
ATOM     66  C   UNL A   1      45.544  31.011  28.470  1.00  0.00     0.037 A 
BRANCH  53  67
ATOM     67  C   UNL A   1      39.787  28.812  28.974  1.00  0.00     0.064 A 
ATOM     68  C   UNL A   1      39.319  28.585  30.277  1.00  0.00     0.173 A 
ATOM     69  C   UNL A   1      38.885  29.345  28.040  1.00  0.00     0.173 A 
ATOM     70  F   UNL A   1      40.136  28.071  31.209  1.00  0.00    -0.203 F 
ATOM     71  C   UNL A   1      37.996  28.854  30.623  1.00  0.00     0.198 A 
ATOM     72  C   UNL A   1      37.572  29.643  28.398  1.00  0.00     0.198 A 
ATOM     73  F   UNL A   1      39.279  29.589  26.781  1.00  0.00    -0.203 F 
ATOM     74  F   UNL A   1      37.560  28.581  31.861  1.00  0.00    -0.200 F 
ATOM     75  C   UNL A   1      37.126  29.388  29.686  1.00  0.00     0.200 A 
ATOM     76  F   UNL A   1      36.738  30.176  27.495  1.00  0.00    -0.200 F 
ATOM     77  F   UNL A   1      35.856  29.655  30.022  1.00  0.00    -0.200 F 
ENDBRANCH  53  67
BRANCH  54  78
ATOM     78  C   UNL A   1      49.103  26.743  26.063  1.00  0.00     0.064 A 
ATOM     79  C   UNL A   1      50.046  26.235  26.967  1.00  0.00     0.173 A 
ATOM     80  C   UNL A   1      49.523  26.973  24.745  1.00  0.00     0.173 A 
ATOM     81  F   UNL A   1      49.700  26.017  28.244  1.00  0.00    -0.203 F 
ATOM     82  C   UNL A   1      51.363  25.998  26.577  1.00  0.00     0.198 A 
ATOM     83  C   UNL A   1      50.829  26.702  24.346  1.00  0.00     0.198 A 
ATOM     84  F   UNL A   1      48.659  27.453  23.838  1.00  0.00    -0.203 F 
ATOM     85  F   UNL A   1      52.258  25.566  27.476  1.00  0.00    -0.200 F 
ATOM     86  C   UNL A   1      51.752  26.225  25.266  1.00  0.00     0.200 A 
ATOM     87  F   UNL A   1      51.197  26.906  23.074  1.00  0.00    -0.200 F 
ATOM     88  F   UNL A   1      53.017  25.992  24.889  1.00  0.00    -0.200 F 
ENDBRANCH  54  78
BRANCH  66  89
ATOM     89  C   UNL A   1      46.092  32.351  28.884  1.00  0.00     0.064 A 
ATOM     90  C   UNL A   1      46.600  32.580  30.171  1.00  0.00     0.173 A 
ATOM     91  C   UNL A   1      46.098  33.425  27.980  1.00  0.00     0.173 A 
ATOM     92  F   UNL A   1      46.608  31.592  31.080  1.00  0.00    -0.203 F 
ATOM     93  C   UNL A   1      47.040  33.845  30.556  1.00  0.00     0.198 A 
ATOM     94  C   UNL A   1      46.576  34.678  28.355  1.00  0.00     0.198 A 
ATOM     95  F   UNL A   1      45.635  33.263  26.732  1.00  0.00    -0.203 F 
ATOM     96  F   UNL A   1      47.445  34.057  31.816  1.00  0.00    -0.200 F 
ATOM     97  C   UNL A   1      47.032  34.891  29.647  1.00  0.00     0.200 A 
ATOM     98  F   UNL A   1      46.583  35.684  27.469  1.00  0.00    -0.200 F 
ATOM     99  F   UNL A   1      47.448  36.109  30.020  1.00  0.00    -0.200 F 
ENDBRANCH  66  89
ENDBRANCH  40  41
ENDBRANCH  32  35
ENDBRANCH  30  31
ENDBRANCH  29  30
ENDBRANCH  28  29
ENDBRANCH   1  28
TORSDOF 16
ENDMDL
