MODEL 1
REMARK VINA RESULT:     -11.8      0.000      0.000
REMARK SMILES COc1cc(OC)cc(-c2ccc([C@@H](C)C(=O)NCCCCCCNC(=O)c3ccc(-c4c5nc(c(-c6c(F)c(F)c(F)c(F)c6F)c6ccc([nH]6)c(-c6c(F)c(F)c(F)c(F)c6F)c6nc(c(-c7c(F)c(F)c(F)c(F)c7F)c7ccc4[nH]7)C=C6)C=C5)cc3)cc2F)c1
REMARK SMILES IDX 21 1 20 2 19 3 18 4 16 5 17 6 14 8 15 9 13 10 10 11 11 12
REMARK SMILES IDX 92 13 12 14 91 15 93 16 9 17 3 18 4 19 94 20 5 21 8 22 2 23
REMARK SMILES IDX 1 24 6 25 7 26 22 27 23 28 24 29 25 30 26 31 27 33 28 34
REMARK SMILES IDX 29 35 90 36 30 37 89 38 31 39 32 40 33 41 83 42 34 43 88 44
REMARK SMILES IDX 82 45 84 46 35 47 87 48 81 49 80 50 36 52 68 53 48 54 67 55
REMARK SMILES IDX 49 56 52 57 66 58 85 59 50 60 51 61 65 63 86 64 53 65 37 66
REMARK SMILES IDX 38 67 46 68 39 69 40 70 44 71 47 72 41 73 42 74 45 75 43 76
REMARK SMILES IDX 69 77 70 78 78 79 71 80 72 81 76 82 79 83 73 84 74 85 77 86
REMARK SMILES IDX 75 87 54 88 55 89 63 90 56 91 57 92 61 93 64 94 58 95 59 96
REMARK SMILES IDX 62 97 60 98
REMARK H PARENT 18 7 25 32 84 51 52 62
REMARK Flexibility Score: inf
ROOT
ATOM      1  C   UNL A   1      34.432  32.146  28.797  1.00  0.00     0.002 C 
ENDROOT
BRANCH   1   2
ATOM      2  C   UNL A   1      33.609  31.773  27.560  1.00  0.00     0.021 C 
BRANCH   2   3
ATOM      3  C   UNL A   1      33.722  30.300  27.160  1.00  0.00     0.116 C 
BRANCH   3   4
ATOM      4  N   UNL A   1      32.519  29.823  26.512  1.00  0.00    -0.356 N 
ATOM      5  C   UNL A   1      32.324  29.119  25.364  1.00  0.00     0.227 C 
ATOM      6  O   UNL A   1      31.150  28.934  25.025  1.00  0.00    -0.274 OA
ATOM      7  H   UNL A   1      31.688  30.051  26.989  1.00  0.00     0.163 HD
BRANCH   5   8
ATOM      8  C   UNL A   1      33.465  28.559  24.501  1.00  0.00     0.105 C 
ATOM      9  C   UNL A   1      33.530  29.152  23.092  1.00  0.00     0.023 C 
BRANCH   8  10
ATOM     10  C   UNL A   1      33.605  27.047  24.595  1.00  0.00    -0.033 A 
ATOM     11  C   UNL A   1      33.993  24.212  24.679  1.00  0.00     0.018 A 
ATOM     12  C   UNL A   1      33.966  24.993  25.847  1.00  0.00     0.012 A 
ATOM     13  C   UNL A   1      33.808  24.892  23.468  1.00  0.00     0.131 A 
ATOM     14  C   UNL A   1      33.739  26.372  25.809  1.00  0.00     0.005 A 
ATOM     15  C   UNL A   1      33.636  26.280  23.419  1.00  0.00     0.044 A 
ATOM     16  F   UNL A   1      33.779  24.218  22.308  1.00  0.00    -0.206 F 
BRANCH  11  17
ATOM     17  C   UNL A   1      34.184  22.747  24.768  1.00  0.00    -0.008 A 
ATOM     18  C   UNL A   1      35.602  20.766  24.917  1.00  0.00     0.123 A 
ATOM     19  C   UNL A   1      34.468  19.956  24.970  1.00  0.00     0.092 A 
ATOM     20  C   UNL A   1      35.459  22.153  24.813  1.00  0.00     0.055 A 
ATOM     21  C   UNL A   1      33.191  20.512  24.934  1.00  0.00     0.123 A 
ATOM     22  C   UNL A   1      33.060  21.896  24.826  1.00  0.00     0.055 A 
BRANCH  18  23
ATOM     23  O   UNL A   1      36.792  20.089  24.934  1.00  0.00    -0.497 OA
ATOM     24  C   UNL A   1      37.954  20.864  25.195  1.00  0.00     0.278 C 
ENDBRANCH  18  23
BRANCH  21  25
ATOM     25  O   UNL A   1      32.160  19.616  25.013  1.00  0.00    -0.497 OA
ATOM     26  C   UNL A   1      32.496  18.239  24.890  1.00  0.00     0.278 C 
ENDBRANCH  21  25
ENDBRANCH  11  17
ENDBRANCH   8  10
ENDBRANCH   5   8
ENDBRANCH   3   4
ENDBRANCH   2   3
ENDBRANCH   1   2
BRANCH   1  27
ATOM     27  C   UNL A   1      34.578  33.651  29.054  1.00  0.00     0.002 C 
BRANCH  27  28
ATOM     28  C   UNL A   1      33.285  34.467  28.947  1.00  0.00     0.021 C 
BRANCH  28  29
ATOM     29  C   UNL A   1      33.409  35.920  29.397  1.00  0.00     0.116 C 
BRANCH  29  30
ATOM     30  N   UNL A   1      32.569  36.203  30.551  1.00  0.00    -0.352 N 
ATOM     31  C   UNL A   1      32.647  35.721  31.833  1.00  0.00     0.251 C 
ATOM     32  H   UNL A   1      31.834  36.836  30.387  1.00  0.00     0.163 HD
ATOM     33  O   UNL A   1      31.718  35.890  32.614  1.00  0.00    -0.269 OA
BRANCH  31  34
ATOM     34  C   UNL A   1      33.850  34.985  32.276  1.00  0.00     0.039 A 
ATOM     35  C   UNL A   1      33.708  33.682  32.763  1.00  0.00     0.014 A 
ATOM     36  C   UNL A   1      35.110  35.590  32.247  1.00  0.00     0.014 A 
ATOM     37  C   UNL A   1      34.837  32.965  33.166  1.00  0.00     0.010 A 
ATOM     38  C   UNL A   1      36.240  34.853  32.589  1.00  0.00     0.010 A 
ATOM     39  C   UNL A   1      36.114  33.535  33.056  1.00  0.00    -0.014 A 
BRANCH  39  40
ATOM     40  C   UNL A   1      37.335  32.775  33.428  1.00  0.00     0.031 A 
ATOM     41  C   UNL A   1      38.049  33.082  34.714  1.00  0.00     0.074 A 
ATOM     42  C   UNL A   1      37.838  31.863  32.575  1.00  0.00     0.049 A 
ATOM     43  N   UNL A   1      39.176  32.598  35.172  1.00  0.00    -0.248 NA
ATOM     44  C   UNL A   1      37.427  34.087  35.591  1.00  0.00     0.031 C 
ATOM     45  C   UNL A   1      37.257  31.507  31.280  1.00  0.00     0.029 A 
ATOM     46  N   UNL A   1      38.961  31.081  32.663  1.00  0.00    -0.354 N 
ATOM     47  C   UNL A   1      39.406  33.252  36.376  1.00  0.00     0.074 A 
ATOM     48  C   UNL A   1      38.328  34.199  36.556  1.00  0.00     0.031 C 
ATOM     49  C   UNL A   1      38.020  30.566  30.701  1.00  0.00     0.029 A 
ATOM     50  C   UNL A   1      39.162  30.280  31.565  1.00  0.00     0.049 A 
ATOM     51  H   UNL A   1      39.566  31.091  33.439  1.00  0.00     0.167 HD
ATOM     52  C   UNL A   1      40.414  33.062  37.260  1.00  0.00     0.037 A 
ATOM     53  C   UNL A   1      40.160  29.422  31.282  1.00  0.00     0.037 A 
ATOM     54  C   UNL A   1      41.469  32.097  37.090  1.00  0.00     0.049 A 
ATOM     55  C   UNL A   1      41.271  29.234  32.279  1.00  0.00     0.074 A 
ATOM     56  C   UNL A   1      42.501  31.786  37.957  1.00  0.00     0.029 A 
ATOM     57  N   UNL A   1      41.626  31.289  35.973  1.00  0.00    -0.354 N 
ATOM     58  N   UNL A   1      41.444  29.810  33.443  1.00  0.00    -0.248 NA
ATOM     59  C   UNL A   1      42.322  28.270  31.926  1.00  0.00     0.031 C 
ATOM     60  C   UNL A   1      43.309  30.820  37.346  1.00  0.00     0.029 A 
ATOM     61  C   UNL A   1      42.751  30.494  36.120  1.00  0.00     0.049 A 
ATOM     62  H   UNL A   1      41.027  31.282  35.193  1.00  0.00     0.167 HD
ATOM     63  C   UNL A   1      42.603  29.261  33.973  1.00  0.00     0.074 A 
ATOM     64  C   UNL A   1      43.086  28.295  33.008  1.00  0.00     0.031 C 
ATOM     65  C   UNL A   1      43.212  29.531  35.153  1.00  0.00     0.037 A 
BRANCH  52  66
ATOM     66  C   UNL A   1      40.422  33.914  38.498  1.00  0.00     0.064 A 
ATOM     67  C   UNL A   1      39.727  33.536  39.655  1.00  0.00     0.173 A 
ATOM     68  C   UNL A   1      41.164  35.104  38.536  1.00  0.00     0.173 A 
ATOM     69  F   UNL A   1      38.994  32.413  39.667  1.00  0.00    -0.203 F 
ATOM     70  C   UNL A   1      39.748  34.333  40.797  1.00  0.00     0.198 A 
ATOM     71  C   UNL A   1      41.208  35.884  39.690  1.00  0.00     0.198 A 
ATOM     72  F   UNL A   1      41.854  35.508  37.459  1.00  0.00    -0.203 F 
ATOM     73  F   UNL A   1      39.035  33.977  41.875  1.00  0.00    -0.200 F 
ATOM     74  C   UNL A   1      40.494  35.502  40.816  1.00  0.00     0.200 A 
ATOM     75  F   UNL A   1      41.940  37.006  39.711  1.00  0.00    -0.200 F 
ATOM     76  F   UNL A   1      40.519  36.265  41.917  1.00  0.00    -0.200 F 
ENDBRANCH  52  66
BRANCH  53  77
ATOM     77  C   UNL A   1      40.142  28.659  30.007  1.00  0.00     0.064 A 
ATOM     78  C   UNL A   1      40.748  29.177  28.853  1.00  0.00     0.173 A 
ATOM     79  C   UNL A   1      39.522  27.406  29.913  1.00  0.00     0.173 A 
ATOM     80  F   UNL A   1      41.335  30.382  28.889  1.00  0.00    -0.203 F 
ATOM     81  C   UNL A   1      40.718  28.476  27.649  1.00  0.00     0.198 A 
ATOM     82  C   UNL A   1      39.517  26.693  28.715  1.00  0.00     0.198 A 
ATOM     83  F   UNL A   1      38.934  26.865  30.989  1.00  0.00    -0.203 F 
ATOM     84  F   UNL A   1      41.267  29.012  26.550  1.00  0.00    -0.200 F 
ATOM     85  C   UNL A   1      40.107  27.233  27.583  1.00  0.00     0.200 A 
ATOM     86  F   UNL A   1      38.939  25.485  28.659  1.00  0.00    -0.200 F 
ATOM     87  F   UNL A   1      40.084  26.557  26.426  1.00  0.00    -0.200 F 
ENDBRANCH  53  77
BRANCH  65  88
ATOM     88  C   UNL A   1      44.449  28.748  35.486  1.00  0.00     0.064 A 
ATOM     89  C   UNL A   1      44.387  27.552  36.217  1.00  0.00     0.173 A 
ATOM     90  C   UNL A   1      45.704  29.175  35.028  1.00  0.00     0.173 A 
ATOM     91  F   UNL A   1      43.212  27.110  36.690  1.00  0.00    -0.203 F 
ATOM     92  C   UNL A   1      45.541  26.824  36.494  1.00  0.00     0.198 A 
ATOM     93  C   UNL A   1      46.851  28.430  35.282  1.00  0.00     0.198 A 
ATOM     94  F   UNL A   1      45.815  30.309  34.320  1.00  0.00    -0.203 F 
ATOM     95  F   UNL A   1      45.465  25.707  37.230  1.00  0.00    -0.200 F 
ATOM     96  C   UNL A   1      46.770  27.259  36.020  1.00  0.00     0.200 A 
ATOM     97  F   UNL A   1      48.036  28.845  34.812  1.00  0.00    -0.200 F 
ATOM     98  F   UNL A   1      47.879  26.552  36.280  1.00  0.00    -0.200 F 
ENDBRANCH  65  88
ENDBRANCH  39  40
ENDBRANCH  31  34
ENDBRANCH  29  30
ENDBRANCH  28  29
ENDBRANCH  27  28
ENDBRANCH   1  27
TORSDOF 17
ENDMDL
MODEL 2
REMARK VINA RESULT:     -11.7      4.212      8.245
REMARK SMILES COc1cc(OC)cc(-c2ccc([C@@H](C)C(=O)NCCCCCCNC(=O)c3ccc(-c4c5nc(c(-c6c(F)c(F)c(F)c(F)c6F)c6ccc([nH]6)c(-c6c(F)c(F)c(F)c(F)c6F)c6nc(c(-c7c(F)c(F)c(F)c(F)c7F)c7ccc4[nH]7)C=C6)C=C5)cc3)cc2F)c1
REMARK SMILES IDX 21 1 20 2 19 3 18 4 16 5 17 6 14 8 15 9 13 10 10 11 11 12
REMARK SMILES IDX 92 13 12 14 91 15 93 16 9 17 3 18 4 19 94 20 5 21 8 22 2 23
REMARK SMILES IDX 1 24 6 25 7 26 22 27 23 28 24 29 25 30 26 31 27 33 28 34
REMARK SMILES IDX 29 35 90 36 30 37 89 38 31 39 32 40 33 41 83 42 34 43 88 44
REMARK SMILES IDX 82 45 84 46 35 47 87 48 81 49 80 50 36 52 68 53 48 54 67 55
REMARK SMILES IDX 49 56 52 57 66 58 85 59 50 60 51 61 65 63 86 64 53 65 37 66
REMARK SMILES IDX 38 67 46 68 39 69 40 70 44 71 47 72 41 73 42 74 45 75 43 76
REMARK SMILES IDX 69 77 70 78 78 79 71 80 72 81 76 82 79 83 73 84 74 85 77 86
REMARK SMILES IDX 75 87 54 88 55 89 63 90 56 91 57 92 61 93 64 94 58 95 59 96
REMARK SMILES IDX 62 97 60 98
REMARK H PARENT 18 7 25 32 84 51 52 62
REMARK Flexibility Score: inf
ROOT
ATOM      1  C   UNL A   1      32.887  36.276  29.660  1.00  0.00     0.002 C 
ENDROOT
BRANCH   1   2
ATOM      2  C   UNL A   1      32.895  36.017  31.170  1.00  0.00     0.021 C 
BRANCH   2   3
ATOM      3  C   UNL A   1      34.053  36.693  31.908  1.00  0.00     0.116 C 
BRANCH   3   4
ATOM      4  N   UNL A   1      34.528  35.892  33.016  1.00  0.00    -0.356 N 
ATOM      5  C   UNL A   1      35.035  34.630  33.072  1.00  0.00     0.227 C 
ATOM      6  O   UNL A   1      35.275  34.185  34.200  1.00  0.00    -0.274 OA
ATOM      7  H   UNL A   1      34.471  36.342  33.890  1.00  0.00     0.163 HD
BRANCH   5   8
ATOM      8  C   UNL A   1      35.318  33.767  31.833  1.00  0.00     0.105 C 
ATOM      9  C   UNL A   1      34.841  32.319  31.962  1.00  0.00     0.023 C 
BRANCH   8  10
ATOM     10  C   UNL A   1      36.717  33.960  31.270  1.00  0.00    -0.033 A 
ATOM     11  C   UNL A   1      39.405  34.227  30.321  1.00  0.00     0.018 A 
ATOM     12  C   UNL A   1      38.363  33.783  29.487  1.00  0.00     0.012 A 
ATOM     13  C   UNL A   1      39.058  34.544  31.640  1.00  0.00     0.131 A 
ATOM     14  C   UNL A   1      37.044  33.689  29.941  1.00  0.00     0.005 A 
ATOM     15  C   UNL A   1      37.749  34.399  32.115  1.00  0.00     0.044 A 
ATOM     16  F   UNL A   1      39.982  35.014  32.492  1.00  0.00    -0.206 F 
BRANCH  11  17
ATOM     17  C   UNL A   1      40.778  34.363  29.786  1.00  0.00    -0.008 A 
ATOM     18  C   UNL A   1      42.469  35.534  28.473  1.00  0.00     0.123 A 
ATOM     19  C   UNL A   1      43.416  34.574  28.833  1.00  0.00     0.092 A 
ATOM     20  C   UNL A   1      41.158  35.426  28.944  1.00  0.00     0.055 A 
ATOM     21  C   UNL A   1      43.074  33.514  29.668  1.00  0.00     0.123 A 
ATOM     22  C   UNL A   1      41.763  33.413  30.129  1.00  0.00     0.055 A 
BRANCH  18  23
ATOM     23  O   UNL A   1      42.932  36.506  27.626  1.00  0.00    -0.497 OA
ATOM     24  C   UNL A   1      44.344  36.592  27.479  1.00  0.00     0.278 C 
ENDBRANCH  18  23
BRANCH  21  25
ATOM     25  O   UNL A   1      44.093  32.651  29.964  1.00  0.00    -0.497 OA
ATOM     26  C   UNL A   1      43.743  31.283  30.144  1.00  0.00     0.278 C 
ENDBRANCH  21  25
ENDBRANCH  11  17
ENDBRANCH   8  10
ENDBRANCH   5   8
ENDBRANCH   3   4
ENDBRANCH   2   3
ENDBRANCH   1   2
BRANCH   1  27
ATOM     27  C   UNL A   1      33.868  35.422  28.846  1.00  0.00     0.002 C 
BRANCH  27  28
ATOM     28  C   UNL A   1      33.293  34.120  28.276  1.00  0.00     0.021 C 
BRANCH  28  29
ATOM     29  C   UNL A   1      34.213  32.909  28.401  1.00  0.00     0.116 C 
BRANCH  29  30
ATOM     30  N   UNL A   1      33.685  31.752  27.693  1.00  0.00    -0.352 N 
ATOM     31  C   UNL A   1      34.286  30.555  27.398  1.00  0.00     0.251 C 
ATOM     32  H   UNL A   1      32.757  31.843  27.380  1.00  0.00     0.163 HD
ATOM     33  O   UNL A   1      33.769  29.786  26.595  1.00  0.00    -0.269 OA
BRANCH  31  34
ATOM     34  C   UNL A   1      35.566  30.190  28.041  1.00  0.00     0.039 A 
ATOM     35  C   UNL A   1      35.552  29.697  29.350  1.00  0.00     0.014 A 
ATOM     36  C   UNL A   1      36.779  30.367  27.371  1.00  0.00     0.014 A 
ATOM     37  C   UNL A   1      36.751  29.328  29.965  1.00  0.00     0.010 A 
ATOM     38  C   UNL A   1      37.966  29.939  27.961  1.00  0.00     0.010 A 
ATOM     39  C   UNL A   1      37.963  29.419  29.264  1.00  0.00    -0.014 A 
BRANCH  39  40
ATOM     40  C   UNL A   1      39.244  28.984  29.877  1.00  0.00     0.031 A 
ATOM     41  C   UNL A   1      39.802  29.723  31.060  1.00  0.00     0.074 A 
ATOM     42  C   UNL A   1      39.938  27.972  29.321  1.00  0.00     0.049 A 
ATOM     43  N   UNL A   1      40.946  29.558  31.676  1.00  0.00    -0.248 NA
ATOM     44  C   UNL A   1      38.976  30.810  31.608  1.00  0.00     0.031 C 
ATOM     45  C   UNL A   1      39.519  27.205  28.147  1.00  0.00     0.029 A 
ATOM     46  N   UNL A   1      41.150  27.426  29.662  1.00  0.00    -0.354 N 
ATOM     47  C   UNL A   1      40.983  30.530  32.668  1.00  0.00     0.074 A 
ATOM     48  C   UNL A   1      39.771  31.310  32.543  1.00  0.00     0.031 C 
ATOM     49  C   UNL A   1      40.451  26.277  27.874  1.00  0.00     0.029 A 
ATOM     50  C   UNL A   1      41.549  26.409  28.829  1.00  0.00     0.049 A 
ATOM     51  H   UNL A   1      41.682  27.733  30.430  1.00  0.00     0.167 HD
ATOM     52  C   UNL A   1      41.933  30.737  33.611  1.00  0.00     0.037 A 
ATOM     53  C   UNL A   1      42.677  25.675  28.828  1.00  0.00     0.037 A 
ATOM     54  C   UNL A   1      43.124  29.940  33.749  1.00  0.00     0.049 A 
ATOM     55  C   UNL A   1      43.719  25.929  29.883  1.00  0.00     0.074 A 
ATOM     56  C   UNL A   1      44.116  30.031  34.709  1.00  0.00     0.029 A 
ATOM     57  N   UNL A   1      43.482  28.904  32.899  1.00  0.00    -0.354 N 
ATOM     58  N   UNL A   1      43.716  26.808  30.855  1.00  0.00    -0.248 NA
ATOM     59  C   UNL A   1      44.921  25.084  29.845  1.00  0.00     0.031 C 
ATOM     60  C   UNL A   1      45.098  29.079  34.413  1.00  0.00     0.029 A 
ATOM     61  C   UNL A   1      44.693  28.362  33.299  1.00  0.00     0.049 A 
ATOM     62  H   UNL A   1      42.955  28.600  32.125  1.00  0.00     0.167 HD
ATOM     63  C   UNL A   1      44.893  26.605  31.559  1.00  0.00     0.074 A 
ATOM     64  C   UNL A   1      45.584  25.510  30.910  1.00  0.00     0.031 C 
ATOM     65  C   UNL A   1      45.361  27.265  32.646  1.00  0.00     0.037 A 
BRANCH  52  66
ATOM     66  C   UNL A   1      41.722  31.872  34.572  1.00  0.00     0.064 A 
ATOM     67  C   UNL A   1      42.228  33.155  34.319  1.00  0.00     0.173 A 
ATOM     68  C   UNL A   1      40.974  31.681  35.744  1.00  0.00     0.173 A 
ATOM     69  F   UNL A   1      42.958  33.388  33.218  1.00  0.00    -0.203 F 
ATOM     70  C   UNL A   1      42.020  34.199  35.217  1.00  0.00     0.198 A 
ATOM     71  C   UNL A   1      40.742  32.734  36.625  1.00  0.00     0.198 A 
ATOM     72  F   UNL A   1      40.461  30.475  36.031  1.00  0.00    -0.203 F 
ATOM     73  F   UNL A   1      42.556  35.404  34.978  1.00  0.00    -0.200 F 
ATOM     74  C   UNL A   1      41.271  33.989  36.366  1.00  0.00     0.200 A 
ATOM     75  F   UNL A   1      40.007  32.534  37.727  1.00  0.00    -0.200 F 
ATOM     76  F   UNL A   1      41.065  34.996  37.225  1.00  0.00    -0.200 F 
ENDBRANCH  52  66
BRANCH  53  77
ATOM     77  C   UNL A   1      42.870  24.614  27.806  1.00  0.00     0.064 A 
ATOM     78  C   UNL A   1      42.517  23.284  28.077  1.00  0.00     0.173 A 
ATOM     79  C   UNL A   1      43.408  24.903  26.544  1.00  0.00     0.173 A 
ATOM     80  F   UNL A   1      42.017  22.956  29.277  1.00  0.00    -0.203 F 
ATOM     81  C   UNL A   1      42.712  22.281  27.130  1.00  0.00     0.198 A 
ATOM     82  C   UNL A   1      43.577  23.903  25.588  1.00  0.00     0.198 A 
ATOM     83  F   UNL A   1      43.756  26.160  26.234  1.00  0.00    -0.203 F 
ATOM     84  F   UNL A   1      42.405  21.011  27.430  1.00  0.00    -0.200 F 
ATOM     85  C   UNL A   1      43.237  22.592  25.884  1.00  0.00     0.200 A 
ATOM     86  F   UNL A   1      44.070  24.211  24.380  1.00  0.00    -0.200 F 
ATOM     87  F   UNL A   1      43.419  21.628  24.973  1.00  0.00    -0.200 F 
ENDBRANCH  53  77
BRANCH  65  88
ATOM     88  C   UNL A   1      46.665  26.799  33.228  1.00  0.00     0.064 A 
ATOM     89  C   UNL A   1      46.720  25.769  34.178  1.00  0.00     0.173 A 
ATOM     90  C   UNL A   1      47.875  27.360  32.793  1.00  0.00     0.173 A 
ATOM     91  F   UNL A   1      45.589  25.213  34.636  1.00  0.00    -0.203 F 
ATOM     92  C   UNL A   1      47.940  25.332  34.687  1.00  0.00     0.198 A 
ATOM     93  C   UNL A   1      49.094  26.900  33.282  1.00  0.00     0.198 A 
ATOM     94  F   UNL A   1      47.876  28.344  31.881  1.00  0.00    -0.203 F 
ATOM     95  F   UNL A   1      47.967  24.376  35.626  1.00  0.00    -0.200 F 
ATOM     96  C   UNL A   1      49.125  25.892  34.233  1.00  0.00     0.200 A 
ATOM     97  F   UNL A   1      50.239  27.433  32.834  1.00  0.00    -0.200 F 
ATOM     98  F   UNL A   1      50.299  25.462  34.718  1.00  0.00    -0.200 F 
ENDBRANCH  65  88
ENDBRANCH  39  40
ENDBRANCH  31  34
ENDBRANCH  29  30
ENDBRANCH  28  29
ENDBRANCH  27  28
ENDBRANCH   1  27
TORSDOF 17
ENDMDL
MODEL 3
REMARK VINA RESULT:     -11.7      4.559      8.846
REMARK SMILES COc1cc(OC)cc(-c2ccc([C@@H](C)C(=O)NCCCCCCNC(=O)c3ccc(-c4c5nc(c(-c6c(F)c(F)c(F)c(F)c6F)c6ccc([nH]6)c(-c6c(F)c(F)c(F)c(F)c6F)c6nc(c(-c7c(F)c(F)c(F)c(F)c7F)c7ccc4[nH]7)C=C6)C=C5)cc3)cc2F)c1
REMARK SMILES IDX 21 1 20 2 19 3 18 4 16 5 17 6 14 8 15 9 13 10 10 11 11 12
REMARK SMILES IDX 92 13 12 14 91 15 93 16 9 17 3 18 4 19 94 20 5 21 8 22 2 23
REMARK SMILES IDX 1 24 6 25 7 26 22 27 23 28 24 29 25 30 26 31 27 33 28 34
REMARK SMILES IDX 29 35 90 36 30 37 89 38 31 39 32 40 33 41 83 42 34 43 88 44
REMARK SMILES IDX 82 45 84 46 35 47 87 48 81 49 80 50 36 52 68 53 48 54 67 55
REMARK SMILES IDX 49 56 52 57 66 58 85 59 50 60 51 61 65 63 86 64 53 65 37 66
REMARK SMILES IDX 38 67 46 68 39 69 40 70 44 71 47 72 41 73 42 74 45 75 43 76
REMARK SMILES IDX 69 77 70 78 78 79 71 80 72 81 76 82 79 83 73 84 74 85 77 86
REMARK SMILES IDX 75 87 54 88 55 89 63 90 56 91 57 92 61 93 64 94 58 95 59 96
REMARK SMILES IDX 62 97 60 98
REMARK H PARENT 18 7 25 32 84 51 52 62
REMARK Flexibility Score: inf
ROOT
ATOM      1  C   UNL A   1      33.428  34.694  28.489  1.00  0.00     0.002 C 
ENDROOT
BRANCH   1   2
ATOM      2  C   UNL A   1      32.727  35.964  28.981  1.00  0.00     0.021 C 
BRANCH   2   3
ATOM      3  C   UNL A   1      33.635  37.195  29.028  1.00  0.00     0.116 C 
BRANCH   3   4
ATOM      4  N   UNL A   1      33.654  37.802  30.342  1.00  0.00    -0.356 N 
ATOM      5  C   UNL A   1      33.277  37.335  31.563  1.00  0.00     0.227 C 
ATOM      6  O   UNL A   1      33.335  38.139  32.501  1.00  0.00    -0.274 OA
ATOM      7  H   UNL A   1      34.001  38.723  30.354  1.00  0.00     0.163 HD
BRANCH   5   8
ATOM      8  C   UNL A   1      32.802  35.896  31.819  1.00  0.00     0.105 C 
ATOM      9  C   UNL A   1      31.456  35.804  32.540  1.00  0.00     0.023 C 
BRANCH   8  10
ATOM     10  C   UNL A   1      33.901  34.983  32.340  1.00  0.00    -0.033 A 
ATOM     11  C   UNL A   1      36.031  33.386  33.394  1.00  0.00     0.018 A 
ATOM     12  C   UNL A   1      34.680  33.068  33.622  1.00  0.00     0.012 A 
ATOM     13  C   UNL A   1      36.282  34.521  32.613  1.00  0.00     0.131 A 
ATOM     14  C   UNL A   1      33.641  33.826  33.075  1.00  0.00     0.005 A 
ATOM     15  C   UNL A   1      35.246  35.315  32.109  1.00  0.00     0.044 A 
ATOM     16  F   UNL A   1      37.541  34.874  32.312  1.00  0.00    -0.206 F 
BRANCH  11  17
ATOM     17  C   UNL A   1      37.101  32.526  33.947  1.00  0.00    -0.008 A 
ATOM     18  C   UNL A   1      38.625  30.625  33.801  1.00  0.00     0.123 A 
ATOM     19  C   UNL A   1      39.159  30.955  35.047  1.00  0.00     0.092 A 
ATOM     20  C   UNL A   1      37.599  31.405  33.257  1.00  0.00     0.055 A 
ATOM     21  C   UNL A   1      38.692  32.061  35.753  1.00  0.00     0.123 A 
ATOM     22  C   UNL A   1      37.666  32.829  35.204  1.00  0.00     0.055 A 
BRANCH  18  23
ATOM     23  O   UNL A   1      39.156  29.500  33.230  1.00  0.00    -0.497 OA
ATOM     24  C   UNL A   1      40.461  29.133  33.659  1.00  0.00     0.278 C 
ENDBRANCH  18  23
BRANCH  21  25
ATOM     25  O   UNL A   1      39.308  32.293  36.952  1.00  0.00    -0.497 OA
ATOM     26  C   UNL A   1      40.730  32.327  36.947  1.00  0.00     0.278 C 
ENDBRANCH  21  25
ENDBRANCH  11  17
ENDBRANCH   8  10
ENDBRANCH   5   8
ENDBRANCH   3   4
ENDBRANCH   2   3
ENDBRANCH   1   2
BRANCH   1  27
ATOM     27  C   UNL A   1      34.960  34.719  28.575  1.00  0.00     0.002 C 
BRANCH  27  28
ATOM     28  C   UNL A   1      35.626  33.374  28.883  1.00  0.00     0.021 C 
BRANCH  28  29
ATOM     29  C   UNL A   1      34.744  32.385  29.640  1.00  0.00     0.116 C 
BRANCH  29  30
ATOM     30  N   UNL A   1      34.108  31.431  28.744  1.00  0.00    -0.352 N 
ATOM     31  C   UNL A   1      34.657  30.390  28.038  1.00  0.00     0.251 C 
ATOM     32  H   UNL A   1      33.139  31.550  28.627  1.00  0.00     0.163 HD
ATOM     33  O   UNL A   1      34.012  29.836  27.155  1.00  0.00    -0.269 OA
BRANCH  31  34
ATOM     34  C   UNL A   1      36.033  29.938  28.333  1.00  0.00     0.039 A 
ATOM     35  C   UNL A   1      37.022  30.094  27.357  1.00  0.00     0.014 A 
ATOM     36  C   UNL A   1      36.340  29.329  29.552  1.00  0.00     0.014 A 
ATOM     37  C   UNL A   1      38.332  29.691  27.626  1.00  0.00     0.010 A 
ATOM     38  C   UNL A   1      37.658  28.987  29.843  1.00  0.00     0.010 A 
ATOM     39  C   UNL A   1      38.665  29.161  28.882  1.00  0.00    -0.014 A 
BRANCH  39  40
ATOM     40  C   UNL A   1      40.061  28.774  29.212  1.00  0.00     0.031 A 
ATOM     41  C   UNL A   1      40.947  29.724  29.968  1.00  0.00     0.074 A 
ATOM     42  C   UNL A   1      40.549  27.601  28.767  1.00  0.00     0.049 A 
ATOM     43  N   UNL A   1      42.216  29.611  30.268  1.00  0.00    -0.248 NA
ATOM     44  C   UNL A   1      40.331  30.980  30.422  1.00  0.00     0.031 C 
ATOM     45  C   UNL A   1      39.799  26.614  27.989  1.00  0.00     0.029 A 
ATOM     46  N   UNL A   1      41.798  27.047  28.891  1.00  0.00    -0.354 N 
ATOM     47  C   UNL A   1      42.553  30.786  30.929  1.00  0.00     0.074 A 
ATOM     48  C   UNL A   1      41.369  31.618  30.944  1.00  0.00     0.031 C 
ATOM     49  C   UNL A   1      40.598  25.568  27.719  1.00  0.00     0.029 A 
ATOM     50  C   UNL A   1      41.925  25.829  28.271  1.00  0.00     0.049 A 
ATOM     51  H   UNL A   1      42.534  27.481  29.380  1.00  0.00     0.167 HD
ATOM     52  C   UNL A   1      43.736  31.129  31.490  1.00  0.00     0.037 A 
ATOM     53  C   UNL A   1      42.994  25.018  28.150  1.00  0.00     0.037 A 
ATOM     54  C   UNL A   1      44.903  30.286  31.498  1.00  0.00     0.049 A 
ATOM     55  C   UNL A   1      44.298  25.426  28.779  1.00  0.00     0.074 A 
ATOM     56  C   UNL A   1      46.130  30.517  32.094  1.00  0.00     0.029 A 
ATOM     57  N   UNL A   1      44.986  29.048  30.877  1.00  0.00    -0.354 N 
ATOM     58  N   UNL A   1      44.588  26.510  29.455  1.00  0.00    -0.248 NA
ATOM     59  C   UNL A   1      45.424  24.493  28.632  1.00  0.00     0.031 C 
ATOM     60  C   UNL A   1      46.971  29.438  31.795  1.00  0.00     0.029 A 
ATOM     61  C   UNL A   1      46.251  28.513  31.057  1.00  0.00     0.049 A 
ATOM     62  H   UNL A   1      44.254  28.615  30.382  1.00  0.00     0.167 HD
ATOM     63  C   UNL A   1      45.915  26.378  29.839  1.00  0.00     0.074 A 
ATOM     64  C   UNL A   1      46.372  25.102  29.329  1.00  0.00     0.031 C 
ATOM     65  C   UNL A   1      46.686  27.237  30.550  1.00  0.00     0.037 A 
BRANCH  52  66
ATOM     66  C   UNL A   1      43.828  32.476  32.149  1.00  0.00     0.064 A 
ATOM     67  C   UNL A   1      44.232  33.616  31.439  1.00  0.00     0.173 A 
ATOM     68  C   UNL A   1      43.474  32.634  33.498  1.00  0.00     0.173 A 
ATOM     69  F   UNL A   1      44.592  33.517  30.151  1.00  0.00    -0.203 F 
ATOM     70  C   UNL A   1      44.308  34.860  32.062  1.00  0.00     0.198 A 
ATOM     71  C   UNL A   1      43.522  33.884  34.109  1.00  0.00     0.198 A 
ATOM     72  F   UNL A   1      43.073  31.578  34.221  1.00  0.00    -0.203 F 
ATOM     73  F   UNL A   1      44.745  35.925  31.376  1.00  0.00    -0.200 F 
ATOM     74  C   UNL A   1      43.946  34.994  33.394  1.00  0.00     0.200 A 
ATOM     75  F   UNL A   1      43.158  34.015  35.392  1.00  0.00    -0.200 F 
ATOM     76  F   UNL A   1      44.012  36.193  33.989  1.00  0.00    -0.200 F 
ENDBRANCH  52  66
BRANCH  53  77
ATOM     77  C   UNL A   1      42.867  23.730  27.422  1.00  0.00     0.064 A 
ATOM     78  C   UNL A   1      43.227  23.631  26.070  1.00  0.00     0.173 A 
ATOM     79  C   UNL A   1      42.385  22.575  28.055  1.00  0.00     0.173 A 
ATOM     80  F   UNL A   1      43.674  24.713  25.416  1.00  0.00    -0.203 F 
ATOM     81  C   UNL A   1      43.093  22.431  25.375  1.00  0.00     0.198 A 
ATOM     82  C   UNL A   1      42.278  21.368  27.366  1.00  0.00     0.198 A 
ATOM     83  F   UNL A   1      42.032  22.616  29.348  1.00  0.00    -0.203 F 
ATOM     84  F   UNL A   1      43.405  22.374  24.073  1.00  0.00    -0.200 F 
ATOM     85  C   UNL A   1      42.624  21.299  26.026  1.00  0.00     0.200 A 
ATOM     86  F   UNL A   1      41.838  20.274  28.002  1.00  0.00    -0.200 F 
ATOM     87  F   UNL A   1      42.500  20.144  25.359  1.00  0.00    -0.200 F 
ENDBRANCH  53  77
BRANCH  65  88
ATOM     88  C   UNL A   1      48.093  26.811  30.852  1.00  0.00     0.064 A 
ATOM     89  C   UNL A   1      49.172  27.212  30.050  1.00  0.00     0.173 A 
ATOM     90  C   UNL A   1      48.370  26.030  31.984  1.00  0.00     0.173 A 
ATOM     91  F   UNL A   1      48.957  27.947  28.949  1.00  0.00    -0.203 F 
ATOM     92  C   UNL A   1      50.474  26.829  30.361  1.00  0.00     0.198 A 
ATOM     93  C   UNL A   1      49.675  25.673  32.307  1.00  0.00     0.198 A 
ATOM     94  F   UNL A   1      47.373  25.625  32.786  1.00  0.00    -0.203 F 
ATOM     95  F   UNL A   1      51.484  27.188  29.557  1.00  0.00    -0.200 F 
ATOM     96  C   UNL A   1      50.725  26.067  31.492  1.00  0.00     0.200 A 
ATOM     97  F   UNL A   1      49.917  24.947  33.408  1.00  0.00    -0.200 F 
ATOM     98  F   UNL A   1      51.980  25.707  31.794  1.00  0.00    -0.200 F 
ENDBRANCH  65  88
ENDBRANCH  39  40
ENDBRANCH  31  34
ENDBRANCH  29  30
ENDBRANCH  28  29
ENDBRANCH  27  28
ENDBRANCH   1  27
TORSDOF 17
ENDMDL
