MODEL 1
REMARK VINA RESULT:     -11.1      0.000      0.000
REMARK SMILES CCOc1ccc(-c2nn(-c3ccccc3)cc2/C=C2/SC(=S)N(CC(=O)NCCCCCCNC(=O)c3ccc(-c4c5nc(c(-c6c(F)c(F)c(F)c(F)c6F)c6ccc([nH]6)c(-c6c(F)c(F)c(F)c(F)c6F)c6nc(c(-c7c(F)c(F)c(F)c(F)c7F)c7ccc4[nH]7)C=C6)C=C5)cc3)C2=O)cc1F
REMARK SMILES IDX 30 1 29 2 28 3 26 4 27 5 25 7 24 8 19 9 20 10 21 11 101 12
REMARK SMILES IDX 22 13 102 14 23 15 18 16 8 17 9 18 10 19 17 20 7 21 4 22
REMARK SMILES IDX 5 23 104 24 6 25 103 26 105 27 3 28 2 29 1 30 11 31 12 32
REMARK SMILES IDX 16 33 13 34 15 35 14 36 31 37 32 38 33 39 34 40 35 41 36 42
REMARK SMILES IDX 37 44 38 45 39 46 100 47 40 48 99 49 41 50 42 51 43 52 93 53
REMARK SMILES IDX 44 54 98 55 92 56 94 57 45 58 97 59 91 60 90 61 46 63 78 64
REMARK SMILES IDX 58 65 77 66 59 67 62 68 76 69 95 70 60 71 61 72 75 74 96 75
REMARK SMILES IDX 63 76 47 77 48 78 56 79 49 80 50 81 54 82 57 83 51 84 52 85
REMARK SMILES IDX 55 86 53 87 79 88 80 89 88 90 81 91 82 92 86 93 89 94 83 95
REMARK SMILES IDX 84 96 87 97 85 98 64 99 65 100 73 101 66 102 67 103 71 104
REMARK SMILES IDX 74 105 68 106 69 107 72 108 70 109
REMARK H PARENT 28 6 35 43 94 62 62 73
REMARK Flexibility Score: inf
ROOT
ATOM      1  C   UNL A   1      39.393  28.181  29.503  1.00  0.00     0.021 C 
ENDROOT
BRANCH   1   2
ATOM      2  C   UNL A   1      39.741  28.754  30.874  1.00  0.00     0.116 C 
BRANCH   2   3
ATOM      3  N   UNL A   1      38.811  28.331  31.897  1.00  0.00    -0.355 N 
ATOM      4  C   UNL A   1      38.104  29.074  32.796  1.00  0.00     0.240 C 
ATOM      5  O   UNL A   1      37.144  28.526  33.345  1.00  0.00    -0.273 OA
ATOM      6  H   UNL A   1      38.667  27.360  31.952  1.00  0.00     0.163 HD
BRANCH   4   7
ATOM      7  C   UNL A   1      38.376  30.574  32.999  1.00  0.00     0.227 C 
BRANCH   7   8
ATOM      8  N   UNL A   1      38.620  31.292  31.744  1.00  0.00    -0.283 N 
ATOM      9  C   UNL A   1      37.201  32.284  28.536  1.00  0.00     0.033 C 
ATOM     10  C   UNL A   1      37.976  32.068  29.610  1.00  0.00     0.081 C 
ATOM     11  S   UNL A   1      39.559  32.711  29.812  1.00  0.00    -0.054 SA
ATOM     12  C   UNL A   1      37.629  31.220  30.786  1.00  0.00     0.266 C 
ATOM     13  C   UNL A   1      39.792  31.901  31.361  1.00  0.00     0.148 C 
ATOM     14  O   UNL A   1      36.621  30.536  30.886  1.00  0.00    -0.268 OA
ATOM     15  S   UNL A   1      41.256  31.931  32.158  1.00  0.00    -0.052 S 
BRANCH   9  16
ATOM     16  C   UNL A   1      35.930  31.676  28.346  1.00  0.00     0.022 A 
ATOM     17  C   UNL A   1      34.643  32.219  28.585  1.00  0.00     0.100 A 
ATOM     18  N   UNL A   1      33.694  31.432  28.060  1.00  0.00    -0.167 NA
ATOM     19  N   UNL A   1      34.356  30.351  27.584  1.00  0.00    -0.240 N 
ATOM     20  C   UNL A   1      35.708  30.421  27.829  1.00  0.00     0.123 A 
BRANCH  17  21
ATOM     21  C   UNL A   1      34.285  33.418  29.329  1.00  0.00     0.006 A 
ATOM     22  C   UNL A   1      33.420  35.698  30.704  1.00  0.00     0.154 A 
ATOM     23  C   UNL A   1      34.223  34.758  31.354  1.00  0.00     0.050 A 
ATOM     24  C   UNL A   1      33.102  35.521  29.360  1.00  0.00     0.165 A 
ATOM     25  C   UNL A   1      34.652  33.614  30.667  1.00  0.00     0.014 A 
ATOM     26  C   UNL A   1      33.514  34.386  28.677  1.00  0.00     0.053 A 
ATOM     27  F   UNL A   1      32.404  36.448  28.689  1.00  0.00    -0.203 F 
BRANCH  22  28
ATOM     28  O   UNL A   1      33.069  36.836  31.376  1.00  0.00    -0.491 OA
BRANCH  28  29
ATOM     29  C   UNL A   1      32.521  36.571  32.675  1.00  0.00     0.226 C 
ATOM     30  C   UNL A   1      31.209  35.806  32.610  1.00  0.00     0.049 C 
ENDBRANCH  28  29
ENDBRANCH  22  28
ENDBRANCH  17  21
BRANCH  19  31
ATOM     31  C   UNL A   1      33.659  29.299  26.951  1.00  0.00     0.065 A 
ATOM     32  C   UNL A   1      32.390  28.939  27.421  1.00  0.00     0.028 A 
ATOM     33  C   UNL A   1      34.233  28.622  25.869  1.00  0.00     0.028 A 
ATOM     34  C   UNL A   1      31.683  27.916  26.786  1.00  0.00     0.002 A 
ATOM     35  C   UNL A   1      33.542  27.563  25.277  1.00  0.00     0.002 A 
ATOM     36  C   UNL A   1      32.266  27.220  25.727  1.00  0.00     0.000 A 
ENDBRANCH  19  31
ENDBRANCH   9  16
ENDBRANCH   7   8
ENDBRANCH   4   7
ENDBRANCH   2   3
ENDBRANCH   1   2
BRANCH   1  37
ATOM     37  C   UNL A   1      39.485  26.652  29.418  1.00  0.00     0.002 C 
BRANCH  37  38
ATOM     38  C   UNL A   1      39.568  26.061  28.001  1.00  0.00     0.002 C 
BRANCH  38  39
ATOM     39  C   UNL A   1      38.884  24.703  27.784  1.00  0.00     0.021 C 
BRANCH  39  40
ATOM     40  C   UNL A   1      38.995  24.171  26.363  1.00  0.00     0.116 C 
BRANCH  40  41
ATOM     41  N   UNL A   1      39.549  22.819  26.316  1.00  0.00    -0.352 N 
ATOM     42  C   UNL A   1      40.873  22.441  26.295  1.00  0.00     0.251 C 
ATOM     43  H   UNL A   1      38.893  22.086  26.298  1.00  0.00     0.163 HD
ATOM     44  O   UNL A   1      41.206  21.334  25.871  1.00  0.00    -0.269 OA
BRANCH  42  45
ATOM     45  C   UNL A   1      41.895  23.378  26.784  1.00  0.00     0.039 A 
ATOM     46  C   UNL A   1      42.456  24.337  25.939  1.00  0.00     0.014 A 
ATOM     47  C   UNL A   1      42.281  23.294  28.122  1.00  0.00     0.014 A 
ATOM     48  C   UNL A   1      43.343  25.266  26.472  1.00  0.00     0.010 A 
ATOM     49  C   UNL A   1      43.042  24.293  28.677  1.00  0.00     0.010 A 
ATOM     50  C   UNL A   1      43.611  25.256  27.852  1.00  0.00    -0.014 A 
BRANCH  50  51
ATOM     51  C   UNL A   1      44.369  26.344  28.462  1.00  0.00     0.031 A 
ATOM     52  C   UNL A   1      45.790  26.002  28.744  1.00  0.00     0.074 A 
ATOM     53  C   UNL A   1      43.905  27.607  28.574  1.00  0.00     0.049 A 
ATOM     54  N   UNL A   1      46.355  25.895  29.900  1.00  0.00    -0.248 NA
ATOM     55  C   UNL A   1      46.652  25.595  27.621  1.00  0.00     0.031 C 
ATOM     56  C   UNL A   1      42.641  28.150  28.060  1.00  0.00     0.029 A 
ATOM     57  N   UNL A   1      44.516  28.714  29.087  1.00  0.00    -0.354 N 
ATOM     58  C   UNL A   1      47.694  25.607  29.647  1.00  0.00     0.074 A 
ATOM     59  C   UNL A   1      47.777  25.256  28.254  1.00  0.00     0.031 C 
ATOM     60  C   UNL A   1      42.687  29.500  28.073  1.00  0.00     0.029 A 
ATOM     61  C   UNL A   1      43.898  29.915  28.753  1.00  0.00     0.049 A 
ATOM     62  H   UNL A   1      45.326  28.666  29.645  1.00  0.00     0.167 HD
ATOM     63  C   UNL A   1      48.654  25.955  30.546  1.00  0.00     0.037 A 
ATOM     64  C   UNL A   1      44.361  31.164  29.004  1.00  0.00     0.037 A 
ATOM     65  C   UNL A   1      48.067  26.256  31.827  1.00  0.00     0.049 A 
ATOM     66  C   UNL A   1      45.322  31.043  30.124  1.00  0.00     0.074 A 
ATOM     67  C   UNL A   1      47.373  25.551  32.787  1.00  0.00     0.029 A 
ATOM     68  N   UNL A   1      47.831  27.585  32.064  1.00  0.00    -0.354 N 
ATOM     69  N   UNL A   1      44.986  30.710  31.339  1.00  0.00    -0.248 NA
ATOM     70  C   UNL A   1      46.739  30.939  29.816  1.00  0.00     0.031 C 
ATOM     71  C   UNL A   1      46.449  26.483  33.349  1.00  0.00     0.029 A 
ATOM     72  C   UNL A   1      46.659  27.728  32.754  1.00  0.00     0.049 A 
ATOM     73  H   UNL A   1      48.416  28.324  31.781  1.00  0.00     0.167 HD
ATOM     74  C   UNL A   1      46.046  29.947  31.792  1.00  0.00     0.074 A 
ATOM     75  C   UNL A   1      47.150  30.263  30.891  1.00  0.00     0.031 C 
ATOM     76  C   UNL A   1      45.832  28.912  32.656  1.00  0.00     0.037 A 
BRANCH  63  77
ATOM     77  C   UNL A   1      50.026  26.479  30.172  1.00  0.00     0.064 A 
ATOM     78  C   UNL A   1      50.251  27.726  29.549  1.00  0.00     0.173 A 
ATOM     79  C   UNL A   1      51.168  25.877  30.743  1.00  0.00     0.173 A 
ATOM     80  F   UNL A   1      49.254  28.474  29.065  1.00  0.00    -0.203 F 
ATOM     81  C   UNL A   1      51.509  28.327  29.510  1.00  0.00     0.198 A 
ATOM     82  C   UNL A   1      52.415  26.509  30.749  1.00  0.00     0.198 A 
ATOM     83  F   UNL A   1      51.069  24.708  31.395  1.00  0.00    -0.203 F 
ATOM     84  F   UNL A   1      51.642  29.532  28.935  1.00  0.00    -0.200 F 
ATOM     85  C   UNL A   1      52.583  27.735  30.134  1.00  0.00     0.200 A 
ATOM     86  F   UNL A   1      53.437  25.959  31.419  1.00  0.00    -0.200 F 
ATOM     87  F   UNL A   1      53.762  28.370  30.189  1.00  0.00    -0.200 F 
ENDBRANCH  63  77
BRANCH  64  88
ATOM     88  C   UNL A   1      44.266  32.395  28.178  1.00  0.00     0.064 A 
ATOM     89  C   UNL A   1      43.599  33.545  28.640  1.00  0.00     0.173 A 
ATOM     90  C   UNL A   1      44.545  32.350  26.798  1.00  0.00     0.173 A 
ATOM     91  F   UNL A   1      43.242  33.665  29.927  1.00  0.00    -0.203 F 
ATOM     92  C   UNL A   1      43.183  34.556  27.770  1.00  0.00     0.198 A 
ATOM     93  C   UNL A   1      44.120  33.359  25.928  1.00  0.00     0.198 A 
ATOM     94  F   UNL A   1      45.153  31.279  26.268  1.00  0.00    -0.203 F 
ATOM     95  F   UNL A   1      42.477  35.592  28.248  1.00  0.00    -0.200 F 
ATOM     96  C   UNL A   1      43.422  34.451  26.412  1.00  0.00     0.200 A 
ATOM     97  F   UNL A   1      44.321  33.231  24.609  1.00  0.00    -0.200 F 
ATOM     98  F   UNL A   1      42.937  35.375  25.570  1.00  0.00    -0.200 F 
ENDBRANCH  64  88
BRANCH  76  99
ATOM     99  C   UNL A   1      44.544  28.904  33.429  1.00  0.00     0.064 A 
ATOM    100  C   UNL A   1      44.527  29.568  34.664  1.00  0.00     0.173 A 
ATOM    101  C   UNL A   1      43.397  28.176  33.071  1.00  0.00     0.173 A 
ATOM    102  F   UNL A   1      45.611  30.247  35.074  1.00  0.00    -0.203 F 
ATOM    103  C   UNL A   1      43.427  29.496  35.510  1.00  0.00     0.198 A 
ATOM    104  C   UNL A   1      42.279  28.139  33.904  1.00  0.00     0.198 A 
ATOM    105  F   UNL A   1      43.359  27.451  31.946  1.00  0.00    -0.203 F 
ATOM    106  F   UNL A   1      43.472  30.090  36.711  1.00  0.00    -0.200 F 
ATOM    107  C   UNL A   1      42.300  28.789  35.127  1.00  0.00     0.200 A 
ATOM    108  F   UNL A   1      41.191  27.445  33.538  1.00  0.00    -0.200 F 
ATOM    109  F   UNL A   1      41.245  28.713  35.949  1.00  0.00    -0.200 F 
ENDBRANCH  76  99
ENDBRANCH  50  51
ENDBRANCH  42  45
ENDBRANCH  40  41
ENDBRANCH  39  40
ENDBRANCH  38  39
ENDBRANCH  37  38
ENDBRANCH   1  37
TORSDOF 19
ENDMDL
MODEL 2
REMARK VINA RESULT:     -10.8      4.227      9.527
REMARK SMILES CCOc1ccc(-c2nn(-c3ccccc3)cc2/C=C2/SC(=S)N(CC(=O)NCCCCCCNC(=O)c3ccc(-c4c5nc(c(-c6c(F)c(F)c(F)c(F)c6F)c6ccc([nH]6)c(-c6c(F)c(F)c(F)c(F)c6F)c6nc(c(-c7c(F)c(F)c(F)c(F)c7F)c7ccc4[nH]7)C=C6)C=C5)cc3)C2=O)cc1F
REMARK SMILES IDX 30 1 29 2 28 3 26 4 27 5 25 7 24 8 19 9 20 10 21 11 101 12
REMARK SMILES IDX 22 13 102 14 23 15 18 16 8 17 9 18 10 19 17 20 7 21 4 22
REMARK SMILES IDX 5 23 104 24 6 25 103 26 105 27 3 28 2 29 1 30 11 31 12 32
REMARK SMILES IDX 16 33 13 34 15 35 14 36 31 37 32 38 33 39 34 40 35 41 36 42
REMARK SMILES IDX 37 44 38 45 39 46 100 47 40 48 99 49 41 50 42 51 43 52 93 53
REMARK SMILES IDX 44 54 98 55 92 56 94 57 45 58 97 59 91 60 90 61 46 63 78 64
REMARK SMILES IDX 58 65 77 66 59 67 62 68 76 69 95 70 60 71 61 72 75 74 96 75
REMARK SMILES IDX 63 76 47 77 48 78 56 79 49 80 50 81 54 82 57 83 51 84 52 85
REMARK SMILES IDX 55 86 53 87 79 88 80 89 88 90 81 91 82 92 86 93 89 94 83 95
REMARK SMILES IDX 84 96 87 97 85 98 64 99 65 100 73 101 66 102 67 103 71 104
REMARK SMILES IDX 74 105 68 106 69 107 72 108 70 109
REMARK H PARENT 28 6 35 43 94 62 62 73
REMARK Flexibility Score: inf
ROOT
ATOM      1  C   UNL A   1      36.670  21.385  24.471  1.00  0.00     0.021 C 
ENDROOT
BRANCH   1   2
ATOM      2  C   UNL A   1      36.789  22.449  23.384  1.00  0.00     0.116 C 
BRANCH   2   3
ATOM      3  N   UNL A   1      35.502  22.837  22.853  1.00  0.00    -0.355 N 
ATOM      4  C   UNL A   1      34.632  23.796  23.284  1.00  0.00     0.240 C 
ATOM      5  O   UNL A   1      33.760  24.158  22.490  1.00  0.00    -0.273 OA
ATOM      6  H   UNL A   1      35.209  22.333  22.061  1.00  0.00     0.163 HD
BRANCH   4   7
ATOM      7  C   UNL A   1      34.825  24.518  24.628  1.00  0.00     0.227 C 
BRANCH   7   8
ATOM      8  N   UNL A   1      33.563  24.816  25.311  1.00  0.00    -0.283 N 
ATOM      9  C   UNL A   1      31.419  27.457  26.625  1.00  0.00     0.033 C 
ATOM     10  C   UNL A   1      31.985  26.298  26.252  1.00  0.00     0.081 C 
ATOM     11  S   UNL A   1      31.250  24.753  26.442  1.00  0.00    -0.054 SA
ATOM     12  C   UNL A   1      33.339  26.136  25.650  1.00  0.00     0.266 C 
ATOM     13  C   UNL A   1      32.650  23.904  25.785  1.00  0.00     0.148 C 
ATOM     14  O   UNL A   1      34.152  27.035  25.497  1.00  0.00    -0.268 OA
ATOM     15  S   UNL A   1      32.749  22.240  25.786  1.00  0.00    -0.052 S 
BRANCH   9  16
ATOM     16  C   UNL A   1      32.074  28.716  26.540  1.00  0.00     0.022 A 
ATOM     17  C   UNL A   1      31.730  29.843  25.753  1.00  0.00     0.100 A 
ATOM     18  N   UNL A   1      32.442  30.914  26.125  1.00  0.00    -0.167 NA
ATOM     19  N   UNL A   1      33.302  30.456  27.065  1.00  0.00    -0.240 N 
ATOM     20  C   UNL A   1      33.172  29.102  27.273  1.00  0.00     0.123 A 
BRANCH  17  21
ATOM     21  C   UNL A   1      30.796  29.924  24.639  1.00  0.00     0.006 A 
ATOM     22  C   UNL A   1      29.038  30.261  22.486  1.00  0.00     0.154 A 
ATOM     23  C   UNL A   1      29.973  29.224  22.463  1.00  0.00     0.050 A 
ATOM     24  C   UNL A   1      28.950  31.085  23.606  1.00  0.00     0.165 A 
ATOM     25  C   UNL A   1      30.856  29.058  23.539  1.00  0.00     0.014 A 
ATOM     26  C   UNL A   1      29.829  30.933  24.669  1.00  0.00     0.053 A 
ATOM     27  F   UNL A   1      28.008  32.034  23.691  1.00  0.00    -0.203 F 
BRANCH  22  28
ATOM     28  O   UNL A   1      28.145  30.362  21.456  1.00  0.00    -0.491 OA
BRANCH  28  29
ATOM     29  C   UNL A   1      28.532  31.336  20.475  1.00  0.00     0.226 C 
ATOM     30  C   UNL A   1      27.680  32.594  20.535  1.00  0.00     0.049 C 
ENDBRANCH  28  29
ENDBRANCH  22  28
ENDBRANCH  17  21
BRANCH  19  31
ATOM     31  C   UNL A   1      34.220  31.328  27.691  1.00  0.00     0.065 A 
ATOM     32  C   UNL A   1      35.549  30.917  27.856  1.00  0.00     0.028 A 
ATOM     33  C   UNL A   1      33.806  32.586  28.143  1.00  0.00     0.028 A 
ATOM     34  C   UNL A   1      36.470  31.780  28.451  1.00  0.00     0.002 A 
ATOM     35  C   UNL A   1      34.721  33.419  28.788  1.00  0.00     0.002 A 
ATOM     36  C   UNL A   1      36.052  33.022  28.930  1.00  0.00     0.000 A 
ENDBRANCH  19  31
ENDBRANCH   9  16
ENDBRANCH   7   8
ENDBRANCH   4   7
ENDBRANCH   2   3
ENDBRANCH   1   2
BRANCH   1  37
ATOM     37  C   UNL A   1      37.843  21.360  25.459  1.00  0.00     0.002 C 
BRANCH  37  38
ATOM     38  C   UNL A   1      38.093  22.661  26.239  1.00  0.00     0.002 C 
BRANCH  38  39
ATOM     39  C   UNL A   1      39.554  22.979  26.590  1.00  0.00     0.021 C 
BRANCH  39  40
ATOM     40  C   UNL A   1      39.893  24.462  26.560  1.00  0.00     0.116 C 
BRANCH  40  41
ATOM     41  N   UNL A   1      41.083  24.746  25.761  1.00  0.00    -0.352 N 
ATOM     42  C   UNL A   1      41.846  25.891  25.747  1.00  0.00     0.251 C 
ATOM     43  H   UNL A   1      41.378  24.026  25.158  1.00  0.00     0.163 HD
ATOM     44  O   UNL A   1      42.564  26.159  24.783  1.00  0.00    -0.269 OA
BRANCH  42  45
ATOM     45  C   UNL A   1      41.795  26.802  26.899  1.00  0.00     0.039 A 
ATOM     46  C   UNL A   1      42.441  26.487  28.096  1.00  0.00     0.014 A 
ATOM     47  C   UNL A   1      41.094  28.000  26.763  1.00  0.00     0.014 A 
ATOM     48  C   UNL A   1      42.449  27.425  29.123  1.00  0.00     0.010 A 
ATOM     49  C   UNL A   1      41.222  28.979  27.718  1.00  0.00     0.010 A 
ATOM     50  C   UNL A   1      41.860  28.684  28.917  1.00  0.00    -0.014 A 
BRANCH  50  51
ATOM     51  C   UNL A   1      42.039  29.750  29.897  1.00  0.00     0.031 A 
ATOM     52  C   UNL A   1      40.769  30.214  30.520  1.00  0.00     0.074 A 
ATOM     53  C   UNL A   1      43.245  30.144  30.361  1.00  0.00     0.049 A 
ATOM     54  N   UNL A   1      40.215  31.374  30.397  1.00  0.00    -0.248 NA
ATOM     55  C   UNL A   1      39.945  29.236  31.249  1.00  0.00     0.031 C 
ATOM     56  C   UNL A   1      44.559  29.561  30.060  1.00  0.00     0.029 A 
ATOM     57  N   UNL A   1      43.548  31.093  31.292  1.00  0.00    -0.354 N 
ATOM     58  C   UNL A   1      39.077  31.341  31.198  1.00  0.00     0.074 A 
ATOM     59  C   UNL A   1      38.865  29.962  31.546  1.00  0.00     0.031 C 
ATOM     60  C   UNL A   1      45.468  30.000  30.957  1.00  0.00     0.029 A 
ATOM     61  C   UNL A   1      44.850  31.022  31.780  1.00  0.00     0.049 A 
ATOM     62  H   UNL A   1      42.901  31.771  31.595  1.00  0.00     0.167 HD
ATOM     63  C   UNL A   1      38.576  32.490  31.729  1.00  0.00     0.037 A 
ATOM     64  C   UNL A   1      45.376  31.741  32.801  1.00  0.00     0.037 A 
ATOM     65  C   UNL A   1      39.120  33.641  31.055  1.00  0.00     0.049 A 
ATOM     66  C   UNL A   1      44.533  32.949  32.947  1.00  0.00     0.074 A 
ATOM     67  C   UNL A   1      39.059  34.162  29.780  1.00  0.00     0.029 A 
ATOM     68  N   UNL A   1      40.201  34.221  31.667  1.00  0.00    -0.354 N 
ATOM     69  N   UNL A   1      44.459  33.898  32.056  1.00  0.00    -0.248 NA
ATOM     70  C   UNL A   1      43.470  32.940  33.941  1.00  0.00     0.031 C 
ATOM     71  C   UNL A   1      40.331  34.769  29.556  1.00  0.00     0.029 A 
ATOM     72  C   UNL A   1      41.091  34.649  30.721  1.00  0.00     0.049 A 
ATOM     73  H   UNL A   1      40.319  34.314  32.640  1.00  0.00     0.167 HD
ATOM     74  C   UNL A   1      43.140  34.311  32.102  1.00  0.00     0.074 A 
ATOM     75  C   UNL A   1      42.634  33.816  33.378  1.00  0.00     0.031 C 
ATOM     76  C   UNL A   1      42.513  34.745  30.971  1.00  0.00     0.037 A 
BRANCH  63  77
ATOM     77  C   UNL A   1      37.989  32.604  33.122  1.00  0.00     0.064 A 
ATOM     78  C   UNL A   1      38.719  32.364  34.307  1.00  0.00     0.173 A 
ATOM     79  C   UNL A   1      36.767  33.288  33.295  1.00  0.00     0.173 A 
ATOM     80  F   UNL A   1      39.945  31.831  34.297  1.00  0.00    -0.203 F 
ATOM     81  C   UNL A   1      38.270  32.781  35.560  1.00  0.00     0.198 A 
ATOM     82  C   UNL A   1      36.348  33.753  34.546  1.00  0.00     0.198 A 
ATOM     83  F   UNL A   1      36.007  33.607  32.236  1.00  0.00    -0.203 F 
ATOM     84  F   UNL A   1      39.033  32.552  36.639  1.00  0.00    -0.200 F 
ATOM     85  C   UNL A   1      37.102  33.500  35.677  1.00  0.00     0.200 A 
ATOM     86  F   UNL A   1      35.248  34.512  34.641  1.00  0.00    -0.200 F 
ATOM     87  F   UNL A   1      36.735  33.995  36.867  1.00  0.00    -0.200 F 
ENDBRANCH  63  77
BRANCH  64  88
ATOM     88  C   UNL A   1      46.358  31.336  33.839  1.00  0.00     0.064 A 
ATOM     89  C   UNL A   1      46.032  30.399  34.838  1.00  0.00     0.173 A 
ATOM     90  C   UNL A   1      47.519  32.100  34.058  1.00  0.00     0.173 A 
ATOM     91  F   UNL A   1      44.920  29.656  34.751  1.00  0.00    -0.203 F 
ATOM     92  C   UNL A   1      46.784  30.280  36.010  1.00  0.00     0.198 A 
ATOM     93  C   UNL A   1      48.265  31.985  35.236  1.00  0.00     0.198 A 
ATOM     94  F   UNL A   1      47.890  33.034  33.171  1.00  0.00    -0.203 F 
ATOM     95  F   UNL A   1      46.384  29.432  36.970  1.00  0.00    -0.200 F 
ATOM     96  C   UNL A   1      47.885  31.089  36.219  1.00  0.00     0.200 A 
ATOM     97  F   UNL A   1      49.309  32.800  35.447  1.00  0.00    -0.200 F 
ATOM     98  F   UNL A   1      48.546  31.039  37.385  1.00  0.00    -0.200 F 
ENDBRANCH  64  88
BRANCH  76  99
ATOM     99  C   UNL A   1      43.374  35.178  29.818  1.00  0.00     0.064 A 
ATOM    100  C   UNL A   1      43.775  36.521  29.781  1.00  0.00     0.173 A 
ATOM    101  C   UNL A   1      43.701  34.375  28.712  1.00  0.00     0.173 A 
ATOM    102  F   UNL A   1      43.457  37.344  30.793  1.00  0.00    -0.203 F 
ATOM    103  C   UNL A   1      44.454  37.045  28.687  1.00  0.00     0.198 A 
ATOM    104  C   UNL A   1      44.417  34.893  27.634  1.00  0.00     0.198 A 
ATOM    105  F   UNL A   1      43.289  33.103  28.633  1.00  0.00    -0.203 F 
ATOM    106  F   UNL A   1      44.765  38.348  28.657  1.00  0.00    -0.200 F 
ATOM    107  C   UNL A   1      44.782  36.229  27.616  1.00  0.00     0.200 A 
ATOM    108  F   UNL A   1      44.726  34.105  26.592  1.00  0.00    -0.200 F 
ATOM    109  F   UNL A   1      45.427  36.738  26.558  1.00  0.00    -0.200 F 
ENDBRANCH  76  99
ENDBRANCH  50  51
ENDBRANCH  42  45
ENDBRANCH  40  41
ENDBRANCH  39  40
ENDBRANCH  38  39
ENDBRANCH  37  38
ENDBRANCH   1  37
TORSDOF 19
ENDMDL
MODEL 3
REMARK VINA RESULT:     -10.6      4.629     11.137
REMARK SMILES CCOc1ccc(-c2nn(-c3ccccc3)cc2/C=C2/SC(=S)N(CC(=O)NCCCCCCNC(=O)c3ccc(-c4c5nc(c(-c6c(F)c(F)c(F)c(F)c6F)c6ccc([nH]6)c(-c6c(F)c(F)c(F)c(F)c6F)c6nc(c(-c7c(F)c(F)c(F)c(F)c7F)c7ccc4[nH]7)C=C6)C=C5)cc3)C2=O)cc1F
REMARK SMILES IDX 30 1 29 2 28 3 26 4 27 5 25 7 24 8 19 9 20 10 21 11 101 12
REMARK SMILES IDX 22 13 102 14 23 15 18 16 8 17 9 18 10 19 17 20 7 21 4 22
REMARK SMILES IDX 5 23 104 24 6 25 103 26 105 27 3 28 2 29 1 30 11 31 12 32
REMARK SMILES IDX 16 33 13 34 15 35 14 36 31 37 32 38 33 39 34 40 35 41 36 42
REMARK SMILES IDX 37 44 38 45 39 46 100 47 40 48 99 49 41 50 42 51 43 52 93 53
REMARK SMILES IDX 44 54 98 55 92 56 94 57 45 58 97 59 91 60 90 61 46 63 78 64
REMARK SMILES IDX 58 65 77 66 59 67 62 68 76 69 95 70 60 71 61 72 75 74 96 75
REMARK SMILES IDX 63 76 47 77 48 78 56 79 49 80 50 81 54 82 57 83 51 84 52 85
REMARK SMILES IDX 55 86 53 87 79 88 80 89 88 90 81 91 82 92 86 93 89 94 83 95
REMARK SMILES IDX 84 96 87 97 85 98 64 99 65 100 73 101 66 102 67 103 71 104
REMARK SMILES IDX 74 105 68 106 69 107 72 108 70 109
REMARK H PARENT 28 6 35 43 94 62 62 73
REMARK Flexibility Score: inf
ROOT
ATOM      1  C   UNL A   1      44.112  31.009  26.876  1.00  0.00     0.021 C 
ENDROOT
BRANCH   1   2
ATOM      2  C   UNL A   1      43.342  29.733  27.205  1.00  0.00     0.116 C 
BRANCH   2   3
ATOM      3  N   UNL A   1      43.976  28.554  26.662  1.00  0.00    -0.355 N 
ATOM      4  C   UNL A   1      43.478  27.602  25.821  1.00  0.00     0.240 C 
ATOM      5  O   UNL A   1      44.296  26.878  25.247  1.00  0.00    -0.273 OA
ATOM      6  H   UNL A   1      44.910  28.417  26.941  1.00  0.00     0.163 HD
BRANCH   4   7
ATOM      7  C   UNL A   1      41.983  27.537  25.468  1.00  0.00     0.227 C 
BRANCH   7   8
ATOM      8  N   UNL A   1      41.174  26.876  26.496  1.00  0.00    -0.283 N 
ATOM      9  C   UNL A   1      40.196  23.672  27.935  1.00  0.00     0.033 C 
ATOM     10  C   UNL A   1      40.361  24.966  27.620  1.00  0.00     0.081 C 
ATOM     11  S   UNL A   1      39.652  26.275  28.484  1.00  0.00    -0.054 SA
ATOM     12  C   UNL A   1      41.145  25.496  26.468  1.00  0.00     0.266 C 
ATOM     13  C   UNL A   1      40.321  27.483  27.387  1.00  0.00     0.148 C 
ATOM     14  O   UNL A   1      41.671  24.812  25.602  1.00  0.00    -0.268 OA
ATOM     15  S   UNL A   1      39.917  29.097  27.502  1.00  0.00    -0.052 S 
BRANCH   9  16
ATOM     16  C   UNL A   1      40.718  22.600  27.162  1.00  0.00     0.022 A 
ATOM     17  C   UNL A   1      40.090  21.866  26.126  1.00  0.00     0.100 A 
ATOM     18  N   UNL A   1      40.981  21.102  25.480  1.00  0.00    -0.167 NA
ATOM     19  N   UNL A   1      42.141  21.265  26.159  1.00  0.00    -0.240 N 
ATOM     20  C   UNL A   1      41.995  22.094  27.247  1.00  0.00     0.123 A 
BRANCH  17  21
ATOM     21  C   UNL A   1      38.680  21.826  25.764  1.00  0.00     0.006 A 
ATOM     22  C   UNL A   1      36.001  21.890  24.951  1.00  0.00     0.154 A 
ATOM     23  C   UNL A   1      36.684  20.673  24.998  1.00  0.00     0.050 A 
ATOM     24  C   UNL A   1      36.642  23.056  25.364  1.00  0.00     0.165 A 
ATOM     25  C   UNL A   1      38.027  20.641  25.400  1.00  0.00     0.014 A 
ATOM     26  C   UNL A   1      37.973  23.033  25.753  1.00  0.00     0.053 A 
ATOM     27  F   UNL A   1      35.986  24.223  25.410  1.00  0.00    -0.203 F 
BRANCH  22  28
ATOM     28  O   UNL A   1      34.676  21.885  24.618  1.00  0.00    -0.491 OA
BRANCH  28  29
ATOM     29  C   UNL A   1      34.030  20.638  24.912  1.00  0.00     0.226 C 
ATOM     30  C   UNL A   1      32.912  20.316  23.933  1.00  0.00     0.049 C 
ENDBRANCH  28  29
ENDBRANCH  22  28
ENDBRANCH  17  21
BRANCH  19  31
ATOM     31  C   UNL A   1      43.317  20.598  25.750  1.00  0.00     0.065 A 
ATOM     32  C   UNL A   1      43.349  19.198  25.766  1.00  0.00     0.028 A 
ATOM     33  C   UNL A   1      44.437  21.329  25.337  1.00  0.00     0.028 A 
ATOM     34  C   UNL A   1      44.498  18.529  25.341  1.00  0.00     0.002 A 
ATOM     35  C   UNL A   1      45.601  20.651  24.969  1.00  0.00     0.002 A 
ATOM     36  C   UNL A   1      45.626  19.256  24.958  1.00  0.00     0.000 A 
ENDBRANCH  19  31
ENDBRANCH   9  16
ENDBRANCH   7   8
ENDBRANCH   4   7
ENDBRANCH   2   3
ENDBRANCH   1   2
BRANCH   1  37
ATOM     37  C   UNL A   1      44.254  31.981  28.053  1.00  0.00     0.002 C 
BRANCH  37  38
ATOM     38  C   UNL A   1      44.038  33.468  27.728  1.00  0.00     0.002 C 
BRANCH  38  39
ATOM     39  C   UNL A   1      45.264  34.245  27.227  1.00  0.00     0.021 C 
BRANCH  39  40
ATOM     40  C   UNL A   1      45.111  35.757  27.288  1.00  0.00     0.116 C 
BRANCH  40  41
ATOM     41  N   UNL A   1      46.152  36.391  28.094  1.00  0.00    -0.352 N 
ATOM     42  C   UNL A   1      46.108  36.736  29.426  1.00  0.00     0.251 C 
ATOM     43  H   UNL A   1      46.993  36.596  27.624  1.00  0.00     0.163 HD
ATOM     44  O   UNL A   1      46.868  37.592  29.881  1.00  0.00    -0.269 OA
BRANCH  42  45
ATOM     45  C   UNL A   1      45.137  36.072  30.307  1.00  0.00     0.039 A 
ATOM     46  C   UNL A   1      43.828  36.546  30.423  1.00  0.00     0.014 A 
ATOM     47  C   UNL A   1      45.551  34.944  31.015  1.00  0.00     0.014 A 
ATOM     48  C   UNL A   1      42.918  35.826  31.190  1.00  0.00     0.010 A 
ATOM     49  C   UNL A   1      44.623  34.159  31.653  1.00  0.00     0.010 A 
ATOM     50  C   UNL A   1      43.316  34.614  31.781  1.00  0.00    -0.014 A 
BRANCH  50  51
ATOM     51  C   UNL A   1      42.327  33.743  32.410  1.00  0.00     0.031 A 
ATOM     52  C   UNL A   1      42.102  34.032  33.852  1.00  0.00     0.074 A 
ATOM     53  C   UNL A   1      41.534  32.894  31.721  1.00  0.00     0.049 A 
ATOM     54  N   UNL A   1      42.383  33.271  34.856  1.00  0.00    -0.248 NA
ATOM     55  C   UNL A   1      41.642  35.378  34.236  1.00  0.00     0.031 C 
ATOM     56  C   UNL A   1      41.439  32.733  30.265  1.00  0.00     0.029 A 
ATOM     57  N   UNL A   1      40.557  32.059  32.176  1.00  0.00    -0.354 N 
ATOM     58  C   UNL A   1      41.947  33.955  35.989  1.00  0.00     0.074 A 
ATOM     59  C   UNL A   1      41.673  35.303  35.569  1.00  0.00     0.031 C 
ATOM     60  C   UNL A   1      40.317  32.048  29.955  1.00  0.00     0.029 A 
ATOM     61  C   UNL A   1      39.712  31.572  31.183  1.00  0.00     0.049 A 
ATOM     62  H   UNL A   1      40.457  31.820  33.126  1.00  0.00     0.167 HD
ATOM     63  C   UNL A   1      41.588  33.271  37.109  1.00  0.00     0.037 A 
ATOM     64  C   UNL A   1      38.583  30.843  31.362  1.00  0.00     0.037 A 
ATOM     65  C   UNL A   1      42.076  31.916  37.057  1.00  0.00     0.049 A 
ATOM     66  C   UNL A   1      38.691  30.215  32.698  1.00  0.00     0.074 A 
ATOM     67  C   UNL A   1      43.315  31.312  37.044  1.00  0.00     0.029 A 
ATOM     68  N   UNL A   1      41.178  30.987  36.602  1.00  0.00    -0.354 N 
ATOM     69  N   UNL A   1      39.567  29.299  33.004  1.00  0.00    -0.248 NA
ATOM     70  C   UNL A   1      38.049  30.870  33.828  1.00  0.00     0.031 C 
ATOM     71  C   UNL A   1      43.161  30.148  36.232  1.00  0.00     0.029 A 
ATOM     72  C   UNL A   1      41.825  30.057  35.836  1.00  0.00     0.049 A 
ATOM     73  H   UNL A   1      40.213  30.989  36.798  1.00  0.00     0.167 HD
ATOM     74  C   UNL A   1      39.907  29.574  34.317  1.00  0.00     0.074 A 
ATOM     75  C   UNL A   1      38.833  30.427  34.814  1.00  0.00     0.031 C 
ATOM     76  C   UNL A   1      41.173  29.334  34.766  1.00  0.00     0.037 A 
BRANCH  63  77
ATOM     77  C   UNL A   1      40.426  33.650  38.005  1.00  0.00     0.064 A 
ATOM     78  C   UNL A   1      39.070  33.553  37.623  1.00  0.00     0.173 A 
ATOM     79  C   UNL A   1      40.651  33.798  39.391  1.00  0.00     0.173 A 
ATOM     80  F   UNL A   1      38.698  33.294  36.364  1.00  0.00    -0.203 F 
ATOM     81  C   UNL A   1      38.026  33.590  38.547  1.00  0.00     0.198 A 
ATOM     82  C   UNL A   1      39.605  33.780  40.319  1.00  0.00     0.198 A 
ATOM     83  F   UNL A   1      41.901  33.861  39.876  1.00  0.00    -0.203 F 
ATOM     84  F   UNL A   1      36.763  33.454  38.117  1.00  0.00    -0.200 F 
ATOM     85  C   UNL A   1      38.293  33.674  39.895  1.00  0.00     0.200 A 
ATOM     86  F   UNL A   1      39.877  33.790  41.631  1.00  0.00    -0.200 F 
ATOM     87  F   UNL A   1      37.293  33.596  40.784  1.00  0.00    -0.200 F 
ENDBRANCH  63  77
BRANCH  64  88
ATOM     88  C   UNL A   1      37.304  30.876  30.608  1.00  0.00     0.064 A 
ATOM     89  C   UNL A   1      36.911  29.814  29.772  1.00  0.00     0.173 A 
ATOM     90  C   UNL A   1      36.604  32.087  30.445  1.00  0.00     0.173 A 
ATOM     91  F   UNL A   1      37.546  28.634  29.812  1.00  0.00    -0.203 F 
ATOM     92  C   UNL A   1      35.927  29.971  28.793  1.00  0.00     0.198 A 
ATOM     93  C   UNL A   1      35.625  32.245  29.460  1.00  0.00     0.198 A 
ATOM     94  F   UNL A   1      36.930  33.159  31.182  1.00  0.00    -0.203 F 
ATOM     95  F   UNL A   1      35.648  28.953  27.965  1.00  0.00    -0.200 F 
ATOM     96  C   UNL A   1      35.301  31.192  28.621  1.00  0.00     0.200 A 
ATOM     97  F   UNL A   1      35.051  33.442  29.274  1.00  0.00    -0.200 F 
ATOM     98  F   UNL A   1      34.428  31.366  27.619  1.00  0.00    -0.200 F 
ENDBRANCH  64  88
BRANCH  76  99
ATOM     99  C   UNL A   1      42.026  28.384  33.974  1.00  0.00     0.064 A 
ATOM    100  C   UNL A   1      42.161  27.077  34.461  1.00  0.00     0.173 A 
ATOM    101  C   UNL A   1      42.800  28.740  32.856  1.00  0.00     0.173 A 
ATOM    102  F   UNL A   1      41.475  26.693  35.550  1.00  0.00    -0.203 F 
ATOM    103  C   UNL A   1      43.037  26.171  33.875  1.00  0.00     0.198 A 
ATOM    104  C   UNL A   1      43.648  27.818  32.245  1.00  0.00     0.198 A 
ATOM    105  F   UNL A   1      42.789  29.990  32.375  1.00  0.00    -0.203 F 
ATOM    106  F   UNL A   1      43.188  24.950  34.407  1.00  0.00    -0.200 F 
ATOM    107  C   UNL A   1      43.775  26.538  32.761  1.00  0.00     0.200 A 
ATOM    108  F   UNL A   1      44.371  28.176  31.173  1.00  0.00    -0.200 F 
ATOM    109  F   UNL A   1      44.627  25.667  32.204  1.00  0.00    -0.200 F 
ENDBRANCH  76  99
ENDBRANCH  50  51
ENDBRANCH  42  45
ENDBRANCH  40  41
ENDBRANCH  39  40
ENDBRANCH  38  39
ENDBRANCH  37  38
ENDBRANCH   1  37
TORSDOF 19
ENDMDL
