MODEL 1
REMARK VINA RESULT:     -12.4      0.000      0.000
REMARK SMILES CC[C@@H](C)c1ccccc1NC(=O)[C@@H]1[C@@H](C(=O)NCCCCCCNC(=O)c2ccc(-c3c4nc(c(-c5c(F)c(F)c(F)c(F)c5F)c5ccc([nH]5)c(-c5c(F)c(F)c(F)c(F)c5F)c5nc(c(-c6c(F)c(F)c(F)c(F)c6F)c6ccc3[nH]6)C=C5)C=C4)cc2)[C@@H]2C=C[C@H]1C2
REMARK SMILES IDX 20 1 19 2 18 3 16 4 17 5 15 7 14 8 94 9 91 10 93 11 95 12
REMARK SMILES IDX 92 13 12 14 11 15 13 17 10 18 5 19 6 20 7 21 9 22 8 23 3 24
REMARK SMILES IDX 4 25 2 26 1 27 21 28 22 29 23 30 24 31 25 32 26 33 27 35
REMARK SMILES IDX 28 36 29 37 90 38 30 39 89 40 31 41 32 42 33 43 83 44 34 45
REMARK SMILES IDX 88 46 82 47 84 48 35 49 87 50 81 51 80 52 36 54 68 55 48 56
REMARK SMILES IDX 67 57 49 58 52 59 66 60 85 61 50 62 51 63 65 65 86 66 53 67
REMARK SMILES IDX 37 68 38 69 46 70 39 71 40 72 44 73 47 74 41 75 42 76 45 77
REMARK SMILES IDX 43 78 69 79 70 80 78 81 71 82 72 83 76 84 79 85 73 86 74 87
REMARK SMILES IDX 77 88 75 89 54 90 55 91 63 92 56 93 57 94 61 95 64 96 58 97
REMARK SMILES IDX 59 98 62 99 60 100
REMARK H PARENT 18 6 11 16 25 34 84 53 52 64
REMARK Flexibility Score: inf
ROOT
ATOM      1  C   UNL A   1      37.424  23.314  25.759  1.00  0.00     0.021 C 
ENDROOT
BRANCH   1   2
ATOM      2  C   UNL A   1      36.125  24.086  26.010  1.00  0.00     0.116 C 
BRANCH   2   3
ATOM      3  N   UNL A   1      35.193  23.288  26.780  1.00  0.00    -0.356 N 
ATOM      4  C   UNL A   1      34.035  22.688  26.403  1.00  0.00     0.224 C 
ATOM      5  O   UNL A   1      33.326  22.220  27.295  1.00  0.00    -0.275 OA
ATOM      6  H   UNL A   1      35.438  23.161  27.726  1.00  0.00     0.163 HD
BRANCH   4   7
ATOM      7  C   UNL A   1      33.711  22.540  24.922  1.00  0.00     0.098 C 
ATOM      8  C   UNL A   1      32.956  23.800  24.355  1.00  0.00     0.099 C 
ATOM      9  C   UNL A   1      31.609  23.189  23.885  1.00  0.00     0.025 C 
ATOM     10  C   UNL A   1      32.648  21.418  24.763  1.00  0.00     0.025 C 
ATOM     11  C   UNL A   1      31.854  22.210  22.760  1.00  0.00    -0.027 C 
ATOM     12  C   UNL A   1      31.341  22.182  25.006  1.00  0.00     0.017 C 
ATOM     13  C   UNL A   1      32.476  21.144  23.287  1.00  0.00    -0.027 C 
BRANCH   8  14
ATOM     14  C   UNL A   1      33.699  24.549  23.262  1.00  0.00     0.228 C 
ATOM     15  N   UNL A   1      33.268  25.755  22.777  1.00  0.00    -0.326 N 
ATOM     16  H   UNL A   1      33.800  26.069  22.010  1.00  0.00     0.169 HD
ATOM     17  O   UNL A   1      34.724  24.081  22.753  1.00  0.00    -0.274 OA
BRANCH  15  18
ATOM     18  C   UNL A   1      32.231  26.651  23.128  1.00  0.00     0.044 A 
ATOM     19  C   UNL A   1      32.407  27.524  24.234  1.00  0.00    -0.022 A 
ATOM     20  C   UNL A   1      31.501  28.605  24.358  1.00  0.00     0.006 A 
ATOM     21  C   UNL A   1      30.396  28.748  23.523  1.00  0.00     0.000 A 
ATOM     22  C   UNL A   1      31.029  26.724  22.413  1.00  0.00     0.026 A 
ATOM     23  C   UNL A   1      30.128  27.770  22.587  1.00  0.00     0.002 A 
BRANCH  19  24
ATOM     24  C   UNL A   1      33.508  27.316  25.297  1.00  0.00     0.018 C 
ATOM     25  C   UNL A   1      32.970  26.458  26.459  1.00  0.00     0.013 C 
BRANCH  24  26
ATOM     26  C   UNL A   1      34.089  28.639  25.876  1.00  0.00     0.005 C 
ATOM     27  C   UNL A   1      33.700  28.956  27.314  1.00  0.00     0.004 C 
ENDBRANCH  24  26
ENDBRANCH  19  24
ENDBRANCH  15  18
ENDBRANCH   8  14
ENDBRANCH   4   7
ENDBRANCH   2   3
ENDBRANCH   1   2
BRANCH   1  28
ATOM     28  C   UNL A   1      37.355  22.300  24.607  1.00  0.00     0.002 C 
BRANCH  28  29
ATOM     29  C   UNL A   1      36.963  20.873  25.005  1.00  0.00     0.002 C 
BRANCH  29  30
ATOM     30  C   UNL A   1      38.095  19.849  24.940  1.00  0.00     0.021 C 
BRANCH  30  31
ATOM     31  C   UNL A   1      39.334  20.215  25.751  1.00  0.00     0.116 C 
BRANCH  31  32
ATOM     32  N   UNL A   1      40.262  19.102  25.886  1.00  0.00    -0.352 N 
ATOM     33  C   UNL A   1      41.618  19.115  26.120  1.00  0.00     0.251 C 
ATOM     34  H   UNL A   1      39.861  18.208  25.796  1.00  0.00     0.163 HD
ATOM     35  O   UNL A   1      42.272  18.086  26.043  1.00  0.00    -0.269 OA
BRANCH  33  36
ATOM     36  C   UNL A   1      42.291  20.395  26.435  1.00  0.00     0.039 A 
ATOM     37  C   UNL A   1      42.865  21.130  25.394  1.00  0.00     0.014 A 
ATOM     38  C   UNL A   1      42.331  20.878  27.745  1.00  0.00     0.014 A 
ATOM     39  C   UNL A   1      43.399  22.393  25.654  1.00  0.00     0.010 A 
ATOM     40  C   UNL A   1      42.797  22.165  27.990  1.00  0.00     0.010 A 
ATOM     41  C   UNL A   1      43.322  22.941  26.944  1.00  0.00    -0.014 A 
BRANCH  41  42
ATOM     42  C   UNL A   1      43.743  24.338  27.220  1.00  0.00     0.031 A 
ATOM     43  C   UNL A   1      42.741  25.356  27.682  1.00  0.00     0.074 A 
ATOM     44  C   UNL A   1      45.011  24.710  26.965  1.00  0.00     0.049 A 
ATOM     45  N   UNL A   1      42.895  26.641  27.881  1.00  0.00    -0.248 NA
ATOM     46  C   UNL A   1      41.376  24.867  27.929  1.00  0.00     0.031 C 
ATOM     47  C   UNL A   1      46.071  23.823  26.485  1.00  0.00     0.029 A 
ATOM     48  N   UNL A   1      45.624  25.936  27.062  1.00  0.00    -0.354 N 
ATOM     49  C   UNL A   1      41.648  27.114  28.264  1.00  0.00     0.074 A 
ATOM     50  C   UNL A   1      40.736  25.991  28.216  1.00  0.00     0.031 C 
ATOM     51  C   UNL A   1      47.208  24.524  26.356  1.00  0.00     0.029 A 
ATOM     52  C   UNL A   1      46.946  25.920  26.695  1.00  0.00     0.049 A 
ATOM     53  H   UNL A   1      45.157  26.747  27.366  1.00  0.00     0.167 HD
ATOM     54  C   UNL A   1      41.300  28.369  28.640  1.00  0.00     0.037 A 
ATOM     55  C   UNL A   1      47.844  26.921  26.625  1.00  0.00     0.037 A 
ATOM     56  C   UNL A   1      42.214  29.481  28.691  1.00  0.00     0.049 A 
ATOM     57  C   UNL A   1      47.417  28.319  26.980  1.00  0.00     0.074 A 
ATOM     58  C   UNL A   1      41.978  30.773  29.127  1.00  0.00     0.029 A 
ATOM     59  N   UNL A   1      43.537  29.435  28.276  1.00  0.00    -0.354 N 
ATOM     60  N   UNL A   1      46.256  28.743  27.416  1.00  0.00    -0.248 NA
ATOM     61  C   UNL A   1      48.424  29.377  26.824  1.00  0.00     0.031 C 
ATOM     62  C   UNL A   1      43.139  31.525  28.914  1.00  0.00     0.029 A 
ATOM     63  C   UNL A   1      44.116  30.690  28.398  1.00  0.00     0.049 A 
ATOM     64  H   UNL A   1      43.996  28.631  27.942  1.00  0.00     0.167 HD
ATOM     65  C   UNL A   1      46.395  30.112  27.604  1.00  0.00     0.074 A 
ATOM     66  C   UNL A   1      47.760  30.444  27.250  1.00  0.00     0.031 C 
ATOM     67  C   UNL A   1      45.474  31.010  28.033  1.00  0.00     0.037 A 
BRANCH  54  68
ATOM     68  C   UNL A   1      39.861  28.602  29.007  1.00  0.00     0.064 A 
ATOM     69  C   UNL A   1      38.926  29.073  28.071  1.00  0.00     0.173 A 
ATOM     70  C   UNL A   1      39.410  28.353  30.312  1.00  0.00     0.173 A 
ATOM     71  F   UNL A   1      39.305  29.333  26.811  1.00  0.00    -0.203 F 
ATOM     72  C   UNL A   1      37.609  29.333  28.441  1.00  0.00     0.198 A 
ATOM     73  C   UNL A   1      38.083  28.580  30.669  1.00  0.00     0.198 A 
ATOM     74  F   UNL A   1      40.256  27.892  31.245  1.00  0.00    -0.203 F 
ATOM     75  F   UNL A   1      36.754  29.849  27.546  1.00  0.00    -0.200 F 
ATOM     76  C   UNL A   1      37.188  29.083  29.738  1.00  0.00     0.200 A 
ATOM     77  F   UNL A   1      37.673  28.325  31.919  1.00  0.00    -0.200 F 
ATOM     78  F   UNL A   1      35.922  29.340  30.093  1.00  0.00    -0.200 F 
ENDBRANCH  54  68
BRANCH  55  79
ATOM     79  C   UNL A   1      49.244  26.629  26.224  1.00  0.00     0.064 A 
ATOM     80  C   UNL A   1      49.656  26.808  24.896  1.00  0.00     0.173 A 
ATOM     81  C   UNL A   1      50.201  26.190  27.151  1.00  0.00     0.173 A 
ATOM     82  F   UNL A   1      48.770  27.205  23.970  1.00  0.00    -0.203 F 
ATOM     83  C   UNL A   1      50.970  26.557  24.509  1.00  0.00     0.198 A 
ATOM     84  C   UNL A   1      51.521  25.963  26.768  1.00  0.00     0.198 A 
ATOM     85  F   UNL A   1      49.858  26.005  28.434  1.00  0.00    -0.203 F 
ATOM     86  F   UNL A   1      51.329  26.707  23.227  1.00  0.00    -0.200 F 
ATOM     87  C   UNL A   1      51.903  26.143  25.447  1.00  0.00     0.200 A 
ATOM     88  F   UNL A   1      52.424  25.578  27.680  1.00  0.00    -0.200 F 
ATOM     89  F   UNL A   1      53.171  25.913  25.077  1.00  0.00    -0.200 F 
ENDBRANCH  55  79
BRANCH  67  90
ATOM     90  C   UNL A   1      45.910  32.442  28.151  1.00  0.00     0.064 A 
ATOM     91  C   UNL A   1      46.556  32.919  29.301  1.00  0.00     0.173 A 
ATOM     92  C   UNL A   1      45.731  33.333  27.083  1.00  0.00     0.173 A 
ATOM     93  F   UNL A   1      46.735  32.111  30.358  1.00  0.00    -0.203 F 
ATOM     94  C   UNL A   1      46.994  34.238  29.382  1.00  0.00     0.198 A 
ATOM     95  C   UNL A   1      46.196  34.643  27.154  1.00  0.00     0.198 A 
ATOM     96  F   UNL A   1      45.121  32.927  25.959  1.00  0.00    -0.203 F 
ATOM     97  F   UNL A   1      47.573  34.682  30.506  1.00  0.00    -0.200 F 
ATOM     98  C   UNL A   1      46.823  35.096  28.306  1.00  0.00     0.200 A 
ATOM     99  F   UNL A   1      46.042  35.467  26.108  1.00  0.00    -0.200 F 
ATOM    100  F   UNL A   1      47.258  36.361  28.380  1.00  0.00    -0.200 F 
ENDBRANCH  67  90
ENDBRANCH  41  42
ENDBRANCH  33  36
ENDBRANCH  31  32
ENDBRANCH  30  31
ENDBRANCH  29  30
ENDBRANCH  28  29
ENDBRANCH   1  28
TORSDOF 17
ENDMDL
MODEL 2
REMARK VINA RESULT:     -12.3      0.523      2.119
REMARK SMILES CC[C@@H](C)c1ccccc1NC(=O)[C@@H]1[C@@H](C(=O)NCCCCCCNC(=O)c2ccc(-c3c4nc(c(-c5c(F)c(F)c(F)c(F)c5F)c5ccc([nH]5)c(-c5c(F)c(F)c(F)c(F)c5F)c5nc(c(-c6c(F)c(F)c(F)c(F)c6F)c6ccc3[nH]6)C=C5)C=C4)cc2)[C@@H]2C=C[C@H]1C2
REMARK SMILES IDX 20 1 19 2 18 3 16 4 17 5 15 7 14 8 94 9 91 10 93 11 95 12
REMARK SMILES IDX 92 13 12 14 11 15 13 17 10 18 5 19 6 20 7 21 9 22 8 23 3 24
REMARK SMILES IDX 4 25 2 26 1 27 21 28 22 29 23 30 24 31 25 32 26 33 27 35
REMARK SMILES IDX 28 36 29 37 90 38 30 39 89 40 31 41 32 42 33 43 83 44 34 45
REMARK SMILES IDX 88 46 82 47 84 48 35 49 87 50 81 51 80 52 36 54 68 55 48 56
REMARK SMILES IDX 67 57 49 58 52 59 66 60 85 61 50 62 51 63 65 65 86 66 53 67
REMARK SMILES IDX 37 68 38 69 46 70 39 71 40 72 44 73 47 74 41 75 42 76 45 77
REMARK SMILES IDX 43 78 69 79 70 80 78 81 71 82 72 83 76 84 79 85 73 86 74 87
REMARK SMILES IDX 77 88 75 89 54 90 55 91 63 92 56 93 57 94 61 95 64 96 58 97
REMARK SMILES IDX 59 98 62 99 60 100
REMARK H PARENT 18 6 11 16 25 34 84 53 52 64
REMARK Flexibility Score: inf
ROOT
ATOM      1  C   UNL A   1      37.413  23.355  25.484  1.00  0.00     0.021 C 
ENDROOT
BRANCH   1   2
ATOM      2  C   UNL A   1      36.205  24.095  26.065  1.00  0.00     0.116 C 
BRANCH   2   3
ATOM      3  N   UNL A   1      35.370  23.193  26.832  1.00  0.00    -0.356 N 
ATOM      4  C   UNL A   1      34.106  22.755  26.593  1.00  0.00     0.224 C 
ATOM      5  O   UNL A   1      33.545  22.136  27.498  1.00  0.00    -0.275 OA
ATOM      6  H   UNL A   1      35.782  22.843  27.655  1.00  0.00     0.163 HD
BRANCH   4   7
ATOM      7  C   UNL A   1      33.484  22.962  25.219  1.00  0.00     0.098 C 
ATOM      8  C   UNL A   1      32.855  24.398  25.067  1.00  0.00     0.099 C 
ATOM      9  C   UNL A   1      31.360  24.073  24.805  1.00  0.00     0.025 C 
ATOM     10  C   UNL A   1      32.240  22.041  25.100  1.00  0.00     0.025 C 
ATOM     11  C   UNL A   1      31.218  23.328  23.497  1.00  0.00    -0.027 C 
ATOM     12  C   UNL A   1      31.149  22.895  25.759  1.00  0.00     0.017 C 
ATOM     13  C   UNL A   1      31.744  22.106  23.674  1.00  0.00    -0.027 C 
BRANCH   8  14
ATOM     14  C   UNL A   1      33.489  25.260  23.988  1.00  0.00     0.228 C 
ATOM     15  N   UNL A   1      33.510  26.627  24.062  1.00  0.00    -0.326 N 
ATOM     16  H   UNL A   1      33.871  27.047  23.247  1.00  0.00     0.169 HD
ATOM     17  O   UNL A   1      33.999  24.751  22.984  1.00  0.00    -0.274 OA
BRANCH  15  18
ATOM     18  C   UNL A   1      33.131  27.573  25.044  1.00  0.00     0.044 A 
ATOM     19  C   UNL A   1      31.884  28.240  24.927  1.00  0.00    -0.022 A 
ATOM     20  C   UNL A   1      31.404  28.925  26.069  1.00  0.00     0.006 A 
ATOM     21  C   UNL A   1      32.167  29.067  27.225  1.00  0.00     0.000 A 
ATOM     22  C   UNL A   1      33.939  27.869  26.149  1.00  0.00     0.026 A 
ATOM     23  C   UNL A   1      33.461  28.589  27.241  1.00  0.00     0.002 A 
BRANCH  19  24
ATOM     24  C   UNL A   1      31.071  28.269  23.614  1.00  0.00     0.018 C 
ATOM     25  C   UNL A   1      30.255  29.574  23.522  1.00  0.00     0.013 C 
BRANCH  24  26
ATOM     26  C   UNL A   1      30.107  27.060  23.439  1.00  0.00     0.005 C 
ATOM     27  C   UNL A   1      28.620  27.387  23.502  1.00  0.00     0.004 C 
ENDBRANCH  24  26
ENDBRANCH  19  24
ENDBRANCH  15  18
ENDBRANCH   8  14
ENDBRANCH   4   7
ENDBRANCH   2   3
ENDBRANCH   1   2
BRANCH   1  28
ATOM     28  C   UNL A   1      37.066  22.271  24.452  1.00  0.00     0.002 C 
BRANCH  28  29
ATOM     29  C   UNL A   1      36.916  20.852  25.009  1.00  0.00     0.002 C 
BRANCH  29  30
ATOM     30  C   UNL A   1      38.140  19.954  24.832  1.00  0.00     0.021 C 
BRANCH  30  31
ATOM     31  C   UNL A   1      39.310  20.281  25.755  1.00  0.00     0.116 C 
BRANCH  31  32
ATOM     32  N   UNL A   1      40.241  19.170  25.891  1.00  0.00    -0.352 N 
ATOM     33  C   UNL A   1      41.597  19.187  26.121  1.00  0.00     0.251 C 
ATOM     34  H   UNL A   1      39.840  18.275  25.806  1.00  0.00     0.163 HD
ATOM     35  O   UNL A   1      42.253  18.159  26.046  1.00  0.00    -0.269 OA
BRANCH  33  36
ATOM     36  C   UNL A   1      42.268  20.469  26.428  1.00  0.00     0.039 A 
ATOM     37  C   UNL A   1      42.800  21.222  25.378  1.00  0.00     0.014 A 
ATOM     38  C   UNL A   1      42.349  20.936  27.742  1.00  0.00     0.014 A 
ATOM     39  C   UNL A   1      43.331  22.487  25.635  1.00  0.00     0.010 A 
ATOM     40  C   UNL A   1      42.811  22.225  27.987  1.00  0.00     0.010 A 
ATOM     41  C   UNL A   1      43.293  23.019  26.934  1.00  0.00    -0.014 A 
BRANCH  41  42
ATOM     42  C   UNL A   1      43.710  24.416  27.212  1.00  0.00     0.031 A 
ATOM     43  C   UNL A   1      42.709  25.426  27.692  1.00  0.00     0.074 A 
ATOM     44  C   UNL A   1      44.974  24.796  26.945  1.00  0.00     0.049 A 
ATOM     45  N   UNL A   1      42.858  26.711  27.896  1.00  0.00    -0.248 NA
ATOM     46  C   UNL A   1      41.350  24.929  27.952  1.00  0.00     0.031 C 
ATOM     47  C   UNL A   1      46.032  23.917  26.447  1.00  0.00     0.029 A 
ATOM     48  N   UNL A   1      45.581  26.024  27.041  1.00  0.00    -0.354 N 
ATOM     49  C   UNL A   1      41.614  27.176  28.297  1.00  0.00     0.074 A 
ATOM     50  C   UNL A   1      40.708  26.048  28.252  1.00  0.00     0.031 C 
ATOM     51  C   UNL A   1      47.164  24.624  26.309  1.00  0.00     0.029 A 
ATOM     52  C   UNL A   1      46.899  26.017  26.658  1.00  0.00     0.049 A 
ATOM     53  H   UNL A   1      45.114  26.832  27.355  1.00  0.00     0.167 HD
ATOM     54  C   UNL A   1      41.264  28.427  28.684  1.00  0.00     0.037 A 
ATOM     55  C   UNL A   1      47.791  27.023  26.583  1.00  0.00     0.037 A 
ATOM     56  C   UNL A   1      42.173  29.543  28.730  1.00  0.00     0.049 A 
ATOM     57  C   UNL A   1      47.361  28.416  26.951  1.00  0.00     0.074 A 
ATOM     58  C   UNL A   1      41.937  30.832  29.175  1.00  0.00     0.029 A 
ATOM     59  N   UNL A   1      43.492  29.506  28.299  1.00  0.00    -0.354 N 
ATOM     60  N   UNL A   1      46.203  28.833  27.403  1.00  0.00    -0.248 NA
ATOM     61  C   UNL A   1      48.361  29.481  26.789  1.00  0.00     0.031 C 
ATOM     62  C   UNL A   1      43.091  31.591  28.953  1.00  0.00     0.029 A 
ATOM     63  C   UNL A   1      44.066  30.763  28.421  1.00  0.00     0.049 A 
ATOM     64  H   UNL A   1      43.951  28.706  27.956  1.00  0.00     0.167 HD
ATOM     65  C   UNL A   1      46.339  30.201  27.597  1.00  0.00     0.074 A 
ATOM     66  C   UNL A   1      47.697  30.542  27.229  1.00  0.00     0.031 C 
ATOM     67  C   UNL A   1      45.418  31.092  28.041  1.00  0.00     0.037 A 
BRANCH  54  68
ATOM     68  C   UNL A   1      39.829  28.651  29.069  1.00  0.00     0.064 A 
ATOM     69  C   UNL A   1      38.873  29.089  28.138  1.00  0.00     0.173 A 
ATOM     70  C   UNL A   1      39.401  28.425  30.386  1.00  0.00     0.173 A 
ATOM     71  F   UNL A   1      39.229  29.326  26.866  1.00  0.00    -0.203 F 
ATOM     72  C   UNL A   1      37.559  29.342  28.523  1.00  0.00     0.198 A 
ATOM     73  C   UNL A   1      38.078  28.645  30.759  1.00  0.00     0.198 A 
ATOM     74  F   UNL A   1      40.269  27.996  31.315  1.00  0.00    -0.203 F 
ATOM     75  F   UNL A   1      36.684  29.828  27.632  1.00  0.00    -0.200 F 
ATOM     76  C   UNL A   1      37.162  29.116  29.832  1.00  0.00     0.200 A 
ATOM     77  F   UNL A   1      37.692  28.412  32.021  1.00  0.00    -0.200 F 
ATOM     78  F   UNL A   1      35.899  29.366  30.202  1.00  0.00    -0.200 F 
ENDBRANCH  54  68
BRANCH  55  79
ATOM     79  C   UNL A   1      49.188  26.740  26.164  1.00  0.00     0.064 A 
ATOM     80  C   UNL A   1      50.132  26.284  27.095  1.00  0.00     0.173 A 
ATOM     81  C   UNL A   1      49.604  26.893  24.833  1.00  0.00     0.173 A 
ATOM     82  F   UNL A   1      49.785  26.144  28.383  1.00  0.00    -0.203 F 
ATOM     83  C   UNL A   1      51.439  25.996  26.712  1.00  0.00     0.198 A 
ATOM     84  C   UNL A   1      50.905  26.580  24.446  1.00  0.00     0.198 A 
ATOM     85  F   UNL A   1      48.738  27.323  23.904  1.00  0.00    -0.203 F 
ATOM     86  F   UNL A   1      52.329  25.591  27.628  1.00  0.00    -0.200 F 
ATOM     87  C   UNL A   1      51.822  26.136  25.387  1.00  0.00     0.200 A 
ATOM     88  F   UNL A   1      51.268  26.702  23.162  1.00  0.00    -0.200 F 
ATOM     89  F   UNL A   1      53.078  25.847  25.016  1.00  0.00    -0.200 F 
ENDBRANCH  55  79
BRANCH  67  90
ATOM     90  C   UNL A   1      45.848  32.525  28.163  1.00  0.00     0.064 A 
ATOM     91  C   UNL A   1      45.663  33.438  27.113  1.00  0.00     0.173 A 
ATOM     92  C   UNL A   1      46.401  33.005  29.359  1.00  0.00     0.173 A 
ATOM     93  F   UNL A   1      45.156  33.024  25.941  1.00  0.00    -0.203 F 
ATOM     94  C   UNL A   1      46.028  34.774  27.253  1.00  0.00     0.198 A 
ATOM     95  C   UNL A   1      46.736  34.349  29.507  1.00  0.00     0.198 A 
ATOM     96  F   UNL A   1      46.597  32.175  30.395  1.00  0.00    -0.203 F 
ATOM     97  F   UNL A   1      45.878  35.619  26.224  1.00  0.00    -0.200 F 
ATOM     98  C   UNL A   1      46.554  35.231  28.452  1.00  0.00     0.200 A 
ATOM     99  F   UNL A   1      47.232  34.791  30.671  1.00  0.00    -0.200 F 
ATOM    100  F   UNL A   1      46.890  36.521  28.590  1.00  0.00    -0.200 F 
ENDBRANCH  67  90
ENDBRANCH  41  42
ENDBRANCH  33  36
ENDBRANCH  31  32
ENDBRANCH  30  31
ENDBRANCH  29  30
ENDBRANCH  28  29
ENDBRANCH   1  28
TORSDOF 17
ENDMDL
MODEL 3
REMARK VINA RESULT:     -12.3      0.702      7.147
REMARK SMILES CC[C@@H](C)c1ccccc1NC(=O)[C@@H]1[C@@H](C(=O)NCCCCCCNC(=O)c2ccc(-c3c4nc(c(-c5c(F)c(F)c(F)c(F)c5F)c5ccc([nH]5)c(-c5c(F)c(F)c(F)c(F)c5F)c5nc(c(-c6c(F)c(F)c(F)c(F)c6F)c6ccc3[nH]6)C=C5)C=C4)cc2)[C@@H]2C=C[C@H]1C2
REMARK SMILES IDX 20 1 19 2 18 3 16 4 17 5 15 7 14 8 94 9 91 10 93 11 95 12
REMARK SMILES IDX 92 13 12 14 11 15 13 17 10 18 5 19 6 20 7 21 9 22 8 23 3 24
REMARK SMILES IDX 4 25 2 26 1 27 21 28 22 29 23 30 24 31 25 32 26 33 27 35
REMARK SMILES IDX 28 36 29 37 90 38 30 39 89 40 31 41 32 42 33 43 83 44 34 45
REMARK SMILES IDX 88 46 82 47 84 48 35 49 87 50 81 51 80 52 36 54 68 55 48 56
REMARK SMILES IDX 67 57 49 58 52 59 66 60 85 61 50 62 51 63 65 65 86 66 53 67
REMARK SMILES IDX 37 68 38 69 46 70 39 71 40 72 44 73 47 74 41 75 42 76 45 77
REMARK SMILES IDX 43 78 69 79 70 80 78 81 71 82 72 83 76 84 79 85 73 86 74 87
REMARK SMILES IDX 77 88 75 89 54 90 55 91 63 92 56 93 57 94 61 95 64 96 58 97
REMARK SMILES IDX 59 98 62 99 60 100
REMARK H PARENT 18 6 11 16 25 34 84 53 52 64
REMARK Flexibility Score: inf
ROOT
ATOM      1  C   UNL A   1      37.647  22.946  25.617  1.00  0.00     0.021 C 
ENDROOT
BRANCH   1   2
ATOM      2  C   UNL A   1      36.411  23.686  26.134  1.00  0.00     0.116 C 
BRANCH   2   3
ATOM      3  N   UNL A   1      35.519  22.777  26.825  1.00  0.00    -0.356 N 
ATOM      4  C   UNL A   1      34.252  22.395  26.520  1.00  0.00     0.224 C 
ATOM      5  O   UNL A   1      33.637  21.752  27.372  1.00  0.00    -0.275 OA
ATOM      6  H   UNL A   1      35.889  22.374  27.644  1.00  0.00     0.163 HD
BRANCH   4   7
ATOM      7  C   UNL A   1      33.689  22.689  25.136  1.00  0.00     0.098 C 
ATOM      8  C   UNL A   1      33.126  24.156  25.029  1.00  0.00     0.099 C 
ATOM      9  C   UNL A   1      31.629  23.908  24.701  1.00  0.00     0.025 C 
ATOM     10  C   UNL A   1      32.411  21.829  24.934  1.00  0.00     0.025 C 
ATOM     11  C   UNL A   1      31.503  23.229  23.357  1.00  0.00    -0.027 C 
ATOM     12  C   UNL A   1      31.334  22.700  25.593  1.00  0.00     0.017 C 
ATOM     13  C   UNL A   1      31.970  21.979  23.496  1.00  0.00    -0.027 C 
BRANCH   8  14
ATOM     14  C   UNL A   1      33.834  25.036  24.012  1.00  0.00     0.228 C 
ATOM     15  N   UNL A   1      33.820  26.404  24.092  1.00  0.00    -0.326 N 
ATOM     16  H   UNL A   1      34.242  26.835  23.314  1.00  0.00     0.169 HD
ATOM     17  O   UNL A   1      34.440  24.543  23.054  1.00  0.00    -0.274 OA
BRANCH  15  18
ATOM     18  C   UNL A   1      33.337  27.336  25.041  1.00  0.00     0.044 A 
ATOM     19  C   UNL A   1      32.015  27.837  24.917  1.00  0.00    -0.022 A 
ATOM     20  C   UNL A   1      31.466  28.506  26.037  1.00  0.00     0.006 A 
ATOM     21  C   UNL A   1      32.218  28.792  27.174  1.00  0.00     0.000 A 
ATOM     22  C   UNL A   1      34.114  27.778  26.119  1.00  0.00     0.026 A 
ATOM     23  C   UNL A   1      33.562  28.479  27.188  1.00  0.00     0.002 A 
BRANCH  19  24
ATOM     24  C   UNL A   1      31.190  27.708  23.618  1.00  0.00     0.018 C 
ATOM     25  C   UNL A   1      31.533  28.860  22.652  1.00  0.00     0.013 C 
BRANCH  24  26
ATOM     26  C   UNL A   1      29.650  27.683  23.843  1.00  0.00     0.005 C 
ATOM     27  C   UNL A   1      29.013  26.301  23.893  1.00  0.00     0.004 C 
ENDBRANCH  24  26
ENDBRANCH  19  24
ENDBRANCH  15  18
ENDBRANCH   8  14
ENDBRANCH   4   7
ENDBRANCH   2   3
ENDBRANCH   1   2
BRANCH   1  28
ATOM     28  C   UNL A   1      37.365  21.929  24.500  1.00  0.00     0.002 C 
BRANCH  28  29
ATOM     29  C   UNL A   1      37.082  20.497  24.967  1.00  0.00     0.002 C 
BRANCH  29  30
ATOM     30  C   UNL A   1      38.286  19.557  24.938  1.00  0.00     0.021 C 
BRANCH  30  31
ATOM     31  C   UNL A   1      39.478  20.020  25.769  1.00  0.00     0.116 C 
BRANCH  31  32
ATOM     32  N   UNL A   1      40.494  18.987  25.913  1.00  0.00    -0.352 N 
ATOM     33  C   UNL A   1      41.848  19.114  26.121  1.00  0.00     0.251 C 
ATOM     34  H   UNL A   1      40.163  18.063  25.852  1.00  0.00     0.163 HD
ATOM     35  O   UNL A   1      42.580  18.138  26.057  1.00  0.00    -0.269 OA
BRANCH  33  36
ATOM     36  C   UNL A   1      42.422  20.450  26.393  1.00  0.00     0.039 A 
ATOM     37  C   UNL A   1      42.952  21.186  25.330  1.00  0.00     0.014 A 
ATOM     38  C   UNL A   1      42.413  20.982  27.684  1.00  0.00     0.014 A 
ATOM     39  C   UNL A   1      43.390  22.494  25.546  1.00  0.00     0.010 A 
ATOM     40  C   UNL A   1      42.781  22.309  27.884  1.00  0.00     0.010 A 
ATOM     41  C   UNL A   1      43.260  23.082  26.814  1.00  0.00    -0.014 A 
BRANCH  41  42
ATOM     42  C   UNL A   1      43.574  24.515  27.040  1.00  0.00     0.031 A 
ATOM     43  C   UNL A   1      44.972  25.026  26.843  1.00  0.00     0.074 A 
ATOM     44  C   UNL A   1      42.617  25.337  27.510  1.00  0.00     0.049 A 
ATOM     45  N   UNL A   1      45.461  26.217  27.081  1.00  0.00    -0.248 NA
ATOM     46  C   UNL A   1      45.956  24.060  26.334  1.00  0.00     0.031 C 
ATOM     47  C   UNL A   1      41.229  24.955  27.770  1.00  0.00     0.029 A 
ATOM     48  N   UNL A   1      42.668  26.663  27.865  1.00  0.00    -0.354 N 
ATOM     49  C   UNL A   1      46.809  26.141  26.762  1.00  0.00     0.074 A 
ATOM     50  C   UNL A   1      47.073  24.773  26.368  1.00  0.00     0.031 C 
ATOM     51  C   UNL A   1      40.554  26.025  28.217  1.00  0.00     0.029 A 
ATOM     52  C   UNL A   1      41.471  27.156  28.322  1.00  0.00     0.049 A 
ATOM     53  H   UNL A   1      43.485  27.206  27.798  1.00  0.00     0.167 HD
ATOM     54  C   UNL A   1      47.739  27.127  26.780  1.00  0.00     0.037 A 
ATOM     55  C   UNL A   1      41.152  28.378  28.788  1.00  0.00     0.037 A 
ATOM     56  C   UNL A   1      47.468  28.487  27.169  1.00  0.00     0.049 A 
ATOM     57  C   UNL A   1      42.217  29.437  28.864  1.00  0.00     0.074 A 
ATOM     58  C   UNL A   1      48.321  29.576  27.152  1.00  0.00     0.029 A 
ATOM     59  N   UNL A   1      46.252  28.940  27.661  1.00  0.00    -0.354 N 
ATOM     60  N   UNL A   1      43.471  29.378  28.489  1.00  0.00    -0.248 NA
ATOM     61  C   UNL A   1      41.822  30.730  29.440  1.00  0.00     0.031 C 
ATOM     62  C   UNL A   1      47.641  30.673  27.696  1.00  0.00     0.029 A 
ATOM     63  C   UNL A   1      46.348  30.282  28.000  1.00  0.00     0.049 A 
ATOM     64  H   UNL A   1      45.442  28.390  27.758  1.00  0.00     0.167 HD
ATOM     65  C   UNL A   1      44.011  30.627  28.762  1.00  0.00     0.074 A 
ATOM     66  C   UNL A   1      42.943  31.430  29.322  1.00  0.00     0.031 C 
ATOM     67  C   UNL A   1      45.279  31.068  28.566  1.00  0.00     0.037 A 
BRANCH  54  68
ATOM     68  C   UNL A   1      49.140  26.757  26.383  1.00  0.00     0.064 A 
ATOM     69  C   UNL A   1      49.601  26.911  25.065  1.00  0.00     0.173 A 
ATOM     70  C   UNL A   1      50.036  26.240  27.331  1.00  0.00     0.173 A 
ATOM     71  F   UNL A   1      48.784  27.394  24.117  1.00  0.00    -0.203 F 
ATOM     72  C   UNL A   1      50.885  26.514  24.703  1.00  0.00     0.198 A 
ATOM     73  C   UNL A   1      51.332  25.879  26.973  1.00  0.00     0.198 A 
ATOM     74  F   UNL A   1      49.654  26.081  28.607  1.00  0.00    -0.203 F 
ATOM     75  F   UNL A   1      51.277  26.606  23.424  1.00  0.00    -0.200 F 
ATOM     76  C   UNL A   1      51.751  26.003  25.657  1.00  0.00     0.200 A 
ATOM     77  F   UNL A   1      52.172  25.398  27.899  1.00  0.00    -0.200 F 
ATOM     78  F   UNL A   1      52.985  25.616  25.306  1.00  0.00    -0.200 F 
ENDBRANCH  54  68
BRANCH  55  79
ATOM     79  C   UNL A   1      39.754  28.669  29.195  1.00  0.00     0.064 A 
ATOM     80  C   UNL A   1      38.833  29.177  28.267  1.00  0.00     0.173 A 
ATOM     81  C   UNL A   1      39.300  28.429  30.501  1.00  0.00     0.173 A 
ATOM     82  F   UNL A   1      39.228  29.443  27.013  1.00  0.00    -0.203 F 
ATOM     83  C   UNL A   1      37.514  29.436  28.630  1.00  0.00     0.198 A 
ATOM     84  C   UNL A   1      37.973  28.665  30.855  1.00  0.00     0.198 A 
ATOM     85  F   UNL A   1      40.140  27.942  31.425  1.00  0.00    -0.203 F 
ATOM     86  F   UNL A   1      36.663  29.949  27.731  1.00  0.00    -0.200 F 
ATOM     87  C   UNL A   1      37.083  29.172  29.921  1.00  0.00     0.200 A 
ATOM     88  F   UNL A   1      37.556  28.395  32.100  1.00  0.00    -0.200 F 
ATOM     89  F   UNL A   1      35.810  29.411  30.266  1.00  0.00    -0.200 F 
ENDBRANCH  55  79
BRANCH  67  90
ATOM     90  C   UNL A   1      45.584  32.486  28.952  1.00  0.00     0.064 A 
ATOM     91  C   UNL A   1      46.120  32.805  30.208  1.00  0.00     0.173 A 
ATOM     92  C   UNL A   1      45.391  33.532  28.037  1.00  0.00     0.173 A 
ATOM     93  F   UNL A   1      46.306  31.844  31.126  1.00  0.00    -0.203 F 
ATOM     94  C   UNL A   1      46.438  34.120  30.539  1.00  0.00     0.198 A 
ATOM     95  C   UNL A   1      45.738  34.841  28.359  1.00  0.00     0.198 A 
ATOM     96  F   UNL A   1      44.883  33.281  26.820  1.00  0.00    -0.203 F 
ATOM     97  F   UNL A   1      46.912  34.406  31.759  1.00  0.00    -0.200 F 
ATOM     98  C   UNL A   1      46.257  35.134  29.611  1.00  0.00     0.200 A 
ATOM     99  F   UNL A   1      45.575  35.818  27.456  1.00  0.00    -0.200 F 
ATOM    100  F   UNL A   1      46.577  36.397  29.926  1.00  0.00    -0.200 F 
ENDBRANCH  67  90
ENDBRANCH  41  42
ENDBRANCH  33  36
ENDBRANCH  31  32
ENDBRANCH  30  31
ENDBRANCH  29  30
ENDBRANCH  28  29
ENDBRANCH   1  28
TORSDOF 17
ENDMDL
