MODEL 1
REMARK VINA RESULT:     -12.5      0.000      0.000
REMARK SMILES Cc1nc(=O)[nH]c(C)c1CC(=O)N1CC[C@H](C(=O)NCCCCCCNC(=O)c2ccc(-c3c4nc(c(-c5c(F)c(F)c(F)c(F)c5F)c5ccc([nH]5)c(-c5c(F)c(F)c(F)c(F)c5F)c5nc(c(-c6c(F)c(F)c(F)c(F)c6F)c6ccc3[nH]6)C=C5)C=C4)cc2)[C@@H]1C
REMARK SMILES IDX 22 1 21 2 20 3 19 4 17 5 18 6 16 8 13 9 14 10 92 11 15 12
REMARK SMILES IDX 93 13 11 14 12 15 10 16 9 17 1 18 2 19 3 20 4 21 7 22 5 23
REMARK SMILES IDX 6 24 8 25 23 27 24 28 25 29 26 30 27 31 28 33 29 34 30 35
REMARK SMILES IDX 91 36 31 37 90 38 32 39 33 40 34 41 84 42 35 43 89 44 83 45
REMARK SMILES IDX 85 46 36 47 88 48 82 49 81 50 37 52 69 53 49 54 68 55 50 56
REMARK SMILES IDX 53 57 67 58 86 59 51 60 52 61 66 63 87 64 54 65 38 66 39 67
REMARK SMILES IDX 47 68 40 69 41 70 45 71 48 72 42 73 43 74 46 75 44 76 70 77
REMARK SMILES IDX 71 78 79 79 72 80 73 81 77 82 80 83 74 84 75 85 78 86 76 87
REMARK SMILES IDX 55 88 56 89 64 90 57 91 58 92 62 93 65 94 59 95 60 96 63 97
REMARK SMILES IDX 61 98
REMARK H PARENT 19 7 6 26 26 32 85 51 53 62
REMARK Flexibility Score: inf
ROOT
ATOM      1  C   UNL A   1      35.717  20.942  25.378  1.00  0.00     0.002 C 
ENDROOT
BRANCH   1   2
ATOM      2  C   UNL A   1      34.640  19.992  24.846  1.00  0.00     0.021 C 
BRANCH   2   3
ATOM      3  C   UNL A   1      33.477  19.746  25.799  1.00  0.00     0.116 C 
BRANCH   3   4
ATOM      4  N   UNL A   1      33.360  20.761  26.831  1.00  0.00    -0.356 N 
ATOM      5  C   UNL A   1      32.793  21.992  26.873  1.00  0.00     0.225 C 
ATOM      6  O   UNL A   1      32.703  22.493  28.002  1.00  0.00    -0.275 OA
ATOM      7  H   UNL A   1      33.782  20.499  27.681  1.00  0.00     0.163 HD
BRANCH   5   8
ATOM      8  C   UNL A   1      32.364  22.845  25.669  1.00  0.00     0.102 C 
ATOM      9  N   UNL A   1      31.978  25.157  26.064  1.00  0.00    -0.339 N 
ATOM     10  C   UNL A   1      30.767  24.427  26.443  1.00  0.00     0.120 C 
ATOM     11  C   UNL A   1      32.943  24.246  25.409  1.00  0.00     0.094 C 
ATOM     12  C   UNL A   1      30.864  23.096  25.725  1.00  0.00     0.037 C 
ATOM     13  C   UNL A   1      34.420  24.303  25.792  1.00  0.00     0.032 C 
BRANCH   9  14
ATOM     14  C   UNL A   1      31.957  26.521  26.266  1.00  0.00     0.227 C 
ATOM     15  O   UNL A   1      31.230  27.005  27.142  1.00  0.00    -0.275 OA
BRANCH  14  16
ATOM     16  C   UNL A   1      32.679  27.470  25.314  1.00  0.00     0.139 C 
BRANCH  16  17
ATOM     17  C   UNL A   1      31.868  28.057  24.207  1.00  0.00     0.002 A 
ATOM     18  C   UNL A   1      31.363  30.224  25.609  1.00  0.00     0.067 C 
ATOM     19  C   UNL A   1      31.153  29.367  24.374  1.00  0.00     0.049 A 
ATOM     20  N   UNL A   1      30.303  29.849  23.524  1.00  0.00    -0.198 NA
ATOM     21  C   UNL A   1      30.043  29.161  22.377  1.00  0.00     0.345 A 
ATOM     22  C   UNL A   1      31.670  27.474  23.007  1.00  0.00     0.022 A 
ATOM     23  O   UNL A   1      29.182  29.503  21.569  1.00  0.00    -0.246 OA
ATOM     24  N   UNL A   1      30.777  28.034  22.131  1.00  0.00    -0.310 N 
ATOM     25  C   UNL A   1      32.282  26.181  22.540  1.00  0.00     0.065 C 
ATOM     26  H   UNL A   1      30.655  27.591  21.260  1.00  0.00     0.171 HD
ENDBRANCH  16  17
ENDBRANCH  14  16
ENDBRANCH   9  14
ENDBRANCH   5   8
ENDBRANCH   3   4
ENDBRANCH   2   3
ENDBRANCH   1   2
BRANCH   1  27
ATOM     27  C   UNL A   1      37.051  20.931  24.624  1.00  0.00     0.002 C 
BRANCH  27  28
ATOM     28  C   UNL A   1      38.003  19.782  24.966  1.00  0.00     0.021 C 
BRANCH  28  29
ATOM     29  C   UNL A   1      39.191  20.158  25.845  1.00  0.00     0.116 C 
BRANCH  29  30
ATOM     30  N   UNL A   1      40.208  19.123  25.889  1.00  0.00    -0.352 N 
ATOM     31  C   UNL A   1      41.561  19.241  26.087  1.00  0.00     0.251 C 
ATOM     32  H   UNL A   1      39.881  18.204  25.759  1.00  0.00     0.163 HD
ATOM     33  O   UNL A   1      42.296  18.268  25.954  1.00  0.00    -0.269 OA
BRANCH  31  34
ATOM     34  C   UNL A   1      42.140  20.557  26.434  1.00  0.00     0.039 A 
ATOM     35  C   UNL A   1      42.558  21.401  25.402  1.00  0.00     0.014 A 
ATOM     36  C   UNL A   1      42.267  20.960  27.766  1.00  0.00     0.014 A 
ATOM     37  C   UNL A   1      43.045  22.674  25.703  1.00  0.00     0.010 A 
ATOM     38  C   UNL A   1      42.679  22.256  28.061  1.00  0.00     0.010 A 
ATOM     39  C   UNL A   1      43.076  23.127  27.033  1.00  0.00    -0.014 A 
BRANCH  39  40
ATOM     40  C   UNL A   1      43.522  24.504  27.369  1.00  0.00     0.031 A 
ATOM     41  C   UNL A   1      42.527  25.516  27.866  1.00  0.00     0.074 A 
ATOM     42  C   UNL A   1      44.806  24.860  27.163  1.00  0.00     0.049 A 
ATOM     43  N   UNL A   1      42.699  26.788  28.125  1.00  0.00    -0.248 NA
ATOM     44  C   UNL A   1      41.147  25.046  28.076  1.00  0.00     0.031 C 
ATOM     45  C   UNL A   1      45.857  23.978  26.648  1.00  0.00     0.029 A 
ATOM     46  N   UNL A   1      45.445  26.061  27.346  1.00  0.00    -0.354 N 
ATOM     47  C   UNL A   1      41.454  27.270  28.505  1.00  0.00     0.074 A 
ATOM     48  C   UNL A   1      40.523  26.169  28.403  1.00  0.00     0.031 C 
ATOM     49  C   UNL A   1      47.009  24.665  26.568  1.00  0.00     0.029 A 
ATOM     50  C   UNL A   1      46.771  26.044  26.980  1.00  0.00     0.049 A 
ATOM     51  H   UNL A   1      44.996  26.860  27.706  1.00  0.00     0.167 HD
ATOM     52  C   UNL A   1      41.123  28.516  28.918  1.00  0.00     0.037 A 
ATOM     53  C   UNL A   1      47.684  27.035  26.959  1.00  0.00     0.037 A 
ATOM     54  C   UNL A   1      42.061  29.599  29.053  1.00  0.00     0.049 A 
ATOM     55  C   UNL A   1      47.279  28.413  27.417  1.00  0.00     0.074 A 
ATOM     56  C   UNL A   1      41.836  30.874  29.540  1.00  0.00     0.029 A 
ATOM     57  N   UNL A   1      43.400  29.535  28.697  1.00  0.00    -0.354 N 
ATOM     58  N   UNL A   1      46.116  28.834  27.854  1.00  0.00    -0.248 NA
ATOM     59  C   UNL A   1      48.315  29.455  27.385  1.00  0.00     0.031 C 
ATOM     60  C   UNL A   1      43.021  31.604  29.416  1.00  0.00     0.029 A 
ATOM     61  C   UNL A   1      44.002  30.762  28.921  1.00  0.00     0.049 A 
ATOM     62  H   UNL A   1      43.852  28.738  28.338  1.00  0.00     0.167 HD
ATOM     63  C   UNL A   1      46.293  30.171  28.184  1.00  0.00     0.074 A 
ATOM     64  C   UNL A   1      47.677  30.489  27.912  1.00  0.00     0.031 C 
ATOM     65  C   UNL A   1      45.389  31.056  28.668  1.00  0.00     0.037 A 
BRANCH  52  66
ATOM     66  C   UNL A   1      39.687  28.794  29.258  1.00  0.00     0.064 A 
ATOM     67  C   UNL A   1      39.185  28.603  30.553  1.00  0.00     0.173 A 
ATOM     68  C   UNL A   1      38.830  29.350  28.297  1.00  0.00     0.173 A 
ATOM     69  F   UNL A   1      39.961  28.066  31.507  1.00  0.00    -0.203 F 
ATOM     70  C   UNL A   1      37.874  28.951  30.871  1.00  0.00     0.198 A 
ATOM     71  C   UNL A   1      37.530  29.725  28.625  1.00  0.00     0.198 A 
ATOM     72  F   UNL A   1      39.263  29.558  27.044  1.00  0.00    -0.203 F 
ATOM     73  F   UNL A   1      37.406  28.734  32.108  1.00  0.00    -0.200 F 
ATOM     74  C   UNL A   1      37.052  29.523  29.911  1.00  0.00     0.200 A 
ATOM     75  F   UNL A   1      36.744  30.293  27.701  1.00  0.00    -0.200 F 
ATOM     76  F   UNL A   1      35.800  29.880  30.225  1.00  0.00    -0.200 F 
ENDBRANCH  52  66
BRANCH  53  77
ATOM     77  C   UNL A   1      49.069  26.778  26.479  1.00  0.00     0.064 A 
ATOM     78  C   UNL A   1      49.422  26.983  25.136  1.00  0.00     0.173 A 
ATOM     79  C   UNL A   1      50.055  26.265  27.336  1.00  0.00     0.173 A 
ATOM     80  F   UNL A   1      48.512  27.455  24.270  1.00  0.00    -0.203 F 
ATOM     81  C   UNL A   1      50.687  26.641  24.662  1.00  0.00     0.198 A 
ATOM     82  C   UNL A   1      51.331  25.959  26.869  1.00  0.00     0.198 A 
ATOM     83  F   UNL A   1      49.776  26.055  28.631  1.00  0.00    -0.203 F 
ATOM     84  F   UNL A   1      50.968  26.773  23.358  1.00  0.00    -0.200 F 
ATOM     85  C   UNL A   1      51.641  26.131  25.528  1.00  0.00     0.200 A 
ATOM     86  F   UNL A   1      52.254  25.482  27.714  1.00  0.00    -0.200 F 
ATOM     87  F   UNL A   1      52.853  25.790  25.069  1.00  0.00    -0.200 F 
ENDBRANCH  53  77
BRANCH  65  88
ATOM     88  C   UNL A   1      45.876  32.440  28.991  1.00  0.00     0.064 A 
ATOM     89  C   UNL A   1      46.409  32.765  30.247  1.00  0.00     0.173 A 
ATOM     90  C   UNL A   1      45.858  33.442  28.008  1.00  0.00     0.173 A 
ATOM     91  F   UNL A   1      46.438  31.847  31.226  1.00  0.00    -0.203 F 
ATOM     92  C   UNL A   1      46.879  34.047  30.516  1.00  0.00     0.198 A 
ATOM     93  C   UNL A   1      46.363  34.713  28.268  1.00  0.00     0.198 A 
ATOM     94  F   UNL A   1      45.368  33.183  26.786  1.00  0.00    -0.203 F 
ATOM     95  F   UNL A   1      47.336  34.348  31.740  1.00  0.00    -0.200 F 
ATOM     96  C   UNL A   1      46.865  35.017  29.524  1.00  0.00     0.200 A 
ATOM     97  F   UNL A   1      46.366  35.641  27.302  1.00  0.00    -0.200 F 
ATOM     98  F   UNL A   1      47.331  36.246  29.780  1.00  0.00    -0.200 F 
ENDBRANCH  65  88
ENDBRANCH  39  40
ENDBRANCH  31  34
ENDBRANCH  29  30
ENDBRANCH  28  29
ENDBRANCH  27  28
ENDBRANCH   1  27
TORSDOF 16
ENDMDL
MODEL 2
REMARK VINA RESULT:     -12.4      6.033     10.749
REMARK SMILES Cc1nc(=O)[nH]c(C)c1CC(=O)N1CC[C@H](C(=O)NCCCCCCNC(=O)c2ccc(-c3c4nc(c(-c5c(F)c(F)c(F)c(F)c5F)c5ccc([nH]5)c(-c5c(F)c(F)c(F)c(F)c5F)c5nc(c(-c6c(F)c(F)c(F)c(F)c6F)c6ccc3[nH]6)C=C5)C=C4)cc2)[C@@H]1C
REMARK SMILES IDX 22 1 21 2 20 3 19 4 17 5 18 6 16 8 13 9 14 10 92 11 15 12
REMARK SMILES IDX 93 13 11 14 12 15 10 16 9 17 1 18 2 19 3 20 4 21 7 22 5 23
REMARK SMILES IDX 6 24 8 25 23 27 24 28 25 29 26 30 27 31 28 33 29 34 30 35
REMARK SMILES IDX 91 36 31 37 90 38 32 39 33 40 34 41 84 42 35 43 89 44 83 45
REMARK SMILES IDX 85 46 36 47 88 48 82 49 81 50 37 52 69 53 49 54 68 55 50 56
REMARK SMILES IDX 53 57 67 58 86 59 51 60 52 61 66 63 87 64 54 65 38 66 39 67
REMARK SMILES IDX 47 68 40 69 41 70 45 71 48 72 42 73 43 74 46 75 44 76 70 77
REMARK SMILES IDX 71 78 79 79 72 80 73 81 77 82 80 83 74 84 75 85 78 86 76 87
REMARK SMILES IDX 55 88 56 89 64 90 57 91 58 92 62 93 65 94 59 95 60 96 63 97
REMARK SMILES IDX 61 98
REMARK H PARENT 19 7 6 26 26 32 85 51 53 62
REMARK Flexibility Score: inf
ROOT
ATOM      1  C   UNL A   1      34.526  32.530  29.128  1.00  0.00     0.002 C 
ENDROOT
BRANCH   1   2
ATOM      2  C   UNL A   1      34.676  31.456  28.046  1.00  0.00     0.021 C 
BRANCH   2   3
ATOM      3  C   UNL A   1      33.415  31.187  27.235  1.00  0.00     0.116 C 
BRANCH   3   4
ATOM      4  N   UNL A   1      33.652  30.352  26.071  1.00  0.00    -0.356 N 
ATOM      5  C   UNL A   1      33.473  29.032  25.813  1.00  0.00     0.225 C 
ATOM      6  O   UNL A   1      33.591  28.706  24.624  1.00  0.00    -0.275 OA
ATOM      7  H   UNL A   1      34.020  30.850  25.305  1.00  0.00     0.163 HD
BRANCH   5   8
ATOM      8  C   UNL A   1      33.255  27.918  26.848  1.00  0.00     0.102 C 
ATOM      9  N   UNL A   1      31.662  26.238  26.308  1.00  0.00    -0.339 N 
ATOM     10  C   UNL A   1      30.937  27.388  26.852  1.00  0.00     0.120 C 
ATOM     11  C   UNL A   1      33.122  26.440  26.446  1.00  0.00     0.094 C 
ATOM     12  C   UNL A   1      31.972  28.181  27.623  1.00  0.00     0.037 C 
ATOM     13  C   UNL A   1      34.046  26.110  25.276  1.00  0.00     0.032 C 
BRANCH   9  14
ATOM     14  C   UNL A   1      30.893  25.171  25.895  1.00  0.00     0.227 C 
ATOM     15  O   UNL A   1      30.848  24.140  26.576  1.00  0.00    -0.275 OA
BRANCH  14  16
ATOM     16  C   UNL A   1      30.230  25.162  24.520  1.00  0.00     0.139 C 
BRANCH  16  17
ATOM     17  C   UNL A   1      31.135  25.266  23.337  1.00  0.00     0.002 A 
ATOM     18  C   UNL A   1      30.629  27.831  23.065  1.00  0.00     0.067 C 
ATOM     19  C   UNL A   1      31.272  26.549  22.570  1.00  0.00     0.049 A 
ATOM     20  N   UNL A   1      31.903  26.664  21.445  1.00  0.00    -0.198 NA
ATOM     21  C   UNL A   1      32.521  25.573  20.912  1.00  0.00     0.345 A 
ATOM     22  C   UNL A   1      31.861  24.246  22.834  1.00  0.00     0.022 A 
ATOM     23  O   UNL A   1      33.057  25.578  19.805  1.00  0.00    -0.246 OA
ATOM     24  N   UNL A   1      32.530  24.422  21.650  1.00  0.00    -0.310 N 
ATOM     25  C   UNL A   1      31.952  22.858  23.406  1.00  0.00     0.065 C 
ATOM     26  H   UNL A   1      33.057  23.664  21.308  1.00  0.00     0.171 HD
ENDBRANCH  16  17
ENDBRANCH  14  16
ENDBRANCH   9  14
ENDBRANCH   5   8
ENDBRANCH   3   4
ENDBRANCH   2   3
ENDBRANCH   1   2
BRANCH   1  27
ATOM     27  C   UNL A   1      34.609  33.982  28.645  1.00  0.00     0.002 C 
BRANCH  27  28
ATOM     28  C   UNL A   1      33.322  34.801  28.765  1.00  0.00     0.021 C 
BRANCH  28  29
ATOM     29  C   UNL A   1      33.468  36.149  29.464  1.00  0.00     0.116 C 
BRANCH  29  30
ATOM     30  N   UNL A   1      32.501  36.339  30.530  1.00  0.00    -0.352 N 
ATOM     31  C   UNL A   1      32.513  35.852  31.813  1.00  0.00     0.251 C 
ATOM     32  H   UNL A   1      31.724  36.898  30.299  1.00  0.00     0.163 HD
ATOM     33  O   UNL A   1      31.538  35.999  32.542  1.00  0.00    -0.269 OA
BRANCH  31  34
ATOM     34  C   UNL A   1      33.699  35.122  32.309  1.00  0.00     0.039 A 
ATOM     35  C   UNL A   1      33.530  33.828  32.809  1.00  0.00     0.014 A 
ATOM     36  C   UNL A   1      34.969  35.704  32.279  1.00  0.00     0.014 A 
ATOM     37  C   UNL A   1      34.645  33.094  33.221  1.00  0.00     0.010 A 
ATOM     38  C   UNL A   1      36.086  34.945  32.616  1.00  0.00     0.010 A 
ATOM     39  C   UNL A   1      35.936  33.633  33.094  1.00  0.00    -0.014 A 
BRANCH  39  40
ATOM     40  C   UNL A   1      37.141  32.843  33.458  1.00  0.00     0.031 A 
ATOM     41  C   UNL A   1      37.885  33.148  34.729  1.00  0.00     0.074 A 
ATOM     42  C   UNL A   1      37.603  31.900  32.611  1.00  0.00     0.049 A 
ATOM     43  N   UNL A   1      39.005  32.636  35.175  1.00  0.00    -0.248 NA
ATOM     44  C   UNL A   1      37.310  34.183  35.605  1.00  0.00     0.031 C 
ATOM     45  C   UNL A   1      36.991  31.540  31.329  1.00  0.00     0.029 A 
ATOM     46  N   UNL A   1      38.702  31.081  32.692  1.00  0.00    -0.354 N 
ATOM     47  C   UNL A   1      39.276  33.299  36.365  1.00  0.00     0.074 A 
ATOM     48  C   UNL A   1      38.231  34.279  36.554  1.00  0.00     0.031 C 
ATOM     49  C   UNL A   1      37.716  30.568  30.752  1.00  0.00     0.029 A 
ATOM     50  C   UNL A   1      38.868  30.267  31.596  1.00  0.00     0.049 A 
ATOM     51  H   UNL A   1      39.315  31.078  33.463  1.00  0.00     0.167 HD
ATOM     52  C   UNL A   1      40.297  33.093  37.230  1.00  0.00     0.037 A 
ATOM     53  C   UNL A   1      39.849  29.393  31.298  1.00  0.00     0.037 A 
ATOM     54  C   UNL A   1      41.315  32.090  37.056  1.00  0.00     0.049 A 
ATOM     55  C   UNL A   1      40.976  29.195  32.279  1.00  0.00     0.074 A 
ATOM     56  C   UNL A   1      42.344  31.753  37.917  1.00  0.00     0.029 A 
ATOM     57  N   UNL A   1      41.433  31.268  35.946  1.00  0.00    -0.354 N 
ATOM     58  N   UNL A   1      41.175  29.771  33.441  1.00  0.00    -0.248 NA
ATOM     59  C   UNL A   1      42.016  28.223  31.911  1.00  0.00     0.031 C 
ATOM     60  C   UNL A   1      43.126  30.774  37.299  1.00  0.00     0.029 A 
ATOM     61  C   UNL A   1      42.541  30.448  36.087  1.00  0.00     0.049 A 
ATOM     62  H   UNL A   1      40.823  31.267  35.174  1.00  0.00     0.167 HD
ATOM     63  C   UNL A   1      42.332  29.202  33.956  1.00  0.00     0.074 A 
ATOM     64  C   UNL A   1      42.785  28.227  32.989  1.00  0.00     0.031 C 
ATOM     65  C   UNL A   1      42.965  29.465  35.125  1.00  0.00     0.037 A 
BRANCH  52  66
ATOM     66  C   UNL A   1      40.382  33.964  38.450  1.00  0.00     0.064 A 
ATOM     67  C   UNL A   1      41.109  35.163  38.453  1.00  0.00     0.173 A 
ATOM     68  C   UNL A   1      39.645  33.640  39.600  1.00  0.00     0.173 A 
ATOM     69  F   UNL A   1      41.837  35.514  37.382  1.00  0.00    -0.203 F 
ATOM     70  C   UNL A   1      41.103  36.001  39.566  1.00  0.00     0.198 A 
ATOM     71  C   UNL A   1      39.616  34.495  40.699  1.00  0.00     0.198 A 
ATOM     72  F   UNL A   1      38.928  32.507  39.647  1.00  0.00    -0.203 F 
ATOM     73  F   UNL A   1      41.827  37.128  39.557  1.00  0.00    -0.200 F 
ATOM     74  C   UNL A   1      40.347  35.673  40.681  1.00  0.00     0.200 A 
ATOM     75  F   UNL A   1      38.872  34.184  41.768  1.00  0.00    -0.200 F 
ATOM     76  F   UNL A   1      40.322  36.493  41.740  1.00  0.00    -0.200 F 
ENDBRANCH  52  66
BRANCH  53  77
ATOM     77  C   UNL A   1      39.829  28.642  30.013  1.00  0.00     0.064 A 
ATOM     78  C   UNL A   1      39.280  27.353  29.934  1.00  0.00     0.173 A 
ATOM     79  C   UNL A   1      40.411  29.172  28.851  1.00  0.00     0.173 A 
ATOM     80  F   UNL A   1      38.728  26.793  31.020  1.00  0.00    -0.203 F 
ATOM     81  C   UNL A   1      39.358  26.607  28.759  1.00  0.00     0.198 A 
ATOM     82  C   UNL A   1      40.453  28.439  27.666  1.00  0.00     0.198 A 
ATOM     83  F   UNL A   1      40.944  30.402  28.867  1.00  0.00    -0.203 F 
ATOM     84  F   UNL A   1      38.898  25.348  28.737  1.00  0.00    -0.200 F 
ATOM     85  C   UNL A   1      39.942  27.150  27.626  1.00  0.00     0.200 A 
ATOM     86  F   UNL A   1      41.005  28.976  26.570  1.00  0.00    -0.200 F 
ATOM     87  F   UNL A   1      40.029  26.427  26.501  1.00  0.00    -0.200 F 
ENDBRANCH  53  77
BRANCH  65  88
ATOM     88  C   UNL A   1      44.183  28.649  35.455  1.00  0.00     0.064 A 
ATOM     89  C   UNL A   1      44.098  27.442  36.163  1.00  0.00     0.173 A 
ATOM     90  C   UNL A   1      45.449  29.059  35.007  1.00  0.00     0.173 A 
ATOM     91  F   UNL A   1      42.913  27.012  36.625  1.00  0.00    -0.203 F 
ATOM     92  C   UNL A   1      45.237  26.689  36.434  1.00  0.00     0.198 A 
ATOM     93  C   UNL A   1      46.580  28.285  35.248  1.00  0.00     0.198 A 
ATOM     94  F   UNL A   1      45.585  30.201  34.316  1.00  0.00    -0.203 F 
ATOM     95  F   UNL A   1      45.137  25.565  37.158  1.00  0.00    -0.200 F 
ATOM     96  C   UNL A   1      46.475  27.106  35.968  1.00  0.00     0.200 A 
ATOM     97  F   UNL A   1      47.772  28.680  34.779  1.00  0.00    -0.200 F 
ATOM     98  F   UNL A   1      47.568  26.372  36.218  1.00  0.00    -0.200 F 
ENDBRANCH  65  88
ENDBRANCH  39  40
ENDBRANCH  31  34
ENDBRANCH  29  30
ENDBRANCH  28  29
ENDBRANCH  27  28
ENDBRANCH   1  27
TORSDOF 16
ENDMDL
MODEL 3
REMARK VINA RESULT:     -12.4      5.151     11.039
REMARK SMILES Cc1nc(=O)[nH]c(C)c1CC(=O)N1CC[C@H](C(=O)NCCCCCCNC(=O)c2ccc(-c3c4nc(c(-c5c(F)c(F)c(F)c(F)c5F)c5ccc([nH]5)c(-c5c(F)c(F)c(F)c(F)c5F)c5nc(c(-c6c(F)c(F)c(F)c(F)c6F)c6ccc3[nH]6)C=C5)C=C4)cc2)[C@@H]1C
REMARK SMILES IDX 22 1 21 2 20 3 19 4 17 5 18 6 16 8 13 9 14 10 92 11 15 12
REMARK SMILES IDX 93 13 11 14 12 15 10 16 9 17 1 18 2 19 3 20 4 21 7 22 5 23
REMARK SMILES IDX 6 24 8 25 23 27 24 28 25 29 26 30 27 31 28 33 29 34 30 35
REMARK SMILES IDX 91 36 31 37 90 38 32 39 33 40 34 41 84 42 35 43 89 44 83 45
REMARK SMILES IDX 85 46 36 47 88 48 82 49 81 50 37 52 69 53 49 54 68 55 50 56
REMARK SMILES IDX 53 57 67 58 86 59 51 60 52 61 66 63 87 64 54 65 38 66 39 67
REMARK SMILES IDX 47 68 40 69 41 70 45 71 48 72 42 73 43 74 46 75 44 76 70 77
REMARK SMILES IDX 71 78 79 79 72 80 73 81 77 82 80 83 74 84 75 85 78 86 76 87
REMARK SMILES IDX 55 88 56 89 64 90 57 91 58 92 62 93 65 94 59 95 60 96 63 97
REMARK SMILES IDX 61 98
REMARK H PARENT 19 7 6 26 26 32 85 51 53 62
REMARK Flexibility Score: inf
ROOT
ATOM      1  C   UNL A   1      31.709  30.068  25.072  1.00  0.00     0.002 C 
ENDROOT
BRANCH   1   2
ATOM      2  C   UNL A   1      30.465  29.769  24.232  1.00  0.00     0.021 C 
BRANCH   2   3
ATOM      3  C   UNL A   1      30.668  28.726  23.139  1.00  0.00     0.116 C 
BRANCH   3   4
ATOM      4  N   UNL A   1      30.539  27.363  23.621  1.00  0.00    -0.356 N 
ATOM      5  C   UNL A   1      31.279  26.590  24.455  1.00  0.00     0.225 C 
ATOM      6  O   UNL A   1      30.744  25.530  24.806  1.00  0.00    -0.275 OA
ATOM      7  H   UNL A   1      29.745  26.900  23.267  1.00  0.00     0.163 HD
BRANCH   5   8
ATOM      8  C   UNL A   1      32.726  26.851  24.903  1.00  0.00     0.102 C 
ATOM      9  N   UNL A   1      34.233  25.016  24.815  1.00  0.00    -0.339 N 
ATOM     10  C   UNL A   1      33.476  24.918  26.064  1.00  0.00     0.120 C 
ATOM     11  C   UNL A   1      33.936  26.296  24.134  1.00  0.00     0.094 C 
ATOM     12  C   UNL A   1      32.933  26.310  26.311  1.00  0.00     0.037 C 
ATOM     13  C   UNL A   1      33.677  26.311  22.629  1.00  0.00     0.032 C 
BRANCH   9  14
ATOM     14  C   UNL A   1      35.136  24.003  24.567  1.00  0.00     0.227 C 
ATOM     15  O   UNL A   1      36.275  24.059  25.044  1.00  0.00    -0.275 OA
BRANCH  14  16
ATOM     16  C   UNL A   1      34.821  22.894  23.566  1.00  0.00     0.139 C 
BRANCH  16  17
ATOM     17  C   UNL A   1      34.037  21.731  24.078  1.00  0.00     0.002 A 
ATOM     18  C   UNL A   1      36.204  20.564  25.001  1.00  0.00     0.067 C 
ATOM     19  C   UNL A   1      34.715  20.549  24.708  1.00  0.00     0.049 A 
ATOM     20  N   UNL A   1      34.117  19.443  25.018  1.00  0.00    -0.198 NA
ATOM     21  C   UNL A   1      32.778  19.324  24.799  1.00  0.00     0.345 A 
ATOM     22  C   UNL A   1      32.696  21.612  23.992  1.00  0.00     0.022 A 
ATOM     23  O   UNL A   1      32.158  18.277  24.977  1.00  0.00    -0.246 OA
ATOM     24  N   UNL A   1      32.105  20.428  24.353  1.00  0.00    -0.310 N 
ATOM     25  C   UNL A   1      31.749  22.644  23.444  1.00  0.00     0.065 C 
ATOM     26  H   UNL A   1      31.125  20.369  24.286  1.00  0.00     0.171 HD
ENDBRANCH  16  17
ENDBRANCH  14  16
ENDBRANCH   9  14
ENDBRANCH   5   8
ENDBRANCH   3   4
ENDBRANCH   2   3
ENDBRANCH   1   2
BRANCH   1  27
ATOM     27  C   UNL A   1      31.450  30.652  26.466  1.00  0.00     0.002 C 
BRANCH  27  28
ATOM     28  C   UNL A   1      31.404  32.178  26.554  1.00  0.00     0.021 C 
BRANCH  28  29
ATOM     29  C   UNL A   1      32.598  32.830  27.244  1.00  0.00     0.116 C 
BRANCH  29  30
ATOM     30  N   UNL A   1      32.346  34.208  27.626  1.00  0.00    -0.352 N 
ATOM     31  C   UNL A   1      32.965  34.972  28.582  1.00  0.00     0.251 C 
ATOM     32  H   UNL A   1      31.626  34.658  27.127  1.00  0.00     0.163 HD
ATOM     33  O   UNL A   1      32.527  36.082  28.870  1.00  0.00    -0.269 OA
BRANCH  31  34
ATOM     34  C   UNL A   1      34.149  34.443  29.291  1.00  0.00     0.039 A 
ATOM     35  C   UNL A   1      33.964  33.781  30.508  1.00  0.00     0.014 A 
ATOM     36  C   UNL A   1      35.433  34.595  28.762  1.00  0.00     0.014 A 
ATOM     37  C   UNL A   1      35.061  33.215  31.161  1.00  0.00     0.010 A 
ATOM     38  C   UNL A   1      36.513  33.964  29.373  1.00  0.00     0.010 A 
ATOM     39  C   UNL A   1      36.339  33.270  30.582  1.00  0.00    -0.014 A 
BRANCH  39  40
ATOM     40  C   UNL A   1      37.507  32.612  31.224  1.00  0.00     0.031 A 
ATOM     41  C   UNL A   1      38.190  31.459  30.540  1.00  0.00     0.074 A 
ATOM     42  C   UNL A   1      37.907  33.007  32.449  1.00  0.00     0.049 A 
ATOM     43  N   UNL A   1      39.161  30.697  30.976  1.00  0.00    -0.248 NA
ATOM     44  C   UNL A   1      37.701  31.096  29.199  1.00  0.00     0.031 C 
ATOM     45  C   UNL A   1      37.299  34.087  33.231  1.00  0.00     0.029 A 
ATOM     46  N   UNL A   1      38.909  32.538  33.261  1.00  0.00    -0.354 N 
ATOM     47  C   UNL A   1      39.383  29.758  29.977  1.00  0.00     0.074 A 
ATOM     48  C   UNL A   1      38.419  30.014  28.931  1.00  0.00     0.031 C 
ATOM     49  C   UNL A   1      37.948  34.204  34.401  1.00  0.00     0.029 A 
ATOM     50  C   UNL A   1      38.985  33.180  34.475  1.00  0.00     0.049 A 
ATOM     51  H   UNL A   1      39.518  31.808  32.999  1.00  0.00     0.167 HD
ATOM     52  C   UNL A   1      40.319  28.781  29.933  1.00  0.00     0.037 A 
ATOM     53  C   UNL A   1      39.786  32.954  35.534  1.00  0.00     0.037 A 
ATOM     54  C   UNL A   1      41.301  28.553  30.961  1.00  0.00     0.049 A 
ATOM     55  C   UNL A   1      40.812  31.851  35.455  1.00  0.00     0.074 A 
ATOM     56  C   UNL A   1      42.340  27.640  30.969  1.00  0.00     0.029 A 
ATOM     57  N   UNL A   1      41.361  29.242  32.163  1.00  0.00    -0.354 N 
ATOM     58  N   UNL A   1      41.065  31.024  34.469  1.00  0.00    -0.248 NA
ATOM     59  C   UNL A   1      41.667  31.653  36.633  1.00  0.00     0.031 C 
ATOM     60  C   UNL A   1      42.988  27.728  32.203  1.00  0.00     0.029 A 
ATOM     61  C   UNL A   1      42.400  28.746  32.934  1.00  0.00     0.049 A 
ATOM     62  H   UNL A   1      40.756  29.971  32.428  1.00  0.00     0.167 HD
ATOM     63  C   UNL A   1      42.130  30.240  34.892  1.00  0.00     0.074 A 
ATOM     64  C   UNL A   1      42.486  30.698  36.217  1.00  0.00     0.031 C 
ATOM     65  C   UNL A   1      42.757  29.230  34.243  1.00  0.00     0.037 A 
BRANCH  52  66
ATOM     66  C   UNL A   1      40.341  27.872  28.738  1.00  0.00     0.064 A 
ATOM     67  C   UNL A   1      41.118  28.158  27.607  1.00  0.00     0.173 A 
ATOM     68  C   UNL A   1      39.650  26.651  28.768  1.00  0.00     0.173 A 
ATOM     69  F   UNL A   1      41.791  29.315  27.524  1.00  0.00    -0.203 F 
ATOM     70  C   UNL A   1      41.195  27.259  26.545  1.00  0.00     0.198 A 
ATOM     71  C   UNL A   1      39.753  25.741  27.720  1.00  0.00     0.198 A 
ATOM     72  F   UNL A   1      38.896  26.326  29.830  1.00  0.00    -0.203 F 
ATOM     73  F   UNL A   1      41.922  27.565  25.461  1.00  0.00    -0.200 F 
ATOM     74  C   UNL A   1      40.524  26.047  26.608  1.00  0.00     0.200 A 
ATOM     75  F   UNL A   1      39.118  24.564  27.791  1.00  0.00    -0.200 F 
ATOM     76  F   UNL A   1      40.620  25.172  25.598  1.00  0.00    -0.200 F 
ENDBRANCH  52  66
BRANCH  53  77
ATOM     77  C   UNL A   1      39.654  33.770  36.772  1.00  0.00     0.064 A 
ATOM     78  C   UNL A   1      38.839  33.351  37.835  1.00  0.00     0.173 A 
ATOM     79  C   UNL A   1      40.290  35.015  36.895  1.00  0.00     0.173 A 
ATOM     80  F   UNL A   1      38.194  32.177  37.760  1.00  0.00    -0.203 F 
ATOM     81  C   UNL A   1      38.629  34.163  38.947  1.00  0.00     0.198 A 
ATOM     82  C   UNL A   1      40.108  35.810  38.025  1.00  0.00     0.198 A 
ATOM     83  F   UNL A   1      41.085  35.464  35.914  1.00  0.00    -0.203 F 
ATOM     84  F   UNL A   1      37.782  33.771  39.910  1.00  0.00    -0.200 F 
ATOM     85  C   UNL A   1      39.265  35.392  39.043  1.00  0.00     0.200 A 
ATOM     86  F   UNL A   1      40.738  36.988  38.119  1.00  0.00    -0.200 F 
ATOM     87  F   UNL A   1      39.051  36.178  40.107  1.00  0.00    -0.200 F 
ENDBRANCH  53  77
BRANCH  65  88
ATOM     88  C   UNL A   1      43.930  28.586  34.925  1.00  0.00     0.064 A 
ATOM     89  C   UNL A   1      43.792  27.424  35.699  1.00  0.00     0.173 A 
ATOM     90  C   UNL A   1      45.220  29.112  34.756  1.00  0.00     0.173 A 
ATOM     91  F   UNL A   1      42.578  26.888  35.902  1.00  0.00    -0.203 F 
ATOM     92  C   UNL A   1      44.898  26.829  36.300  1.00  0.00     0.198 A 
ATOM     93  C   UNL A   1      46.328  28.493  35.328  1.00  0.00     0.198 A 
ATOM     94  F   UNL A   1      45.409  30.216  34.018  1.00  0.00    -0.203 F 
ATOM     95  F   UNL A   1      44.734  25.750  37.078  1.00  0.00    -0.200 F 
ATOM     96  C   UNL A   1      46.165  27.358  36.106  1.00  0.00     0.200 A 
ATOM     97  F   UNL A   1      47.553  28.995  35.122  1.00  0.00    -0.200 F 
ATOM     98  F   UNL A   1      47.230  26.776  36.674  1.00  0.00    -0.200 F 
ENDBRANCH  65  88
ENDBRANCH  39  40
ENDBRANCH  31  34
ENDBRANCH  29  30
ENDBRANCH  28  29
ENDBRANCH  27  28
ENDBRANCH   1  27
TORSDOF 16
ENDMDL
