MODEL 1
REMARK VINA RESULT:     -11.3      0.000      0.000
REMARK SMILES COc1ncccc1COc1cc(C)sc1C(=O)NCCCCCCNC(=O)c1ccc(-c2c3nc(c(-c4c(F)c(F)c(F)c(F)c4F)c4ccc([nH]4)c(-c4c(F)c(F)c(F)c(F)c4F)c4nc(c(-c5c(F)c(F)c(F)c(F)c5F)c5ccc2[nH]5)C=C4)C=C3)cc1
REMARK SMILES IDX 21 1 20 2 19 3 17 4 18 5 16 7 11 8 12 9 13 10 15 11 14 12
REMARK SMILES IDX 10 13 9 14 8 15 3 16 4 17 5 18 7 19 6 20 2 21 1 22 22 23
REMARK SMILES IDX 23 24 24 25 25 26 26 27 27 28 28 30 29 31 30 32 91 33 31 34
REMARK SMILES IDX 90 35 32 36 33 37 34 38 84 39 35 40 89 41 83 42 85 43 36 44
REMARK SMILES IDX 88 45 82 46 81 47 37 49 69 50 49 51 68 52 50 53 53 54 67 55
REMARK SMILES IDX 86 56 51 57 52 58 66 60 87 61 54 62 38 63 39 64 47 65 40 66
REMARK SMILES IDX 41 67 45 68 48 69 42 70 43 71 46 72 44 73 70 74 71 75 79 76
REMARK SMILES IDX 72 77 73 78 77 79 80 80 74 81 75 82 78 83 76 84 55 85 56 86
REMARK SMILES IDX 64 87 57 88 58 89 62 90 65 91 59 92 60 93 63 94 61 95
REMARK H PARENT 19 6 26 29 85 48 53 59
REMARK Flexibility Score: inf
ROOT
ATOM      1  C   UNL A   1      33.242  29.154  26.594  1.00  0.00     0.021 C 
ENDROOT
BRANCH   1   2
ATOM      2  C   UNL A   1      33.337  27.658  26.276  1.00  0.00     0.116 C 
BRANCH   2   3
ATOM      3  N   UNL A   1      33.694  27.456  24.892  1.00  0.00    -0.351 N 
ATOM      4  C   UNL A   1      32.984  27.453  23.719  1.00  0.00     0.265 C 
ATOM      5  O   UNL A   1      33.707  27.253  22.733  1.00  0.00    -0.268 OA
ATOM      6  H   UNL A   1      34.655  27.284  24.762  1.00  0.00     0.163 HD
BRANCH   4   7
ATOM      7  C   UNL A   1      31.543  27.685  23.602  1.00  0.00     0.134 A 
ATOM      8  C   UNL A   1      30.382  27.161  24.163  1.00  0.00     0.143 A 
ATOM      9  C   UNL A   1      29.206  27.827  23.689  1.00  0.00     0.062 A 
ATOM     10  C   UNL A   1      29.462  28.783  22.738  1.00  0.00     0.006 A 
ATOM     11  S   UNL A   1      31.120  28.900  22.422  1.00  0.00    -0.132 S 
ATOM     12  C   UNL A   1      28.492  29.664  22.030  1.00  0.00     0.056 C 
BRANCH   8  13
ATOM     13  O   UNL A   1      30.411  26.204  25.127  1.00  0.00    -0.487 OA
BRANCH  13  14
ATOM     14  C   UNL A   1      30.798  24.879  24.734  1.00  0.00     0.271 C 
BRANCH  14  15
ATOM     15  C   UNL A   1      31.745  24.168  25.663  1.00  0.00     0.052 A 
ATOM     16  C   UNL A   1      31.316  23.561  26.839  1.00  0.00     0.219 A 
ATOM     17  N   UNL A   1      32.108  22.821  27.646  1.00  0.00    -0.222 NA
ATOM     18  C   UNL A   1      33.400  22.689  27.269  1.00  0.00     0.115 A 
ATOM     19  C   UNL A   1      33.102  24.045  25.335  1.00  0.00     0.014 A 
ATOM     20  C   UNL A   1      33.941  23.286  26.143  1.00  0.00     0.021 A 
BRANCH  16  21
ATOM     21  O   UNL A   1      30.030  23.791  27.262  1.00  0.00    -0.481 OA
ATOM     22  C   UNL A   1      29.293  22.572  27.285  1.00  0.00     0.280 C 
ENDBRANCH  16  21
ENDBRANCH  14  15
ENDBRANCH  13  14
ENDBRANCH   8  13
ENDBRANCH   4   7
ENDBRANCH   2   3
ENDBRANCH   1   2
BRANCH   1  23
ATOM     23  C   UNL A   1      31.801  29.636  26.804  1.00  0.00     0.002 C 
BRANCH  23  24
ATOM     24  C   UNL A   1      31.370  30.773  25.868  1.00  0.00     0.002 C 
BRANCH  24  25
ATOM     25  C   UNL A   1      31.305  32.161  26.515  1.00  0.00     0.021 C 
BRANCH  25  26
ATOM     26  C   UNL A   1      32.642  32.687  27.030  1.00  0.00     0.116 C 
BRANCH  26  27
ATOM     27  N   UNL A   1      32.514  34.021  27.597  1.00  0.00    -0.352 N 
ATOM     28  C   UNL A   1      33.140  34.577  28.678  1.00  0.00     0.251 C 
ATOM     29  H   UNL A   1      31.880  34.614  27.131  1.00  0.00     0.163 HD
ATOM     30  O   UNL A   1      32.725  35.642  29.146  1.00  0.00    -0.269 OA
BRANCH  28  31
ATOM     31  C   UNL A   1      34.309  33.921  29.295  1.00  0.00     0.039 A 
ATOM     32  C   UNL A   1      35.591  34.305  28.890  1.00  0.00     0.014 A 
ATOM     33  C   UNL A   1      34.148  32.890  30.226  1.00  0.00     0.014 A 
ATOM     34  C   UNL A   1      36.711  33.679  29.442  1.00  0.00     0.010 A 
ATOM     35  C   UNL A   1      35.265  32.314  30.826  1.00  0.00     0.010 A 
ATOM     36  C   UNL A   1      36.556  32.691  30.428  1.00  0.00    -0.014 A 
BRANCH  36  37
ATOM     37  C   UNL A   1      37.737  32.023  31.029  1.00  0.00     0.031 A 
ATOM     38  C   UNL A   1      38.203  32.408  32.405  1.00  0.00     0.074 A 
ATOM     39  C   UNL A   1      38.415  31.103  30.316  1.00  0.00     0.049 A 
ATOM     40  N   UNL A   1      39.233  31.969  33.084  1.00  0.00    -0.248 NA
ATOM     41  C   UNL A   1      37.425  33.445  33.101  1.00  0.00     0.031 C 
ATOM     42  C   UNL A   1      38.089  30.683  28.953  1.00  0.00     0.029 A 
ATOM     43  N   UNL A   1      39.523  30.362  30.638  1.00  0.00    -0.354 N 
ATOM     44  C   UNL A   1      39.232  32.683  34.276  1.00  0.00     0.074 A 
ATOM     45  C   UNL A   1      38.135  33.623  34.205  1.00  0.00     0.031 C 
ATOM     46  C   UNL A   1      38.963  29.741  28.564  1.00  0.00     0.029 A 
ATOM     47  C   UNL A   1      39.926  29.512  29.637  1.00  0.00     0.049 A 
ATOM     48  H   UNL A   1      39.986  30.431  31.504  1.00  0.00     0.167 HD
ATOM     49  C   UNL A   1      40.058  32.551  35.341  1.00  0.00     0.037 A 
ATOM     50  C   UNL A   1      40.956  28.647  29.594  1.00  0.00     0.037 A 
ATOM     51  C   UNL A   1      41.131  31.594  35.418  1.00  0.00     0.049 A 
ATOM     52  C   UNL A   1      41.848  28.508  30.795  1.00  0.00     0.074 A 
ATOM     53  C   UNL A   1      41.989  31.341  36.475  1.00  0.00     0.029 A 
ATOM     54  N   UNL A   1      41.493  30.731  34.394  1.00  0.00    -0.354 N 
ATOM     55  N   UNL A   1      41.798  29.141  31.942  1.00  0.00    -0.248 NA
ATOM     56  C   UNL A   1      42.936  27.525  30.701  1.00  0.00     0.031 C 
ATOM     57  C   UNL A   1      42.894  30.352  36.075  1.00  0.00     0.029 A 
ATOM     58  C   UNL A   1      42.571  29.955  34.787  1.00  0.00     0.049 A 
ATOM     59  H   UNL A   1      41.048  30.678  33.517  1.00  0.00     0.167 HD
ATOM     60  C   UNL A   1      42.824  28.614  32.715  1.00  0.00     0.074 A 
ATOM     61  C   UNL A   1      43.471  27.599  31.911  1.00  0.00     0.031 C 
ATOM     62  C   UNL A   1      43.197  28.943  33.977  1.00  0.00     0.037 A 
BRANCH  49  63
ATOM     63  C   UNL A   1      39.827  33.459  36.515  1.00  0.00     0.064 A 
ATOM     64  C   UNL A   1      40.502  34.683  36.641  1.00  0.00     0.173 A 
ATOM     65  C   UNL A   1      38.899  33.117  37.511  1.00  0.00     0.173 A 
ATOM     66  F   UNL A   1      41.409  35.052  35.723  1.00  0.00    -0.203 F 
ATOM     67  C   UNL A   1      40.280  35.516  37.734  1.00  0.00     0.198 A 
ATOM     68  C   UNL A   1      38.657  33.967  38.587  1.00  0.00     0.198 A 
ATOM     69  F   UNL A   1      38.222  31.962  37.437  1.00  0.00    -0.203 F 
ATOM     70  F   UNL A   1      40.975  36.655  37.859  1.00  0.00    -0.200 F 
ATOM     71  C   UNL A   1      39.354  35.161  38.702  1.00  0.00     0.200 A 
ATOM     72  F   UNL A   1      37.752  33.628  39.516  1.00  0.00    -0.200 F 
ATOM     73  F   UNL A   1      39.137  35.966  39.752  1.00  0.00    -0.200 F 
ENDBRANCH  49  63
BRANCH  50  74
ATOM     74  C   UNL A   1      41.173  27.816  28.382  1.00  0.00     0.064 A 
ATOM     75  C   UNL A   1      40.516  26.587  28.226  1.00  0.00     0.173 A 
ATOM     76  C   UNL A   1      42.037  28.228  27.357  1.00  0.00     0.173 A 
ATOM     77  F   UNL A   1      39.695  26.141  29.188  1.00  0.00    -0.203 F 
ATOM     78  C   UNL A   1      40.731  25.792  27.102  1.00  0.00     0.198 A 
ATOM     79  C   UNL A   1      42.231  27.445  26.221  1.00  0.00     0.198 A 
ATOM     80  F   UNL A   1      42.686  29.398  27.456  1.00  0.00    -0.203 F 
ATOM     81  F   UNL A   1      40.125  24.602  27.001  1.00  0.00    -0.200 F 
ATOM     82  C   UNL A   1      41.584  26.225  26.098  1.00  0.00     0.200 A 
ATOM     83  F   UNL A   1      43.046  27.872  25.246  1.00  0.00    -0.200 F 
ATOM     84  F   UNL A   1      41.788  25.461  25.016  1.00  0.00    -0.200 F 
ENDBRANCH  50  74
BRANCH  62  85
ATOM     85  C   UNL A   1      44.334  28.170  34.577  1.00  0.00     0.064 A 
ATOM     86  C   UNL A   1      45.665  28.593  34.441  1.00  0.00     0.173 A 
ATOM     87  C   UNL A   1      44.086  27.008  35.323  1.00  0.00     0.173 A 
ATOM     88  F   UNL A   1      45.954  29.690  33.724  1.00  0.00    -0.203 F 
ATOM     89  C   UNL A   1      46.707  27.864  35.007  1.00  0.00     0.198 A 
ATOM     90  C   UNL A   1      45.129  26.299  35.912  1.00  0.00     0.198 A 
ATOM     91  F   UNL A   1      42.831  26.565  35.489  1.00  0.00    -0.203 F 
ATOM     92  F   UNL A   1      47.974  28.260  34.822  1.00  0.00    -0.200 F 
ATOM     93  C   UNL A   1      46.439  26.723  35.747  1.00  0.00     0.200 A 
ATOM     94  F   UNL A   1      44.866  25.203  36.638  1.00  0.00    -0.200 F 
ATOM     95  F   UNL A   1      47.444  26.025  36.294  1.00  0.00    -0.200 F 
ENDBRANCH  62  85
ENDBRANCH  36  37
ENDBRANCH  28  31
ENDBRANCH  26  27
ENDBRANCH  25  26
ENDBRANCH  24  25
ENDBRANCH  23  24
ENDBRANCH   1  23
TORSDOF 17
ENDMDL
MODEL 2
REMARK VINA RESULT:     -11.2      1.515      2.211
REMARK SMILES COc1ncccc1COc1cc(C)sc1C(=O)NCCCCCCNC(=O)c1ccc(-c2c3nc(c(-c4c(F)c(F)c(F)c(F)c4F)c4ccc([nH]4)c(-c4c(F)c(F)c(F)c(F)c4F)c4nc(c(-c5c(F)c(F)c(F)c(F)c5F)c5ccc2[nH]5)C=C4)C=C3)cc1
REMARK SMILES IDX 21 1 20 2 19 3 17 4 18 5 16 7 11 8 12 9 13 10 15 11 14 12
REMARK SMILES IDX 10 13 9 14 8 15 3 16 4 17 5 18 7 19 6 20 2 21 1 22 22 23
REMARK SMILES IDX 23 24 24 25 25 26 26 27 27 28 28 30 29 31 30 32 91 33 31 34
REMARK SMILES IDX 90 35 32 36 33 37 34 38 84 39 35 40 89 41 83 42 85 43 36 44
REMARK SMILES IDX 88 45 82 46 81 47 37 49 69 50 49 51 68 52 50 53 53 54 67 55
REMARK SMILES IDX 86 56 51 57 52 58 66 60 87 61 54 62 38 63 39 64 47 65 40 66
REMARK SMILES IDX 41 67 45 68 48 69 42 70 43 71 46 72 44 73 70 74 71 75 79 76
REMARK SMILES IDX 72 77 73 78 77 79 80 80 74 81 75 82 78 83 76 84 55 85 56 86
REMARK SMILES IDX 64 87 57 88 58 89 62 90 65 91 59 92 60 93 63 94 61 95
REMARK H PARENT 19 6 26 29 85 48 53 59
REMARK Flexibility Score: inf
ROOT
ATOM      1  C   UNL A   1      32.612  28.552  27.263  1.00  0.00     0.021 C 
ENDROOT
BRANCH   1   2
ATOM      2  C   UNL A   1      31.354  28.019  26.571  1.00  0.00     0.116 C 
BRANCH   2   3
ATOM      3  N   UNL A   1      31.172  26.616  26.861  1.00  0.00    -0.351 N 
ATOM      4  C   UNL A   1      31.578  25.460  26.247  1.00  0.00     0.265 C 
ATOM      5  O   UNL A   1      31.209  24.448  26.859  1.00  0.00    -0.268 OA
ATOM      6  H   UNL A   1      30.643  26.456  27.676  1.00  0.00     0.163 HD
BRANCH   4   7
ATOM      7  C   UNL A   1      32.380  25.388  25.023  1.00  0.00     0.134 A 
ATOM      8  C   UNL A   1      33.710  25.145  24.695  1.00  0.00     0.143 A 
ATOM      9  C   UNL A   1      33.927  25.158  23.280  1.00  0.00     0.062 A 
ATOM     10  C   UNL A   1      32.806  25.476  22.554  1.00  0.00     0.006 A 
ATOM     11  S   UNL A   1      31.479  25.741  23.570  1.00  0.00    -0.132 S 
ATOM     12  C   UNL A   1      32.661  25.583  21.076  1.00  0.00     0.056 C 
BRANCH   8  13
ATOM     13  O   UNL A   1      34.641  24.827  25.632  1.00  0.00    -0.487 OA
BRANCH  13  14
ATOM     14  C   UNL A   1      34.563  23.524  26.229  1.00  0.00     0.271 C 
BRANCH  14  15
ATOM     15  C   UNL A   1      35.665  22.567  25.864  1.00  0.00     0.052 A 
ATOM     16  C   UNL A   1      35.413  21.248  25.501  1.00  0.00     0.219 A 
ATOM     17  N   UNL A   1      36.356  20.386  25.061  1.00  0.00    -0.222 NA
ATOM     18  C   UNL A   1      37.621  20.858  24.992  1.00  0.00     0.115 A 
ATOM     19  C   UNL A   1      36.997  23.000  25.822  1.00  0.00     0.014 A 
ATOM     20  C   UNL A   1      37.989  22.138  25.370  1.00  0.00     0.021 A 
BRANCH  16  21
ATOM     21  O   UNL A   1      34.144  20.753  25.675  1.00  0.00    -0.481 OA
ATOM     22  C   UNL A   1      33.880  19.723  24.728  1.00  0.00     0.280 C 
ENDBRANCH  16  21
ENDBRANCH  14  15
ENDBRANCH  13  14
ENDBRANCH   8  13
ENDBRANCH   4   7
ENDBRANCH   2   3
ENDBRANCH   1   2
BRANCH   1  23
ATOM     23  C   UNL A   1      32.795  30.066  27.100  1.00  0.00     0.002 C 
BRANCH  23  24
ATOM     24  C   UNL A   1      31.604  30.784  26.451  1.00  0.00     0.002 C 
BRANCH  24  25
ATOM     25  C   UNL A   1      31.426  32.251  26.856  1.00  0.00     0.021 C 
BRANCH  25  26
ATOM     26  C   UNL A   1      32.720  33.057  26.917  1.00  0.00     0.116 C 
BRANCH  26  27
ATOM     27  N   UNL A   1      32.539  34.314  27.629  1.00  0.00    -0.352 N 
ATOM     28  C   UNL A   1      33.121  34.758  28.784  1.00  0.00     0.251 C 
ATOM     29  H   UNL A   1      31.902  34.940  27.215  1.00  0.00     0.163 HD
ATOM     30  O   UNL A   1      32.664  35.751  29.357  1.00  0.00    -0.269 OA
BRANCH  28  31
ATOM     31  C   UNL A   1      34.292  34.065  29.356  1.00  0.00     0.039 A 
ATOM     32  C   UNL A   1      34.083  33.029  30.272  1.00  0.00     0.014 A 
ATOM     33  C   UNL A   1      35.593  34.468  29.039  1.00  0.00     0.014 A 
ATOM     34  C   UNL A   1      35.177  32.377  30.844  1.00  0.00     0.010 A 
ATOM     35  C   UNL A   1      36.682  33.773  29.558  1.00  0.00     0.010 A 
ATOM     36  C   UNL A   1      36.486  32.732  30.478  1.00  0.00    -0.014 A 
BRANCH  36  37
ATOM     37  C   UNL A   1      37.657  32.043  31.073  1.00  0.00     0.031 A 
ATOM     38  C   UNL A   1      38.124  32.405  32.455  1.00  0.00     0.074 A 
ATOM     39  C   UNL A   1      38.325  31.124  30.350  1.00  0.00     0.049 A 
ATOM     40  N   UNL A   1      39.147  31.945  33.131  1.00  0.00    -0.248 NA
ATOM     41  C   UNL A   1      37.357  33.442  33.162  1.00  0.00     0.031 C 
ATOM     42  C   UNL A   1      37.998  30.725  28.981  1.00  0.00     0.029 A 
ATOM     43  N   UNL A   1      39.424  30.365  30.666  1.00  0.00    -0.354 N 
ATOM     44  C   UNL A   1      39.152  32.644  34.331  1.00  0.00     0.074 A 
ATOM     45  C   UNL A   1      38.066  33.598  34.270  1.00  0.00     0.031 C 
ATOM     46  C   UNL A   1      38.861  29.777  28.583  1.00  0.00     0.029 A 
ATOM     47  C   UNL A   1      39.819  29.523  29.655  1.00  0.00     0.049 A 
ATOM     48  H   UNL A   1      39.885  30.418  31.534  1.00  0.00     0.167 HD
ATOM     49  C   UNL A   1      39.973  32.489  35.397  1.00  0.00     0.037 A 
ATOM     50  C   UNL A   1      40.838  28.646  29.603  1.00  0.00     0.037 A 
ATOM     51  C   UNL A   1      41.034  31.518  35.464  1.00  0.00     0.049 A 
ATOM     52  C   UNL A   1      41.726  28.482  30.805  1.00  0.00     0.074 A 
ATOM     53  C   UNL A   1      41.887  31.241  36.520  1.00  0.00     0.029 A 
ATOM     54  N   UNL A   1      41.388  30.664  34.430  1.00  0.00    -0.354 N 
ATOM     55  N   UNL A   1      41.680  29.100  31.959  1.00  0.00    -0.248 NA
ATOM     56  C   UNL A   1      42.802  27.486  30.701  1.00  0.00     0.031 C 
ATOM     57  C   UNL A   1      42.780  30.246  36.110  1.00  0.00     0.029 A 
ATOM     58  C   UNL A   1      42.456  29.869  34.817  1.00  0.00     0.049 A 
ATOM     59  H   UNL A   1      40.944  30.627  33.552  1.00  0.00     0.167 HD
ATOM     60  C   UNL A   1      42.697  28.552  32.728  1.00  0.00     0.074 A 
ATOM     61  C   UNL A   1      43.334  27.538  31.913  1.00  0.00     0.031 C 
ATOM     62  C   UNL A   1      43.071  28.860  33.995  1.00  0.00     0.037 A 
BRANCH  49  63
ATOM     63  C   UNL A   1      39.750  33.385  36.581  1.00  0.00     0.064 A 
ATOM     64  C   UNL A   1      40.417  34.613  36.709  1.00  0.00     0.173 A 
ATOM     65  C   UNL A   1      38.838  33.027  37.586  1.00  0.00     0.173 A 
ATOM     66  F   UNL A   1      41.309  34.997  35.783  1.00  0.00    -0.203 F 
ATOM     67  C   UNL A   1      40.203  35.435  37.812  1.00  0.00     0.198 A 
ATOM     68  C   UNL A   1      38.603  33.866  38.672  1.00  0.00     0.198 A 
ATOM     69  F   UNL A   1      38.169  31.867  37.511  1.00  0.00    -0.203 F 
ATOM     70  F   UNL A   1      40.890  36.578  37.938  1.00  0.00    -0.200 F 
ATOM     71  C   UNL A   1      39.292  35.064  38.789  1.00  0.00     0.200 A 
ATOM     72  F   UNL A   1      37.713  33.512  39.610  1.00  0.00    -0.200 F 
ATOM     73  F   UNL A   1      39.083  35.858  39.849  1.00  0.00    -0.200 F 
ENDBRANCH  49  63
BRANCH  50  74
ATOM     74  C   UNL A   1      41.049  27.827  28.381  1.00  0.00     0.064 A 
ATOM     75  C   UNL A   1      40.388  26.601  28.216  1.00  0.00     0.173 A 
ATOM     76  C   UNL A   1      41.907  28.250  27.357  1.00  0.00     0.173 A 
ATOM     77  F   UNL A   1      39.572  26.147  29.178  1.00  0.00    -0.203 F 
ATOM     78  C   UNL A   1      40.597  25.818  27.083  1.00  0.00     0.198 A 
ATOM     79  C   UNL A   1      42.095  27.478  26.212  1.00  0.00     0.198 A 
ATOM     80  F   UNL A   1      42.558  29.417  27.465  1.00  0.00    -0.203 F 
ATOM     81  F   UNL A   1      39.989  24.629  26.972  1.00  0.00    -0.200 F 
ATOM     82  C   UNL A   1      41.446  26.260  26.080  1.00  0.00     0.200 A 
ATOM     83  F   UNL A   1      42.906  27.914  25.238  1.00  0.00    -0.200 F 
ATOM     84  F   UNL A   1      41.644  25.508  24.988  1.00  0.00    -0.200 F 
ENDBRANCH  50  74
BRANCH  62  85
ATOM     85  C   UNL A   1      44.198  28.066  34.588  1.00  0.00     0.064 A 
ATOM     86  C   UNL A   1      45.528  28.504  34.512  1.00  0.00     0.173 A 
ATOM     87  C   UNL A   1      43.938  26.867  35.268  1.00  0.00     0.173 A 
ATOM     88  F   UNL A   1      45.828  29.638  33.859  1.00  0.00    -0.203 F 
ATOM     89  C   UNL A   1      46.560  27.756  35.070  1.00  0.00     0.198 A 
ATOM     90  C   UNL A   1      44.970  26.136  35.851  1.00  0.00     0.198 A 
ATOM     91  F   UNL A   1      42.683  26.407  35.375  1.00  0.00    -0.203 F 
ATOM     92  F   UNL A   1      47.829  28.168  34.942  1.00  0.00    -0.200 F 
ATOM     93  C   UNL A   1      46.280  26.577  35.744  1.00  0.00     0.200 A 
ATOM     94  F   UNL A   1      44.696  25.003  36.513  1.00  0.00    -0.200 F 
ATOM     95  F   UNL A   1      47.276  25.860  36.285  1.00  0.00    -0.200 F 
ENDBRANCH  62  85
ENDBRANCH  36  37
ENDBRANCH  28  31
ENDBRANCH  26  27
ENDBRANCH  25  26
ENDBRANCH  24  25
ENDBRANCH  23  24
ENDBRANCH   1  23
TORSDOF 17
ENDMDL
MODEL 3
REMARK VINA RESULT:     -11.2      1.208      3.246
REMARK SMILES COc1ncccc1COc1cc(C)sc1C(=O)NCCCCCCNC(=O)c1ccc(-c2c3nc(c(-c4c(F)c(F)c(F)c(F)c4F)c4ccc([nH]4)c(-c4c(F)c(F)c(F)c(F)c4F)c4nc(c(-c5c(F)c(F)c(F)c(F)c5F)c5ccc2[nH]5)C=C4)C=C3)cc1
REMARK SMILES IDX 21 1 20 2 19 3 17 4 18 5 16 7 11 8 12 9 13 10 15 11 14 12
REMARK SMILES IDX 10 13 9 14 8 15 3 16 4 17 5 18 7 19 6 20 2 21 1 22 22 23
REMARK SMILES IDX 23 24 24 25 25 26 26 27 27 28 28 30 29 31 30 32 91 33 31 34
REMARK SMILES IDX 90 35 32 36 33 37 34 38 84 39 35 40 89 41 83 42 85 43 36 44
REMARK SMILES IDX 88 45 82 46 81 47 37 49 69 50 49 51 68 52 50 53 53 54 67 55
REMARK SMILES IDX 86 56 51 57 52 58 66 60 87 61 54 62 38 63 39 64 47 65 40 66
REMARK SMILES IDX 41 67 45 68 48 69 42 70 43 71 46 72 44 73 70 74 71 75 79 76
REMARK SMILES IDX 72 77 73 78 77 79 80 80 74 81 75 82 78 83 76 84 55 85 56 86
REMARK SMILES IDX 64 87 57 88 58 89 62 90 65 91 59 92 60 93 63 94 61 95
REMARK H PARENT 19 6 26 29 85 48 53 59
REMARK Flexibility Score: inf
ROOT
ATOM      1  C   UNL A   1      31.775  28.606  26.988  1.00  0.00     0.021 C 
ENDROOT
BRANCH   1   2
ATOM      2  C   UNL A   1      32.456  27.293  26.590  1.00  0.00     0.116 C 
BRANCH   2   3
ATOM      3  N   UNL A   1      31.587  26.171  26.854  1.00  0.00    -0.351 N 
ATOM      4  C   UNL A   1      31.675  24.825  26.611  1.00  0.00     0.265 C 
ATOM      5  O   UNL A   1      30.688  24.206  27.031  1.00  0.00    -0.268 OA
ATOM      6  H   UNL A   1      30.750  26.428  27.305  1.00  0.00     0.163 HD
BRANCH   4   7
ATOM      7  C   UNL A   1      32.803  24.154  25.960  1.00  0.00     0.134 A 
ATOM      8  C   UNL A   1      33.533  24.307  24.785  1.00  0.00     0.143 A 
ATOM      9  C   UNL A   1      34.595  23.352  24.682  1.00  0.00     0.062 A 
ATOM     10  C   UNL A   1      34.625  22.450  25.717  1.00  0.00     0.006 A 
ATOM     11  S   UNL A   1      33.389  22.759  26.830  1.00  0.00    -0.132 S 
ATOM     12  C   UNL A   1      35.580  21.329  25.938  1.00  0.00     0.056 C 
BRANCH   8  13
ATOM     13  O   UNL A   1      33.302  25.325  23.916  1.00  0.00    -0.487 OA
BRANCH  13  14
ATOM     14  C   UNL A   1      32.094  25.275  23.141  1.00  0.00     0.271 C 
BRANCH  14  15
ATOM     15  C   UNL A   1      31.255  26.525  23.151  1.00  0.00     0.052 A 
ATOM     16  C   UNL A   1      31.704  27.724  22.607  1.00  0.00     0.219 A 
ATOM     17  N   UNL A   1      30.949  28.839  22.495  1.00  0.00    -0.222 NA
ATOM     18  C   UNL A   1      29.683  28.760  22.961  1.00  0.00     0.115 A 
ATOM     19  C   UNL A   1      29.952  26.501  23.664  1.00  0.00     0.014 A 
ATOM     20  C   UNL A   1      29.149  27.631  23.560  1.00  0.00     0.021 A 
BRANCH  16  21
ATOM     21  O   UNL A   1      33.023  27.820  22.234  1.00  0.00    -0.481 OA
ATOM     22  C   UNL A   1      33.674  28.842  22.982  1.00  0.00     0.280 C 
ENDBRANCH  16  21
ENDBRANCH  14  15
ENDBRANCH  13  14
ENDBRANCH   8  13
ENDBRANCH   4   7
ENDBRANCH   2   3
ENDBRANCH   1   2
BRANCH   1  23
ATOM     23  C   UNL A   1      32.302  29.819  26.212  1.00  0.00     0.002 C 
BRANCH  23  24
ATOM     24  C   UNL A   1      31.214  30.793  25.740  1.00  0.00     0.002 C 
BRANCH  24  25
ATOM     25  C   UNL A   1      31.207  32.154  26.442  1.00  0.00     0.021 C 
BRANCH  25  26
ATOM     26  C   UNL A   1      32.511  32.514  27.148  1.00  0.00     0.116 C 
BRANCH  26  27
ATOM     27  N   UNL A   1      32.544  33.916  27.538  1.00  0.00    -0.352 N 
ATOM     28  C   UNL A   1      33.306  34.545  28.483  1.00  0.00     0.251 C 
ATOM     29  H   UNL A   1      31.924  34.502  27.044  1.00  0.00     0.163 HD
ATOM     30  O   UNL A   1      33.023  35.695  28.833  1.00  0.00    -0.269 OA
BRANCH  28  31
ATOM     31  C   UNL A   1      34.466  33.865  29.094  1.00  0.00     0.039 A 
ATOM     32  C   UNL A   1      34.243  32.761  29.921  1.00  0.00     0.014 A 
ATOM     33  C   UNL A   1      35.765  34.347  28.903  1.00  0.00     0.014 A 
ATOM     34  C   UNL A   1      35.324  32.119  30.529  1.00  0.00     0.010 A 
ATOM     35  C   UNL A   1      36.847  33.666  29.454  1.00  0.00     0.010 A 
ATOM     36  C   UNL A   1      36.637  32.556  30.285  1.00  0.00    -0.014 A 
BRANCH  36  37
ATOM     37  C   UNL A   1      37.795  31.879  30.919  1.00  0.00     0.031 A 
ATOM     38  C   UNL A   1      38.220  32.255  32.311  1.00  0.00     0.074 A 
ATOM     39  C   UNL A   1      38.490  30.960  30.223  1.00  0.00     0.049 A 
ATOM     40  N   UNL A   1      39.226  31.807  33.019  1.00  0.00    -0.248 NA
ATOM     41  C   UNL A   1      37.426  33.293  32.987  1.00  0.00     0.031 C 
ATOM     42  C   UNL A   1      38.204  30.548  28.848  1.00  0.00     0.029 A 
ATOM     43  N   UNL A   1      39.584  30.211  30.575  1.00  0.00    -0.354 N 
ATOM     44  C   UNL A   1      39.192  32.516  34.214  1.00  0.00     0.074 A 
ATOM     45  C   UNL A   1      38.102  33.462  34.114  1.00  0.00     0.031 C 
ATOM     46  C   UNL A   1      39.085  29.603  28.482  1.00  0.00     0.029 A 
ATOM     47  C   UNL A   1      40.013  29.364  29.583  1.00  0.00     0.049 A 
ATOM     48  H   UNL A   1      40.020  30.274  31.456  1.00  0.00     0.167 HD
ATOM     49  C   UNL A   1      39.983  32.374  35.304  1.00  0.00     0.037 A 
ATOM     50  C   UNL A   1      41.039  28.493  29.567  1.00  0.00     0.037 A 
ATOM     51  C   UNL A   1      41.049  31.412  35.409  1.00  0.00     0.049 A 
ATOM     52  C   UNL A   1      41.893  28.344  30.795  1.00  0.00     0.074 A 
ATOM     53  C   UNL A   1      41.873  31.148  36.490  1.00  0.00     0.029 A 
ATOM     54  N   UNL A   1      41.438  30.552  34.392  1.00  0.00    -0.354 N 
ATOM     55  N   UNL A   1      41.810  28.972  31.943  1.00  0.00    -0.248 NA
ATOM     56  C   UNL A   1      42.979  27.355  30.730  1.00  0.00     0.031 C 
ATOM     57  C   UNL A   1      42.784  30.157  36.114  1.00  0.00     0.029 A 
ATOM     58  C   UNL A   1      42.499  29.767  34.815  1.00  0.00     0.049 A 
ATOM     59  H   UNL A   1      41.020  30.505  33.502  1.00  0.00     0.167 HD
ATOM     60  C   UNL A   1      42.809  28.436  32.744  1.00  0.00     0.074 A 
ATOM     61  C   UNL A   1      43.476  27.420  31.956  1.00  0.00     0.031 C 
ATOM     62  C   UNL A   1      43.145  28.756  34.019  1.00  0.00     0.037 A 
BRANCH  49  63
ATOM     63  C   UNL A   1      39.721  33.278  36.474  1.00  0.00     0.064 A 
ATOM     64  C   UNL A   1      40.376  34.511  36.612  1.00  0.00     0.173 A 
ATOM     65  C   UNL A   1      38.782  32.922  37.455  1.00  0.00     0.173 A 
ATOM     66  F   UNL A   1      41.293  34.893  35.709  1.00  0.00    -0.203 F 
ATOM     67  C   UNL A   1      40.126  35.339  37.702  1.00  0.00     0.198 A 
ATOM     68  C   UNL A   1      38.511  33.767  38.527  1.00  0.00     0.198 A 
ATOM     69  F   UNL A   1      38.123  31.757  37.369  1.00  0.00    -0.203 F 
ATOM     70  F   UNL A   1      40.802  36.488  37.839  1.00  0.00    -0.200 F 
ATOM     71  C   UNL A   1      39.189  34.971  38.655  1.00  0.00     0.200 A 
ATOM     72  F   UNL A   1      37.597  33.415  39.442  1.00  0.00    -0.200 F 
ATOM     73  F   UNL A   1      38.944  35.771  39.702  1.00  0.00    -0.200 F 
ENDBRANCH  49  63
BRANCH  50  74
ATOM     74  C   UNL A   1      41.290  27.667  28.358  1.00  0.00     0.064 A 
ATOM     75  C   UNL A   1      42.192  28.092  27.372  1.00  0.00     0.173 A 
ATOM     76  C   UNL A   1      40.639  26.441  28.162  1.00  0.00     0.173 A 
ATOM     77  F   UNL A   1      42.824  29.267  27.506  1.00  0.00    -0.203 F 
ATOM     78  C   UNL A   1      42.417  27.333  26.226  1.00  0.00     0.198 A 
ATOM     79  C   UNL A   1      40.884  25.669  27.028  1.00  0.00     0.198 A 
ATOM     80  F   UNL A   1      39.771  25.988  29.078  1.00  0.00    -0.203 F 
ATOM     81  F   UNL A   1      43.249  27.785  25.278  1.00  0.00    -0.200 F 
ATOM     82  C   UNL A   1      41.766  26.120  26.057  1.00  0.00     0.200 A 
ATOM     83  F   UNL A   1      40.264  24.492  26.874  1.00  0.00    -0.200 F 
ATOM     84  F   UNL A   1      41.985  25.389  24.956  1.00  0.00    -0.200 F 
ENDBRANCH  50  74
BRANCH  62  85
ATOM     85  C   UNL A   1      44.259  27.974  34.650  1.00  0.00     0.064 A 
ATOM     86  C   UNL A   1      45.590  28.414  34.596  1.00  0.00     0.173 A 
ATOM     87  C   UNL A   1      43.986  26.786  35.344  1.00  0.00     0.173 A 
ATOM     88  F   UNL A   1      45.903  29.537  33.931  1.00  0.00    -0.203 F 
ATOM     89  C   UNL A   1      46.611  27.677  35.190  1.00  0.00     0.198 A 
ATOM     90  C   UNL A   1      45.006  26.067  35.962  1.00  0.00     0.198 A 
ATOM     91  F   UNL A   1      42.730  26.326  35.432  1.00  0.00    -0.203 F 
ATOM     92  F   UNL A   1      47.881  28.090  35.082  1.00  0.00    -0.200 F 
ATOM     93  C   UNL A   1      46.318  26.509  35.877  1.00  0.00     0.200 A 
ATOM     94  F   UNL A   1      44.720  24.945  36.637  1.00  0.00    -0.200 F 
ATOM     95  F   UNL A   1      47.302  25.803  36.451  1.00  0.00    -0.200 F 
ENDBRANCH  62  85
ENDBRANCH  36  37
ENDBRANCH  28  31
ENDBRANCH  26  27
ENDBRANCH  25  26
ENDBRANCH  24  25
ENDBRANCH  23  24
ENDBRANCH   1  23
TORSDOF 17
ENDMDL
