MODEL 1
REMARK VINA RESULT:     -13.1      0.000      0.000
REMARK SMILES O=C(NCCCCCCNC(=O)c1ccccc1NC(=O)c1cc2cc(Cl)cc(Cl)c2oc1=O)c1ccc(-c2c3nc(c(-c4c(F)c(F)c(F)c(F)c4F)c4ccc([nH]4)c(-c4c(F)c(F)c(F)c(F)c4F)c4nc(c(-c5c(F)c(F)c(F)c(F)c5F)c5ccc2[nH]5)C=C4)C=C3)cc1
REMARK SMILES IDX 6 1 5 2 4 3 3 4 1 5 2 6 35 8 36 9 97 10 37 11 96 12 38 13
REMARK SMILES IDX 39 14 40 15 90 16 41 17 95 18 89 19 91 20 42 21 94 22 88 23
REMARK SMILES IDX 87 24 43 26 75 27 55 28 74 29 56 30 59 31 73 32 92 33 57 34
REMARK SMILES IDX 58 35 72 37 93 38 60 39 44 40 45 41 53 42 46 43 47 44 51 45
REMARK SMILES IDX 54 46 48 47 49 48 52 49 50 50 76 51 77 52 85 53 78 54 79 55
REMARK SMILES IDX 83 56 86 57 80 58 81 59 84 60 82 61 61 62 62 63 70 64 63 65
REMARK SMILES IDX 64 66 68 67 71 68 65 69 66 70 69 71 67 72 7 73 8 74 9 75
REMARK SMILES IDX 10 76 11 77 12 79 13 80 14 81 18 82 15 83 17 84 16 85 19 86
REMARK SMILES IDX 20 87 21 89 22 90 23 91 33 92 24 93 32 94 34 95 25 96 31 97
REMARK SMILES IDX 26 98 29 99 27 100 28 101 30 102
REMARK H PARENT 3 7 91 25 59 36 10 78 19 88
REMARK Flexibility Score: inf
ROOT
ATOM      1  C   UNL A   1      31.016  31.105  25.329  1.00  0.00     0.002 C 
ENDROOT
BRANCH   1   2
ATOM      2  C   UNL A   1      31.045  31.949  26.603  1.00  0.00     0.021 C 
BRANCH   2   3
ATOM      3  C   UNL A   1      32.372  32.617  26.945  1.00  0.00     0.116 C 
BRANCH   3   4
ATOM      4  N   UNL A   1      32.230  33.968  27.452  1.00  0.00    -0.352 N 
ATOM      5  O   UNL A   1      32.653  35.749  28.765  1.00  0.00    -0.269 OA
ATOM      6  C   UNL A   1      32.977  34.622  28.402  1.00  0.00     0.251 C 
ATOM      7  H   UNL A   1      31.493  34.491  27.061  1.00  0.00     0.163 HD
BRANCH   6   8
ATOM      8  C   UNL A   1      34.157  33.969  29.021  1.00  0.00     0.039 A 
ATOM      9  C   UNL A   1      34.025  32.884  29.890  1.00  0.00     0.014 A 
ATOM     10  C   UNL A   1      35.432  34.438  28.685  1.00  0.00     0.014 A 
ATOM     11  C   UNL A   1      35.153  32.338  30.503  1.00  0.00     0.010 A 
ATOM     12  C   UNL A   1      36.569  33.855  29.255  1.00  0.00     0.010 A 
ATOM     13  C   UNL A   1      36.435  32.817  30.188  1.00  0.00    -0.014 A 
BRANCH  13  14
ATOM     14  C   UNL A   1      37.625  32.178  30.802  1.00  0.00     0.031 A 
ATOM     15  C   UNL A   1      38.070  32.537  32.190  1.00  0.00     0.074 A 
ATOM     16  C   UNL A   1      38.292  31.240  30.103  1.00  0.00     0.049 A 
ATOM     17  N   UNL A   1      39.060  32.042  32.892  1.00  0.00    -0.248 NA
ATOM     18  C   UNL A   1      37.313  33.590  32.881  1.00  0.00     0.031 C 
ATOM     19  C   UNL A   1      37.967  30.820  28.738  1.00  0.00     0.029 A 
ATOM     20  N   UNL A   1      39.365  30.459  30.447  1.00  0.00    -0.354 N 
ATOM     21  C   UNL A   1      39.053  32.730  34.097  1.00  0.00     0.074 A 
ATOM     22  C   UNL A   1      37.971  33.689  34.029  1.00  0.00     0.031 C 
ATOM     23  C   UNL A   1      38.798  29.831  28.376  1.00  0.00     0.029 A 
ATOM     24  C   UNL A   1      39.730  29.568  29.468  1.00  0.00     0.049 A 
ATOM     25  H   UNL A   1      39.829  30.530  31.312  1.00  0.00     0.167 HD
ATOM     26  C   UNL A   1      39.873  32.573  35.162  1.00  0.00     0.037 A 
ATOM     27  C   UNL A   1      40.705  28.642  29.452  1.00  0.00     0.037 A 
ATOM     28  C   UNL A   1      40.939  31.608  35.241  1.00  0.00     0.049 A 
ATOM     29  C   UNL A   1      41.587  28.476  30.654  1.00  0.00     0.074 A 
ATOM     30  C   UNL A   1      41.801  31.355  36.296  1.00  0.00     0.029 A 
ATOM     31  N   UNL A   1      41.288  30.733  34.224  1.00  0.00    -0.354 N 
ATOM     32  N   UNL A   1      41.552  29.116  31.796  1.00  0.00    -0.248 NA
ATOM     33  C   UNL A   1      42.645  27.461  30.564  1.00  0.00     0.031 C 
ATOM     34  C   UNL A   1      42.686  30.341  35.907  1.00  0.00     0.029 A 
ATOM     35  C   UNL A   1      42.358  29.948  34.620  1.00  0.00     0.049 A 
ATOM     36  H   UNL A   1      40.841  30.679  33.347  1.00  0.00     0.167 HD
ATOM     37  C   UNL A   1      42.580  28.586  32.560  1.00  0.00     0.074 A 
ATOM     38  C   UNL A   1      43.207  27.552  31.761  1.00  0.00     0.031 C 
ATOM     39  C   UNL A   1      42.975  28.932  33.809  1.00  0.00     0.037 A 
BRANCH  26  40
ATOM     40  C   UNL A   1      39.656  33.471  36.340  1.00  0.00     0.064 A 
ATOM     41  C   UNL A   1      40.247  34.741  36.409  1.00  0.00     0.173 A 
ATOM     42  C   UNL A   1      38.803  33.081  37.384  1.00  0.00     0.173 A 
ATOM     43  F   UNL A   1      41.075  35.153  35.437  1.00  0.00    -0.203 F 
ATOM     44  C   UNL A   1      39.998  35.586  37.487  1.00  0.00     0.198 A 
ATOM     45  C   UNL A   1      38.545  33.935  38.452  1.00  0.00     0.198 A 
ATOM     46  F   UNL A   1      38.213  31.877  37.360  1.00  0.00    -0.203 F 
ATOM     47  F   UNL A   1      40.584  36.790  37.542  1.00  0.00    -0.200 F 
ATOM     48  C   UNL A   1      39.143  35.185  38.504  1.00  0.00     0.200 A 
ATOM     49  F   UNL A   1      37.713  33.551  39.430  1.00  0.00    -0.200 F 
ATOM     50  F   UNL A   1      38.897  36.006  39.536  1.00  0.00    -0.200 F 
ENDBRANCH  26  40
BRANCH  27  51
ATOM     51  C   UNL A   1      40.878  27.786  28.255  1.00  0.00     0.064 A 
ATOM     52  C   UNL A   1      41.677  28.206  27.185  1.00  0.00     0.173 A 
ATOM     53  C   UNL A   1      40.273  26.525  28.170  1.00  0.00     0.173 A 
ATOM     54  F   UNL A   1      42.260  29.414  27.218  1.00  0.00    -0.203 F 
ATOM     55  C   UNL A   1      41.864  27.395  26.068  1.00  0.00     0.198 A 
ATOM     56  C   UNL A   1      40.474  25.707  27.061  1.00  0.00     0.198 A 
ATOM     57  F   UNL A   1      39.501  26.082  29.173  1.00  0.00    -0.203 F 
ATOM     58  F   UNL A   1      42.615  27.829  25.047  1.00  0.00    -0.200 F 
ATOM     59  C   UNL A   1      41.267  26.144  26.010  1.00  0.00     0.200 A 
ATOM     60  F   UNL A   1      39.905  24.495  27.012  1.00  0.00    -0.200 F 
ATOM     61  F   UNL A   1      41.454  25.361  24.939  1.00  0.00    -0.200 F 
ENDBRANCH  27  51
BRANCH  39  62
ATOM     62  C   UNL A   1      44.142  28.188  34.379  1.00  0.00     0.064 A 
ATOM     63  C   UNL A   1      43.967  26.965  35.041  1.00  0.00     0.173 A 
ATOM     64  C   UNL A   1      45.444  28.690  34.247  1.00  0.00     0.173 A 
ATOM     65  F   UNL A   1      42.736  26.457  35.206  1.00  0.00    -0.203 F 
ATOM     66  C   UNL A   1      45.056  26.277  35.567  1.00  0.00     0.198 A 
ATOM     67  C   UNL A   1      46.533  27.990  34.759  1.00  0.00     0.198 A 
ATOM     68  F   UNL A   1      45.658  29.857  33.621  1.00  0.00    -0.203 F 
ATOM     69  F   UNL A   1      44.865  25.125  36.227  1.00  0.00    -0.200 F 
ATOM     70  C   UNL A   1      46.338  26.787  35.423  1.00  0.00     0.200 A 
ATOM     71  F   UNL A   1      47.771  28.483  34.619  1.00  0.00    -0.200 F 
ATOM     72  F   UNL A   1      47.386  26.125  35.932  1.00  0.00    -0.200 F 
ENDBRANCH  39  62
ENDBRANCH  13  14
ENDBRANCH   6   8
ENDBRANCH   3   4
ENDBRANCH   2   3
ENDBRANCH   1   2
BRANCH   1  73
ATOM     73  C   UNL A   1      29.824  31.295  24.387  1.00  0.00     0.002 C 
BRANCH  73  74
ATOM     74  C   UNL A   1      29.412  30.107  23.508  1.00  0.00     0.021 C 
BRANCH  74  75
ATOM     75  C   UNL A   1      30.481  29.052  23.233  1.00  0.00     0.116 C 
BRANCH  75  76
ATOM     76  N   UNL A   1      30.102  27.716  23.657  1.00  0.00    -0.352 N 
ATOM     77  C   UNL A   1      30.643  26.916  24.633  1.00  0.00     0.253 C 
ATOM     78  H   UNL A   1      29.339  27.325  23.173  1.00  0.00     0.163 HD
ATOM     79  O   UNL A   1      30.229  25.770  24.775  1.00  0.00    -0.269 OA
BRANCH  77  80
ATOM     80  C   UNL A   1      31.734  27.408  25.508  1.00  0.00     0.063 A 
ATOM     81  C   UNL A   1      31.315  28.034  26.693  1.00  0.00     0.016 A 
ATOM     82  C   UNL A   1      33.105  27.323  25.171  1.00  0.00     0.054 A 
ATOM     83  C   UNL A   1      32.256  28.546  27.580  1.00  0.00     0.001 A 
ATOM     84  C   UNL A   1      34.031  27.830  26.088  1.00  0.00     0.027 A 
ATOM     85  C   UNL A   1      33.609  28.436  27.280  1.00  0.00     0.002 A 
BRANCH  82  86
ATOM     86  N   UNL A   1      33.460  26.708  23.950  1.00  0.00    -0.321 N 
ATOM     87  C   UNL A   1      34.058  25.539  23.595  1.00  0.00     0.263 C 
ATOM     88  H   UNL A   1      33.217  27.257  23.171  1.00  0.00     0.170 HD
ATOM     89  O   UNL A   1      33.960  25.180  22.420  1.00  0.00    -0.269 OA
BRANCH  87  90
ATOM     90  C   UNL A   1      34.839  24.748  24.585  1.00  0.00     0.126 A 
ATOM     91  C   UNL A   1      34.282  24.508  25.795  1.00  0.00     0.033 A 
ATOM     92  C   UNL A   1      35.366  23.480  24.011  1.00  0.00     0.349 A 
ATOM     93  C   UNL A   1      33.164  23.542  25.722  1.00  0.00     0.021 A 
ATOM     94  O   UNL A   1      34.438  22.434  23.979  1.00  0.00    -0.421 OA
ATOM     95  O   UNL A   1      36.507  23.382  23.581  1.00  0.00    -0.245 OA
ATOM     96  C   UNL A   1      32.040  23.627  26.538  1.00  0.00     0.032 A 
ATOM     97  C   UNL A   1      33.253  22.533  24.752  1.00  0.00     0.157 A 
ATOM     98  C   UNL A   1      30.996  22.718  26.349  1.00  0.00     0.043 A 
ATOM     99  C   UNL A   1      32.209  21.633  24.560  1.00  0.00     0.085 A 
ATOM    100  Cl  UNL A   1      29.591  22.824  27.338  1.00  0.00    -0.084 Cl
ATOM    101  C   UNL A   1      31.070  21.730  25.360  1.00  0.00     0.045 A 
ATOM    102  Cl  UNL A   1      32.282  20.418  23.343  1.00  0.00    -0.080 Cl
ENDBRANCH  87  90
ENDBRANCH  82  86
ENDBRANCH  77  80
ENDBRANCH  75  76
ENDBRANCH  74  75
ENDBRANCH  73  74
ENDBRANCH   1  73
TORSDOF 15
ENDMDL
MODEL 2
REMARK VINA RESULT:     -12.9      0.382      7.094
REMARK SMILES O=C(NCCCCCCNC(=O)c1ccccc1NC(=O)c1cc2cc(Cl)cc(Cl)c2oc1=O)c1ccc(-c2c3nc(c(-c4c(F)c(F)c(F)c(F)c4F)c4ccc([nH]4)c(-c4c(F)c(F)c(F)c(F)c4F)c4nc(c(-c5c(F)c(F)c(F)c(F)c5F)c5ccc2[nH]5)C=C4)C=C3)cc1
REMARK SMILES IDX 6 1 5 2 4 3 3 4 1 5 2 6 35 8 36 9 97 10 37 11 96 12 38 13
REMARK SMILES IDX 39 14 40 15 90 16 41 17 95 18 89 19 91 20 42 21 94 22 88 23
REMARK SMILES IDX 87 24 43 26 75 27 55 28 74 29 56 30 59 31 73 32 92 33 57 34
REMARK SMILES IDX 58 35 72 37 93 38 60 39 44 40 45 41 53 42 46 43 47 44 51 45
REMARK SMILES IDX 54 46 48 47 49 48 52 49 50 50 76 51 77 52 85 53 78 54 79 55
REMARK SMILES IDX 83 56 86 57 80 58 81 59 84 60 82 61 61 62 62 63 70 64 63 65
REMARK SMILES IDX 64 66 68 67 71 68 65 69 66 70 69 71 67 72 7 73 8 74 9 75
REMARK SMILES IDX 10 76 11 77 12 79 13 80 14 81 18 82 15 83 17 84 16 85 19 86
REMARK SMILES IDX 20 87 21 89 22 90 23 91 33 92 24 93 32 94 34 95 25 96 31 97
REMARK SMILES IDX 26 98 29 99 27 100 28 101 30 102
REMARK H PARENT 3 7 91 25 59 36 10 78 19 88
REMARK Flexibility Score: inf
ROOT
ATOM      1  C   UNL A   1      31.023  31.207  25.341  1.00  0.00     0.002 C 
ENDROOT
BRANCH   1   2
ATOM      2  C   UNL A   1      31.052  32.070  26.603  1.00  0.00     0.021 C 
BRANCH   2   3
ATOM      3  C   UNL A   1      32.378  32.745  26.932  1.00  0.00     0.116 C 
BRANCH   3   4
ATOM      4  N   UNL A   1      32.234  34.104  27.416  1.00  0.00    -0.352 N 
ATOM      5  O   UNL A   1      32.633  35.899  28.718  1.00  0.00    -0.269 OA
ATOM      6  C   UNL A   1      32.956  34.764  28.382  1.00  0.00     0.251 C 
ATOM      7  H   UNL A   1      31.517  34.629  26.993  1.00  0.00     0.163 HD
BRANCH   6   8
ATOM      8  C   UNL A   1      34.107  34.107  29.048  1.00  0.00     0.039 A 
ATOM      9  C   UNL A   1      35.427  34.405  28.701  1.00  0.00     0.014 A 
ATOM     10  C   UNL A   1      33.851  33.195  30.078  1.00  0.00     0.014 A 
ATOM     11  C   UNL A   1      36.480  33.719  29.305  1.00  0.00     0.010 A 
ATOM     12  C   UNL A   1      34.909  32.546  30.724  1.00  0.00     0.010 A 
ATOM     13  C   UNL A   1      36.231  32.786  30.324  1.00  0.00    -0.014 A 
BRANCH  13  14
ATOM     14  C   UNL A   1      37.370  32.116  30.997  1.00  0.00     0.031 A 
ATOM     15  C   UNL A   1      38.161  31.045  30.305  1.00  0.00     0.074 A 
ATOM     16  C   UNL A   1      37.710  32.505  32.241  1.00  0.00     0.049 A 
ATOM     17  N   UNL A   1      39.213  30.390  30.732  1.00  0.00    -0.248 NA
ATOM     18  C   UNL A   1      37.714  30.650  28.961  1.00  0.00     0.031 C 
ATOM     19  C   UNL A   1      37.006  33.522  33.025  1.00  0.00     0.029 A 
ATOM     20  N   UNL A   1      38.740  32.109  33.055  1.00  0.00    -0.354 N 
ATOM     21  C   UNL A   1      39.544  29.500  29.720  1.00  0.00     0.074 A 
ATOM     22  C   UNL A   1      38.574  29.686  28.661  1.00  0.00     0.031 C 
ATOM     23  C   UNL A   1      37.646  33.697  34.190  1.00  0.00     0.029 A 
ATOM     24  C   UNL A   1      38.786  32.787  34.248  1.00  0.00     0.049 A 
ATOM     25  H   UNL A   1      39.383  31.405  32.809  1.00  0.00     0.167 HD
ATOM     26  C   UNL A   1      40.566  28.613  29.678  1.00  0.00     0.037 A 
ATOM     27  C   UNL A   1      39.652  32.688  35.274  1.00  0.00     0.037 A 
ATOM     28  C   UNL A   1      41.543  28.438  30.721  1.00  0.00     0.049 A 
ATOM     29  C   UNL A   1      40.786  31.710  35.192  1.00  0.00     0.074 A 
ATOM     30  C   UNL A   1      42.634  27.584  30.750  1.00  0.00     0.029 A 
ATOM     31  N   UNL A   1      41.548  29.133  31.921  1.00  0.00    -0.354 N 
ATOM     32  N   UNL A   1      41.101  30.893  34.218  1.00  0.00    -0.248 NA
ATOM     33  C   UNL A   1      41.682  31.638  36.354  1.00  0.00     0.031 C 
ATOM     34  C   UNL A   1      43.287  27.747  31.979  1.00  0.00     0.029 A 
ATOM     35  C   UNL A   1      42.616  28.720  32.702  1.00  0.00     0.049 A 
ATOM     36  H   UNL A   1      40.890  29.818  32.180  1.00  0.00     0.167 HD
ATOM     37  C   UNL A   1      42.228  30.209  34.646  1.00  0.00     0.074 A 
ATOM     38  C   UNL A   1      42.558  30.724  35.960  1.00  0.00     0.031 C 
ATOM     39  C   UNL A   1      42.923  29.235  34.010  1.00  0.00     0.037 A 
BRANCH  26  40
ATOM     40  C   UNL A   1      40.683  27.750  28.460  1.00  0.00     0.064 A 
ATOM     41  C   UNL A   1      40.014  26.520  28.369  1.00  0.00     0.173 A 
ATOM     42  C   UNL A   1      41.424  28.184  27.350  1.00  0.00     0.173 A 
ATOM     43  F   UNL A   1      39.300  26.063  29.408  1.00  0.00    -0.203 F 
ATOM     44  C   UNL A   1      40.092  25.751  27.212  1.00  0.00     0.198 A 
ATOM     45  C   UNL A   1      41.486  27.418  26.190  1.00  0.00     0.198 A 
ATOM     46  F   UNL A   1      42.077  29.354  27.389  1.00  0.00    -0.203 F 
ATOM     47  F   UNL A   1      39.459  24.570  27.150  1.00  0.00    -0.200 F 
ATOM     48  C   UNL A   1      40.822  26.203  26.121  1.00  0.00     0.200 A 
ATOM     49  F   UNL A   1      42.185  27.858  25.134  1.00  0.00    -0.200 F 
ATOM     50  F   UNL A   1      40.886  25.463  25.004  1.00  0.00    -0.200 F 
ENDBRANCH  26  40
BRANCH  27  51
ATOM     51  C   UNL A   1      39.481  33.563  36.457  1.00  0.00     0.064 A 
ATOM     52  C   UNL A   1      40.025  34.853  36.476  1.00  0.00     0.173 A 
ATOM     53  C   UNL A   1      38.751  33.139  37.575  1.00  0.00     0.173 A 
ATOM     54  F   UNL A   1      40.747  35.292  35.434  1.00  0.00    -0.203 F 
ATOM     55  C   UNL A   1      39.847  35.690  37.576  1.00  0.00     0.198 A 
ATOM     56  C   UNL A   1      38.557  33.982  38.666  1.00  0.00     0.198 A 
ATOM     57  F   UNL A   1      38.210  31.912  37.598  1.00  0.00    -0.203 F 
ATOM     58  F   UNL A   1      40.396  36.912  37.580  1.00  0.00    -0.200 F 
ATOM     59  C   UNL A   1      39.108  35.255  38.666  1.00  0.00     0.200 A 
ATOM     60  F   UNL A   1      37.835  33.564  39.714  1.00  0.00    -0.200 F 
ATOM     61  F   UNL A   1      38.929  36.064  39.720  1.00  0.00    -0.200 F 
ENDBRANCH  27  51
BRANCH  39  62
ATOM     62  C   UNL A   1      44.101  28.662  34.734  1.00  0.00     0.064 A 
ATOM     63  C   UNL A   1      45.356  29.284  34.679  1.00  0.00     0.173 A 
ATOM     64  C   UNL A   1      43.971  27.497  35.502  1.00  0.00     0.173 A 
ATOM     65  F   UNL A   1      45.529  30.391  33.941  1.00  0.00    -0.203 F 
ATOM     66  C   UNL A   1      46.447  28.748  35.356  1.00  0.00     0.198 A 
ATOM     67  C   UNL A   1      45.060  26.973  36.192  1.00  0.00     0.198 A 
ATOM     68  F   UNL A   1      42.789  26.869  35.583  1.00  0.00    -0.203 F 
ATOM     69  F   UNL A   1      47.648  29.338  35.263  1.00  0.00    -0.200 F 
ATOM     70  C   UNL A   1      46.298  27.596  36.114  1.00  0.00     0.200 A 
ATOM     71  F   UNL A   1      44.916  25.861  36.925  1.00  0.00    -0.200 F 
ATOM     72  F   UNL A   1      47.351  27.079  36.764  1.00  0.00    -0.200 F 
ENDBRANCH  39  62
ENDBRANCH  13  14
ENDBRANCH   6   8
ENDBRANCH   3   4
ENDBRANCH   2   3
ENDBRANCH   1   2
BRANCH   1  73
ATOM     73  C   UNL A   1      29.835  31.391  24.392  1.00  0.00     0.002 C 
BRANCH  73  74
ATOM     74  C   UNL A   1      29.421  30.193  23.527  1.00  0.00     0.021 C 
BRANCH  74  75
ATOM     75  C   UNL A   1      30.487  29.133  23.262  1.00  0.00     0.116 C 
BRANCH  75  76
ATOM     76  N   UNL A   1      30.101  27.801  23.690  1.00  0.00    -0.352 N 
ATOM     77  C   UNL A   1      30.643  26.997  24.663  1.00  0.00     0.253 C 
ATOM     78  H   UNL A   1      29.333  27.415  23.211  1.00  0.00     0.163 HD
ATOM     79  O   UNL A   1      30.220  25.854  24.809  1.00  0.00    -0.269 OA
BRANCH  77  80
ATOM     80  C   UNL A   1      31.742  27.482  25.532  1.00  0.00     0.063 A 
ATOM     81  C   UNL A   1      31.335  28.116  26.717  1.00  0.00     0.016 A 
ATOM     82  C   UNL A   1      33.110  27.384  25.188  1.00  0.00     0.054 A 
ATOM     83  C   UNL A   1      32.284  28.621  27.598  1.00  0.00     0.001 A 
ATOM     84  C   UNL A   1      34.046  27.885  26.099  1.00  0.00     0.027 A 
ATOM     85  C   UNL A   1      33.635  28.498  27.291  1.00  0.00     0.002 A 
BRANCH  82  86
ATOM     86  N   UNL A   1      33.454  26.761  23.968  1.00  0.00    -0.321 N 
ATOM     87  C   UNL A   1      34.040  25.586  23.613  1.00  0.00     0.263 C 
ATOM     88  H   UNL A   1      33.212  27.310  23.187  1.00  0.00     0.170 HD
ATOM     89  O   UNL A   1      33.933  25.224  22.440  1.00  0.00    -0.269 OA
BRANCH  87  90
ATOM     90  C   UNL A   1      34.819  24.792  24.602  1.00  0.00     0.126 A 
ATOM     91  C   UNL A   1      34.260  24.546  25.809  1.00  0.00     0.033 A 
ATOM     92  C   UNL A   1      35.347  23.525  24.024  1.00  0.00     0.349 A 
ATOM     93  C   UNL A   1      33.142  23.580  25.731  1.00  0.00     0.021 A 
ATOM     94  O   UNL A   1      34.420  22.479  23.986  1.00  0.00    -0.421 OA
ATOM     95  O   UNL A   1      36.489  23.429  23.597  1.00  0.00    -0.245 OA
ATOM     96  C   UNL A   1      32.016  23.662  26.545  1.00  0.00     0.032 A 
ATOM     97  C   UNL A   1      33.234  22.575  24.757  1.00  0.00     0.157 A 
ATOM     98  C   UNL A   1      30.973  22.753  26.350  1.00  0.00     0.043 A 
ATOM     99  C   UNL A   1      32.189  21.675  24.559  1.00  0.00     0.085 A 
ATOM    100  Cl  UNL A   1      29.565  22.855  27.337  1.00  0.00    -0.084 Cl
ATOM    101  C   UNL A   1      31.049  21.769  25.357  1.00  0.00     0.045 A 
ATOM    102  Cl  UNL A   1      32.266  20.465  23.338  1.00  0.00    -0.080 Cl
ENDBRANCH  87  90
ENDBRANCH  82  86
ENDBRANCH  77  80
ENDBRANCH  75  76
ENDBRANCH  74  75
ENDBRANCH  73  74
ENDBRANCH   1  73
TORSDOF 15
ENDMDL
MODEL 3
REMARK VINA RESULT:     -12.8      4.993     10.519
REMARK SMILES O=C(NCCCCCCNC(=O)c1ccccc1NC(=O)c1cc2cc(Cl)cc(Cl)c2oc1=O)c1ccc(-c2c3nc(c(-c4c(F)c(F)c(F)c(F)c4F)c4ccc([nH]4)c(-c4c(F)c(F)c(F)c(F)c4F)c4nc(c(-c5c(F)c(F)c(F)c(F)c5F)c5ccc2[nH]5)C=C4)C=C3)cc1
REMARK SMILES IDX 6 1 5 2 4 3 3 4 1 5 2 6 35 8 36 9 97 10 37 11 96 12 38 13
REMARK SMILES IDX 39 14 40 15 90 16 41 17 95 18 89 19 91 20 42 21 94 22 88 23
REMARK SMILES IDX 87 24 43 26 75 27 55 28 74 29 56 30 59 31 73 32 92 33 57 34
REMARK SMILES IDX 58 35 72 37 93 38 60 39 44 40 45 41 53 42 46 43 47 44 51 45
REMARK SMILES IDX 54 46 48 47 49 48 52 49 50 50 76 51 77 52 85 53 78 54 79 55
REMARK SMILES IDX 83 56 86 57 80 58 81 59 84 60 82 61 61 62 62 63 70 64 63 65
REMARK SMILES IDX 64 66 68 67 71 68 65 69 66 70 69 71 67 72 7 73 8 74 9 75
REMARK SMILES IDX 10 76 11 77 12 79 13 80 14 81 18 82 15 83 17 84 16 85 19 86
REMARK SMILES IDX 20 87 21 89 22 90 23 91 33 92 24 93 32 94 34 95 25 96 31 97
REMARK SMILES IDX 26 98 29 99 27 100 28 101 30 102
REMARK H PARENT 3 7 91 25 59 36 10 78 19 88
REMARK Flexibility Score: inf
ROOT
ATOM      1  C   UNL A   1      36.452  20.444  24.966  1.00  0.00     0.002 C 
ENDROOT
BRANCH   1   2
ATOM      2  C   UNL A   1      37.757  19.653  24.874  1.00  0.00     0.021 C 
BRANCH   2   3
ATOM      3  C   UNL A   1      38.898  20.121  25.770  1.00  0.00     0.116 C 
BRANCH   3   4
ATOM      4  N   UNL A   1      40.012  19.194  25.825  1.00  0.00    -0.352 N 
ATOM      5  O   UNL A   1      42.156  18.532  26.029  1.00  0.00    -0.269 OA
ATOM      6  C   UNL A   1      41.333  19.440  26.111  1.00  0.00     0.251 C 
ATOM      7  H   UNL A   1      39.790  18.255  25.629  1.00  0.00     0.163 HD
BRANCH   6   8
ATOM      8  C   UNL A   1      41.786  20.801  26.489  1.00  0.00     0.039 A 
ATOM      9  C   UNL A   1      42.147  21.119  27.801  1.00  0.00     0.014 A 
ATOM     10  C   UNL A   1      41.888  21.773  25.487  1.00  0.00     0.014 A 
ATOM     11  C   UNL A   1      42.505  22.426  28.129  1.00  0.00     0.010 A 
ATOM     12  C   UNL A   1      42.301  23.071  25.804  1.00  0.00     0.010 A 
ATOM     13  C   UNL A   1      42.589  23.413  27.134  1.00  0.00    -0.014 A 
BRANCH  13  14
ATOM     14  C   UNL A   1      43.035  24.780  27.495  1.00  0.00     0.031 A 
ATOM     15  C   UNL A   1      44.437  25.239  27.215  1.00  0.00     0.074 A 
ATOM     16  C   UNL A   1      42.151  25.625  28.059  1.00  0.00     0.049 A 
ATOM     17  N   UNL A   1      44.977  26.414  27.426  1.00  0.00    -0.248 NA
ATOM     18  C   UNL A   1      45.355  24.254  26.626  1.00  0.00     0.031 C 
ATOM     19  C   UNL A   1      40.767  25.289  28.398  1.00  0.00     0.029 A 
ATOM     20  N   UNL A   1      42.276  26.940  28.427  1.00  0.00    -0.354 N 
ATOM     21  C   UNL A   1      46.297  26.307  27.011  1.00  0.00     0.074 A 
ATOM     22  C   UNL A   1      46.484  24.947  26.548  1.00  0.00     0.031 C 
ATOM     23  C   UNL A   1      40.159  26.379  28.889  1.00  0.00     0.029 A 
ATOM     24  C   UNL A   1      41.116  27.481  28.926  1.00  0.00     0.049 A 
ATOM     25  H   UNL A   1      43.115  27.447  28.343  1.00  0.00     0.167 HD
ATOM     26  C   UNL A   1      47.262  27.256  27.012  1.00  0.00     0.037 A 
ATOM     27  C   UNL A   1      40.853  28.726  29.362  1.00  0.00     0.037 A 
ATOM     28  C   UNL A   1      47.075  28.614  27.454  1.00  0.00     0.049 A 
ATOM     29  C   UNL A   1      41.936  29.764  29.334  1.00  0.00     0.074 A 
ATOM     30  C   UNL A   1      47.989  29.655  27.460  1.00  0.00     0.029 A 
ATOM     31  N   UNL A   1      45.891  29.121  27.966  1.00  0.00    -0.354 N 
ATOM     32  N   UNL A   1      43.172  29.654  28.915  1.00  0.00    -0.248 NA
ATOM     33  C   UNL A   1      41.588  31.097  29.844  1.00  0.00     0.031 C 
ATOM     34  C   UNL A   1      47.362  30.787  27.998  1.00  0.00     0.029 A 
ATOM     35  C   UNL A   1      46.053  30.455  28.303  1.00  0.00     0.049 A 
ATOM     36  H   UNL A   1      45.057  28.608  28.076  1.00  0.00     0.167 HD
ATOM     37  C   UNL A   1      43.751  30.898  29.110  1.00  0.00     0.074 A 
ATOM     38  C   UNL A   1      42.723  31.757  29.663  1.00  0.00     0.031 C 
ATOM     39  C   UNL A   1      45.023  31.291  28.861  1.00  0.00     0.037 A 
BRANCH  26  40
ATOM     40  C   UNL A   1      48.621  26.862  26.523  1.00  0.00     0.064 A 
ATOM     41  C   UNL A   1      49.566  26.282  27.381  1.00  0.00     0.173 A 
ATOM     42  C   UNL A   1      48.961  27.013  25.169  1.00  0.00     0.173 A 
ATOM     43  F   UNL A   1      49.287  26.125  28.684  1.00  0.00    -0.203 F 
ATOM     44  C   UNL A   1      50.808  25.874  26.903  1.00  0.00     0.198 A 
ATOM     45  C   UNL A   1      50.198  26.591  24.693  1.00  0.00     0.198 A 
ATOM     46  F   UNL A   1      48.087  27.559  24.311  1.00  0.00    -0.203 F 
ATOM     47  F   UNL A   1      51.705  25.336  27.742  1.00  0.00    -0.200 F 
ATOM     48  C   UNL A   1      51.121  26.023  25.559  1.00  0.00     0.200 A 
ATOM     49  F   UNL A   1      50.496  26.727  23.394  1.00  0.00    -0.200 F 
ATOM     50  F   UNL A   1      52.314  25.621  25.099  1.00  0.00    -0.200 F 
ENDBRANCH  26  40
BRANCH  27  51
ATOM     51  C   UNL A   1      39.491  29.057  29.842  1.00  0.00     0.064 A 
ATOM     52  C   UNL A   1      39.128  28.830  31.176  1.00  0.00     0.173 A 
ATOM     53  C   UNL A   1      38.539  29.629  28.989  1.00  0.00     0.173 A 
ATOM     54  F   UNL A   1      40.004  28.267  32.021  1.00  0.00    -0.203 F 
ATOM     55  C   UNL A   1      37.858  29.163  31.639  1.00  0.00     0.198 A 
ATOM     56  C   UNL A   1      37.274  29.978  29.457  1.00  0.00     0.198 A 
ATOM     57  F   UNL A   1      38.844  29.866  27.705  1.00  0.00    -0.203 F 
ATOM     58  F   UNL A   1      37.527  28.916  32.914  1.00  0.00    -0.200 F 
ATOM     59  C   UNL A   1      36.935  29.742  30.781  1.00  0.00     0.200 A 
ATOM     60  F   UNL A   1      36.388  30.546  28.628  1.00  0.00    -0.200 F 
ATOM     61  F   UNL A   1      35.715  30.069  31.229  1.00  0.00    -0.200 F 
ENDBRANCH  27  51
BRANCH  39  62
ATOM     62  C   UNL A   1      45.370  32.709  29.192  1.00  0.00     0.064 A 
ATOM     63  C   UNL A   1      45.889  33.052  30.448  1.00  0.00     0.173 A 
ATOM     64  C   UNL A   1      45.201  33.727  28.243  1.00  0.00     0.173 A 
ATOM     65  F   UNL A   1      46.050  32.112  31.391  1.00  0.00    -0.203 F 
ATOM     66  C   UNL A   1      46.212  34.372  30.749  1.00  0.00     0.198 A 
ATOM     67  C   UNL A   1      45.541  35.043  28.542  1.00  0.00     0.198 A 
ATOM     68  F   UNL A   1      44.706  33.444  27.029  1.00  0.00    -0.203 F 
ATOM     69  F   UNL A   1      46.676  34.686  31.967  1.00  0.00    -0.200 F 
ATOM     70  C   UNL A   1      46.042  35.365  29.796  1.00  0.00     0.200 A 
ATOM     71  F   UNL A   1      45.377  36.002  27.621  1.00  0.00    -0.200 F 
ATOM     72  F   UNL A   1      46.351  36.636  30.088  1.00  0.00    -0.200 F 
ENDBRANCH  39  62
ENDBRANCH  13  14
ENDBRANCH   6   8
ENDBRANCH   3   4
ENDBRANCH   2   3
ENDBRANCH   1   2
BRANCH   1  73
ATOM     73  C   UNL A   1      36.477  21.897  24.485  1.00  0.00     0.002 C 
BRANCH  73  74
ATOM     74  C   UNL A   1      36.541  23.000  25.551  1.00  0.00     0.021 C 
BRANCH  74  75
ATOM     75  C   UNL A   1      35.273  23.820  25.770  1.00  0.00     0.116 C 
BRANCH  75  76
ATOM     76  N   UNL A   1      34.429  23.313  26.837  1.00  0.00    -0.352 N 
ATOM     77  C   UNL A   1      33.068  23.132  26.873  1.00  0.00     0.253 C 
ATOM     78  H   UNL A   1      34.906  23.057  27.659  1.00  0.00     0.163 HD
ATOM     79  O   UNL A   1      32.533  22.771  27.916  1.00  0.00    -0.269 OA
BRANCH  77  80
ATOM     80  C   UNL A   1      32.231  23.382  25.675  1.00  0.00     0.063 A 
ATOM     81  C   UNL A   1      32.321  22.410  24.667  1.00  0.00     0.016 A 
ATOM     82  C   UNL A   1      31.438  24.541  25.505  1.00  0.00     0.054 A 
ATOM     83  C   UNL A   1      31.588  22.553  23.494  1.00  0.00     0.001 A 
ATOM     84  C   UNL A   1      30.697  24.653  24.323  1.00  0.00     0.027 A 
ATOM     85  C   UNL A   1      30.775  23.668  23.328  1.00  0.00     0.002 A 
BRANCH  82  86
ATOM     86  N   UNL A   1      31.413  25.498  26.544  1.00  0.00    -0.321 N 
ATOM     87  C   UNL A   1      31.882  26.765  26.703  1.00  0.00     0.263 C 
ATOM     88  H   UNL A   1      30.944  25.169  27.344  1.00  0.00     0.170 HD
ATOM     89  O   UNL A   1      31.437  27.426  27.643  1.00  0.00    -0.269 OA
BRANCH  87  90
ATOM     90  C   UNL A   1      32.928  27.311  25.796  1.00  0.00     0.126 A 
ATOM     91  C   UNL A   1      32.611  27.504  24.495  1.00  0.00     0.033 A 
ATOM     92  C   UNL A   1      33.573  28.536  26.345  1.00  0.00     0.349 A 
ATOM     93  C   UNL A   1      31.679  28.636  24.300  1.00  0.00     0.021 A 
ATOM     94  O   UNL A   1      32.845  29.712  26.136  1.00  0.00    -0.421 OA
ATOM     95  O   UNL A   1      34.635  28.499  26.950  1.00  0.00    -0.245 OA
ATOM     96  C   UNL A   1      30.693  28.641  23.317  1.00  0.00     0.032 A 
ATOM     97  C   UNL A   1      31.792  29.717  25.186  1.00  0.00     0.157 A 
ATOM     98  C   UNL A   1      29.806  29.718  23.254  1.00  0.00     0.043 A 
ATOM     99  C   UNL A   1      30.901  30.785  25.127  1.00  0.00     0.085 A 
ATOM    100  Cl  UNL A   1      28.569  29.727  22.055  1.00  0.00    -0.084 Cl
ATOM    101  C   UNL A   1      29.898  30.783  24.158  1.00  0.00     0.045 A 
ATOM    102  Cl  UNL A   1      30.998  32.099  26.236  1.00  0.00    -0.080 Cl
ENDBRANCH  87  90
ENDBRANCH  82  86
ENDBRANCH  77  80
ENDBRANCH  75  76
ENDBRANCH  74  75
ENDBRANCH  73  74
ENDBRANCH   1  73
TORSDOF 15
ENDMDL
