MODEL 1
REMARK VINA RESULT:     -12.3      0.000      0.000
REMARK SMILES NC(=O)[C@@H]1CCCCN1c1cncc(C(=O)NCCCCCCNC(=O)c2ccc(-c3c4nc(c(-c5c(F)c(F)c(F)c(F)c5F)c5ccc([nH]5)c(-c5c(F)c(F)c(F)c(F)c5F)c5nc(c(-c6c(F)c(F)c(F)c(F)c6F)c6ccc3[nH]6)C=C5)C=C4)cc2)n1
REMARK SMILES IDX 20 1 19 2 18 3 17 4 15 5 16 6 14 8 10 9 11 10 90 11 12 12
REMARK SMILES IDX 13 13 9 14 4 15 5 16 6 17 8 18 7 19 2 20 1 21 3 24 21 25
REMARK SMILES IDX 22 26 23 27 24 28 25 29 26 31 27 32 28 33 89 34 29 35 88 36
REMARK SMILES IDX 30 37 31 38 32 39 82 40 33 41 87 42 81 43 83 44 34 45 86 46
REMARK SMILES IDX 80 47 79 48 35 50 67 51 47 52 66 53 48 54 51 55 65 56 84 57
REMARK SMILES IDX 49 58 50 59 64 61 85 62 52 63 36 64 37 65 45 66 38 67 39 68
REMARK SMILES IDX 43 69 46 70 40 71 41 72 44 73 42 74 68 75 69 76 77 77 70 78
REMARK SMILES IDX 71 79 75 80 78 81 72 82 73 83 76 84 74 85 53 86 54 87 62 88
REMARK SMILES IDX 55 89 56 90 60 91 63 92 57 93 58 94 61 95 59 96
REMARK H PARENT 17 7 1 22 1 23 24 30 83 49 51 60
REMARK Flexibility Score: inf
ROOT
ATOM      1  C   UNL A   1      32.273  29.969  27.207  1.00  0.00     0.002 C 
ENDROOT
BRANCH   1   2
ATOM      2  C   UNL A   1      32.099  28.450  27.113  1.00  0.00     0.021 C 
BRANCH   2   3
ATOM      3  C   UNL A   1      33.360  27.704  26.690  1.00  0.00     0.116 C 
BRANCH   3   4
ATOM      4  N   UNL A   1      33.748  28.029  25.333  1.00  0.00    -0.351 N 
ATOM      5  C   UNL A   1      33.428  27.440  24.130  1.00  0.00     0.271 C 
ATOM      6  O   UNL A   1      33.963  27.901  23.118  1.00  0.00    -0.267 OA
ATOM      7  H   UNL A   1      34.346  28.807  25.257  1.00  0.00     0.163 HD
BRANCH   5   8
ATOM      8  C   UNL A   1      32.492  26.286  24.001  1.00  0.00     0.148 A 
ATOM      9  C   UNL A   1      32.022  24.031  24.204  1.00  0.00     0.148 A 
ATOM     10  C   UNL A   1      30.742  24.303  23.707  1.00  0.00     0.157 A 
ATOM     11  N   UNL A   1      32.905  25.038  24.347  1.00  0.00    -0.222 NA
ATOM     12  N   UNL A   1      30.303  25.537  23.350  1.00  0.00    -0.258 NA
ATOM     13  C   UNL A   1      31.211  26.526  23.523  1.00  0.00     0.145 A 
BRANCH   9  14
ATOM     14  N   UNL A   1      32.405  22.753  24.552  1.00  0.00    -0.343 N 
ATOM     15  C   UNL A   1      32.169  22.201  25.904  1.00  0.00     0.172 C 
ATOM     16  C   UNL A   1      33.506  22.043  26.642  1.00  0.00     0.035 C 
ATOM     17  C   UNL A   1      34.513  21.258  25.801  1.00  0.00     0.004 C 
ATOM     18  C   UNL A   1      33.366  22.059  23.700  1.00  0.00     0.119 C 
ATOM     19  C   UNL A   1      34.701  21.914  24.436  1.00  0.00     0.022 C 
BRANCH  15  20
ATOM     20  C   UNL A   1      31.048  22.915  26.709  1.00  0.00     0.240 C 
ATOM     21  N   UNL A   1      29.778  22.411  26.649  1.00  0.00    -0.368 N 
ATOM     22  H   UNL A   1      29.051  22.845  27.150  1.00  0.00     0.159 HD
ATOM     23  H   UNL A   1      29.592  21.611  26.105  1.00  0.00     0.159 HD
ATOM     24  O   UNL A   1      31.239  23.943  27.360  1.00  0.00    -0.273 OA
ENDBRANCH  15  20
ENDBRANCH   9  14
ENDBRANCH   5   8
ENDBRANCH   3   4
ENDBRANCH   2   3
ENDBRANCH   1   2
BRANCH   1  25
ATOM     25  C   UNL A   1      31.447  30.782  26.202  1.00  0.00     0.002 C 
BRANCH  25  26
ATOM     26  C   UNL A   1      31.388  32.288  26.470  1.00  0.00     0.021 C 
BRANCH  26  27
ATOM     27  C   UNL A   1      32.573  32.844  27.251  1.00  0.00     0.116 C 
BRANCH  27  28
ATOM     28  N   UNL A   1      32.378  34.234  27.626  1.00  0.00    -0.352 N 
ATOM     29  C   UNL A   1      32.988  34.964  28.612  1.00  0.00     0.251 C 
ATOM     30  H   UNL A   1      31.709  34.723  27.095  1.00  0.00     0.163 HD
ATOM     31  O   UNL A   1      32.555  36.078  28.913  1.00  0.00    -0.269 OA
BRANCH  29  32
ATOM     32  C   UNL A   1      34.155  34.414  29.331  1.00  0.00     0.039 A 
ATOM     33  C   UNL A   1      33.950  33.753  30.544  1.00  0.00     0.014 A 
ATOM     34  C   UNL A   1      35.449  34.567  28.824  1.00  0.00     0.014 A 
ATOM     35  C   UNL A   1      35.035  33.195  31.222  1.00  0.00     0.010 A 
ATOM     36  C   UNL A   1      36.521  33.950  29.464  1.00  0.00     0.010 A 
ATOM     37  C   UNL A   1      36.325  33.263  30.672  1.00  0.00    -0.014 A 
BRANCH  37  38
ATOM     38  C   UNL A   1      37.482  32.620  31.345  1.00  0.00     0.031 A 
ATOM     39  C   UNL A   1      38.185  31.459  30.699  1.00  0.00     0.074 A 
ATOM     40  C   UNL A   1      37.851  33.035  32.572  1.00  0.00     0.049 A 
ATOM     41  N   UNL A   1      39.165  30.724  31.161  1.00  0.00    -0.248 NA
ATOM     42  C   UNL A   1      37.702  31.051  29.371  1.00  0.00     0.031 C 
ATOM     43  C   UNL A   1      37.210  34.113  33.326  1.00  0.00     0.029 A 
ATOM     44  N   UNL A   1      38.843  32.589  33.408  1.00  0.00    -0.354 N 
ATOM     45  C   UNL A   1      39.401  29.757  30.192  1.00  0.00     0.074 A 
ATOM     46  C   UNL A   1      38.430  29.969  29.140  1.00  0.00     0.031 C 
ATOM     47  C   UNL A   1      37.832  34.253  34.506  1.00  0.00     0.029 A 
ATOM     48  C   UNL A   1      38.891  33.253  34.609  1.00  0.00     0.049 A 
ATOM     49  H   UNL A   1      39.462  31.861  33.170  1.00  0.00     0.167 HD
ATOM     50  C   UNL A   1      40.353  28.795  30.175  1.00  0.00     0.037 A 
ATOM     51  C   UNL A   1      39.692  33.071  35.675  1.00  0.00     0.037 A 
ATOM     52  C   UNL A   1      41.336  28.610  31.209  1.00  0.00     0.049 A 
ATOM     53  C   UNL A   1      40.755  32.008  35.624  1.00  0.00     0.074 A 
ATOM     54  C   UNL A   1      42.397  27.721  31.245  1.00  0.00     0.029 A 
ATOM     55  N   UNL A   1      41.376  29.325  32.398  1.00  0.00    -0.354 N 
ATOM     56  N   UNL A   1      41.023  31.154  34.666  1.00  0.00    -0.248 NA
ATOM     57  C   UNL A   1      41.631  31.890  36.796  1.00  0.00     0.031 C 
ATOM     58  C   UNL A   1      43.044  27.861  32.477  1.00  0.00     0.029 A 
ATOM     59  C   UNL A   1      42.424  28.876  33.187  1.00  0.00     0.049 A 
ATOM     60  H   UNL A   1      40.752  30.046  32.645  1.00  0.00     0.167 HD
ATOM     61  C   UNL A   1      42.111  30.414  35.108  1.00  0.00     0.074 A 
ATOM     62  C   UNL A   1      42.463  30.930  36.415  1.00  0.00     0.031 C 
ATOM     63  C   UNL A   1      42.760  29.399  34.487  1.00  0.00     0.037 A 
BRANCH  50  64
ATOM     64  C   UNL A   1      40.375  27.861  28.998  1.00  0.00     0.064 A 
ATOM     65  C   UNL A   1      39.637  26.667  28.986  1.00  0.00     0.173 A 
ATOM     66  C   UNL A   1      41.125  28.178  27.855  1.00  0.00     0.173 A 
ATOM     67  F   UNL A   1      38.912  26.310  30.057  1.00  0.00    -0.203 F 
ATOM     68  C   UNL A   1      39.677  25.810  27.888  1.00  0.00     0.198 A 
ATOM     69  C   UNL A   1      41.136  27.335  26.747  1.00  0.00     0.198 A 
ATOM     70  F   UNL A   1      41.844  29.309  27.809  1.00  0.00    -0.203 F 
ATOM     71  F   UNL A   1      39.008  24.649  27.923  1.00  0.00    -0.200 F 
ATOM     72  C   UNL A   1      40.420  26.147  26.768  1.00  0.00     0.200 A 
ATOM     73  F   UNL A   1      41.844  27.669  25.659  1.00  0.00    -0.200 F 
ATOM     74  F   UNL A   1      40.454  25.324  25.711  1.00  0.00    -0.200 F 
ENDBRANCH  50  64
BRANCH  51  75
ATOM     75  C   UNL A   1      39.526  33.933  36.874  1.00  0.00     0.064 A 
ATOM     76  C   UNL A   1      38.768  33.505  37.973  1.00  0.00     0.173 A 
ATOM     77  C   UNL A   1      40.136  35.194  36.953  1.00  0.00     0.173 A 
ATOM     78  F   UNL A   1      38.150  32.315  37.935  1.00  0.00    -0.203 F 
ATOM     79  C   UNL A   1      38.612  34.311  39.098  1.00  0.00     0.198 A 
ATOM     80  C   UNL A   1      40.003  35.987  38.091  1.00  0.00     0.198 A 
ATOM     81  F   UNL A   1      40.880  35.646  35.933  1.00  0.00    -0.203 F 
ATOM     82  F   UNL A   1      37.849  33.894  40.118  1.00  0.00    -0.200 F 
ATOM     83  C   UNL A   1      39.236  35.549  39.159  1.00  0.00     0.200 A 
ATOM     84  F   UNL A   1      40.622  37.174  38.152  1.00  0.00    -0.200 F 
ATOM     85  F   UNL A   1      39.094  36.320  40.245  1.00  0.00    -0.200 F 
ENDBRANCH  51  75
BRANCH  63  86
ATOM     86  C   UNL A   1      43.933  28.791  35.202  1.00  0.00     0.064 A 
ATOM     87  C   UNL A   1      45.237  29.272  35.019  1.00  0.00     0.173 A 
ATOM     88  C   UNL A   1      43.742  27.743  36.116  1.00  0.00     0.173 A 
ATOM     89  F   UNL A   1      45.475  30.263  34.145  1.00  0.00    -0.203 F 
ATOM     90  C   UNL A   1      46.311  28.710  35.704  1.00  0.00     0.198 A 
ATOM     91  C   UNL A   1      44.812  27.204  36.822  1.00  0.00     0.198 A 
ATOM     92  F   UNL A   1      42.513  27.251  36.333  1.00  0.00    -0.203 F 
ATOM     93  F   UNL A   1      47.554  29.153  35.476  1.00  0.00    -0.200 F 
ATOM     94  C   UNL A   1      46.096  27.682  36.610  1.00  0.00     0.200 A 
ATOM     95  F   UNL A   1      44.602  26.220  37.708  1.00  0.00    -0.200 F 
ATOM     96  F   UNL A   1      47.130  27.148  37.275  1.00  0.00    -0.200 F 
ENDBRANCH  63  86
ENDBRANCH  37  38
ENDBRANCH  29  32
ENDBRANCH  27  28
ENDBRANCH  26  27
ENDBRANCH  25  26
ENDBRANCH   1  25
TORSDOF 15
ENDMDL
MODEL 2
REMARK VINA RESULT:     -12.2      1.156      2.205
REMARK SMILES NC(=O)[C@@H]1CCCCN1c1cncc(C(=O)NCCCCCCNC(=O)c2ccc(-c3c4nc(c(-c5c(F)c(F)c(F)c(F)c5F)c5ccc([nH]5)c(-c5c(F)c(F)c(F)c(F)c5F)c5nc(c(-c6c(F)c(F)c(F)c(F)c6F)c6ccc3[nH]6)C=C5)C=C4)cc2)n1
REMARK SMILES IDX 20 1 19 2 18 3 17 4 15 5 16 6 14 8 10 9 11 10 90 11 12 12
REMARK SMILES IDX 13 13 9 14 4 15 5 16 6 17 8 18 7 19 2 20 1 21 3 24 21 25
REMARK SMILES IDX 22 26 23 27 24 28 25 29 26 31 27 32 28 33 89 34 29 35 88 36
REMARK SMILES IDX 30 37 31 38 32 39 82 40 33 41 87 42 81 43 83 44 34 45 86 46
REMARK SMILES IDX 80 47 79 48 35 50 67 51 47 52 66 53 48 54 51 55 65 56 84 57
REMARK SMILES IDX 49 58 50 59 64 61 85 62 52 63 36 64 37 65 45 66 38 67 39 68
REMARK SMILES IDX 43 69 46 70 40 71 41 72 44 73 42 74 68 75 69 76 77 77 70 78
REMARK SMILES IDX 71 79 75 80 78 81 72 82 73 83 76 84 74 85 53 86 54 87 62 88
REMARK SMILES IDX 55 89 56 90 60 91 63 92 57 93 58 94 61 95 59 96
REMARK H PARENT 17 7 1 22 1 23 24 30 83 49 51 60
REMARK Flexibility Score: inf
ROOT
ATOM      1  C   UNL A   1      32.406  29.818  26.808  1.00  0.00     0.002 C 
ENDROOT
BRANCH   1   2
ATOM      2  C   UNL A   1      31.739  28.539  27.324  1.00  0.00     0.021 C 
BRANCH   2   3
ATOM      3  C   UNL A   1      31.809  27.365  26.352  1.00  0.00     0.116 C 
BRANCH   3   4
ATOM      4  N   UNL A   1      31.271  26.152  26.934  1.00  0.00    -0.351 N 
ATOM      5  C   UNL A   1      31.259  24.853  26.480  1.00  0.00     0.271 C 
ATOM      6  O   UNL A   1      30.664  24.021  27.170  1.00  0.00    -0.267 OA
ATOM      7  H   UNL A   1      30.837  26.281  27.809  1.00  0.00     0.163 HD
BRANCH   5   8
ATOM      8  C   UNL A   1      31.910  24.418  25.210  1.00  0.00     0.148 A 
ATOM      9  C   UNL A   1      33.647  23.400  24.074  1.00  0.00     0.148 A 
ATOM     10  C   UNL A   1      32.985  23.713  22.880  1.00  0.00     0.157 A 
ATOM     11  N   UNL A   1      33.100  23.763  25.250  1.00  0.00    -0.222 NA
ATOM     12  N   UNL A   1      31.799  24.368  22.810  1.00  0.00    -0.258 NA
ATOM     13  C   UNL A   1      31.272  24.702  24.010  1.00  0.00     0.145 A 
BRANCH   9  14
ATOM     14  N   UNL A   1      34.852  22.728  24.077  1.00  0.00    -0.343 N 
ATOM     15  C   UNL A   1      35.022  21.423  24.753  1.00  0.00     0.172 C 
ATOM     16  C   UNL A   1      35.919  21.589  25.988  1.00  0.00     0.035 C 
ATOM     17  C   UNL A   1      37.226  22.297  25.631  1.00  0.00     0.004 C 
ATOM     18  C   UNL A   1      36.059  23.465  23.721  1.00  0.00     0.119 C 
ATOM     19  C   UNL A   1      36.945  23.638  24.958  1.00  0.00     0.022 C 
BRANCH  15  20
ATOM     20  C   UNL A   1      33.702  20.639  24.992  1.00  0.00     0.240 C 
ATOM     21  N   UNL A   1      33.341  20.344  26.278  1.00  0.00    -0.368 N 
ATOM     22  H   UNL A   1      32.509  19.849  26.455  1.00  0.00     0.159 HD
ATOM     23  H   UNL A   1      33.914  20.627  27.027  1.00  0.00     0.159 HD
ATOM     24  O   UNL A   1      32.988  20.231  24.076  1.00  0.00    -0.273 OA
ENDBRANCH  15  20
ENDBRANCH   9  14
ENDBRANCH   5   8
ENDBRANCH   3   4
ENDBRANCH   2   3
ENDBRANCH   1   2
BRANCH   1  25
ATOM     25  C   UNL A   1      31.501  30.733  25.975  1.00  0.00     0.002 C 
BRANCH  25  26
ATOM     26  C   UNL A   1      31.309  32.147  26.532  1.00  0.00     0.021 C 
BRANCH  26  27
ATOM     27  C   UNL A   1      32.536  32.732  27.221  1.00  0.00     0.116 C 
BRANCH  27  28
ATOM     28  N   UNL A   1      32.346  34.127  27.584  1.00  0.00    -0.352 N 
ATOM     29  C   UNL A   1      32.975  34.869  28.548  1.00  0.00     0.251 C 
ATOM     30  H   UNL A   1      31.666  34.609  27.059  1.00  0.00     0.163 HD
ATOM     31  O   UNL A   1      32.546  35.986  28.844  1.00  0.00    -0.269 OA
BRANCH  29  32
ATOM     32  C   UNL A   1      34.156  34.330  29.251  1.00  0.00     0.039 A 
ATOM     33  C   UNL A   1      33.968  33.624  30.442  1.00  0.00     0.014 A 
ATOM     34  C   UNL A   1      35.445  34.534  28.752  1.00  0.00     0.014 A 
ATOM     35  C   UNL A   1      35.068  33.075  31.103  1.00  0.00     0.010 A 
ATOM     36  C   UNL A   1      36.534  33.927  29.373  1.00  0.00     0.010 A 
ATOM     37  C   UNL A   1      36.356  33.196  30.558  1.00  0.00    -0.014 A 
BRANCH  37  38
ATOM     38  C   UNL A   1      37.530  32.564  31.212  1.00  0.00     0.031 A 
ATOM     39  C   UNL A   1      38.225  31.400  30.562  1.00  0.00     0.074 A 
ATOM     40  C   UNL A   1      37.923  32.992  32.427  1.00  0.00     0.049 A 
ATOM     41  N   UNL A   1      39.217  30.674  31.009  1.00  0.00    -0.248 NA
ATOM     42  C   UNL A   1      37.715  30.979  29.248  1.00  0.00     0.031 C 
ATOM     43  C   UNL A   1      37.293  34.074  33.185  1.00  0.00     0.029 A 
ATOM     44  N   UNL A   1      38.935  32.557  33.245  1.00  0.00    -0.354 N 
ATOM     45  C   UNL A   1      39.437  29.700  30.044  1.00  0.00     0.074 A 
ATOM     46  C   UNL A   1      38.443  29.898  29.011  1.00  0.00     0.031 C 
ATOM     47  C   UNL A   1      37.939  34.227  34.351  1.00  0.00     0.029 A 
ATOM     48  C   UNL A   1      39.005  33.233  34.439  1.00  0.00     0.049 A 
ATOM     49  H   UNL A   1      39.552  31.830  33.001  1.00  0.00     0.167 HD
ATOM     50  C   UNL A   1      40.393  28.741  30.014  1.00  0.00     0.037 A 
ATOM     51  C   UNL A   1      39.830  33.063  35.490  1.00  0.00     0.037 A 
ATOM     52  C   UNL A   1      41.398  28.570  31.030  1.00  0.00     0.049 A 
ATOM     53  C   UNL A   1      40.896  32.004  35.426  1.00  0.00     0.074 A 
ATOM     54  C   UNL A   1      42.463  27.685  31.050  1.00  0.00     0.029 A 
ATOM     55  N   UNL A   1      41.460  29.296  32.211  1.00  0.00    -0.354 N 
ATOM     56  N   UNL A   1      41.148  31.143  34.469  1.00  0.00    -0.248 NA
ATOM     57  C   UNL A   1      41.797  31.900  36.580  1.00  0.00     0.031 C 
ATOM     58  C   UNL A   1      43.136  27.839  32.267  1.00  0.00     0.029 A 
ATOM     59  C   UNL A   1      42.526  28.858  32.981  1.00  0.00     0.049 A 
ATOM     60  H   UNL A   1      40.838  30.016  32.464  1.00  0.00     0.167 HD
ATOM     61  C   UNL A   1      42.248  30.411  34.895  1.00  0.00     0.074 A 
ATOM     62  C   UNL A   1      42.625  30.941  36.189  1.00  0.00     0.031 C 
ATOM     63  C   UNL A   1      42.888  29.393  34.269  1.00  0.00     0.037 A 
BRANCH  50  64
ATOM     64  C   UNL A   1      40.394  27.796  28.846  1.00  0.00     0.064 A 
ATOM     65  C   UNL A   1      41.166  28.037  27.699  1.00  0.00     0.173 A 
ATOM     66  C   UNL A   1      39.631  26.618  28.886  1.00  0.00     0.173 A 
ATOM     67  F   UNL A   1      41.905  29.153  27.605  1.00  0.00    -0.203 F 
ATOM     68  C   UNL A   1      41.147  27.153  26.623  1.00  0.00     0.198 A 
ATOM     69  C   UNL A   1      39.641  25.721  27.822  1.00  0.00     0.198 A 
ATOM     70  F   UNL A   1      38.880  26.335  29.960  1.00  0.00    -0.203 F 
ATOM     71  F   UNL A   1      41.850  27.433  25.517  1.00  0.00    -0.200 F 
ATOM     72  C   UNL A   1      40.391  25.993  26.687  1.00  0.00     0.200 A 
ATOM     73  F   UNL A   1      38.920  24.593  27.891  1.00  0.00    -0.200 F 
ATOM     74  F   UNL A   1      40.378  25.141  25.653  1.00  0.00    -0.200 F 
ENDBRANCH  50  64
BRANCH  51  75
ATOM     75  C   UNL A   1      39.685  33.935  36.685  1.00  0.00     0.064 A 
ATOM     76  C   UNL A   1      38.884  33.550  37.768  1.00  0.00     0.173 A 
ATOM     77  C   UNL A   1      40.359  35.163  36.775  1.00  0.00     0.173 A 
ATOM     78  F   UNL A   1      38.205  32.394  37.719  1.00  0.00    -0.203 F 
ATOM     79  C   UNL A   1      38.748  34.365  38.889  1.00  0.00     0.198 A 
ATOM     80  C   UNL A   1      40.245  35.964  37.909  1.00  0.00     0.198 A 
ATOM     81  F   UNL A   1      41.146  35.573  35.769  1.00  0.00    -0.203 F 
ATOM     82  F   UNL A   1      37.944  33.991  39.894  1.00  0.00    -0.200 F 
ATOM     83  C   UNL A   1      39.434  35.568  38.962  1.00  0.00     0.200 A 
ATOM     84  F   UNL A   1      40.925  37.117  37.981  1.00  0.00    -0.200 F 
ATOM     85  F   UNL A   1      39.312  36.348  40.044  1.00  0.00    -0.200 F 
ENDBRANCH  51  75
BRANCH  63  86
ATOM     86  C   UNL A   1      44.078  28.798  34.965  1.00  0.00     0.064 A 
ATOM     87  C   UNL A   1      43.955  27.695  35.822  1.00  0.00     0.173 A 
ATOM     88  C   UNL A   1      45.364  29.311  34.736  1.00  0.00     0.173 A 
ATOM     89  F   UNL A   1      42.745  27.177  36.086  1.00  0.00    -0.203 F 
ATOM     90  C   UNL A   1      45.072  27.143  36.444  1.00  0.00     0.198 A 
ATOM     91  C   UNL A   1      46.482  28.738  35.335  1.00  0.00     0.198 A 
ATOM     92  F   UNL A   1      45.538  30.361  33.918  1.00  0.00    -0.203 F 
ATOM     93  F   UNL A   1      44.924  26.120  37.297  1.00  0.00    -0.200 F 
ATOM     94  C   UNL A   1      46.334  27.660  36.194  1.00  0.00     0.200 A 
ATOM     95  F   UNL A   1      47.703  29.229  35.081  1.00  0.00    -0.200 F 
ATOM     96  F   UNL A   1      47.409  27.122  36.787  1.00  0.00    -0.200 F 
ENDBRANCH  63  86
ENDBRANCH  37  38
ENDBRANCH  29  32
ENDBRANCH  27  28
ENDBRANCH  26  27
ENDBRANCH  25  26
ENDBRANCH   1  25
TORSDOF 15
ENDMDL
MODEL 3
REMARK VINA RESULT:     -12.1      2.000      7.905
REMARK SMILES NC(=O)[C@@H]1CCCCN1c1cncc(C(=O)NCCCCCCNC(=O)c2ccc(-c3c4nc(c(-c5c(F)c(F)c(F)c(F)c5F)c5ccc([nH]5)c(-c5c(F)c(F)c(F)c(F)c5F)c5nc(c(-c6c(F)c(F)c(F)c(F)c6F)c6ccc3[nH]6)C=C5)C=C4)cc2)n1
REMARK SMILES IDX 20 1 19 2 18 3 17 4 15 5 16 6 14 8 10 9 11 10 90 11 12 12
REMARK SMILES IDX 13 13 9 14 4 15 5 16 6 17 8 18 7 19 2 20 1 21 3 24 21 25
REMARK SMILES IDX 22 26 23 27 24 28 25 29 26 31 27 32 28 33 89 34 29 35 88 36
REMARK SMILES IDX 30 37 31 38 32 39 82 40 33 41 87 42 81 43 83 44 34 45 86 46
REMARK SMILES IDX 80 47 79 48 35 50 67 51 47 52 66 53 48 54 51 55 65 56 84 57
REMARK SMILES IDX 49 58 50 59 64 61 85 62 52 63 36 64 37 65 45 66 38 67 39 68
REMARK SMILES IDX 43 69 46 70 40 71 41 72 44 73 42 74 68 75 69 76 77 77 70 78
REMARK SMILES IDX 71 79 75 80 78 81 72 82 73 83 76 84 74 85 53 86 54 87 62 88
REMARK SMILES IDX 55 89 56 90 60 91 63 92 57 93 58 94 61 95 59 96
REMARK H PARENT 17 7 1 22 1 23 24 30 83 49 51 60
REMARK Flexibility Score: inf
ROOT
ATOM      1  C   UNL A   1      34.831  32.649  29.235  1.00  0.00     0.002 C 
ENDROOT
BRANCH   1   2
ATOM      2  C   UNL A   1      35.495  31.750  28.188  1.00  0.00     0.021 C 
BRANCH   2   3
ATOM      3  C   UNL A   1      34.565  30.698  27.591  1.00  0.00     0.116 C 
BRANCH   3   4
ATOM      4  N   UNL A   1      33.269  31.252  27.256  1.00  0.00    -0.351 N 
ATOM      5  C   UNL A   1      32.146  30.674  26.709  1.00  0.00     0.271 C 
ATOM      6  O   UNL A   1      31.190  31.416  26.473  1.00  0.00    -0.267 OA
ATOM      7  H   UNL A   1      33.176  32.212  27.455  1.00  0.00     0.163 HD
BRANCH   5   8
ATOM      8  C   UNL A   1      32.043  29.221  26.385  1.00  0.00     0.148 A 
ATOM      9  C   UNL A   1      32.398  27.439  24.957  1.00  0.00     0.148 A 
ATOM     10  C   UNL A   1      31.781  26.617  25.908  1.00  0.00     0.157 A 
ATOM     11  N   UNL A   1      32.524  28.756  25.202  1.00  0.00    -0.222 NA
ATOM     12  N   UNL A   1      31.288  27.053  27.095  1.00  0.00    -0.258 NA
ATOM     13  C   UNL A   1      31.447  28.379  27.314  1.00  0.00     0.145 A 
BRANCH   9  14
ATOM     14  N   UNL A   1      32.882  26.931  23.769  1.00  0.00    -0.343 N 
ATOM     15  C   UNL A   1      32.099  26.981  22.515  1.00  0.00     0.172 C 
ATOM     16  C   UNL A   1      31.655  25.565  22.121  1.00  0.00     0.035 C 
ATOM     17  C   UNL A   1      32.841  24.601  22.094  1.00  0.00     0.004 C 
ATOM     18  C   UNL A   1      34.021  26.020  23.816  1.00  0.00     0.119 C 
ATOM     19  C   UNL A   1      33.571  24.607  23.434  1.00  0.00     0.022 C 
BRANCH  15  20
ATOM     20  C   UNL A   1      30.979  28.058  22.493  1.00  0.00     0.240 C 
ATOM     21  N   UNL A   1      31.324  29.354  22.223  1.00  0.00    -0.368 N 
ATOM     22  H   UNL A   1      30.632  30.054  22.204  1.00  0.00     0.159 HD
ATOM     23  H   UNL A   1      32.265  29.586  22.048  1.00  0.00     0.159 HD
ATOM     24  O   UNL A   1      29.802  27.808  22.753  1.00  0.00    -0.273 OA
ENDBRANCH  15  20
ENDBRANCH   9  14
ENDBRANCH   5   8
ENDBRANCH   3   4
ENDBRANCH   2   3
ENDBRANCH   1   2
BRANCH   1  25
ATOM     25  C   UNL A   1      34.800  34.142  28.886  1.00  0.00     0.002 C 
BRANCH  25  26
ATOM     26  C   UNL A   1      33.433  34.818  29.020  1.00  0.00     0.021 C 
BRANCH  26  27
ATOM     27  C   UNL A   1      33.462  36.190  29.683  1.00  0.00     0.116 C 
BRANCH  27  28
ATOM     28  N   UNL A   1      32.519  36.286  30.785  1.00  0.00    -0.352 N 
ATOM     29  C   UNL A   1      32.560  35.696  32.020  1.00  0.00     0.251 C 
ATOM     30  H   UNL A   1      31.735  36.857  30.618  1.00  0.00     0.163 HD
ATOM     31  O   UNL A   1      31.572  35.735  32.756  1.00  0.00    -0.269 OA
BRANCH  29  32
ATOM     32  C   UNL A   1      33.779  34.995  32.470  1.00  0.00     0.039 A 
ATOM     33  C   UNL A   1      33.668  33.687  32.948  1.00  0.00     0.014 A 
ATOM     34  C   UNL A   1      35.025  35.628  32.442  1.00  0.00     0.014 A 
ATOM     35  C   UNL A   1      34.813  32.994  33.345  1.00  0.00     0.010 A 
ATOM     36  C   UNL A   1      36.174  34.913  32.771  1.00  0.00     0.010 A 
ATOM     37  C   UNL A   1      36.078  33.591  33.230  1.00  0.00    -0.014 A 
BRANCH  37  38
ATOM     38  C   UNL A   1      37.313  32.847  33.586  1.00  0.00     0.031 A 
ATOM     39  C   UNL A   1      38.046  33.161  34.860  1.00  0.00     0.074 A 
ATOM     40  C   UNL A   1      37.813  31.941  32.725  1.00  0.00     0.049 A 
ATOM     41  N   UNL A   1      39.175  32.672  35.308  1.00  0.00    -0.248 NA
ATOM     42  C   UNL A   1      37.447  34.183  35.732  1.00  0.00     0.031 C 
ATOM     43  C   UNL A   1      37.224  31.591  31.432  1.00  0.00     0.029 A 
ATOM     44  N   UNL A   1      38.940  31.161  32.799  1.00  0.00    -0.354 N 
ATOM     45  C   UNL A   1      39.430  33.339  36.499  1.00  0.00     0.074 A 
ATOM     46  C   UNL A   1      38.365  34.302  36.679  1.00  0.00     0.031 C 
ATOM     47  C   UNL A   1      37.986  30.658  30.840  1.00  0.00     0.029 A 
ATOM     48  C   UNL A   1      39.136  30.370  31.694  1.00  0.00     0.049 A 
ATOM     49  H   UNL A   1      39.551  31.168  33.572  1.00  0.00     0.167 HD
ATOM     50  C   UNL A   1      40.449  33.151  37.370  1.00  0.00     0.037 A 
ATOM     51  C   UNL A   1      40.133  29.516  31.398  1.00  0.00     0.037 A 
ATOM     52  C   UNL A   1      41.488  32.169  37.201  1.00  0.00     0.049 A 
ATOM     53  C   UNL A   1      41.245  29.310  32.390  1.00  0.00     0.074 A 
ATOM     54  C   UNL A   1      42.515  31.840  38.068  1.00  0.00     0.029 A 
ATOM     55  N   UNL A   1      41.635  31.360  36.083  1.00  0.00    -0.354 N 
ATOM     56  N   UNL A   1      41.430  29.886  33.554  1.00  0.00    -0.248 NA
ATOM     57  C   UNL A   1      42.278  28.329  32.034  1.00  0.00     0.031 C 
ATOM     58  C   UNL A   1      43.315  30.872  37.452  1.00  0.00     0.029 A 
ATOM     59  C   UNL A   1      42.755  30.555  36.225  1.00  0.00     0.049 A 
ATOM     60  H   UNL A   1      41.033  31.358  35.304  1.00  0.00     0.167 HD
ATOM     61  C   UNL A   1      42.585  29.323  34.079  1.00  0.00     0.074 A 
ATOM     62  C   UNL A   1      43.049  28.348  33.113  1.00  0.00     0.031 C 
ATOM     63  C   UNL A   1      43.205  29.590  35.254  1.00  0.00     0.037 A 
BRANCH  50  64
ATOM     64  C   UNL A   1      40.494  34.030  38.587  1.00  0.00     0.064 A 
ATOM     65  C   UNL A   1      41.197  35.245  38.598  1.00  0.00     0.173 A 
ATOM     66  C   UNL A   1      39.800  33.666  39.752  1.00  0.00     0.173 A 
ATOM     67  F   UNL A   1      41.886  35.636  37.516  1.00  0.00    -0.203 F 
ATOM     68  C   UNL A   1      41.234  36.043  39.740  1.00  0.00     0.198 A 
ATOM     69  C   UNL A   1      39.811  34.482  40.880  1.00  0.00     0.198 A 
ATOM     70  F   UNL A   1      39.106  32.519  39.795  1.00  0.00    -0.203 F 
ATOM     71  F   UNL A   1      41.958  37.170  39.743  1.00  0.00    -0.200 F 
ATOM     72  C   UNL A   1      40.536  35.665  40.876  1.00  0.00     0.200 A 
ATOM     73  F   UNL A   1      39.125  34.122  41.973  1.00  0.00    -0.200 F 
ATOM     74  F   UNL A   1      40.568  36.436  41.971  1.00  0.00    -0.200 F 
ENDBRANCH  50  64
BRANCH  51  75
ATOM     75  C   UNL A   1      40.111  28.780  30.107  1.00  0.00     0.064 A 
ATOM     76  C   UNL A   1      40.716  29.313  28.960  1.00  0.00     0.173 A 
ATOM     77  C   UNL A   1      39.500  27.521  29.999  1.00  0.00     0.173 A 
ATOM     78  F   UNL A   1      41.295  30.521  29.011  1.00  0.00    -0.203 F 
ATOM     79  C   UNL A   1      40.697  28.623  27.750  1.00  0.00     0.198 A 
ATOM     80  C   UNL A   1      39.507  26.821  28.794  1.00  0.00     0.198 A 
ATOM     81  F   UNL A   1      38.915  26.964  31.069  1.00  0.00    -0.203 F 
ATOM     82  F   UNL A   1      41.248  29.173  26.660  1.00  0.00    -0.200 F 
ATOM     83  C   UNL A   1      40.099  27.375  27.670  1.00  0.00     0.200 A 
ATOM     84  F   UNL A   1      38.943  25.607  28.727  1.00  0.00    -0.200 F 
ATOM     85  F   UNL A   1      40.089  26.707  26.509  1.00  0.00    -0.200 F 
ENDBRANCH  51  75
BRANCH  63  86
ATOM     86  C   UNL A   1      44.442  28.800  35.575  1.00  0.00     0.064 A 
ATOM     87  C   UNL A   1      45.718  29.249  35.207  1.00  0.00     0.173 A 
ATOM     88  C   UNL A   1      44.350  27.600  36.297  1.00  0.00     0.173 A 
ATOM     89  F   UNL A   1      45.859  30.382  34.502  1.00  0.00    -0.203 F 
ATOM     90  C   UNL A   1      46.856  28.514  35.529  1.00  0.00     0.198 A 
ATOM     91  C   UNL A   1      45.491  26.884  36.644  1.00  0.00     0.198 A 
ATOM     92  F   UNL A   1      43.153  27.130  36.679  1.00  0.00    -0.203 F 
ATOM     93  F   UNL A   1      48.062  28.937  35.126  1.00  0.00    -0.200 F 
ATOM     94  C   UNL A   1      46.742  27.337  36.254  1.00  0.00     0.200 A 
ATOM     95  F   UNL A   1      45.381  25.754  37.356  1.00  0.00    -0.200 F 
ATOM     96  F   UNL A   1      47.839  26.634  36.570  1.00  0.00    -0.200 F 
ENDBRANCH  63  86
ENDBRANCH  37  38
ENDBRANCH  29  32
ENDBRANCH  27  28
ENDBRANCH  26  27
ENDBRANCH  25  26
ENDBRANCH   1  25
TORSDOF 15
ENDMDL
