MODEL 1
REMARK VINA RESULT:     -11.5      0.000      0.000
REMARK SMILES COCC[C@H](NC(=O)c1ccc(Br)nc1)C(=O)NCCCCCCNC(=O)c1ccc(-c2c3nc(c(-c4c(F)c(F)c(F)c(F)c4F)c4ccc([nH]4)c(-c4c(F)c(F)c(F)c(F)c4F)c4nc(c(-c5c(F)c(F)c(F)c(F)c5F)c5ccc2[nH]5)C=C4)C=C3)cc1
REMARK SMILES IDX 21 1 20 2 19 3 18 4 16 5 17 6 5 8 4 9 3 10 2 11 1 12 6 13
REMARK SMILES IDX 7 14 8 16 9 17 10 18 15 19 11 20 14 21 12 22 13 23 22 24
REMARK SMILES IDX 23 25 24 26 25 27 26 28 27 30 28 31 29 32 90 33 30 34 89 35
REMARK SMILES IDX 31 36 32 37 33 38 83 39 34 40 88 41 82 42 84 43 35 44 87 45
REMARK SMILES IDX 81 46 80 47 36 49 68 50 48 51 67 52 49 53 52 54 66 55 85 56
REMARK SMILES IDX 50 57 51 58 65 60 86 61 53 62 37 63 38 64 46 65 39 66 40 67
REMARK SMILES IDX 44 68 47 69 41 70 42 71 45 72 43 73 69 74 70 75 78 76 71 77
REMARK SMILES IDX 72 78 76 79 79 80 73 81 74 82 77 83 75 84 54 85 55 86 63 87
REMARK SMILES IDX 56 88 57 89 61 90 64 91 58 92 59 93 62 94 60 95
REMARK H PARENT 18 7 6 15 25 29 84 48 52 59
REMARK Flexibility Score: inf
ROOT
ATOM      1  C   UNL A   1      32.379  29.951  27.170  1.00  0.00     0.002 C 
ENDROOT
BRANCH   1   2
ATOM      2  C   UNL A   1      31.746  28.641  27.641  1.00  0.00     0.021 C 
BRANCH   2   3
ATOM      3  C   UNL A   1      32.207  27.389  26.900  1.00  0.00     0.116 C 
BRANCH   3   4
ATOM      4  N   UNL A   1      31.158  26.699  26.178  1.00  0.00    -0.354 N 
ATOM      5  C   UNL A   1      30.829  26.750  24.858  1.00  0.00     0.242 C 
ATOM      6  O   UNL A   1      30.043  25.901  24.427  1.00  0.00    -0.273 OA
ATOM      7  H   UNL A   1      30.597  26.103  26.727  1.00  0.00     0.163 HD
BRANCH   5   8
ATOM      8  C   UNL A   1      31.497  27.745  23.897  1.00  0.00     0.173 C 
BRANCH   8   9
ATOM      9  C   UNL A   1      30.389  28.784  23.564  1.00  0.00     0.063 C 
BRANCH   9  10
ATOM     10  C   UNL A   1      30.393  29.279  22.122  1.00  0.00     0.162 C 
BRANCH  10  11
ATOM     11  O   UNL A   1      29.064  29.426  21.633  1.00  0.00    -0.385 OA
ATOM     12  C   UNL A   1      28.722  30.765  21.314  1.00  0.00     0.194 C 
ENDBRANCH  10  11
ENDBRANCH   9  10
ENDBRANCH   8   9
BRANCH   8  13
ATOM     13  N   UNL A   1      32.095  27.206  22.659  1.00  0.00    -0.340 N 
ATOM     14  C   UNL A   1      33.187  26.419  22.369  1.00  0.00     0.253 C 
ATOM     15  H   UNL A   1      31.595  27.472  21.852  1.00  0.00     0.164 HD
ATOM     16  O   UNL A   1      33.727  26.660  21.284  1.00  0.00    -0.269 OA
BRANCH  14  17
ATOM     17  C   UNL A   1      33.674  25.231  23.130  1.00  0.00     0.058 A 
ATOM     18  C   UNL A   1      34.216  25.209  24.407  1.00  0.00     0.018 A 
ATOM     19  C   UNL A   1      33.428  23.973  22.571  1.00  0.00     0.126 A 
ATOM     20  C   UNL A   1      34.413  24.004  25.091  1.00  0.00     0.037 A 
ATOM     21  N   UNL A   1      33.632  22.776  23.194  1.00  0.00    -0.249 NA
ATOM     22  C   UNL A   1      34.101  22.820  24.454  1.00  0.00     0.106 A 
ATOM     23  Br  UNL A   1      34.302  21.192  25.402  1.00  0.00    -0.029 Br
ENDBRANCH  14  17
ENDBRANCH   8  13
ENDBRANCH   5   8
ENDBRANCH   3   4
ENDBRANCH   2   3
ENDBRANCH   1   2
BRANCH   1  24
ATOM     24  C   UNL A   1      31.538  30.757  26.184  1.00  0.00     0.002 C 
BRANCH  24  25
ATOM     25  C   UNL A   1      31.394  32.236  26.538  1.00  0.00     0.021 C 
BRANCH  25  26
ATOM     26  C   UNL A   1      32.590  32.816  27.282  1.00  0.00     0.116 C 
BRANCH  26  27
ATOM     27  N   UNL A   1      32.385  34.213  27.625  1.00  0.00    -0.352 N 
ATOM     28  C   UNL A   1      32.977  34.945  28.622  1.00  0.00     0.251 C 
ATOM     29  H   UNL A   1      31.735  34.699  27.068  1.00  0.00     0.163 HD
ATOM     30  O   UNL A   1      32.528  36.041  28.949  1.00  0.00    -0.269 OA
BRANCH  28  31
ATOM     31  C   UNL A   1      34.156  34.390  29.316  1.00  0.00     0.039 A 
ATOM     32  C   UNL A   1      33.970  33.641  30.478  1.00  0.00     0.014 A 
ATOM     33  C   UNL A   1      35.440  34.591  28.799  1.00  0.00     0.014 A 
ATOM     34  C   UNL A   1      35.069  33.039  31.089  1.00  0.00     0.010 A 
ATOM     35  C   UNL A   1      36.521  33.920  29.359  1.00  0.00     0.010 A 
ATOM     36  C   UNL A   1      36.348  33.142  30.512  1.00  0.00    -0.014 A 
BRANCH  36  37
ATOM     37  C   UNL A   1      37.507  32.432  31.106  1.00  0.00     0.031 A 
ATOM     38  C   UNL A   1      38.010  32.806  32.472  1.00  0.00     0.074 A 
ATOM     39  C   UNL A   1      38.134  31.477  30.392  1.00  0.00     0.049 A 
ATOM     40  N   UNL A   1      39.011  32.306  33.151  1.00  0.00    -0.248 NA
ATOM     41  C   UNL A   1      37.311  33.904  33.158  1.00  0.00     0.031 C 
ATOM     42  C   UNL A   1      37.776  31.067  29.033  1.00  0.00     0.029 A 
ATOM     43  N   UNL A   1      39.205  30.678  30.706  1.00  0.00    -0.354 N 
ATOM     44  C   UNL A   1      39.063  33.028  34.336  1.00  0.00     0.074 A 
ATOM     45  C   UNL A   1      38.036  34.044  34.258  1.00  0.00     0.031 C 
ATOM     46  C   UNL A   1      38.586  30.070  28.646  1.00  0.00     0.029 A 
ATOM     47  C   UNL A   1      39.547  29.797  29.710  1.00  0.00     0.049 A 
ATOM     48  H   UNL A   1      39.682  30.731  31.566  1.00  0.00     0.167 HD
ATOM     49  C   UNL A   1      39.874  32.842  35.404  1.00  0.00     0.037 A 
ATOM     50  C   UNL A   1      40.527  28.875  29.659  1.00  0.00     0.037 A 
ATOM     51  C   UNL A   1      40.887  31.821  35.479  1.00  0.00     0.049 A 
ATOM     52  C   UNL A   1      41.426  28.702  30.853  1.00  0.00     0.074 A 
ATOM     53  C   UNL A   1      41.725  31.513  36.536  1.00  0.00     0.029 A 
ATOM     54  N   UNL A   1      41.207  30.948  34.449  1.00  0.00    -0.354 N 
ATOM     55  N   UNL A   1      41.412  29.334  32.001  1.00  0.00    -0.248 NA
ATOM     56  C   UNL A   1      42.475  27.678  30.746  1.00  0.00     0.031 C 
ATOM     57  C   UNL A   1      42.591  30.494  36.126  1.00  0.00     0.029 A 
ATOM     58  C   UNL A   1      42.249  30.121  34.835  1.00  0.00     0.049 A 
ATOM     59  H   UNL A   1      40.758  30.919  33.573  1.00  0.00     0.167 HD
ATOM     60  C   UNL A   1      42.426  28.770  32.762  1.00  0.00     0.074 A 
ATOM     61  C   UNL A   1      43.022  27.727  31.952  1.00  0.00     0.031 C 
ATOM     62  C   UNL A   1      42.832  29.087  34.017  1.00  0.00     0.037 A 
BRANCH  49  63
ATOM     63  C   UNL A   1      39.701  33.763  36.579  1.00  0.00     0.064 A 
ATOM     64  C   UNL A   1      38.869  33.429  37.660  1.00  0.00     0.173 A 
ATOM     65  C   UNL A   1      40.402  34.976  36.645  1.00  0.00     0.173 A 
ATOM     66  F   UNL A   1      38.167  32.286  37.644  1.00  0.00    -0.203 F 
ATOM     67  C   UNL A   1      38.722  34.289  38.745  1.00  0.00     0.198 A 
ATOM     68  C   UNL A   1      40.280  35.817  37.748  1.00  0.00     0.198 A 
ATOM     69  F   UNL A   1      41.215  35.343  35.644  1.00  0.00    -0.203 F 
ATOM     70  F   UNL A   1      37.881  33.973  39.741  1.00  0.00    -0.200 F 
ATOM     71  C   UNL A   1      39.434  35.478  38.793  1.00  0.00     0.200 A 
ATOM     72  F   UNL A   1      40.981  36.958  37.799  1.00  0.00    -0.200 F 
ATOM     73  F   UNL A   1      39.300  36.300  39.843  1.00  0.00    -0.200 F 
ENDBRANCH  49  63
BRANCH  50  74
ATOM     74  C   UNL A   1      40.694  28.030  28.447  1.00  0.00     0.064 A 
ATOM     75  C   UNL A   1      40.082  26.773  28.352  1.00  0.00     0.173 A 
ATOM     76  C   UNL A   1      41.475  28.457  27.362  1.00  0.00     0.173 A 
ATOM     77  F   UNL A   1      39.340  26.311  29.370  1.00  0.00    -0.203 F 
ATOM     78  C   UNL A   1      40.265  25.964  27.233  1.00  0.00     0.198 A 
ATOM     79  C   UNL A   1      41.630  27.661  26.229  1.00  0.00     0.198 A 
ATOM     80  F   UNL A   1      42.076  29.655  27.397  1.00  0.00    -0.203 F 
ATOM     81  F   UNL A   1      39.711  24.745  27.193  1.00  0.00    -0.200 F 
ATOM     82  C   UNL A   1      41.034  26.412  26.169  1.00  0.00     0.200 A 
ATOM     83  F   UNL A   1      42.358  28.106  25.196  1.00  0.00    -0.200 F 
ATOM     84  F   UNL A   1      41.206  25.635  25.092  1.00  0.00    -0.200 F 
ENDBRANCH  50  74
BRANCH  62  85
ATOM     85  C   UNL A   1      43.953  28.276  34.602  1.00  0.00     0.064 A 
ATOM     86  C   UNL A   1      45.290  28.693  34.514  1.00  0.00     0.173 A 
ATOM     87  C   UNL A   1      43.683  27.080  35.284  1.00  0.00     0.173 A 
ATOM     88  F   UNL A   1      45.604  29.823  33.861  1.00  0.00    -0.203 F 
ATOM     89  C   UNL A   1      46.317  27.925  35.056  1.00  0.00     0.198 A 
ATOM     90  C   UNL A   1      44.709  26.334  35.857  1.00  0.00     0.198 A 
ATOM     91  F   UNL A   1      42.423  26.639  35.404  1.00  0.00    -0.203 F 
ATOM     92  F   UNL A   1      47.590  28.314  34.907  1.00  0.00    -0.200 F 
ATOM     93  C   UNL A   1      46.026  26.751  35.734  1.00  0.00     0.200 A 
ATOM     94  F   UNL A   1      44.423  25.208  36.526  1.00  0.00    -0.200 F 
ATOM     95  F   UNL A   1      47.015  26.016  36.260  1.00  0.00    -0.200 F 
ENDBRANCH  62  85
ENDBRANCH  36  37
ENDBRANCH  28  31
ENDBRANCH  26  27
ENDBRANCH  25  26
ENDBRANCH  24  25
ENDBRANCH   1  24
TORSDOF 18
ENDMDL
MODEL 2
REMARK VINA RESULT:     -11.3      5.407     11.027
REMARK SMILES COCC[C@H](NC(=O)c1ccc(Br)nc1)C(=O)NCCCCCCNC(=O)c1ccc(-c2c3nc(c(-c4c(F)c(F)c(F)c(F)c4F)c4ccc([nH]4)c(-c4c(F)c(F)c(F)c(F)c4F)c4nc(c(-c5c(F)c(F)c(F)c(F)c5F)c5ccc2[nH]5)C=C4)C=C3)cc1
REMARK SMILES IDX 21 1 20 2 19 3 18 4 16 5 17 6 5 8 4 9 3 10 2 11 1 12 6 13
REMARK SMILES IDX 7 14 8 16 9 17 10 18 15 19 11 20 14 21 12 22 13 23 22 24
REMARK SMILES IDX 23 25 24 26 25 27 26 28 27 30 28 31 29 32 90 33 30 34 89 35
REMARK SMILES IDX 31 36 32 37 33 38 83 39 34 40 88 41 82 42 84 43 35 44 87 45
REMARK SMILES IDX 81 46 80 47 36 49 68 50 48 51 67 52 49 53 52 54 66 55 85 56
REMARK SMILES IDX 50 57 51 58 65 60 86 61 53 62 37 63 38 64 46 65 39 66 40 67
REMARK SMILES IDX 44 68 47 69 41 70 42 71 45 72 43 73 69 74 70 75 78 76 71 77
REMARK SMILES IDX 72 78 76 79 79 80 73 81 74 82 77 83 75 84 54 85 55 86 63 87
REMARK SMILES IDX 56 88 57 89 61 90 64 91 58 92 59 93 62 94 60 95
REMARK H PARENT 18 7 6 15 25 29 84 48 52 59
REMARK Flexibility Score: inf
ROOT
ATOM      1  C   UNL A   1      36.838  22.051  24.592  1.00  0.00     0.002 C 
ENDROOT
BRANCH   1   2
ATOM      2  C   UNL A   1      36.503  23.067  25.684  1.00  0.00     0.021 C 
BRANCH   2   3
ATOM      3  C   UNL A   1      35.058  23.553  25.702  1.00  0.00     0.116 C 
BRANCH   3   4
ATOM      4  N   UNL A   1      34.323  23.294  24.482  1.00  0.00    -0.354 N 
ATOM      5  C   UNL A   1      33.204  22.545  24.279  1.00  0.00     0.242 C 
ATOM      6  O   UNL A   1      32.625  22.656  23.194  1.00  0.00    -0.273 OA
ATOM      7  H   UNL A   1      34.689  23.725  23.675  1.00  0.00     0.163 HD
BRANCH   5   8
ATOM      8  C   UNL A   1      32.598  21.681  25.394  1.00  0.00     0.173 C 
BRANCH   8   9
ATOM      9  C   UNL A   1      32.297  20.312  24.721  1.00  0.00     0.063 C 
BRANCH   9  10
ATOM     10  C   UNL A   1      32.965  19.114  25.387  1.00  0.00     0.162 C 
BRANCH  10  11
ATOM     11  O   UNL A   1      32.229  17.921  25.139  1.00  0.00    -0.385 OA
ATOM     12  C   UNL A   1      33.028  16.749  25.145  1.00  0.00     0.194 C 
ENDBRANCH  10  11
ENDBRANCH   9  10
ENDBRANCH   8   9
BRANCH   8  13
ATOM     13  N   UNL A   1      31.399  22.196  26.087  1.00  0.00    -0.340 N 
ATOM     14  C   UNL A   1      30.976  23.437  26.505  1.00  0.00     0.253 C 
ATOM     15  H   UNL A   1      30.752  21.484  26.299  1.00  0.00     0.164 HD
ATOM     16  O   UNL A   1      30.282  23.433  27.527  1.00  0.00    -0.269 OA
BRANCH  14  17
ATOM     17  C   UNL A   1      31.125  24.735  25.781  1.00  0.00     0.058 A 
ATOM     18  C   UNL A   1      30.346  25.217  24.740  1.00  0.00     0.018 A 
ATOM     19  C   UNL A   1      32.056  25.645  26.294  1.00  0.00     0.126 A 
ATOM     20  C   UNL A   1      30.449  26.546  24.312  1.00  0.00     0.037 A 
ATOM     21  N   UNL A   1      32.205  26.938  25.887  1.00  0.00    -0.249 NA
ATOM     22  C   UNL A   1      31.379  27.369  24.915  1.00  0.00     0.106 A 
ATOM     23  Br  UNL A   1      31.472  29.185  24.387  1.00  0.00    -0.029 Br
ENDBRANCH  14  17
ENDBRANCH   8  13
ENDBRANCH   5   8
ENDBRANCH   3   4
ENDBRANCH   2   3
ENDBRANCH   1   2
BRANCH   1  24
ATOM     24  C   UNL A   1      36.701  20.588  25.004  1.00  0.00     0.002 C 
BRANCH  24  25
ATOM     25  C   UNL A   1      37.978  19.765  24.854  1.00  0.00     0.021 C 
BRANCH  25  26
ATOM     26  C   UNL A   1      39.125  20.232  25.743  1.00  0.00     0.116 C 
BRANCH  26  27
ATOM     27  N   UNL A   1      40.132  19.197  25.913  1.00  0.00    -0.352 N 
ATOM     28  C   UNL A   1      41.483  19.339  26.091  1.00  0.00     0.251 C 
ATOM     29  H   UNL A   1      39.798  18.270  25.896  1.00  0.00     0.163 HD
ATOM     30  O   UNL A   1      42.238  18.376  25.974  1.00  0.00    -0.269 OA
BRANCH  28  31
ATOM     31  C   UNL A   1      42.028  20.673  26.410  1.00  0.00     0.039 A 
ATOM     32  C   UNL A   1      42.330  21.550  25.367  1.00  0.00     0.014 A 
ATOM     33  C   UNL A   1      42.213  21.062  27.740  1.00  0.00     0.014 A 
ATOM     34  C   UNL A   1      42.761  22.843  25.662  1.00  0.00     0.010 A 
ATOM     35  C   UNL A   1      42.559  22.376  28.033  1.00  0.00     0.010 A 
ATOM     36  C   UNL A   1      42.842  23.278  26.997  1.00  0.00    -0.014 A 
BRANCH  36  37
ATOM     37  C   UNL A   1      43.213  24.679  27.317  1.00  0.00     0.031 A 
ATOM     38  C   UNL A   1      44.615  25.166  27.081  1.00  0.00     0.074 A 
ATOM     39  C   UNL A   1      42.294  25.498  27.862  1.00  0.00     0.049 A 
ATOM     40  N   UNL A   1      45.128  26.350  27.305  1.00  0.00    -0.248 NA
ATOM     41  C   UNL A   1      45.576  24.189  26.545  1.00  0.00     0.031 C 
ATOM     42  C   UNL A   1      40.917  25.123  28.192  1.00  0.00     0.029 A 
ATOM     43  N   UNL A   1      42.376  26.816  28.237  1.00  0.00    -0.354 N 
ATOM     44  C   UNL A   1      46.465  26.256  26.942  1.00  0.00     0.074 A 
ATOM     45  C   UNL A   1      46.702  24.886  26.545  1.00  0.00     0.031 C 
ATOM     46  C   UNL A   1      40.275  26.193  28.684  1.00  0.00     0.029 A 
ATOM     47  C   UNL A   1      41.203  27.319  28.744  1.00  0.00     0.049 A 
ATOM     48  H   UNL A   1      43.198  27.351  28.149  1.00  0.00     0.167 HD
ATOM     49  C   UNL A   1      47.403  27.233  26.915  1.00  0.00     0.037 A 
ATOM     50  C   UNL A   1      40.909  28.548  29.207  1.00  0.00     0.037 A 
ATOM     51  C   UNL A   1      47.157  28.599  27.301  1.00  0.00     0.049 A 
ATOM     52  C   UNL A   1      41.975  29.610  29.182  1.00  0.00     0.074 A 
ATOM     53  C   UNL A   1      48.023  29.677  27.257  1.00  0.00     0.029 A 
ATOM     54  N   UNL A   1      45.956  29.071  27.811  1.00  0.00    -0.354 N 
ATOM     55  N   UNL A   1      43.213  29.533  28.758  1.00  0.00    -0.248 NA
ATOM     56  C   UNL A   1      41.599  30.935  29.694  1.00  0.00     0.031 C 
ATOM     57  C   UNL A   1      47.366  30.787  27.797  1.00  0.00     0.029 A 
ATOM     58  C   UNL A   1      46.069  30.418  28.116  1.00  0.00     0.049 A 
ATOM     59  H   UNL A   1      45.144  28.529  27.937  1.00  0.00     0.167 HD
ATOM     60  C   UNL A   1      43.755  30.800  28.926  1.00  0.00     0.074 A 
ATOM     61  C   UNL A   1      42.702  31.633  29.470  1.00  0.00     0.031 C 
ATOM     62  C   UNL A   1      45.011  31.235  28.657  1.00  0.00     0.037 A 
BRANCH  49  63
ATOM     63  C   UNL A   1      48.784  26.860  26.452  1.00  0.00     0.064 A 
ATOM     64  C   UNL A   1      49.736  26.323  27.333  1.00  0.00     0.173 A 
ATOM     65  C   UNL A   1      49.149  27.006  25.105  1.00  0.00     0.173 A 
ATOM     66  F   UNL A   1      49.443  26.171  28.634  1.00  0.00    -0.203 F 
ATOM     67  C   UNL A   1      51.010  25.976  26.890  1.00  0.00     0.198 A 
ATOM     68  C   UNL A   1      50.411  26.626  24.658  1.00  0.00     0.198 A 
ATOM     69  F   UNL A   1      48.277  27.509  24.219  1.00  0.00    -0.203 F 
ATOM     70  F   UNL A   1      51.919  25.515  27.760  1.00  0.00    -0.200 F 
ATOM     71  C   UNL A   1      51.344  26.120  25.551  1.00  0.00     0.200 A 
ATOM     72  F   UNL A   1      50.727  26.751  23.362  1.00  0.00    -0.200 F 
ATOM     73  F   UNL A   1      52.566  25.776  25.123  1.00  0.00    -0.200 F 
ENDBRANCH  49  63
BRANCH  50  74
ATOM     74  C   UNL A   1      39.542  28.849  29.711  1.00  0.00     0.064 A 
ATOM     75  C   UNL A   1      39.192  28.597  31.044  1.00  0.00     0.173 A 
ATOM     76  C   UNL A   1      38.557  29.387  28.870  1.00  0.00     0.173 A 
ATOM     77  F   UNL A   1      40.093  28.066  31.884  1.00  0.00    -0.203 F 
ATOM     78  C   UNL A   1      37.903  28.845  31.511  1.00  0.00     0.198 A 
ATOM     79  C   UNL A   1      37.277  29.666  29.346  1.00  0.00     0.198 A 
ATOM     80  F   UNL A   1      38.840  29.655  27.587  1.00  0.00    -0.203 F 
ATOM     81  F   UNL A   1      37.581  28.545  32.776  1.00  0.00    -0.200 F 
ATOM     82  C   UNL A   1      36.948  29.385  30.662  1.00  0.00     0.200 A 
ATOM     83  F   UNL A   1      36.363  30.205  28.528  1.00  0.00    -0.200 F 
ATOM     84  F   UNL A   1      35.710  29.628  31.113  1.00  0.00    -0.200 F 
ENDBRANCH  50  74
BRANCH  62  85
ATOM     85  C   UNL A   1      45.307  32.685  28.918  1.00  0.00     0.064 A 
ATOM     86  C   UNL A   1      45.839  33.121  30.141  1.00  0.00     0.173 A 
ATOM     87  C   UNL A   1      45.080  33.646  27.921  1.00  0.00     0.173 A 
ATOM     88  F   UNL A   1      46.061  32.244  31.132  1.00  0.00    -0.203 F 
ATOM     89  C   UNL A   1      46.100  34.470  30.368  1.00  0.00     0.198 A 
ATOM     90  C   UNL A   1      45.377  34.988  28.139  1.00  0.00     0.198 A 
ATOM     91  F   UNL A   1      44.581  33.282  26.731  1.00  0.00    -0.203 F 
ATOM     92  F   UNL A   1      46.550  34.870  31.564  1.00  0.00    -0.200 F 
ATOM     93  C   UNL A   1      45.877  35.401  29.365  1.00  0.00     0.200 A 
ATOM     94  F   UNL A   1      45.177  35.884  27.162  1.00  0.00    -0.200 F 
ATOM     95  F   UNL A   1      46.134  36.698  29.583  1.00  0.00    -0.200 F 
ENDBRANCH  62  85
ENDBRANCH  36  37
ENDBRANCH  28  31
ENDBRANCH  26  27
ENDBRANCH  25  26
ENDBRANCH  24  25
ENDBRANCH   1  24
TORSDOF 18
ENDMDL
MODEL 3
REMARK VINA RESULT:     -11.3      1.765      7.824
REMARK SMILES COCC[C@H](NC(=O)c1ccc(Br)nc1)C(=O)NCCCCCCNC(=O)c1ccc(-c2c3nc(c(-c4c(F)c(F)c(F)c(F)c4F)c4ccc([nH]4)c(-c4c(F)c(F)c(F)c(F)c4F)c4nc(c(-c5c(F)c(F)c(F)c(F)c5F)c5ccc2[nH]5)C=C4)C=C3)cc1
REMARK SMILES IDX 21 1 20 2 19 3 18 4 16 5 17 6 5 8 4 9 3 10 2 11 1 12 6 13
REMARK SMILES IDX 7 14 8 16 9 17 10 18 15 19 11 20 14 21 12 22 13 23 22 24
REMARK SMILES IDX 23 25 24 26 25 27 26 28 27 30 28 31 29 32 90 33 30 34 89 35
REMARK SMILES IDX 31 36 32 37 33 38 83 39 34 40 88 41 82 42 84 43 35 44 87 45
REMARK SMILES IDX 81 46 80 47 36 49 68 50 48 51 67 52 49 53 52 54 66 55 85 56
REMARK SMILES IDX 50 57 51 58 65 60 86 61 53 62 37 63 38 64 46 65 39 66 40 67
REMARK SMILES IDX 44 68 47 69 41 70 42 71 45 72 43 73 69 74 70 75 78 76 71 77
REMARK SMILES IDX 72 78 76 79 79 80 73 81 74 82 77 83 75 84 54 85 55 86 63 87
REMARK SMILES IDX 56 88 57 89 61 90 64 91 58 92 59 93 62 94 60 95
REMARK H PARENT 18 7 6 15 25 29 84 48 52 59
REMARK Flexibility Score: inf
ROOT
ATOM      1  C   UNL A   1      32.958  30.342  27.343  1.00  0.00     0.002 C 
ENDROOT
BRANCH   1   2
ATOM      2  C   UNL A   1      33.218  28.863  27.054  1.00  0.00     0.021 C 
BRANCH   2   3
ATOM      3  C   UNL A   1      34.401  28.576  26.134  1.00  0.00     0.116 C 
BRANCH   3   4
ATOM      4  N   UNL A   1      34.210  29.001  24.763  1.00  0.00    -0.354 N 
ATOM      5  C   UNL A   1      33.789  28.291  23.680  1.00  0.00     0.242 C 
ATOM      6  O   UNL A   1      33.484  28.920  22.662  1.00  0.00    -0.273 OA
ATOM      7  H   UNL A   1      34.418  29.948  24.587  1.00  0.00     0.163 HD
BRANCH   5   8
ATOM      8  C   UNL A   1      33.575  26.772  23.744  1.00  0.00     0.173 C 
BRANCH   8   9
ATOM      9  C   UNL A   1      33.607  26.300  22.262  1.00  0.00     0.063 C 
BRANCH   9  10
ATOM     10  C   UNL A   1      32.732  25.088  21.961  1.00  0.00     0.162 C 
BRANCH  10  11
ATOM     11  O   UNL A   1      33.530  23.928  21.751  1.00  0.00    -0.385 OA
ATOM     12  C   UNL A   1      32.922  22.731  22.208  1.00  0.00     0.194 C 
ENDBRANCH  10  11
ENDBRANCH   9  10
ENDBRANCH   8   9
BRANCH   8  13
ATOM     13  N   UNL A   1      32.360  26.277  24.422  1.00  0.00    -0.340 N 
ATOM     14  C   UNL A   1      31.193  26.855  24.869  1.00  0.00     0.253 C 
ATOM     15  H   UNL A   1      32.392  25.308  24.594  1.00  0.00     0.164 HD
ATOM     16  O   UNL A   1      30.703  26.327  25.873  1.00  0.00    -0.269 OA
BRANCH  14  17
ATOM     17  C   UNL A   1      30.393  27.919  24.193  1.00  0.00     0.058 A 
ATOM     18  C   UNL A   1      30.535  29.293  24.319  1.00  0.00     0.018 A 
ATOM     19  C   UNL A   1      29.494  27.506  23.204  1.00  0.00     0.126 A 
ATOM     20  C   UNL A   1      29.877  30.174  23.452  1.00  0.00     0.037 A 
ATOM     21  N   UNL A   1      28.814  28.333  22.357  1.00  0.00    -0.249 NA
ATOM     22  C   UNL A   1      29.039  29.653  22.486  1.00  0.00     0.106 A 
ATOM     23  Br  UNL A   1      28.203  30.838  21.268  1.00  0.00    -0.029 Br
ENDBRANCH  14  17
ENDBRANCH   8  13
ENDBRANCH   5   8
ENDBRANCH   3   4
ENDBRANCH   2   3
ENDBRANCH   1   2
BRANCH   1  24
ATOM     24  C   UNL A   1      31.687  30.909  26.717  1.00  0.00     0.002 C 
BRANCH  24  25
ATOM     25  C   UNL A   1      31.548  32.425  26.831  1.00  0.00     0.021 C 
BRANCH  25  26
ATOM     26  C   UNL A   1      32.788  33.123  27.376  1.00  0.00     0.116 C 
BRANCH  26  27
ATOM     27  N   UNL A   1      32.510  34.498  27.757  1.00  0.00    -0.352 N 
ATOM     28  C   UNL A   1      33.005  35.207  28.820  1.00  0.00     0.251 C 
ATOM     29  H   UNL A   1      31.881  34.984  27.175  1.00  0.00     0.163 HD
ATOM     30  O   UNL A   1      32.495  36.273  29.157  1.00  0.00    -0.269 OA
BRANCH  28  31
ATOM     31  C   UNL A   1      34.153  34.665  29.573  1.00  0.00     0.039 A 
ATOM     32  C   UNL A   1      33.945  34.155  30.854  1.00  0.00     0.014 A 
ATOM     33  C   UNL A   1      35.427  34.639  28.997  1.00  0.00     0.014 A 
ATOM     34  C   UNL A   1      35.006  33.559  31.536  1.00  0.00     0.010 A 
ATOM     35  C   UNL A   1      36.461  33.969  29.640  1.00  0.00     0.010 A 
ATOM     36  C   UNL A   1      36.263  33.428  30.919  1.00  0.00    -0.014 A 
BRANCH  36  37
ATOM     37  C   UNL A   1      37.373  32.718  31.601  1.00  0.00     0.031 A 
ATOM     38  C   UNL A   1      38.051  31.552  30.938  1.00  0.00     0.074 A 
ATOM     39  C   UNL A   1      37.738  33.098  32.840  1.00  0.00     0.049 A 
ATOM     40  N   UNL A   1      39.030  30.804  31.380  1.00  0.00    -0.248 NA
ATOM     41  C   UNL A   1      37.547  31.158  29.613  1.00  0.00     0.031 C 
ATOM     42  C   UNL A   1      37.115  34.177  33.611  1.00  0.00     0.029 A 
ATOM     43  N   UNL A   1      38.720  32.623  33.673  1.00  0.00    -0.354 N 
ATOM     44  C   UNL A   1      39.255  29.854  30.392  1.00  0.00     0.074 A 
ATOM     45  C   UNL A   1      38.269  30.077  29.358  1.00  0.00     0.031 C 
ATOM     46  C   UNL A   1      37.753  34.305  34.784  1.00  0.00     0.029 A 
ATOM     47  C   UNL A   1      38.801  33.293  34.869  1.00  0.00     0.049 A 
ATOM     48  H   UNL A   1      39.311  31.872  33.434  1.00  0.00     0.167 HD
ATOM     49  C   UNL A   1      40.216  28.901  30.340  1.00  0.00     0.037 A 
ATOM     50  C   UNL A   1      39.627  33.110  35.916  1.00  0.00     0.037 A 
ATOM     51  C   UNL A   1      41.201  28.692  31.369  1.00  0.00     0.049 A 
ATOM     52  C   UNL A   1      40.674  32.032  35.840  1.00  0.00     0.074 A 
ATOM     53  C   UNL A   1      42.251  27.791  31.388  1.00  0.00     0.029 A 
ATOM     54  N   UNL A   1      41.252  29.389  32.568  1.00  0.00    -0.354 N 
ATOM     55  N   UNL A   1      40.931  31.194  34.865  1.00  0.00    -0.248 NA
ATOM     56  C   UNL A   1      41.551  31.879  37.008  1.00  0.00     0.031 C 
ATOM     57  C   UNL A   1      42.900  27.901  32.623  1.00  0.00     0.029 A 
ATOM     58  C   UNL A   1      42.296  28.917  33.347  1.00  0.00     0.049 A 
ATOM     59  H   UNL A   1      40.637  30.113  32.826  1.00  0.00     0.167 HD
ATOM     60  C   UNL A   1      42.013  30.435  35.289  1.00  0.00     0.074 A 
ATOM     61  C   UNL A   1      42.378  30.928  36.601  1.00  0.00     0.031 C 
ATOM     62  C   UNL A   1      42.647  29.419  34.652  1.00  0.00     0.037 A 
BRANCH  49  63
ATOM     63  C   UNL A   1      40.248  28.010  29.130  1.00  0.00     0.064 A 
ATOM     64  C   UNL A   1      41.000  28.340  27.992  1.00  0.00     0.173 A 
ATOM     65  C   UNL A   1      39.548  26.793  29.121  1.00  0.00     0.173 A 
ATOM     66  F   UNL A   1      41.680  29.496  27.943  1.00  0.00    -0.203 F 
ATOM     67  C   UNL A   1      41.025  27.501  26.880  1.00  0.00     0.198 A 
ATOM     68  C   UNL A   1      39.603  25.941  28.022  1.00  0.00     0.198 A 
ATOM     69  F   UNL A   1      38.817  26.425  30.184  1.00  0.00    -0.203 F 
ATOM     70  F   UNL A   1      41.709  27.863  25.785  1.00  0.00    -0.200 F 
ATOM     71  C   UNL A   1      40.335  26.299  26.899  1.00  0.00     0.200 A 
ATOM     72  F   UNL A   1      38.948  24.773  28.048  1.00  0.00    -0.200 F 
ATOM     73  F   UNL A   1      40.368  25.488  25.832  1.00  0.00    -0.200 F 
ENDBRANCH  49  63
BRANCH  50  74
ATOM     74  C   UNL A   1      39.514  33.981  37.116  1.00  0.00     0.064 A 
ATOM     75  C   UNL A   1      38.762  33.583  38.230  1.00  0.00     0.173 A 
ATOM     76  C   UNL A   1      40.147  35.232  37.172  1.00  0.00     0.173 A 
ATOM     77  F   UNL A   1      38.122  32.404  38.219  1.00  0.00    -0.203 F 
ATOM     78  C   UNL A   1      38.625  34.411  39.342  1.00  0.00     0.198 A 
ATOM     79  C   UNL A   1      40.037  36.045  38.298  1.00  0.00     0.198 A 
ATOM     80  F   UNL A   1      40.885  35.659  36.138  1.00  0.00    -0.203 F 
ATOM     81  F   UNL A   1      37.857  34.028  40.370  1.00  0.00    -0.200 F 
ATOM     82  C   UNL A   1      39.269  35.640  39.378  1.00  0.00     0.200 A 
ATOM     83  F   UNL A   1      40.675  37.223  38.336  1.00  0.00    -0.200 F 
ATOM     84  F   UNL A   1      39.140  36.434  40.449  1.00  0.00    -0.200 F 
ENDBRANCH  50  74
BRANCH  62  85
ATOM     85  C   UNL A   1      43.820  28.794  35.353  1.00  0.00     0.064 A 
ATOM     86  C   UNL A   1      45.126  29.272  35.175  1.00  0.00     0.173 A 
ATOM     87  C   UNL A   1      43.629  27.720  36.237  1.00  0.00     0.173 A 
ATOM     88  F   UNL A   1      45.365  30.288  34.331  1.00  0.00    -0.203 F 
ATOM     89  C   UNL A   1      46.203  28.675  35.827  1.00  0.00     0.198 A 
ATOM     90  C   UNL A   1      44.703  27.150  36.915  1.00  0.00     0.198 A 
ATOM     91  F   UNL A   1      42.400  27.229  36.450  1.00  0.00    -0.203 F 
ATOM     92  F   UNL A   1      47.448  29.111  35.594  1.00  0.00    -0.200 F 
ATOM     93  C   UNL A   1      45.990  27.622  36.702  1.00  0.00     0.200 A 
ATOM     94  F   UNL A   1      44.492  26.143  37.773  1.00  0.00    -0.200 F 
ATOM     95  F   UNL A   1      47.025  27.053  37.333  1.00  0.00    -0.200 F 
ENDBRANCH  62  85
ENDBRANCH  36  37
ENDBRANCH  28  31
ENDBRANCH  26  27
ENDBRANCH  25  26
ENDBRANCH  24  25
ENDBRANCH   1  24
TORSDOF 18
ENDMDL
