MODEL 1
REMARK VINA RESULT:     -11.4      0.000      0.000
REMARK SMILES CCn1cc(Br)c(C(=O)NCCCCCCNC(=O)c2ccc(-c3c4nc(c(-c5c(F)c(F)c(F)c(F)c5F)c5ccc([nH]5)c(-c5c(F)c(F)c(F)c(F)c5F)c5nc(c(-c6c(F)c(F)c(F)c(F)c6F)c6ccc3[nH]6)C=C5)C=C4)cc2)n1
REMARK SMILES IDX 14 1 13 2 12 3 11 4 10 5 8 6 9 7 7 9 3 10 4 11 83 12 5 13
REMARK SMILES IDX 6 14 2 15 1 16 15 17 16 18 17 19 18 20 19 22 20 23 21 24
REMARK SMILES IDX 82 25 22 26 81 27 23 28 24 29 25 30 75 31 26 32 80 33 74 34
REMARK SMILES IDX 76 35 27 36 79 37 73 38 72 39 28 41 60 42 40 43 59 44 41 45
REMARK SMILES IDX 44 46 58 47 77 48 42 49 43 50 57 52 78 53 45 54 29 55 30 56
REMARK SMILES IDX 38 57 31 58 32 59 36 60 39 61 33 62 34 63 37 64 35 65 61 66
REMARK SMILES IDX 62 67 70 68 63 69 64 70 68 71 71 72 65 73 66 74 69 75 67 76
REMARK SMILES IDX 46 77 47 78 55 79 48 80 49 81 53 82 56 83 50 84 51 85 54 86
REMARK SMILES IDX 52 87
REMARK H PARENT 10 8 17 21 76 40 44 51
REMARK Flexibility Score: inf
ROOT
ATOM      1  C   UNL A   1      37.045  22.864  24.995  1.00  0.00     0.002 C 
ENDROOT
BRANCH   1   2
ATOM      2  C   UNL A   1      35.590  22.424  25.230  1.00  0.00     0.002 C 
BRANCH   2   3
ATOM      3  C   UNL A   1      34.764  23.322  26.157  1.00  0.00     0.021 C 
BRANCH   3   4
ATOM      4  C   UNL A   1      33.927  22.558  27.181  1.00  0.00     0.116 C 
BRANCH   4   5
ATOM      5  N   UNL A   1      32.506  22.757  26.957  1.00  0.00    -0.351 N 
ATOM      6  C   UNL A   1      31.627  22.204  26.049  1.00  0.00     0.272 C 
ATOM      7  O   UNL A   1      30.460  22.596  26.125  1.00  0.00    -0.267 OA
ATOM      8  H   UNL A   1      32.093  23.409  27.568  1.00  0.00     0.163 HD
BRANCH   6   9
ATOM      9  C   UNL A   1      32.054  21.183  25.073  1.00  0.00     0.164 A 
ATOM     10  N   UNL A   1      32.456  19.259  24.228  1.00  0.00    -0.271 N 
ATOM     11  C   UNL A   1      32.667  20.117  23.195  1.00  0.00     0.125 A 
ATOM     12  N   UNL A   1      32.153  19.874  25.376  1.00  0.00    -0.166 NA
ATOM     13  C   UNL A   1      32.419  21.365  23.711  1.00  0.00     0.069 A 
ATOM     14  Br  UNL A   1      32.523  22.972  22.754  1.00  0.00    -0.047 Br
BRANCH  10  15
ATOM     15  C   UNL A   1      32.554  17.812  24.212  1.00  0.00     0.141 C 
ATOM     16  C   UNL A   1      33.752  17.304  23.419  1.00  0.00     0.029 C 
ENDBRANCH  10  15
ENDBRANCH   6   9
ENDBRANCH   4   5
ENDBRANCH   3   4
ENDBRANCH   2   3
ENDBRANCH   1   2
BRANCH   1  17
ATOM     17  C   UNL A   1      38.143  21.862  25.383  1.00  0.00     0.021 C 
BRANCH  17  18
ATOM     18  C   UNL A   1      39.050  22.352  26.494  1.00  0.00     0.116 C 
BRANCH  18  19
ATOM     19  N   UNL A   1      40.463  22.012  26.275  1.00  0.00    -0.352 N 
ATOM     20  C   UNL A   1      41.557  22.857  26.127  1.00  0.00     0.251 C 
ATOM     21  H   UNL A   1      40.663  21.049  26.227  1.00  0.00     0.163 HD
ATOM     22  O   UNL A   1      42.590  22.479  25.607  1.00  0.00    -0.269 OA
BRANCH  20  23
ATOM     23  C   UNL A   1      41.440  24.233  26.642  1.00  0.00     0.039 A 
ATOM     24  C   UNL A   1      40.526  25.175  26.159  1.00  0.00     0.014 A 
ATOM     25  C   UNL A   1      42.283  24.550  27.693  1.00  0.00     0.014 A 
ATOM     26  C   UNL A   1      40.478  26.425  26.777  1.00  0.00     0.010 A 
ATOM     27  C   UNL A   1      41.968  25.590  28.500  1.00  0.00     0.010 A 
ATOM     28  C   UNL A   1      41.225  26.614  27.945  1.00  0.00    -0.014 A 
BRANCH  28  29
ATOM     29  C   UNL A   1      41.300  27.857  28.688  1.00  0.00     0.031 A 
ATOM     30  C   UNL A   1      42.413  28.741  28.282  1.00  0.00     0.074 A 
ATOM     31  C   UNL A   1      40.238  28.272  29.419  1.00  0.00     0.049 A 
ATOM     32  N   UNL A   1      43.419  29.107  29.001  1.00  0.00    -0.248 NA
ATOM     33  C   UNL A   1      42.515  29.138  26.869  1.00  0.00     0.031 C 
ATOM     34  C   UNL A   1      38.939  27.608  29.615  1.00  0.00     0.029 A 
ATOM     35  N   UNL A   1      40.050  29.465  30.043  1.00  0.00    -0.354 N 
ATOM     36  C   UNL A   1      44.182  29.944  28.193  1.00  0.00     0.074 A 
ATOM     37  C   UNL A   1      43.703  29.746  26.852  1.00  0.00     0.031 C 
ATOM     38  C   UNL A   1      38.041  28.490  30.107  1.00  0.00     0.029 A 
ATOM     39  C   UNL A   1      38.728  29.732  30.398  1.00  0.00     0.049 A 
ATOM     40  H   UNL A   1      40.788  30.090  30.229  1.00  0.00     0.167 HD
ATOM     41  C   UNL A   1      44.970  30.909  28.742  1.00  0.00     0.037 A 
ATOM     42  C   UNL A   1      38.254  30.924  30.845  1.00  0.00     0.037 A 
ATOM     43  C   UNL A   1      45.106  30.698  30.165  1.00  0.00     0.049 A 
ATOM     44  C   UNL A   1      39.433  31.694  31.334  1.00  0.00     0.074 A 
ATOM     45  C   UNL A   1      45.618  29.675  30.940  1.00  0.00     0.029 A 
ATOM     46  N   UNL A   1      44.295  31.433  30.999  1.00  0.00    -0.354 N 
ATOM     47  N   UNL A   1      40.135  31.335  32.378  1.00  0.00    -0.248 NA
ATOM     48  C   UNL A   1      40.137  32.528  30.368  1.00  0.00     0.031 C 
ATOM     49  C   UNL A   1      44.712  29.558  32.034  1.00  0.00     0.029 A 
ATOM     50  C   UNL A   1      43.759  30.572  31.921  1.00  0.00     0.049 A 
ATOM     51  H   UNL A   1      44.131  32.402  30.943  1.00  0.00     0.167 HD
ATOM     52  C   UNL A   1      41.457  31.522  32.000  1.00  0.00     0.074 A 
ATOM     53  C   UNL A   1      41.395  32.318  30.774  1.00  0.00     0.031 C 
ATOM     54  C   UNL A   1      42.459  30.755  32.524  1.00  0.00     0.037 A 
BRANCH  41  55
ATOM     55  C   UNL A   1      45.303  32.238  28.108  1.00  0.00     0.064 A 
ATOM     56  C   UNL A   1      44.246  33.135  27.839  1.00  0.00     0.173 A 
ATOM     57  C   UNL A   1      46.530  32.549  27.486  1.00  0.00     0.173 A 
ATOM     58  F   UNL A   1      43.036  32.953  28.390  1.00  0.00    -0.203 F 
ATOM     59  C   UNL A   1      44.379  34.180  26.923  1.00  0.00     0.198 A 
ATOM     60  C   UNL A   1      46.672  33.627  26.613  1.00  0.00     0.198 A 
ATOM     61  F   UNL A   1      47.614  31.776  27.601  1.00  0.00    -0.203 F 
ATOM     62  F   UNL A   1      43.306  34.913  26.593  1.00  0.00    -0.200 F 
ATOM     63  C   UNL A   1      45.587  34.417  26.300  1.00  0.00     0.200 A 
ATOM     64  F   UNL A   1      47.853  33.837  26.014  1.00  0.00    -0.200 F 
ATOM     65  F   UNL A   1      45.699  35.370  25.367  1.00  0.00    -0.200 F 
ENDBRANCH  41  55
BRANCH  42  66
ATOM     66  C   UNL A   1      36.929  31.540  30.576  1.00  0.00     0.064 A 
ATOM     67  C   UNL A   1      36.029  31.838  31.613  1.00  0.00     0.173 A 
ATOM     68  C   UNL A   1      36.619  32.086  29.313  1.00  0.00     0.173 A 
ATOM     69  F   UNL A   1      36.267  31.404  32.859  1.00  0.00    -0.203 F 
ATOM     70  C   UNL A   1      34.899  32.643  31.401  1.00  0.00     0.198 A 
ATOM     71  C   UNL A   1      35.491  32.883  29.102  1.00  0.00     0.198 A 
ATOM     72  F   UNL A   1      37.454  31.936  28.275  1.00  0.00    -0.203 F 
ATOM     73  F   UNL A   1      34.093  32.951  32.428  1.00  0.00    -0.200 F 
ATOM     74  C   UNL A   1      34.637  33.171  30.148  1.00  0.00     0.200 A 
ATOM     75  F   UNL A   1      35.275  33.418  27.891  1.00  0.00    -0.200 F 
ATOM     76  F   UNL A   1      33.592  33.988  29.957  1.00  0.00    -0.200 F 
ENDBRANCH  42  66
BRANCH  54  77
ATOM     77  C   UNL A   1      42.129  29.845  33.678  1.00  0.00     0.064 A 
ATOM     78  C   UNL A   1      41.731  28.504  33.533  1.00  0.00     0.173 A 
ATOM     79  C   UNL A   1      42.420  30.287  34.975  1.00  0.00     0.173 A 
ATOM     80  F   UNL A   1      41.537  27.970  32.324  1.00  0.00    -0.203 F 
ATOM     81  C   UNL A   1      41.597  27.660  34.634  1.00  0.00     0.198 A 
ATOM     82  C   UNL A   1      42.321  29.433  36.070  1.00  0.00     0.198 A 
ATOM     83  F   UNL A   1      42.866  31.538  35.171  1.00  0.00    -0.203 F 
ATOM     84  F   UNL A   1      41.216  26.385  34.462  1.00  0.00    -0.200 F 
ATOM     85  C   UNL A   1      41.902  28.124  35.901  1.00  0.00     0.200 A 
ATOM     86  F   UNL A   1      42.671  29.871  37.286  1.00  0.00    -0.200 F 
ATOM     87  F   UNL A   1      41.822  27.300  36.956  1.00  0.00    -0.200 F 
ENDBRANCH  54  77
ENDBRANCH  28  29
ENDBRANCH  20  23
ENDBRANCH  18  19
ENDBRANCH  17  18
ENDBRANCH   1  17
TORSDOF 14
ENDMDL
MODEL 2
REMARK VINA RESULT:     -11.4      4.184      6.919
REMARK SMILES CCn1cc(Br)c(C(=O)NCCCCCCNC(=O)c2ccc(-c3c4nc(c(-c5c(F)c(F)c(F)c(F)c5F)c5ccc([nH]5)c(-c5c(F)c(F)c(F)c(F)c5F)c5nc(c(-c6c(F)c(F)c(F)c(F)c6F)c6ccc3[nH]6)C=C5)C=C4)cc2)n1
REMARK SMILES IDX 14 1 13 2 12 3 11 4 10 5 8 6 9 7 7 9 3 10 4 11 83 12 5 13
REMARK SMILES IDX 6 14 2 15 1 16 15 17 16 18 17 19 18 20 19 22 20 23 21 24
REMARK SMILES IDX 82 25 22 26 81 27 23 28 24 29 25 30 75 31 26 32 80 33 74 34
REMARK SMILES IDX 76 35 27 36 79 37 73 38 72 39 28 41 60 42 40 43 59 44 41 45
REMARK SMILES IDX 44 46 58 47 77 48 42 49 43 50 57 52 78 53 45 54 29 55 30 56
REMARK SMILES IDX 38 57 31 58 32 59 36 60 39 61 33 62 34 63 37 64 35 65 61 66
REMARK SMILES IDX 62 67 70 68 63 69 64 70 68 71 71 72 65 73 66 74 69 75 67 76
REMARK SMILES IDX 46 77 47 78 55 79 48 80 49 81 53 82 56 83 50 84 51 85 54 86
REMARK SMILES IDX 52 87
REMARK H PARENT 10 8 17 21 76 40 44 51
REMARK Flexibility Score: inf
ROOT
ATOM      1  C   UNL A   1      45.610  22.260  25.707  1.00  0.00     0.002 C 
ENDROOT
BRANCH   1   2
ATOM      2  C   UNL A   1      45.267  23.066  26.971  1.00  0.00     0.002 C 
BRANCH   2   3
ATOM      3  C   UNL A   1      46.216  24.222  27.302  1.00  0.00     0.021 C 
BRANCH   3   4
ATOM      4  C   UNL A   1      46.907  24.829  26.083  1.00  0.00     0.116 C 
BRANCH   4   5
ATOM      5  N   UNL A   1      46.185  25.986  25.586  1.00  0.00    -0.351 N 
ATOM      6  C   UNL A   1      46.570  27.046  24.792  1.00  0.00     0.272 C 
ATOM      7  O   UNL A   1      45.696  27.881  24.549  1.00  0.00    -0.267 OA
ATOM      8  H   UNL A   1      45.243  26.021  25.870  1.00  0.00     0.163 HD
BRANCH   6   9
ATOM      9  C   UNL A   1      47.936  27.152  24.242  1.00  0.00     0.164 A 
ATOM     10  N   UNL A   1      49.521  27.224  22.807  1.00  0.00    -0.271 N 
ATOM     11  C   UNL A   1      50.133  27.530  23.981  1.00  0.00     0.125 A 
ATOM     12  N   UNL A   1      48.224  26.930  22.945  1.00  0.00    -0.166 NA
ATOM     13  C   UNL A   1      49.136  27.487  24.925  1.00  0.00     0.069 A 
ATOM     14  Br  UNL A   1      49.359  27.844  26.751  1.00  0.00    -0.047 Br
BRANCH  10  15
ATOM     15  C   UNL A   1      50.119  27.159  21.487  1.00  0.00     0.141 C 
ATOM     16  C   UNL A   1      49.088  27.066  20.370  1.00  0.00     0.029 C 
ENDBRANCH  10  15
ENDBRANCH   6   9
ENDBRANCH   4   5
ENDBRANCH   3   4
ENDBRANCH   2   3
ENDBRANCH   1   2
BRANCH   1  17
ATOM     17  C   UNL A   1      44.626  22.363  24.531  1.00  0.00     0.021 C 
BRANCH  17  18
ATOM     18  C   UNL A   1      43.418  23.232  24.822  1.00  0.00     0.116 C 
BRANCH  18  19
ATOM     19  N   UNL A   1      42.250  22.460  25.270  1.00  0.00    -0.352 N 
ATOM     20  C   UNL A   1      41.376  22.720  26.319  1.00  0.00     0.251 C 
ATOM     21  H   UNL A   1      42.060  21.643  24.753  1.00  0.00     0.163 HD
ATOM     22  O   UNL A   1      40.681  21.846  26.803  1.00  0.00    -0.269 OA
BRANCH  20  23
ATOM     23  C   UNL A   1      41.293  24.103  26.820  1.00  0.00     0.039 A 
ATOM     24  C   UNL A   1      40.365  25.046  26.365  1.00  0.00     0.014 A 
ATOM     25  C   UNL A   1      42.185  24.427  27.828  1.00  0.00     0.014 A 
ATOM     26  C   UNL A   1      40.355  26.305  26.968  1.00  0.00     0.010 A 
ATOM     27  C   UNL A   1      41.914  25.481  28.634  1.00  0.00     0.010 A 
ATOM     28  C   UNL A   1      41.155  26.503  28.099  1.00  0.00    -0.014 A 
BRANCH  28  29
ATOM     29  C   UNL A   1      41.273  27.755  28.821  1.00  0.00     0.031 A 
ATOM     30  C   UNL A   1      42.388  28.614  28.370  1.00  0.00     0.074 A 
ATOM     31  C   UNL A   1      40.239  28.199  29.577  1.00  0.00     0.049 A 
ATOM     32  N   UNL A   1      43.420  28.972  29.054  1.00  0.00    -0.248 NA
ATOM     33  C   UNL A   1      42.456  28.989  26.949  1.00  0.00     0.031 C 
ATOM     34  C   UNL A   1      38.935  27.560  29.820  1.00  0.00     0.029 A 
ATOM     35  N   UNL A   1      40.090  29.403  30.187  1.00  0.00    -0.354 N 
ATOM     36  C   UNL A   1      44.174  29.784  28.213  1.00  0.00     0.074 A 
ATOM     37  C   UNL A   1      43.653  29.575  26.889  1.00  0.00     0.031 C 
ATOM     38  C   UNL A   1      38.068  28.465  30.324  1.00  0.00     0.029 A 
ATOM     39  C   UNL A   1      38.784  29.699  30.577  1.00  0.00     0.049 A 
ATOM     40  H   UNL A   1      40.843  30.018  30.343  1.00  0.00     0.167 HD
ATOM     41  C   UNL A   1      44.994  30.743  28.724  1.00  0.00     0.037 A 
ATOM     42  C   UNL A   1      38.343  30.905  31.020  1.00  0.00     0.037 A 
ATOM     43  C   UNL A   1      45.167  30.550  30.146  1.00  0.00     0.049 A 
ATOM     44  C   UNL A   1      39.549  31.661  31.464  1.00  0.00     0.074 A 
ATOM     45  C   UNL A   1      45.684  29.530  30.921  1.00  0.00     0.029 A 
ATOM     46  N   UNL A   1      44.394  31.311  30.992  1.00  0.00    -0.354 N 
ATOM     47  N   UNL A   1      40.274  31.305  32.492  1.00  0.00    -0.248 NA
ATOM     48  C   UNL A   1      40.238  32.469  30.465  1.00  0.00     0.031 C 
ATOM     49  C   UNL A   1      44.809  29.443  32.042  1.00  0.00     0.029 A 
ATOM     50  C   UNL A   1      43.871  30.472  31.941  1.00  0.00     0.049 A 
ATOM     51  H   UNL A   1      44.244  32.282  30.926  1.00  0.00     0.167 HD
ATOM     52  C   UNL A   1      41.588  31.464  32.073  1.00  0.00     0.074 A 
ATOM     53  C   UNL A   1      41.504  32.243  30.837  1.00  0.00     0.031 C 
ATOM     54  C   UNL A   1      42.592  30.686  32.579  1.00  0.00     0.037 A 
BRANCH  41  55
ATOM     55  C   UNL A   1      45.331  32.057  28.062  1.00  0.00     0.064 A 
ATOM     56  C   UNL A   1      44.277  32.951  27.772  1.00  0.00     0.173 A 
ATOM     57  C   UNL A   1      46.559  32.351  27.433  1.00  0.00     0.173 A 
ATOM     58  F   UNL A   1      43.066  32.784  28.327  1.00  0.00    -0.203 F 
ATOM     59  C   UNL A   1      44.412  33.975  26.834  1.00  0.00     0.198 A 
ATOM     60  C   UNL A   1      46.704  33.409  26.536  1.00  0.00     0.198 A 
ATOM     61  F   UNL A   1      47.641  31.578  27.565  1.00  0.00    -0.203 F 
ATOM     62  F   UNL A   1      43.341  34.703  26.488  1.00  0.00    -0.200 F 
ATOM     63  C   UNL A   1      45.621  34.195  26.206  1.00  0.00     0.200 A 
ATOM     64  F   UNL A   1      47.886  33.602  25.934  1.00  0.00    -0.200 F 
ATOM     65  F   UNL A   1      45.736  35.127  25.252  1.00  0.00    -0.200 F 
ENDBRANCH  41  55
BRANCH  42  66
ATOM     66  C   UNL A   1      37.021  31.540  30.780  1.00  0.00     0.064 A 
ATOM     67  C   UNL A   1      36.111  31.769  31.826  1.00  0.00     0.173 A 
ATOM     68  C   UNL A   1      36.724  32.170  29.554  1.00  0.00     0.173 A 
ATOM     69  F   UNL A   1      36.337  31.252  33.042  1.00  0.00    -0.203 F 
ATOM     70  C   UNL A   1      34.985  32.589  31.658  1.00  0.00     0.198 A 
ATOM     71  C   UNL A   1      35.599  32.981  29.386  1.00  0.00     0.198 A 
ATOM     72  F   UNL A   1      37.569  32.089  28.517  1.00  0.00    -0.203 F 
ATOM     73  F   UNL A   1      34.170  32.829  32.695  1.00  0.00    -0.200 F 
ATOM     74  C   UNL A   1      34.736  33.200  30.441  1.00  0.00     0.200 A 
ATOM     75  F   UNL A   1      35.395  33.597  28.212  1.00  0.00    -0.200 F 
ATOM     76  F   UNL A   1      33.694  34.031  30.295  1.00  0.00    -0.200 F 
ENDBRANCH  42  66
BRANCH  54  77
ATOM     77  C   UNL A   1      42.280  29.799  33.755  1.00  0.00     0.064 A 
ATOM     78  C   UNL A   1      41.832  28.471  33.641  1.00  0.00     0.173 A 
ATOM     79  C   UNL A   1      42.639  30.243  35.034  1.00  0.00     0.173 A 
ATOM     80  F   UNL A   1      41.570  27.932  32.447  1.00  0.00    -0.203 F 
ATOM     81  C   UNL A   1      41.716  27.642  34.756  1.00  0.00     0.198 A 
ATOM     82  C   UNL A   1      42.557  29.403  36.141  1.00  0.00     0.198 A 
ATOM     83  F   UNL A   1      43.134  31.481  35.198  1.00  0.00    -0.203 F 
ATOM     84  F   UNL A   1      41.286  26.379  34.614  1.00  0.00    -0.200 F 
ATOM     85  C   UNL A   1      42.088  28.107  36.004  1.00  0.00     0.200 A 
ATOM     86  F   UNL A   1      42.972  29.841  37.338  1.00  0.00    -0.200 F 
ATOM     87  F   UNL A   1      42.025  27.297  37.071  1.00  0.00    -0.200 F 
ENDBRANCH  54  77
ENDBRANCH  28  29
ENDBRANCH  20  23
ENDBRANCH  18  19
ENDBRANCH  17  18
ENDBRANCH   1  17
TORSDOF 14
ENDMDL
MODEL 3
REMARK VINA RESULT:     -11.2      1.554      2.740
REMARK SMILES CCn1cc(Br)c(C(=O)NCCCCCCNC(=O)c2ccc(-c3c4nc(c(-c5c(F)c(F)c(F)c(F)c5F)c5ccc([nH]5)c(-c5c(F)c(F)c(F)c(F)c5F)c5nc(c(-c6c(F)c(F)c(F)c(F)c6F)c6ccc3[nH]6)C=C5)C=C4)cc2)n1
REMARK SMILES IDX 14 1 13 2 12 3 11 4 10 5 8 6 9 7 7 9 3 10 4 11 83 12 5 13
REMARK SMILES IDX 6 14 2 15 1 16 15 17 16 18 17 19 18 20 19 22 20 23 21 24
REMARK SMILES IDX 82 25 22 26 81 27 23 28 24 29 25 30 75 31 26 32 80 33 74 34
REMARK SMILES IDX 76 35 27 36 79 37 73 38 72 39 28 41 60 42 40 43 59 44 41 45
REMARK SMILES IDX 44 46 58 47 77 48 42 49 43 50 57 52 78 53 45 54 29 55 30 56
REMARK SMILES IDX 38 57 31 58 32 59 36 60 39 61 33 62 34 63 37 64 35 65 61 66
REMARK SMILES IDX 62 67 70 68 63 69 64 70 68 71 71 72 65 73 66 74 69 75 67 76
REMARK SMILES IDX 46 77 47 78 55 79 48 80 49 81 53 82 56 83 50 84 51 85 54 86
REMARK SMILES IDX 52 87
REMARK H PARENT 10 8 17 21 76 40 44 51
REMARK Flexibility Score: inf
ROOT
ATOM      1  C   UNL A   1      36.078  22.029  24.322  1.00  0.00     0.002 C 
ENDROOT
BRANCH   1   2
ATOM      2  C   UNL A   1      34.964  21.402  25.177  1.00  0.00     0.002 C 
BRANCH   2   3
ATOM      3  C   UNL A   1      33.678  22.225  25.306  1.00  0.00     0.021 C 
BRANCH   3   4
ATOM      4  C   UNL A   1      33.409  22.743  26.717  1.00  0.00     0.116 C 
BRANCH   4   5
ATOM      5  N   UNL A   1      32.005  22.628  27.065  1.00  0.00    -0.351 N 
ATOM      6  C   UNL A   1      30.939  23.490  26.907  1.00  0.00     0.272 C 
ATOM      7  O   UNL A   1      29.851  23.080  27.320  1.00  0.00    -0.267 OA
ATOM      8  H   UNL A   1      31.768  21.774  27.494  1.00  0.00     0.163 HD
BRANCH   6   9
ATOM      9  C   UNL A   1      31.091  24.806  26.256  1.00  0.00     0.164 A 
ATOM     10  N   UNL A   1      31.501  26.892  26.020  1.00  0.00    -0.271 N 
ATOM     11  C   UNL A   1      31.309  26.454  24.749  1.00  0.00     0.125 A 
ATOM     12  N   UNL A   1      31.312  25.943  26.943  1.00  0.00    -0.166 NA
ATOM     13  C   UNL A   1      31.039  25.113  24.869  1.00  0.00     0.069 A 
ATOM     14  Br  UNL A   1      30.705  23.944  23.444  1.00  0.00    -0.047 Br
BRANCH  10  15
ATOM     15  C   UNL A   1      31.844  28.234  26.453  1.00  0.00     0.141 C 
ATOM     16  C   UNL A   1      33.328  28.546  26.309  1.00  0.00     0.029 C 
ENDBRANCH  10  15
ENDBRANCH   6   9
ENDBRANCH   4   5
ENDBRANCH   3   4
ENDBRANCH   2   3
ENDBRANCH   1   2
BRANCH   1  17
ATOM     17  C   UNL A   1      36.456  23.485  24.635  1.00  0.00     0.021 C 
BRANCH  17  18
ATOM     18  C   UNL A   1      37.076  23.671  26.007  1.00  0.00     0.116 C 
BRANCH  18  19
ATOM     19  N   UNL A   1      38.151  22.708  26.287  1.00  0.00    -0.352 N 
ATOM     20  C   UNL A   1      39.502  22.943  26.513  1.00  0.00     0.251 C 
ATOM     21  H   UNL A   1      37.874  21.764  26.318  1.00  0.00     0.163 HD
ATOM     22  O   UNL A   1      40.334  22.064  26.381  1.00  0.00    -0.269 OA
BRANCH  20  23
ATOM     23  C   UNL A   1      39.904  24.294  26.945  1.00  0.00     0.039 A 
ATOM     24  C   UNL A   1      40.382  25.283  26.078  1.00  0.00     0.014 A 
ATOM     25  C   UNL A   1      39.747  24.560  28.294  1.00  0.00     0.014 A 
ATOM     26  C   UNL A   1      40.671  26.541  26.609  1.00  0.00     0.010 A 
ATOM     27  C   UNL A   1      39.667  25.848  28.706  1.00  0.00     0.010 A 
ATOM     28  C   UNL A   1      40.316  26.795  27.938  1.00  0.00    -0.014 A 
BRANCH  28  29
ATOM     29  C   UNL A   1      40.571  28.039  28.640  1.00  0.00     0.031 A 
ATOM     30  C   UNL A   1      41.708  28.816  28.105  1.00  0.00     0.074 A 
ATOM     31  C   UNL A   1      39.626  28.555  29.462  1.00  0.00     0.049 A 
ATOM     32  N   UNL A   1      42.808  29.104  28.713  1.00  0.00    -0.248 NA
ATOM     33  C   UNL A   1      41.702  29.181  26.679  1.00  0.00     0.031 C 
ATOM     34  C   UNL A   1      38.301  28.009  29.801  1.00  0.00     0.029 A 
ATOM     35  N   UNL A   1      39.604  29.769  30.072  1.00  0.00    -0.354 N 
ATOM     36  C   UNL A   1      43.555  29.859  27.814  1.00  0.00     0.074 A 
ATOM     37  C   UNL A   1      42.929  29.682  26.531  1.00  0.00     0.031 C 
ATOM     38  C   UNL A   1      37.536  28.974  30.358  1.00  0.00     0.029 A 
ATOM     39  C   UNL A   1      38.351  30.156  30.550  1.00  0.00     0.049 A 
ATOM     40  H   UNL A   1      40.406  30.331  30.170  1.00  0.00     0.167 HD
ATOM     41  C   UNL A   1      44.473  30.761  28.259  1.00  0.00     0.037 A 
ATOM     42  C   UNL A   1      38.028  31.391  31.012  1.00  0.00     0.037 A 
ATOM     43  C   UNL A   1      44.732  30.560  29.666  1.00  0.00     0.049 A 
ATOM     44  C   UNL A   1      39.310  32.063  31.365  1.00  0.00     0.074 A 
ATOM     45  C   UNL A   1      45.231  29.509  30.412  1.00  0.00     0.029 A 
ATOM     46  N   UNL A   1      44.075  31.376  30.558  1.00  0.00    -0.354 N 
ATOM     47  N   UNL A   1      40.080  31.660  32.342  1.00  0.00    -0.248 NA
ATOM     48  C   UNL A   1      39.982  32.818  30.314  1.00  0.00     0.031 C 
ATOM     49  C   UNL A   1      44.432  29.487  31.592  1.00  0.00     0.029 A 
ATOM     50  C   UNL A   1      43.563  30.579  31.549  1.00  0.00     0.049 A 
ATOM     51  H   UNL A   1      43.988  32.355  30.495  1.00  0.00     0.167 HD
ATOM     52  C   UNL A   1      41.369  31.727  31.831  1.00  0.00     0.074 A 
ATOM     53  C   UNL A   1      41.252  32.506  30.599  1.00  0.00     0.031 C 
ATOM     54  C   UNL A   1      42.350  30.883  32.273  1.00  0.00     0.037 A 
BRANCH  41  55
ATOM     55  C   UNL A   1      44.853  32.046  27.564  1.00  0.00     0.064 A 
ATOM     56  C   UNL A   1      46.110  32.116  26.926  1.00  0.00     0.173 A 
ATOM     57  C   UNL A   1      44.200  33.283  27.746  1.00  0.00     0.173 A 
ATOM     58  F   UNL A   1      46.817  31.001  26.681  1.00  0.00    -0.203 F 
ATOM     59  C   UNL A   1      46.714  33.335  26.612  1.00  0.00     0.198 A 
ATOM     60  C   UNL A   1      44.785  34.496  27.382  1.00  0.00     0.198 A 
ATOM     61  F   UNL A   1      43.026  33.395  28.374  1.00  0.00    -0.203 F 
ATOM     62  F   UNL A   1      47.969  33.352  26.141  1.00  0.00    -0.200 F 
ATOM     63  C   UNL A   1      46.057  34.524  26.853  1.00  0.00     0.200 A 
ATOM     64  F   UNL A   1      44.131  35.640  27.629  1.00  0.00    -0.200 F 
ATOM     65  F   UNL A   1      46.661  35.696  26.624  1.00  0.00    -0.200 F 
ENDBRANCH  41  55
BRANCH  42  66
ATOM     66  C   UNL A   1      36.739  32.115  30.861  1.00  0.00     0.064 A 
ATOM     67  C   UNL A   1      35.861  32.297  31.943  1.00  0.00     0.173 A 
ATOM     68  C   UNL A   1      36.456  32.870  29.703  1.00  0.00     0.173 A 
ATOM     69  F   UNL A   1      36.079  31.659  33.102  1.00  0.00    -0.203 F 
ATOM     70  C   UNL A   1      34.780  33.187  31.875  1.00  0.00     0.198 A 
ATOM     71  C   UNL A   1      35.375  33.753  29.634  1.00  0.00     0.198 A 
ATOM     72  F   UNL A   1      37.277  32.839  28.644  1.00  0.00    -0.203 F 
ATOM     73  F   UNL A   1      33.997  33.375  32.948  1.00  0.00    -0.200 F 
ATOM     74  C   UNL A   1      34.544  33.920  30.724  1.00  0.00     0.200 A 
ATOM     75  F   UNL A   1      35.185  34.483  28.526  1.00  0.00    -0.200 F 
ATOM     76  F   UNL A   1      33.547  34.815  30.677  1.00  0.00    -0.200 F 
ENDBRANCH  42  66
BRANCH  54  77
ATOM     77  C   UNL A   1      42.061  30.023  33.475  1.00  0.00     0.064 A 
ATOM     78  C   UNL A   1      41.624  28.689  33.400  1.00  0.00     0.173 A 
ATOM     79  C   UNL A   1      42.431  30.503  34.737  1.00  0.00     0.173 A 
ATOM     80  F   UNL A   1      41.352  28.117  32.223  1.00  0.00    -0.203 F 
ATOM     81  C   UNL A   1      41.529  27.888  34.537  1.00  0.00     0.198 A 
ATOM     82  C   UNL A   1      42.371  29.691  35.866  1.00  0.00     0.198 A 
ATOM     83  F   UNL A   1      42.917  31.749  34.864  1.00  0.00    -0.203 F 
ATOM     84  F   UNL A   1      41.110  26.618  34.432  1.00  0.00    -0.200 F 
ATOM     85  C   UNL A   1      41.913  28.388  35.768  1.00  0.00     0.200 A 
ATOM     86  F   UNL A   1      42.797  30.162  37.046  1.00  0.00    -0.200 F 
ATOM     87  F   UNL A   1      41.871  27.604  36.856  1.00  0.00    -0.200 F 
ENDBRANCH  54  77
ENDBRANCH  28  29
ENDBRANCH  20  23
ENDBRANCH  18  19
ENDBRANCH  17  18
ENDBRANCH   1  17
TORSDOF 14
ENDMDL
