MODEL 1
REMARK VINA RESULT:     -13.8      0.000      0.000
REMARK SMILES Cc1nn([C@H]2CCS(=O)(=O)C2)c(C)c1/C=C(\CC(=O)NCCCCCCNC(=O)c1ccc(-c2c3nc(c(-c4c(F)c(F)c(F)c(F)c4F)c4ccc([nH]4)c(-c4c(F)c(F)c(F)c(F)c4F)c4nc(c(-c5c(F)c(F)c(F)c(F)c5F)c5ccc2[nH]5)C=C4)C=C3)cc1)c1nc2ccccc2s1
REMARK SMILES IDX 23 1 22 2 21 3 20 4 18 5 19 6 17 8 16 9 15 10 14 11 1 12
REMARK SMILES IDX 2 13 3 14 4 15 12 16 13 17 5 18 6 19 11 20 7 21 8 22 9 23
REMARK SMILES IDX 10 24 93 25 94 26 101 27 95 28 100 29 96 30 99 31 97 32
REMARK SMILES IDX 98 33 24 34 25 35 26 36 27 37 28 38 29 40 30 41 31 42 92 43
REMARK SMILES IDX 32 44 91 45 33 46 34 47 35 48 85 49 36 50 90 51 84 52 86 53
REMARK SMILES IDX 37 54 89 55 83 56 82 57 38 59 70 60 50 61 69 62 51 63 54 64
REMARK SMILES IDX 68 65 87 66 52 67 53 68 67 70 88 71 55 72 39 73 40 74 48 75
REMARK SMILES IDX 41 76 42 77 46 78 49 79 43 80 44 81 47 82 45 83 71 84 72 85
REMARK SMILES IDX 80 86 73 87 74 88 78 89 81 90 75 91 76 92 79 93 77 94 56 95
REMARK SMILES IDX 57 96 65 97 58 98 59 99 63 100 66 101 60 102 61 103 64 104
REMARK SMILES IDX 62 105
REMARK H PARENT 20 7 27 39 86 58 54 69
REMARK Flexibility Score: inf
ROOT
ATOM      1  C   UNL A   1      34.134  28.971  26.862  1.00  0.00     0.002 C 
ENDROOT
BRANCH   1   2
ATOM      2  C   UNL A   1      32.607  29.087  26.827  1.00  0.00     0.021 C 
BRANCH   2   3
ATOM      3  C   UNL A   1      32.056  29.072  25.406  1.00  0.00     0.116 C 
BRANCH   3   4
ATOM      4  N   UNL A   1      32.844  28.180  24.584  1.00  0.00    -0.356 N 
ATOM      5  C   UNL A   1      32.844  26.815  24.612  1.00  0.00     0.224 C 
ATOM      6  O   UNL A   1      33.784  26.204  24.104  1.00  0.00    -0.275 OA
ATOM      7  H   UNL A   1      33.446  28.604  23.931  1.00  0.00     0.163 HD
BRANCH   5   8
ATOM      8  C   UNL A   1      31.578  26.106  25.070  1.00  0.00     0.138 C 
BRANCH   8   9
ATOM      9  C   UNL A   1      30.588  25.590  24.040  1.00  0.00    -0.002 C 
ATOM     10  C   UNL A   1      30.407  24.274  23.746  1.00  0.00     0.019 C 
BRANCH  10  11
ATOM     11  C   UNL A   1      31.190  23.154  24.209  1.00  0.00     0.019 A 
ATOM     12  C   UNL A   1      30.325  22.911  26.681  1.00  0.00     0.069 C 
ATOM     13  C   UNL A   1      31.064  22.492  25.462  1.00  0.00     0.067 A 
ATOM     14  N   UNL A   1      31.752  21.344  25.477  1.00  0.00    -0.177 NA
ATOM     15  N   UNL A   1      32.356  21.294  24.272  1.00  0.00    -0.265 N 
ATOM     16  C   UNL A   1      32.247  22.493  23.596  1.00  0.00     0.043 A 
ATOM     17  C   UNL A   1      33.138  22.894  22.472  1.00  0.00     0.067 C 
BRANCH  15  18
ATOM     18  C   UNL A   1      33.069  20.069  23.913  1.00  0.00     0.123 C 
ATOM     19  C   UNL A   1      34.232  19.731  24.881  1.00  0.00     0.044 C 
ATOM     20  C   UNL A   1      32.214  18.804  23.924  1.00  0.00     0.164 C 
ATOM     21  C   UNL A   1      34.763  18.353  24.501  1.00  0.00     0.139 C 
ATOM     22  S   UNL A   1      33.371  17.466  23.841  1.00  0.00     0.152 S 
ATOM     23  O   UNL A   1      33.621  17.178  22.450  1.00  0.00    -0.229 OA
ATOM     24  O   UNL A   1      32.958  16.445  24.788  1.00  0.00    -0.229 OA
ENDBRANCH  15  18
ENDBRANCH  10  11
BRANCH   9  25
ATOM     25  C   UNL A   1      29.824  26.564  23.312  1.00  0.00     0.121 A 
ATOM     26  N   UNL A   1      30.353  27.447  22.489  1.00  0.00    -0.236 NA
ATOM     27  S   UNL A   1      28.169  26.868  23.698  1.00  0.00    -0.114 S 
ATOM     28  C   UNL A   1      29.591  28.599  22.494  1.00  0.00     0.082 A 
ATOM     29  C   UNL A   1      28.359  28.489  23.141  1.00  0.00     0.055 A 
ATOM     30  C   UNL A   1      29.991  29.853  21.993  1.00  0.00     0.030 A 
ATOM     31  C   UNL A   1      27.511  29.595  23.312  1.00  0.00     0.021 A 
ATOM     32  C   UNL A   1      29.202  30.978  22.249  1.00  0.00     0.002 A 
ATOM     33  C   UNL A   1      27.980  30.849  22.904  1.00  0.00     0.002 A 
ENDBRANCH   9  25
ENDBRANCH   8   9
ENDBRANCH   5   8
ENDBRANCH   3   4
ENDBRANCH   2   3
ENDBRANCH   1   2
BRANCH   1  34
ATOM     34  C   UNL A   1      34.851  30.185  27.469  1.00  0.00     0.002 C 
BRANCH  34  35
ATOM     35  C   UNL A   1      33.966  31.411  27.737  1.00  0.00     0.021 C 
BRANCH  35  36
ATOM     36  C   UNL A   1      34.749  32.617  28.223  1.00  0.00     0.116 C 
BRANCH  36  37
ATOM     37  N   UNL A   1      34.579  32.837  29.660  1.00  0.00    -0.352 N 
ATOM     38  C   UNL A   1      35.238  32.230  30.709  1.00  0.00     0.251 C 
ATOM     39  H   UNL A   1      33.903  33.507  29.912  1.00  0.00     0.163 HD
ATOM     40  O   UNL A   1      34.764  32.221  31.837  1.00  0.00    -0.269 OA
BRANCH  38  41
ATOM     41  C   UNL A   1      36.541  31.606  30.444  1.00  0.00     0.039 A 
ATOM     42  C   UNL A   1      37.709  32.361  30.318  1.00  0.00     0.014 A 
ATOM     43  C   UNL A   1      36.574  30.218  30.350  1.00  0.00     0.014 A 
ATOM     44  C   UNL A   1      38.919  31.693  30.158  1.00  0.00     0.010 A 
ATOM     45  C   UNL A   1      37.772  29.563  30.395  1.00  0.00     0.010 A 
ATOM     46  C   UNL A   1      38.938  30.290  30.210  1.00  0.00    -0.014 A 
BRANCH  46  47
ATOM     47  C   UNL A   1      40.185  29.541  30.185  1.00  0.00     0.031 A 
ATOM     48  C   UNL A   1      40.783  29.340  31.529  1.00  0.00     0.074 A 
ATOM     49  C   UNL A   1      40.614  28.894  29.078  1.00  0.00     0.049 A 
ATOM     50  N   UNL A   1      41.882  29.843  31.983  1.00  0.00    -0.248 NA
ATOM     51  C   UNL A   1      39.991  28.631  32.550  1.00  0.00     0.031 C 
ATOM     52  C   UNL A   1      39.934  28.754  27.783  1.00  0.00     0.029 A 
ATOM     53  N   UNL A   1      41.724  28.128  28.905  1.00  0.00    -0.354 N 
ATOM     54  C   UNL A   1      42.032  29.337  33.271  1.00  0.00     0.074 A 
ATOM     55  C   UNL A   1      40.757  28.779  33.633  1.00  0.00     0.031 C 
ATOM     56  C   UNL A   1      40.520  27.775  27.059  1.00  0.00     0.029 A 
ATOM     57  C   UNL A   1      41.717  27.345  27.754  1.00  0.00     0.049 A 
ATOM     58  H   UNL A   1      42.474  28.127  29.544  1.00  0.00     0.167 HD
ATOM     59  C   UNL A   1      43.274  29.177  33.806  1.00  0.00     0.037 A 
ATOM     60  C   UNL A   1      42.627  26.394  27.417  1.00  0.00     0.037 A 
ATOM     61  C   UNL A   1      44.248  29.937  33.059  1.00  0.00     0.049 A 
ATOM     62  C   UNL A   1      43.843  26.655  28.227  1.00  0.00     0.074 A 
ATOM     63  C   UNL A   1      44.431  31.275  32.774  1.00  0.00     0.029 A 
ATOM     64  N   UNL A   1      45.003  29.251  32.140  1.00  0.00    -0.354 N 
ATOM     65  N   UNL A   1      44.596  27.709  28.080  1.00  0.00    -0.248 NA
ATOM     66  C   UNL A   1      43.942  25.986  29.514  1.00  0.00     0.031 C 
ATOM     67  C   UNL A   1      44.894  31.305  31.424  1.00  0.00     0.029 A 
ATOM     68  C   UNL A   1      45.049  29.989  30.987  1.00  0.00     0.049 A 
ATOM     69  H   UNL A   1      45.437  28.379  32.284  1.00  0.00     0.167 HD
ATOM     70  C   UNL A   1      44.914  28.093  29.374  1.00  0.00     0.074 A 
ATOM     71  C   UNL A   1      44.553  26.950  30.210  1.00  0.00     0.031 C 
ATOM     72  C   UNL A   1      45.157  29.404  29.671  1.00  0.00     0.037 A 
BRANCH  59  73
ATOM     73  C   UNL A   1      43.682  28.026  34.699  1.00  0.00     0.064 A 
ATOM     74  C   UNL A   1      43.434  26.709  34.257  1.00  0.00     0.173 A 
ATOM     75  C   UNL A   1      43.996  28.151  36.070  1.00  0.00     0.173 A 
ATOM     76  F   UNL A   1      43.119  26.465  32.975  1.00  0.00    -0.203 F 
ATOM     77  C   UNL A   1      43.395  25.625  35.138  1.00  0.00     0.198 A 
ATOM     78  C   UNL A   1      44.008  27.059  36.937  1.00  0.00     0.198 A 
ATOM     79  F   UNL A   1      44.191  29.335  36.660  1.00  0.00    -0.203 F 
ATOM     80  F   UNL A   1      43.014  24.420  34.695  1.00  0.00    -0.200 F 
ATOM     81  C   UNL A   1      43.673  25.804  36.480  1.00  0.00     0.200 A 
ATOM     82  F   UNL A   1      44.264  27.257  38.238  1.00  0.00    -0.200 F 
ATOM     83  F   UNL A   1      43.568  24.783  37.340  1.00  0.00    -0.200 F 
ENDBRANCH  59  73
BRANCH  60  84
ATOM     84  C   UNL A   1      42.409  25.105  26.716  1.00  0.00     0.064 A 
ATOM     85  C   UNL A   1      43.134  24.777  25.557  1.00  0.00     0.173 A 
ATOM     86  C   UNL A   1      41.712  24.049  27.334  1.00  0.00     0.173 A 
ATOM     87  F   UNL A   1      43.867  25.713  24.935  1.00  0.00    -0.203 F 
ATOM     88  C   UNL A   1      43.180  23.469  25.063  1.00  0.00     0.198 A 
ATOM     89  C   UNL A   1      41.757  22.743  26.840  1.00  0.00     0.198 A 
ATOM     90  F   UNL A   1      41.059  24.244  28.489  1.00  0.00    -0.203 F 
ATOM     91  F   UNL A   1      43.935  23.183  23.993  1.00  0.00    -0.200 F 
ATOM     92  C   UNL A   1      42.501  22.451  25.711  1.00  0.00     0.200 A 
ATOM     93  F   UNL A   1      41.132  21.759  27.502  1.00  0.00    -0.200 F 
ATOM     94  F   UNL A   1      42.600  21.186  25.280  1.00  0.00    -0.200 F 
ENDBRANCH  60  84
BRANCH  72  95
ATOM     95  C   UNL A   1      45.355  30.358  28.525  1.00  0.00     0.064 A 
ATOM     96  C   UNL A   1      44.319  31.052  27.875  1.00  0.00     0.173 A 
ATOM     97  C   UNL A   1      46.669  30.690  28.173  1.00  0.00     0.173 A 
ATOM     98  F   UNL A   1      43.038  30.859  28.216  1.00  0.00    -0.203 F 
ATOM     99  C   UNL A   1      44.590  32.007  26.897  1.00  0.00     0.198 A 
ATOM    100  C   UNL A   1      46.939  31.671  27.223  1.00  0.00     0.198 A 
ATOM    101  F   UNL A   1      47.700  30.096  28.795  1.00  0.00    -0.203 F 
ATOM    102  F   UNL A   1      43.584  32.651  26.285  1.00  0.00    -0.200 F 
ATOM    103  C   UNL A   1      45.901  32.323  26.578  1.00  0.00     0.200 A 
ATOM    104  F   UNL A   1      48.209  32.004  26.956  1.00  0.00    -0.200 F 
ATOM    105  F   UNL A   1      46.166  33.272  25.670  1.00  0.00    -0.200 F 
ENDBRANCH  72  95
ENDBRANCH  46  47
ENDBRANCH  38  41
ENDBRANCH  36  37
ENDBRANCH  35  36
ENDBRANCH  34  35
ENDBRANCH   1  34
TORSDOF 17
ENDMDL
MODEL 2
REMARK VINA RESULT:     -13.7      3.032      9.392
REMARK SMILES Cc1nn([C@H]2CCS(=O)(=O)C2)c(C)c1/C=C(\CC(=O)NCCCCCCNC(=O)c1ccc(-c2c3nc(c(-c4c(F)c(F)c(F)c(F)c4F)c4ccc([nH]4)c(-c4c(F)c(F)c(F)c(F)c4F)c4nc(c(-c5c(F)c(F)c(F)c(F)c5F)c5ccc2[nH]5)C=C4)C=C3)cc1)c1nc2ccccc2s1
REMARK SMILES IDX 23 1 22 2 21 3 20 4 18 5 19 6 17 8 16 9 15 10 14 11 1 12
REMARK SMILES IDX 2 13 3 14 4 15 12 16 13 17 5 18 6 19 11 20 7 21 8 22 9 23
REMARK SMILES IDX 10 24 93 25 94 26 101 27 95 28 100 29 96 30 99 31 97 32
REMARK SMILES IDX 98 33 24 34 25 35 26 36 27 37 28 38 29 40 30 41 31 42 92 43
REMARK SMILES IDX 32 44 91 45 33 46 34 47 35 48 85 49 36 50 90 51 84 52 86 53
REMARK SMILES IDX 37 54 89 55 83 56 82 57 38 59 70 60 50 61 69 62 51 63 54 64
REMARK SMILES IDX 68 65 87 66 52 67 53 68 67 70 88 71 55 72 39 73 40 74 48 75
REMARK SMILES IDX 41 76 42 77 46 78 49 79 43 80 44 81 47 82 45 83 71 84 72 85
REMARK SMILES IDX 80 86 73 87 74 88 78 89 81 90 75 91 76 92 79 93 77 94 56 95
REMARK SMILES IDX 57 96 65 97 58 98 59 99 63 100 66 101 60 102 61 103 64 104
REMARK SMILES IDX 62 105
REMARK H PARENT 20 7 27 39 86 58 54 69
REMARK Flexibility Score: inf
ROOT
ATOM      1  C   UNL A   1      39.972  20.880  26.503  1.00  0.00     0.002 C 
ENDROOT
BRANCH   1   2
ATOM      2  C   UNL A   1      39.388  22.260  26.187  1.00  0.00     0.021 C 
BRANCH   2   3
ATOM      3  C   UNL A   1      37.900  22.201  25.863  1.00  0.00     0.116 C 
BRANCH   3   4
ATOM      4  N   UNL A   1      37.664  22.739  24.541  1.00  0.00    -0.356 N 
ATOM      5  C   UNL A   1      36.459  22.910  23.922  1.00  0.00     0.224 C 
ATOM      6  O   UNL A   1      36.427  23.062  22.701  1.00  0.00    -0.275 OA
ATOM      7  H   UNL A   1      38.460  23.015  24.033  1.00  0.00     0.163 HD
BRANCH   5   8
ATOM      8  C   UNL A   1      35.229  23.125  24.791  1.00  0.00     0.138 C 
BRANCH   8   9
ATOM      9  C   UNL A   1      33.983  22.290  24.554  1.00  0.00    -0.002 C 
ATOM     10  C   UNL A   1      32.857  22.752  23.944  1.00  0.00     0.019 C 
BRANCH  10  11
ATOM     11  C   UNL A   1      32.562  24.110  23.557  1.00  0.00     0.019 A 
ATOM     12  C   UNL A   1      33.365  24.115  21.052  1.00  0.00     0.069 C 
ATOM     13  C   UNL A   1      32.683  24.665  22.253  1.00  0.00     0.067 A 
ATOM     14  N   UNL A   1      32.091  25.863  22.177  1.00  0.00    -0.177 NA
ATOM     15  N   UNL A   1      31.643  26.101  23.426  1.00  0.00    -0.265 N 
ATOM     16  C   UNL A   1      32.144  25.186  24.331  1.00  0.00     0.043 A 
ATOM     17  C   UNL A   1      32.189  25.415  25.802  1.00  0.00     0.067 C 
BRANCH  15  18
ATOM     18  C   UNL A   1      30.804  27.279  23.641  1.00  0.00     0.123 C 
ATOM     19  C   UNL A   1      31.584  28.492  24.209  1.00  0.00     0.044 C 
ATOM     20  C   UNL A   1      30.145  27.834  22.380  1.00  0.00     0.164 C 
ATOM     21  C   UNL A   1      30.639  29.689  24.212  1.00  0.00     0.139 C 
ATOM     22  S   UNL A   1      29.529  29.427  22.847  1.00  0.00     0.152 S 
ATOM     23  O   UNL A   1      28.193  29.255  23.362  1.00  0.00    -0.229 OA
ATOM     24  O   UNL A   1      29.841  30.367  21.785  1.00  0.00    -0.229 OA
ENDBRANCH  15  18
ENDBRANCH  10  11
BRANCH   9  25
ATOM     25  C   UNL A   1      33.991  20.938  25.038  1.00  0.00     0.121 A 
ATOM     26  N   UNL A   1      34.941  20.066  24.767  1.00  0.00    -0.236 NA
ATOM     27  S   UNL A   1      32.586  20.244  25.763  1.00  0.00    -0.114 S 
ATOM     28  C   UNL A   1      34.405  18.793  24.735  1.00  0.00     0.082 A 
ATOM     29  C   UNL A   1      33.099  18.690  25.217  1.00  0.00     0.055 A 
ATOM     30  C   UNL A   1      35.023  17.653  24.186  1.00  0.00     0.030 A 
ATOM     31  C   UNL A   1      32.384  17.483  25.165  1.00  0.00     0.021 A 
ATOM     32  C   UNL A   1      34.285  16.476  24.035  1.00  0.00     0.002 A 
ATOM     33  C   UNL A   1      32.980  16.396  24.516  1.00  0.00     0.002 A 
ENDBRANCH   9  25
ENDBRANCH   8   9
ENDBRANCH   5   8
ENDBRANCH   3   4
ENDBRANCH   2   3
ENDBRANCH   1   2
BRANCH   1  34
ATOM     34  C   UNL A   1      41.099  20.887  27.546  1.00  0.00     0.002 C 
BRANCH  34  35
ATOM     35  C   UNL A   1      42.396  20.181  27.123  1.00  0.00     0.021 C 
BRANCH  35  36
ATOM     36  C   UNL A   1      42.349  19.652  25.701  1.00  0.00     0.116 C 
BRANCH  36  37
ATOM     37  N   UNL A   1      43.689  19.481  25.137  1.00  0.00    -0.352 N 
ATOM     38  C   UNL A   1      44.570  20.448  24.700  1.00  0.00     0.251 C 
ATOM     39  H   UNL A   1      44.003  18.551  25.059  1.00  0.00     0.163 HD
ATOM     40  O   UNL A   1      45.479  20.177  23.927  1.00  0.00    -0.269 OA
BRANCH  38  41
ATOM     41  C   UNL A   1      44.404  21.819  25.202  1.00  0.00     0.039 A 
ATOM     42  C   UNL A   1      43.404  22.666  24.718  1.00  0.00     0.014 A 
ATOM     43  C   UNL A   1      45.271  22.238  26.206  1.00  0.00     0.014 A 
ATOM     44  C   UNL A   1      43.253  23.919  25.305  1.00  0.00     0.010 A 
ATOM     45  C   UNL A   1      44.995  23.374  26.910  1.00  0.00     0.010 A 
ATOM     46  C   UNL A   1      44.049  24.256  26.411  1.00  0.00    -0.014 A 
BRANCH  46  47
ATOM     47  C   UNL A   1      43.845  25.493  27.151  1.00  0.00     0.031 A 
ATOM     48  C   UNL A   1      44.808  26.565  26.792  1.00  0.00     0.074 A 
ATOM     49  C   UNL A   1      42.741  25.708  27.902  1.00  0.00     0.049 A 
ATOM     50  N   UNL A   1      45.736  27.067  27.535  1.00  0.00    -0.248 NA
ATOM     51  C   UNL A   1      44.860  27.020  25.391  1.00  0.00     0.031 C 
ATOM     52  C   UNL A   1      41.566  24.842  28.065  1.00  0.00     0.029 A 
ATOM     53  N   UNL A   1      42.388  26.812  28.614  1.00  0.00    -0.354 N 
ATOM     54  C   UNL A   1      46.346  28.057  26.770  1.00  0.00     0.074 A 
ATOM     55  C   UNL A   1      45.913  27.840  25.416  1.00  0.00     0.031 C 
ATOM     56  C   UNL A   1      40.552  25.543  28.619  1.00  0.00     0.029 A 
ATOM     57  C   UNL A   1      41.054  26.844  29.013  1.00  0.00     0.049 A 
ATOM     58  H   UNL A   1      43.025  27.532  28.829  1.00  0.00     0.167 HD
ATOM     59  C   UNL A   1      46.926  29.131  27.372  1.00  0.00     0.037 A 
ATOM     60  C   UNL A   1      40.413  27.883  29.606  1.00  0.00     0.037 A 
ATOM     61  C   UNL A   1      47.147  28.868  28.774  1.00  0.00     0.049 A 
ATOM     62  C   UNL A   1      41.459  28.774  30.165  1.00  0.00     0.074 A 
ATOM     63  C   UNL A   1      47.879  27.941  29.488  1.00  0.00     0.029 A 
ATOM     64  N   UNL A   1      46.231  29.384  29.658  1.00  0.00    -0.354 N 
ATOM     65  N   UNL A   1      42.244  28.439  31.151  1.00  0.00    -0.248 NA
ATOM     66  C   UNL A   1      41.948  29.845  29.311  1.00  0.00     0.031 C 
ATOM     67  C   UNL A   1      47.063  27.611  30.612  1.00  0.00     0.029 A 
ATOM     68  C   UNL A   1      45.920  28.410  30.570  1.00  0.00     0.049 A 
ATOM     69  H   UNL A   1      45.863  30.296  29.640  1.00  0.00     0.167 HD
ATOM     70  C   UNL A   1      43.490  28.924  30.786  1.00  0.00     0.074 A 
ATOM     71  C   UNL A   1      43.230  29.850  29.686  1.00  0.00     0.031 C 
ATOM     72  C   UNL A   1      44.630  28.304  31.211  1.00  0.00     0.037 A 
BRANCH  59  73
ATOM     73  C   UNL A   1      46.894  30.543  26.827  1.00  0.00     0.064 A 
ATOM     74  C   UNL A   1      48.081  31.306  26.861  1.00  0.00     0.173 A 
ATOM     75  C   UNL A   1      45.713  31.278  26.582  1.00  0.00     0.173 A 
ATOM     76  F   UNL A   1      49.265  30.718  27.092  1.00  0.00    -0.203 F 
ATOM     77  C   UNL A   1      48.069  32.700  26.767  1.00  0.00     0.198 A 
ATOM     78  C   UNL A   1      45.712  32.665  26.436  1.00  0.00     0.198 A 
ATOM     79  F   UNL A   1      44.500  30.715  26.586  1.00  0.00    -0.203 F 
ATOM     80  F   UNL A   1      49.204  33.389  26.950  1.00  0.00    -0.200 F 
ATOM     81  C   UNL A   1      46.883  33.378  26.565  1.00  0.00     0.200 A 
ATOM     82  F   UNL A   1      44.548  33.305  26.258  1.00  0.00    -0.200 F 
ATOM     83  F   UNL A   1      46.857  34.717  26.546  1.00  0.00    -0.200 F 
ENDBRANCH  59  73
BRANCH  60  84
ATOM     84  C   UNL A   1      39.008  28.329  29.435  1.00  0.00     0.064 A 
ATOM     85  C   UNL A   1      38.171  28.535  30.546  1.00  0.00     0.173 A 
ATOM     86  C   UNL A   1      38.555  28.850  28.208  1.00  0.00     0.173 A 
ATOM     87  F   UNL A   1      38.551  28.115  31.761  1.00  0.00    -0.203 F 
ATOM     88  C   UNL A   1      36.968  29.243  30.439  1.00  0.00     0.198 A 
ATOM     89  C   UNL A   1      37.353  29.555  28.102  1.00  0.00     0.198 A 
ATOM     90  F   UNL A   1      39.320  28.777  27.108  1.00  0.00    -0.203 F 
ATOM     91  F   UNL A   1      36.229  29.475  31.533  1.00  0.00    -0.200 F 
ATOM     92  C   UNL A   1      36.566  29.761  29.220  1.00  0.00     0.200 A 
ATOM     93  F   UNL A   1      36.997  30.091  26.925  1.00  0.00    -0.200 F 
ATOM     94  F   UNL A   1      35.449  30.497  29.130  1.00  0.00    -0.200 F 
ENDBRANCH  60  84
BRANCH  72  95
ATOM     95  C   UNL A   1      44.505  27.276  32.302  1.00  0.00     0.064 A 
ATOM     96  C   UNL A   1      44.359  27.575  33.669  1.00  0.00     0.173 A 
ATOM     97  C   UNL A   1      44.381  25.934  31.922  1.00  0.00     0.173 A 
ATOM     98  F   UNL A   1      44.375  28.841  34.105  1.00  0.00    -0.203 F 
ATOM     99  C   UNL A   1      44.133  26.570  34.609  1.00  0.00     0.198 A 
ATOM    100  C   UNL A   1      44.118  24.937  32.857  1.00  0.00     0.198 A 
ATOM    101  F   UNL A   1      44.461  25.594  30.625  1.00  0.00    -0.203 F 
ATOM    102  F   UNL A   1      44.005  26.879  35.908  1.00  0.00    -0.200 F 
ATOM    103  C   UNL A   1      44.003  25.253  34.201  1.00  0.00     0.200 A 
ATOM    104  F   UNL A   1      43.946  23.673  32.448  1.00  0.00    -0.200 F 
ATOM    105  F   UNL A   1      43.742  24.291  35.097  1.00  0.00    -0.200 F 
ENDBRANCH  72  95
ENDBRANCH  46  47
ENDBRANCH  38  41
ENDBRANCH  36  37
ENDBRANCH  35  36
ENDBRANCH  34  35
ENDBRANCH   1  34
TORSDOF 17
ENDMDL
MODEL 3
REMARK VINA RESULT:     -13.4      2.946      8.010
REMARK SMILES Cc1nn([C@H]2CCS(=O)(=O)C2)c(C)c1/C=C(\CC(=O)NCCCCCCNC(=O)c1ccc(-c2c3nc(c(-c4c(F)c(F)c(F)c(F)c4F)c4ccc([nH]4)c(-c4c(F)c(F)c(F)c(F)c4F)c4nc(c(-c5c(F)c(F)c(F)c(F)c5F)c5ccc2[nH]5)C=C4)C=C3)cc1)c1nc2ccccc2s1
REMARK SMILES IDX 23 1 22 2 21 3 20 4 18 5 19 6 17 8 16 9 15 10 14 11 1 12
REMARK SMILES IDX 2 13 3 14 4 15 12 16 13 17 5 18 6 19 11 20 7 21 8 22 9 23
REMARK SMILES IDX 10 24 93 25 94 26 101 27 95 28 100 29 96 30 99 31 97 32
REMARK SMILES IDX 98 33 24 34 25 35 26 36 27 37 28 38 29 40 30 41 31 42 92 43
REMARK SMILES IDX 32 44 91 45 33 46 34 47 35 48 85 49 36 50 90 51 84 52 86 53
REMARK SMILES IDX 37 54 89 55 83 56 82 57 38 59 70 60 50 61 69 62 51 63 54 64
REMARK SMILES IDX 68 65 87 66 52 67 53 68 67 70 88 71 55 72 39 73 40 74 48 75
REMARK SMILES IDX 41 76 42 77 46 78 49 79 43 80 44 81 47 82 45 83 71 84 72 85
REMARK SMILES IDX 80 86 73 87 74 88 78 89 81 90 75 91 76 92 79 93 77 94 56 95
REMARK SMILES IDX 57 96 65 97 58 98 59 99 63 100 66 101 60 102 61 103 64 104
REMARK SMILES IDX 62 105
REMARK H PARENT 20 7 27 39 86 58 54 69
REMARK Flexibility Score: inf
ROOT
ATOM      1  C   UNL A   1      37.763  22.533  25.864  1.00  0.00     0.002 C 
ENDROOT
BRANCH   1   2
ATOM      2  C   UNL A   1      37.037  23.368  24.804  1.00  0.00     0.021 C 
BRANCH   2   3
ATOM      3  C   UNL A   1      35.917  22.592  24.120  1.00  0.00     0.116 C 
BRANCH   3   4
ATOM      4  N   UNL A   1      35.272  23.429  23.133  1.00  0.00    -0.356 N 
ATOM      5  C   UNL A   1      34.154  24.195  23.303  1.00  0.00     0.224 C 
ATOM      6  O   UNL A   1      33.537  24.585  22.312  1.00  0.00    -0.275 OA
ATOM      7  H   UNL A   1      35.685  23.450  22.240  1.00  0.00     0.163 HD
BRANCH   5   8
ATOM      8  C   UNL A   1      33.847  24.718  24.698  1.00  0.00     0.138 C 
BRANCH   8   9
ATOM      9  C   UNL A   1      32.455  24.540  25.280  1.00  0.00    -0.002 C 
ATOM     10  C   UNL A   1      31.973  23.364  25.766  1.00  0.00     0.019 C 
BRANCH  10  11
ATOM     11  C   UNL A   1      32.592  22.063  25.689  1.00  0.00     0.019 A 
ATOM     12  C   UNL A   1      34.232  22.152  27.743  1.00  0.00     0.069 C 
ATOM     13  C   UNL A   1      33.498  21.498  26.629  1.00  0.00     0.067 A 
ATOM     14  N   UNL A   1      33.682  20.192  26.402  1.00  0.00    -0.177 NA
ATOM     15  N   UNL A   1      32.949  19.930  25.302  1.00  0.00    -0.265 N 
ATOM     16  C   UNL A   1      32.497  21.089  24.702  1.00  0.00     0.043 A 
ATOM     17  C   UNL A   1      32.044  21.167  23.285  1.00  0.00     0.067 C 
BRANCH  15  18
ATOM     18  C   UNL A   1      32.815  18.536  24.882  1.00  0.00     0.123 C 
ATOM     19  C   UNL A   1      33.670  18.187  23.636  1.00  0.00     0.044 C 
ATOM     20  C   UNL A   1      33.258  17.509  25.921  1.00  0.00     0.164 C 
ATOM     21  C   UNL A   1      33.579  16.679  23.422  1.00  0.00     0.139 C 
ATOM     22  S   UNL A   1      33.357  15.976  25.040  1.00  0.00     0.152 S 
ATOM     23  O   UNL A   1      32.062  15.345  25.098  1.00  0.00    -0.229 OA
ATOM     24  O   UNL A   1      34.577  15.296  25.441  1.00  0.00    -0.229 OA
ENDBRANCH  15  18
ENDBRANCH  10  11
BRANCH   9  25
ATOM     25  C   UNL A   1      31.588  25.686  25.281  1.00  0.00     0.121 A 
ATOM     26  N   UNL A   1      30.342  25.664  24.853  1.00  0.00    -0.236 NA
ATOM     27  S   UNL A   1      32.211  27.272  25.553  1.00  0.00    -0.114 S 
ATOM     28  C   UNL A   1      30.012  26.900  24.331  1.00  0.00     0.082 A 
ATOM     29  C   UNL A   1      30.935  27.915  24.586  1.00  0.00     0.055 A 
ATOM     30  C   UNL A   1      28.899  27.177  23.513  1.00  0.00     0.030 A 
ATOM     31  C   UNL A   1      30.789  29.202  24.045  1.00  0.00     0.021 A 
ATOM     32  C   UNL A   1      28.800  28.423  22.886  1.00  0.00     0.002 A 
ATOM     33  C   UNL A   1      29.736  29.420  23.148  1.00  0.00     0.002 A 
ENDBRANCH   9  25
ENDBRANCH   8   9
ENDBRANCH   5   8
ENDBRANCH   3   4
ENDBRANCH   2   3
ENDBRANCH   1   2
BRANCH   1  34
ATOM     34  C   UNL A   1      38.229  21.153  25.379  1.00  0.00     0.002 C 
BRANCH  34  35
ATOM     35  C   UNL A   1      39.520  20.626  26.024  1.00  0.00     0.021 C 
BRANCH  35  36
ATOM     36  C   UNL A   1      40.398  21.730  26.584  1.00  0.00     0.116 C 
BRANCH  36  37
ATOM     37  N   UNL A   1      41.630  21.894  25.811  1.00  0.00    -0.352 N 
ATOM     38  C   UNL A   1      42.349  23.046  25.571  1.00  0.00     0.251 C 
ATOM     39  H   UNL A   1      41.994  21.072  25.410  1.00  0.00     0.163 HD
ATOM     40  O   UNL A   1      43.130  23.123  24.631  1.00  0.00    -0.269 OA
BRANCH  38  41
ATOM     41  C   UNL A   1      42.172  24.182  26.486  1.00  0.00     0.039 A 
ATOM     42  C   UNL A   1      42.986  24.360  27.607  1.00  0.00     0.014 A 
ATOM     43  C   UNL A   1      41.171  25.097  26.176  1.00  0.00     0.014 A 
ATOM     44  C   UNL A   1      42.816  25.508  28.376  1.00  0.00     0.010 A 
ATOM     45  C   UNL A   1      41.140  26.308  26.807  1.00  0.00     0.010 A 
ATOM     46  C   UNL A   1      41.895  26.482  27.956  1.00  0.00    -0.014 A 
BRANCH  46  47
ATOM     47  C   UNL A   1      41.770  27.760  28.641  1.00  0.00     0.031 A 
ATOM     48  C   UNL A   1      42.854  28.719  28.310  1.00  0.00     0.074 A 
ATOM     49  C   UNL A   1      40.650  28.110  29.313  1.00  0.00     0.049 A 
ATOM     50  N   UNL A   1      43.780  29.157  29.094  1.00  0.00    -0.248 NA
ATOM     51  C   UNL A   1      43.035  29.113  26.901  1.00  0.00     0.031 C 
ATOM     52  C   UNL A   1      39.387  27.368  29.429  1.00  0.00     0.029 A 
ATOM     53  N   UNL A   1      40.365  29.269  29.965  1.00  0.00    -0.354 N 
ATOM     54  C   UNL A   1      44.530  30.053  28.338  1.00  0.00     0.074 A 
ATOM     55  C   UNL A   1      44.160  29.828  26.966  1.00  0.00     0.031 C 
ATOM     56  C   UNL A   1      38.416  28.184  29.895  1.00  0.00     0.029 A 
ATOM     57  C   UNL A   1      39.019  29.444  30.278  1.00  0.00     0.049 A 
ATOM     58  H   UNL A   1      41.056  29.931  30.198  1.00  0.00     0.167 HD
ATOM     59  C   UNL A   1      45.177  31.089  28.941  1.00  0.00     0.037 A 
ATOM     60  C   UNL A   1      38.449  30.563  30.795  1.00  0.00     0.037 A 
ATOM     61  C   UNL A   1      45.285  30.859  30.362  1.00  0.00     0.049 A 
ATOM     62  C   UNL A   1      39.543  31.370  31.390  1.00  0.00     0.074 A 
ATOM     63  C   UNL A   1      45.879  29.895  31.150  1.00  0.00     0.029 A 
ATOM     64  N   UNL A   1      44.374  31.495  31.168  1.00  0.00    -0.354 N 
ATOM     65  N   UNL A   1      40.230  30.998  32.434  1.00  0.00    -0.248 NA
ATOM     66  C   UNL A   1      40.186  32.355  30.534  1.00  0.00     0.031 C 
ATOM     67  C   UNL A   1      44.968  29.688  32.230  1.00  0.00     0.029 A 
ATOM     68  C   UNL A   1      43.914  30.591  32.089  1.00  0.00     0.049 A 
ATOM     69  H   UNL A   1      44.099  32.437  31.098  1.00  0.00     0.167 HD
ATOM     70  C   UNL A   1      41.538  31.346  32.134  1.00  0.00     0.074 A 
ATOM     71  C   UNL A   1      41.438  32.250  30.990  1.00  0.00     0.031 C 
ATOM     72  C   UNL A   1      42.584  30.635  32.651  1.00  0.00     0.037 A 
BRANCH  59  73
ATOM     73  C   UNL A   1      45.317  32.476  28.349  1.00  0.00     0.064 A 
ATOM     74  C   UNL A   1      44.144  33.206  28.060  1.00  0.00     0.173 A 
ATOM     75  C   UNL A   1      46.499  32.978  27.763  1.00  0.00     0.173 A 
ATOM     76  F   UNL A   1      42.958  32.820  28.555  1.00  0.00    -0.203 F 
ATOM     77  C   UNL A   1      44.143  34.284  27.171  1.00  0.00     0.198 A 
ATOM     78  C   UNL A   1      46.502  34.087  26.918  1.00  0.00     0.198 A 
ATOM     79  F   UNL A   1      47.681  32.365  27.884  1.00  0.00    -0.203 F 
ATOM     80  F   UNL A   1      42.983  34.853  26.817  1.00  0.00    -0.200 F 
ATOM     81  C   UNL A   1      45.321  34.716  26.592  1.00  0.00     0.200 A 
ATOM     82  F   UNL A   1      47.653  34.480  26.354  1.00  0.00    -0.200 F 
ATOM     83  F   UNL A   1      45.314  35.702  25.686  1.00  0.00    -0.200 F 
ENDBRANCH  59  73
BRANCH  60  84
ATOM     84  C   UNL A   1      37.108  31.136  30.521  1.00  0.00     0.064 A 
ATOM     85  C   UNL A   1      36.251  31.513  31.569  1.00  0.00     0.173 A 
ATOM     86  C   UNL A   1      36.766  31.603  29.237  1.00  0.00     0.173 A 
ATOM     87  F   UNL A   1      36.532  31.152  32.830  1.00  0.00    -0.203 F 
ATOM     88  C   UNL A   1      35.136  32.329  31.350  1.00  0.00     0.198 A 
ATOM     89  C   UNL A   1      35.651  32.416  29.019  1.00  0.00     0.198 A 
ATOM     90  F   UNL A   1      37.565  31.366  28.186  1.00  0.00    -0.203 F 
ATOM     91  F   UNL A   1      34.379  32.721  32.385  1.00  0.00    -0.200 F 
ATOM     92  C   UNL A   1      34.843  32.789  30.077  1.00  0.00     0.200 A 
ATOM     93  F   UNL A   1      35.405  32.893  27.790  1.00  0.00    -0.200 F 
ATOM     94  F   UNL A   1      33.816  33.627  29.877  1.00  0.00    -0.200 F 
ENDBRANCH  60  84
BRANCH  72  95
ATOM     95  C   UNL A   1      42.292  29.667  33.764  1.00  0.00     0.064 A 
ATOM     96  C   UNL A   1      41.913  28.325  33.577  1.00  0.00     0.173 A 
ATOM     97  C   UNL A   1      42.552  30.083  35.075  1.00  0.00     0.173 A 
ATOM     98  F   UNL A   1      41.732  27.822  32.349  1.00  0.00    -0.203 F 
ATOM     99  C   UNL A   1      41.772  27.456  34.658  1.00  0.00     0.198 A 
ATOM    100  C   UNL A   1      42.447  29.205  36.149  1.00  0.00     0.198 A 
ATOM    101  F   UNL A   1      42.965  31.339  35.310  1.00  0.00    -0.203 F 
ATOM    102  F   UNL A   1      41.402  26.182  34.455  1.00  0.00    -0.200 F 
ATOM    103  C   UNL A   1      42.048  27.894  35.943  1.00  0.00     0.200 A 
ATOM    104  F   UNL A   1      42.762  29.623  37.382  1.00  0.00    -0.200 F 
ATOM    105  F   UNL A   1      41.955  27.050  36.979  1.00  0.00    -0.200 F 
ENDBRANCH  72  95
ENDBRANCH  46  47
ENDBRANCH  38  41
ENDBRANCH  36  37
ENDBRANCH  35  36
ENDBRANCH  34  35
ENDBRANCH   1  34
TORSDOF 17
ENDMDL
