MODEL 1
REMARK VINA RESULT:     -11.0      0.000      0.000
REMARK SMILES CC[C@@H](Nc1ccn(C)n1)C(=O)NCCCCCCNC(=O)c1ccc(-c2c3nc(c(-c4c(F)c(F)c(F)c(F)c4F)c4ccc([nH]4)c(-c4c(F)c(F)c(F)c(F)c4F)c4nc(c(-c5c(F)c(F)c(F)c(F)c5F)c5ccc2[nH]5)C=C4)C=C3)cc1
REMARK SMILES IDX 16 1 15 2 14 3 13 4 11 5 12 6 3 8 2 9 1 10 4 11 5 13 6 14
REMARK SMILES IDX 10 15 7 16 8 17 9 18 17 19 18 20 19 21 20 22 21 23 22 25
REMARK SMILES IDX 23 26 24 27 85 28 25 29 84 30 26 31 27 32 28 33 78 34 29 35
REMARK SMILES IDX 83 36 77 37 79 38 30 39 82 40 76 41 75 42 31 44 63 45 43 46
REMARK SMILES IDX 62 47 44 48 47 49 61 50 80 51 45 52 46 53 60 55 81 56 48 57
REMARK SMILES IDX 32 58 33 59 41 60 34 61 35 62 39 63 42 64 36 65 37 66 40 67
REMARK SMILES IDX 38 68 64 69 65 70 73 71 66 72 67 73 71 74 74 75 68 76 69 77
REMARK SMILES IDX 72 78 70 79 49 80 50 81 58 82 51 83 52 84 56 85 59 86 53 87
REMARK SMILES IDX 54 88 57 89 55 90
REMARK H PARENT 13 7 4 12 20 24 79 43 47 54
REMARK Flexibility Score: inf
ROOT
ATOM      1  C   UNL A   1      32.625  29.973  27.107  1.00  0.00     0.002 C 
ENDROOT
BRANCH   1   2
ATOM      2  C   UNL A   1      32.609  28.451  26.943  1.00  0.00     0.021 C 
BRANCH   2   3
ATOM      3  C   UNL A   1      31.267  27.911  26.468  1.00  0.00     0.116 C 
BRANCH   3   4
ATOM      4  N   UNL A   1      31.450  26.894  25.449  1.00  0.00    -0.354 N 
ATOM      5  C   UNL A   1      31.638  27.041  24.103  1.00  0.00     0.242 C 
ATOM      6  O   UNL A   1      31.828  26.018  23.436  1.00  0.00    -0.273 OA
ATOM      7  H   UNL A   1      31.436  25.965  25.773  1.00  0.00     0.163 HD
BRANCH   5   8
ATOM      8  C   UNL A   1      31.580  28.434  23.427  1.00  0.00     0.169 C 
BRANCH   8   9
ATOM      9  C   UNL A   1      32.908  28.639  22.664  1.00  0.00     0.031 C 
ATOM     10  C   UNL A   1      34.160  28.542  23.520  1.00  0.00     0.006 C 
ENDBRANCH   8   9
BRANCH   8  11
ATOM     11  N   UNL A   1      30.413  28.620  22.556  1.00  0.00    -0.357 N 
ATOM     12  H   UNL A   1      30.132  27.851  22.010  1.00  0.00     0.162 HD
BRANCH  11  13
ATOM     13  C   UNL A   1      29.695  29.753  22.438  1.00  0.00     0.148 A 
ATOM     14  C   UNL A   1      29.074  30.493  23.468  1.00  0.00     0.068 A 
ATOM     15  N   UNL A   1      29.413  30.258  21.237  1.00  0.00    -0.156 NA
ATOM     16  C   UNL A   1      28.301  31.430  22.821  1.00  0.00     0.110 A 
ATOM     17  N   UNL A   1      28.525  31.234  21.493  1.00  0.00    -0.274 N 
ATOM     18  C   UNL A   1      27.857  31.880  20.390  1.00  0.00     0.173 C 
ENDBRANCH  11  13
ENDBRANCH   8  11
ENDBRANCH   5   8
ENDBRANCH   3   4
ENDBRANCH   2   3
ENDBRANCH   1   2
BRANCH   1  19
ATOM     19  C   UNL A   1      31.601  30.722  26.245  1.00  0.00     0.002 C 
BRANCH  19  20
ATOM     20  C   UNL A   1      31.449  32.209  26.571  1.00  0.00     0.021 C 
BRANCH  20  21
ATOM     21  C   UNL A   1      32.607  32.800  27.367  1.00  0.00     0.116 C 
BRANCH  21  22
ATOM     22  N   UNL A   1      32.392  34.203  27.682  1.00  0.00    -0.352 N 
ATOM     23  C   UNL A   1      32.990  34.976  28.641  1.00  0.00     0.251 C 
ATOM     24  H   UNL A   1      31.721  34.662  27.127  1.00  0.00     0.163 HD
ATOM     25  O   UNL A   1      32.549  36.093  28.905  1.00  0.00    -0.269 OA
BRANCH  23  26
ATOM     26  C   UNL A   1      34.159  34.453  29.375  1.00  0.00     0.039 A 
ATOM     27  C   UNL A   1      33.960  33.842  30.615  1.00  0.00     0.014 A 
ATOM     28  C   UNL A   1      35.447  34.567  28.842  1.00  0.00     0.014 A 
ATOM     29  C   UNL A   1      35.047  33.293  31.296  1.00  0.00     0.010 A 
ATOM     30  C   UNL A   1      36.518  33.956  29.486  1.00  0.00     0.010 A 
ATOM     31  C   UNL A   1      36.329  33.317  30.721  1.00  0.00    -0.014 A 
BRANCH  31  32
ATOM     32  C   UNL A   1      37.484  32.676  31.398  1.00  0.00     0.031 A 
ATOM     33  C   UNL A   1      38.211  31.538  30.737  1.00  0.00     0.074 A 
ATOM     34  C   UNL A   1      37.839  33.081  32.632  1.00  0.00     0.049 A 
ATOM     35  N   UNL A   1      39.197  30.809  31.194  1.00  0.00    -0.248 NA
ATOM     36  C   UNL A   1      37.751  31.150  29.394  1.00  0.00     0.031 C 
ATOM     37  C   UNL A   1      37.182  34.144  33.396  1.00  0.00     0.029 A 
ATOM     38  N   UNL A   1      38.834  32.640  33.469  1.00  0.00    -0.354 N 
ATOM     39  C   UNL A   1      39.466  29.872  30.204  1.00  0.00     0.074 A 
ATOM     40  C   UNL A   1      38.505  30.090  29.144  1.00  0.00     0.031 C 
ATOM     41  C   UNL A   1      37.802  34.286  34.577  1.00  0.00     0.029 A 
ATOM     42  C   UNL A   1      38.873  33.300  34.674  1.00  0.00     0.049 A 
ATOM     43  H   UNL A   1      39.459  31.919  33.229  1.00  0.00     0.167 HD
ATOM     44  C   UNL A   1      40.440  28.933  30.174  1.00  0.00     0.037 A 
ATOM     45  C   UNL A   1      39.676  33.120  35.739  1.00  0.00     0.037 A 
ATOM     46  C   UNL A   1      41.408  28.737  31.221  1.00  0.00     0.049 A 
ATOM     47  C   UNL A   1      40.744  32.060  35.681  1.00  0.00     0.074 A 
ATOM     48  C   UNL A   1      42.472  27.854  31.258  1.00  0.00     0.029 A 
ATOM     49  N   UNL A   1      41.429  29.438  32.419  1.00  0.00    -0.354 N 
ATOM     50  N   UNL A   1      41.035  31.230  34.709  1.00  0.00    -0.248 NA
ATOM     51  C   UNL A   1      41.601  31.918  36.867  1.00  0.00     0.031 C 
ATOM     52  C   UNL A   1      43.103  27.981  32.498  1.00  0.00     0.029 A 
ATOM     53  C   UNL A   1      42.472  28.987  33.211  1.00  0.00     0.049 A 
ATOM     54  H   UNL A   1      40.795  30.149  32.668  1.00  0.00     0.167 HD
ATOM     55  C   UNL A   1      42.126  30.493  35.151  1.00  0.00     0.074 A 
ATOM     56  C   UNL A   1      42.454  30.984  36.472  1.00  0.00     0.031 C 
ATOM     57  C   UNL A   1      42.794  29.496  34.519  1.00  0.00     0.037 A 
BRANCH  44  58
ATOM     58  C   UNL A   1      40.515  28.041  28.967  1.00  0.00     0.064 A 
ATOM     59  C   UNL A   1      39.793  26.840  28.894  1.00  0.00     0.173 A 
ATOM     60  C   UNL A   1      41.272  28.421  27.849  1.00  0.00     0.173 A 
ATOM     61  F   UNL A   1      39.062  26.426  29.940  1.00  0.00    -0.203 F 
ATOM     62  C   UNL A   1      39.844  26.041  27.755  1.00  0.00     0.198 A 
ATOM     63  C   UNL A   1      41.296  27.635  26.699  1.00  0.00     0.198 A 
ATOM     64  F   UNL A   1      41.976  29.561  27.863  1.00  0.00    -0.203 F 
ATOM     65  F   UNL A   1      39.180  24.878  27.724  1.00  0.00    -0.200 F 
ATOM     66  C   UNL A   1      40.588  26.444  26.656  1.00  0.00     0.200 A 
ATOM     67  F   UNL A   1      42.003  28.032  25.632  1.00  0.00    -0.200 F 
ATOM     68  F   UNL A   1      40.624  25.681  25.554  1.00  0.00    -0.200 F 
ENDBRANCH  44  58
BRANCH  45  69
ATOM     69  C   UNL A   1      39.516  33.970  36.949  1.00  0.00     0.064 A 
ATOM     70  C   UNL A   1      40.128  35.229  37.033  1.00  0.00     0.173 A 
ATOM     71  C   UNL A   1      38.768  33.535  38.053  1.00  0.00     0.173 A 
ATOM     72  F   UNL A   1      40.870  35.682  36.011  1.00  0.00    -0.203 F 
ATOM     73  C   UNL A   1      40.026  36.005  38.186  1.00  0.00     0.198 A 
ATOM     74  C   UNL A   1      38.639  34.326  39.193  1.00  0.00     0.198 A 
ATOM     75  F   UNL A   1      38.156  32.342  38.023  1.00  0.00    -0.203 F 
ATOM     76  F   UNL A   1      40.670  37.177  38.260  1.00  0.00    -0.200 F 
ATOM     77  C   UNL A   1      39.278  35.555  39.263  1.00  0.00     0.200 A 
ATOM     78  F   UNL A   1      37.902  33.896  40.225  1.00  0.00    -0.200 F 
ATOM     79  F   UNL A   1      39.180  36.302  40.371  1.00  0.00    -0.200 F 
ENDBRANCH  45  69
BRANCH  57  80
ATOM     80  C   UNL A   1      43.977  28.902  35.227  1.00  0.00     0.064 A 
ATOM     81  C   UNL A   1      43.842  27.822  36.112  1.00  0.00     0.173 A 
ATOM     82  C   UNL A   1      45.268  29.396  34.986  1.00  0.00     0.173 A 
ATOM     83  F   UNL A   1      42.628  27.322  36.388  1.00  0.00    -0.203 F 
ATOM     84  C   UNL A   1      44.954  27.277  36.750  1.00  0.00     0.198 A 
ATOM     85  C   UNL A   1      46.380  28.827  35.599  1.00  0.00     0.198 A 
ATOM     86  F   UNL A   1      45.453  30.423  34.142  1.00  0.00    -0.203 F 
ATOM     87  F   UNL A   1      44.796  26.279  37.630  1.00  0.00    -0.200 F 
ATOM     88  C   UNL A   1      46.222  27.774  36.486  1.00  0.00     0.200 A 
ATOM     89  F   UNL A   1      47.606  29.298  35.330  1.00  0.00    -0.200 F 
ATOM     90  F   UNL A   1      47.291  27.242  37.093  1.00  0.00    -0.200 F 
ENDBRANCH  57  80
ENDBRANCH  31  32
ENDBRANCH  23  26
ENDBRANCH  21  22
ENDBRANCH  20  21
ENDBRANCH  19  20
ENDBRANCH   1  19
TORSDOF 16
ENDMDL
MODEL 2
REMARK VINA RESULT:     -11.0      0.445      1.692
REMARK SMILES CC[C@@H](Nc1ccn(C)n1)C(=O)NCCCCCCNC(=O)c1ccc(-c2c3nc(c(-c4c(F)c(F)c(F)c(F)c4F)c4ccc([nH]4)c(-c4c(F)c(F)c(F)c(F)c4F)c4nc(c(-c5c(F)c(F)c(F)c(F)c5F)c5ccc2[nH]5)C=C4)C=C3)cc1
REMARK SMILES IDX 16 1 15 2 14 3 13 4 11 5 12 6 3 8 2 9 1 10 4 11 5 13 6 14
REMARK SMILES IDX 10 15 7 16 8 17 9 18 17 19 18 20 19 21 20 22 21 23 22 25
REMARK SMILES IDX 23 26 24 27 85 28 25 29 84 30 26 31 27 32 28 33 78 34 29 35
REMARK SMILES IDX 83 36 77 37 79 38 30 39 82 40 76 41 75 42 31 44 63 45 43 46
REMARK SMILES IDX 62 47 44 48 47 49 61 50 80 51 45 52 46 53 60 55 81 56 48 57
REMARK SMILES IDX 32 58 33 59 41 60 34 61 35 62 39 63 42 64 36 65 37 66 40 67
REMARK SMILES IDX 38 68 64 69 65 70 73 71 66 72 67 73 71 74 74 75 68 76 69 77
REMARK SMILES IDX 72 78 70 79 49 80 50 81 58 82 51 83 52 84 56 85 59 86 53 87
REMARK SMILES IDX 54 88 57 89 55 90
REMARK H PARENT 13 7 4 12 20 24 79 43 47 54
REMARK Flexibility Score: inf
ROOT
ATOM      1  C   UNL A   1      32.807  30.033  26.863  1.00  0.00     0.002 C 
ENDROOT
BRANCH   1   2
ATOM      2  C   UNL A   1      32.800  28.502  26.830  1.00  0.00     0.021 C 
BRANCH   2   3
ATOM      3  C   UNL A   1      31.433  27.914  26.506  1.00  0.00     0.116 C 
BRANCH   3   4
ATOM      4  N   UNL A   1      31.566  26.672  25.768  1.00  0.00    -0.354 N 
ATOM      5  C   UNL A   1      31.777  26.479  24.431  1.00  0.00     0.242 C 
ATOM      6  O   UNL A   1      31.912  25.316  24.034  1.00  0.00    -0.273 OA
ATOM      7  H   UNL A   1      31.493  25.851  26.306  1.00  0.00     0.163 HD
BRANCH   5   8
ATOM      8  C   UNL A   1      31.810  27.668  23.439  1.00  0.00     0.169 C 
BRANCH   8   9
ATOM      9  C   UNL A   1      33.174  27.634  22.714  1.00  0.00     0.031 C 
ATOM     10  C   UNL A   1      34.083  28.817  23.005  1.00  0.00     0.006 C 
ENDBRANCH   8   9
BRANCH   8  11
ATOM     11  N   UNL A   1      30.687  27.680  22.493  1.00  0.00    -0.357 N 
ATOM     12  H   UNL A   1      30.665  26.968  21.813  1.00  0.00     0.162 HD
BRANCH  11  13
ATOM     13  C   UNL A   1      29.687  28.580  22.474  1.00  0.00     0.148 A 
ATOM     14  C   UNL A   1      28.461  28.524  23.173  1.00  0.00     0.068 A 
ATOM     15  N   UNL A   1      29.735  29.635  21.660  1.00  0.00    -0.156 NA
ATOM     16  C   UNL A   1      27.708  29.557  22.662  1.00  0.00     0.110 A 
ATOM     17  N   UNL A   1      28.508  30.176  21.751  1.00  0.00    -0.274 N 
ATOM     18  C   UNL A   1      28.144  31.241  20.851  1.00  0.00     0.173 C 
ENDBRANCH  11  13
ENDBRANCH   8  11
ENDBRANCH   5   8
ENDBRANCH   3   4
ENDBRANCH   2   3
ENDBRANCH   1   2
BRANCH   1  19
ATOM     19  C   UNL A   1      31.553  30.693  26.278  1.00  0.00     0.002 C 
BRANCH  19  20
ATOM     20  C   UNL A   1      31.435  32.197  26.537  1.00  0.00     0.021 C 
BRANCH  20  21
ATOM     21  C   UNL A   1      32.618  32.800  27.285  1.00  0.00     0.116 C 
BRANCH  21  22
ATOM     22  N   UNL A   1      32.399  34.199  27.614  1.00  0.00    -0.352 N 
ATOM     23  C   UNL A   1      32.992  34.964  28.582  1.00  0.00     0.251 C 
ATOM     24  H   UNL A   1      31.728  34.663  27.061  1.00  0.00     0.163 HD
ATOM     25  O   UNL A   1      32.547  36.077  28.856  1.00  0.00    -0.269 OA
BRANCH  23  26
ATOM     26  C   UNL A   1      34.160  34.436  29.314  1.00  0.00     0.039 A 
ATOM     27  C   UNL A   1      33.955  33.779  30.529  1.00  0.00     0.014 A 
ATOM     28  C   UNL A   1      35.453  34.592  28.804  1.00  0.00     0.014 A 
ATOM     29  C   UNL A   1      35.043  33.226  31.206  1.00  0.00     0.010 A 
ATOM     30  C   UNL A   1      36.526  33.977  29.441  1.00  0.00     0.010 A 
ATOM     31  C   UNL A   1      36.332  33.293  30.651  1.00  0.00    -0.014 A 
BRANCH  31  32
ATOM     32  C   UNL A   1      37.489  32.649  31.321  1.00  0.00     0.031 A 
ATOM     33  C   UNL A   1      38.219  31.520  30.650  1.00  0.00     0.074 A 
ATOM     34  C   UNL A   1      37.843  33.043  32.560  1.00  0.00     0.049 A 
ATOM     35  N   UNL A   1      39.208  30.789  31.100  1.00  0.00    -0.248 NA
ATOM     36  C   UNL A   1      37.760  31.142  29.303  1.00  0.00     0.031 C 
ATOM     37  C   UNL A   1      37.182  34.097  33.333  1.00  0.00     0.029 A 
ATOM     38  N   UNL A   1      38.839  32.598  33.392  1.00  0.00    -0.354 N 
ATOM     39  C   UNL A   1      39.479  29.863  30.101  1.00  0.00     0.074 A 
ATOM     40  C   UNL A   1      38.518  30.087  29.043  1.00  0.00     0.031 C 
ATOM     41  C   UNL A   1      37.802  34.230  34.516  1.00  0.00     0.029 A 
ATOM     42  C   UNL A   1      38.876  33.247  34.603  1.00  0.00     0.049 A 
ATOM     43  H   UNL A   1      39.467  31.881  33.146  1.00  0.00     0.167 HD
ATOM     44  C   UNL A   1      40.456  28.927  30.062  1.00  0.00     0.037 A 
ATOM     45  C   UNL A   1      39.681  33.060  35.667  1.00  0.00     0.037 A 
ATOM     46  C   UNL A   1      41.425  28.725  31.108  1.00  0.00     0.049 A 
ATOM     47  C   UNL A   1      40.751  32.004  35.598  1.00  0.00     0.074 A 
ATOM     48  C   UNL A   1      42.492  27.844  31.136  1.00  0.00     0.029 A 
ATOM     49  N   UNL A   1      41.444  29.414  32.312  1.00  0.00    -0.354 N 
ATOM     50  N   UNL A   1      41.045  31.184  34.619  1.00  0.00    -0.248 NA
ATOM     51  C   UNL A   1      41.609  31.852  36.783  1.00  0.00     0.031 C 
ATOM     52  C   UNL A   1      43.123  27.961  32.377  1.00  0.00     0.029 A 
ATOM     53  C   UNL A   1      42.488  28.959  33.099  1.00  0.00     0.049 A 
ATOM     54  H   UNL A   1      40.808  30.121  32.568  1.00  0.00     0.167 HD
ATOM     55  C   UNL A   1      42.138  30.445  35.053  1.00  0.00     0.074 A 
ATOM     56  C   UNL A   1      42.465  30.925  36.379  1.00  0.00     0.031 C 
ATOM     57  C   UNL A   1      42.809  29.457  34.412  1.00  0.00     0.037 A 
BRANCH  44  58
ATOM     58  C   UNL A   1      40.534  28.046  28.847  1.00  0.00     0.064 A 
ATOM     59  C   UNL A   1      39.825  26.838  28.768  1.00  0.00     0.173 A 
ATOM     60  C   UNL A   1      41.280  28.444  27.728  1.00  0.00     0.173 A 
ATOM     61  F   UNL A   1      39.105  26.407  29.814  1.00  0.00    -0.203 F 
ATOM     62  C   UNL A   1      39.878  26.050  27.621  1.00  0.00     0.198 A 
ATOM     63  C   UNL A   1      41.306  27.669  26.571  1.00  0.00     0.198 A 
ATOM     64  F   UNL A   1      41.972  29.592  27.748  1.00  0.00    -0.203 F 
ATOM     65  F   UNL A   1      39.227  24.880  27.584  1.00  0.00    -0.200 F 
ATOM     66  C   UNL A   1      40.610  26.471  26.521  1.00  0.00     0.200 A 
ATOM     67  F   UNL A   1      42.002  28.084  25.503  1.00  0.00    -0.200 F 
ATOM     68  F   UNL A   1      40.649  25.718  25.413  1.00  0.00    -0.200 F 
ENDBRANCH  44  58
BRANCH  45  69
ATOM     69  C   UNL A   1      39.518  33.898  36.884  1.00  0.00     0.064 A 
ATOM     70  C   UNL A   1      38.772  33.442  37.980  1.00  0.00     0.173 A 
ATOM     71  C   UNL A   1      40.085  35.178  36.970  1.00  0.00     0.173 A 
ATOM     72  F   UNL A   1      38.194  32.232  37.939  1.00  0.00    -0.203 F 
ATOM     73  C   UNL A   1      38.571  34.246  39.101  1.00  0.00     0.198 A 
ATOM     74  C   UNL A   1      39.911  35.968  38.105  1.00  0.00     0.198 A 
ATOM     75  F   UNL A   1      40.814  35.661  35.954  1.00  0.00    -0.203 F 
ATOM     76  F   UNL A   1      37.805  33.806  40.108  1.00  0.00    -0.200 F 
ATOM     77  C   UNL A   1      39.145  35.506  39.164  1.00  0.00     0.200 A 
ATOM     78  F   UNL A   1      40.481  37.179  38.169  1.00  0.00    -0.200 F 
ATOM     79  F   UNL A   1      38.951  36.278  40.242  1.00  0.00    -0.200 F 
ENDBRANCH  45  69
BRANCH  57  80
ATOM     80  C   UNL A   1      43.994  28.860  35.115  1.00  0.00     0.064 A 
ATOM     81  C   UNL A   1      45.287  29.379  34.952  1.00  0.00     0.173 A 
ATOM     82  C   UNL A   1      43.826  27.780  35.994  1.00  0.00     0.173 A 
ATOM     83  F   UNL A   1      45.505  30.402  34.112  1.00  0.00    -0.203 F 
ATOM     84  C   UNL A   1      46.372  28.818  35.623  1.00  0.00     0.198 A 
ATOM     85  C   UNL A   1      44.906  27.244  36.688  1.00  0.00     0.198 A 
ATOM     86  F   UNL A   1      42.608  27.251  36.191  1.00  0.00    -0.203 F 
ATOM     87  F   UNL A   1      47.606  29.297  35.413  1.00  0.00    -0.200 F 
ATOM     88  C   UNL A   1      46.179  27.759  36.496  1.00  0.00     0.200 A 
ATOM     89  F   UNL A   1      44.715  26.231  37.544  1.00  0.00    -0.200 F 
ATOM     90  F   UNL A   1      47.223  27.227  37.148  1.00  0.00    -0.200 F 
ENDBRANCH  57  80
ENDBRANCH  31  32
ENDBRANCH  23  26
ENDBRANCH  21  22
ENDBRANCH  20  21
ENDBRANCH  19  20
ENDBRANCH   1  19
TORSDOF 16
ENDMDL
MODEL 3
REMARK VINA RESULT:     -10.9      6.710     12.067
REMARK SMILES CC[C@@H](Nc1ccn(C)n1)C(=O)NCCCCCCNC(=O)c1ccc(-c2c3nc(c(-c4c(F)c(F)c(F)c(F)c4F)c4ccc([nH]4)c(-c4c(F)c(F)c(F)c(F)c4F)c4nc(c(-c5c(F)c(F)c(F)c(F)c5F)c5ccc2[nH]5)C=C4)C=C3)cc1
REMARK SMILES IDX 16 1 15 2 14 3 13 4 11 5 12 6 3 8 2 9 1 10 4 11 5 13 6 14
REMARK SMILES IDX 10 15 7 16 8 17 9 18 17 19 18 20 19 21 20 22 21 23 22 25
REMARK SMILES IDX 23 26 24 27 85 28 25 29 84 30 26 31 27 32 28 33 78 34 29 35
REMARK SMILES IDX 83 36 77 37 79 38 30 39 82 40 76 41 75 42 31 44 63 45 43 46
REMARK SMILES IDX 62 47 44 48 47 49 61 50 80 51 45 52 46 53 60 55 81 56 48 57
REMARK SMILES IDX 32 58 33 59 41 60 34 61 35 62 39 63 42 64 36 65 37 66 40 67
REMARK SMILES IDX 38 68 64 69 65 70 73 71 66 72 67 73 71 74 74 75 68 76 69 77
REMARK SMILES IDX 72 78 70 79 49 80 50 81 58 82 51 83 52 84 56 85 59 86 53 87
REMARK SMILES IDX 54 88 57 89 55 90
REMARK H PARENT 13 7 4 12 20 24 79 43 47 54
REMARK Flexibility Score: inf
ROOT
ATOM      1  C   UNL A   1      37.691  22.092  25.421  1.00  0.00     0.002 C 
ENDROOT
BRANCH   1   2
ATOM      2  C   UNL A   1      36.745  23.253  25.103  1.00  0.00     0.021 C 
BRANCH   2   3
ATOM      3  C   UNL A   1      35.286  22.939  25.404  1.00  0.00     0.116 C 
BRANCH   3   4
ATOM      4  N   UNL A   1      34.510  22.859  24.180  1.00  0.00    -0.354 N 
ATOM      5  C   UNL A   1      33.325  22.218  23.946  1.00  0.00     0.242 C 
ATOM      6  O   UNL A   1      32.820  22.339  22.825  1.00  0.00    -0.273 OA
ATOM      7  H   UNL A   1      34.891  23.335  23.407  1.00  0.00     0.163 HD
BRANCH   5   8
ATOM      8  C   UNL A   1      32.654  21.342  25.033  1.00  0.00     0.169 C 
BRANCH   8   9
ATOM      9  C   UNL A   1      31.466  22.143  25.611  1.00  0.00     0.031 C 
ATOM     10  C   UNL A   1      31.826  23.101  26.735  1.00  0.00     0.006 C 
ENDBRANCH   8   9
BRANCH   8  11
ATOM     11  N   UNL A   1      32.239  20.019  24.552  1.00  0.00    -0.357 N 
ATOM     12  H   UNL A   1      31.414  19.973  24.017  1.00  0.00     0.162 HD
BRANCH  11  13
ATOM     13  C   UNL A   1      32.889  18.862  24.779  1.00  0.00     0.148 A 
ATOM     14  C   UNL A   1      34.209  18.524  24.403  1.00  0.00     0.068 A 
ATOM     15  N   UNL A   1      32.263  17.828  25.340  1.00  0.00    -0.156 NA
ATOM     16  C   UNL A   1      34.326  17.180  24.672  1.00  0.00     0.110 A 
ATOM     17  N   UNL A   1      33.132  16.810  25.213  1.00  0.00    -0.274 N 
ATOM     18  C   UNL A   1      32.703  15.476  25.551  1.00  0.00     0.173 C 
ENDBRANCH  11  13
ENDBRANCH   8  11
ENDBRANCH   5   8
ENDBRANCH   3   4
ENDBRANCH   2   3
ENDBRANCH   1   2
BRANCH   1  19
ATOM     19  C   UNL A   1      37.382  20.789  24.673  1.00  0.00     0.002 C 
BRANCH  19  20
ATOM     20  C   UNL A   1      38.322  19.624  24.991  1.00  0.00     0.021 C 
BRANCH  20  21
ATOM     21  C   UNL A   1      39.432  19.964  25.980  1.00  0.00     0.116 C 
BRANCH  21  22
ATOM     22  N   UNL A   1      40.475  18.952  25.997  1.00  0.00    -0.352 N 
ATOM     23  C   UNL A   1      41.833  19.111  26.078  1.00  0.00     0.251 C 
ATOM     24  H   UNL A   1      40.161  18.020  25.942  1.00  0.00     0.163 HD
ATOM     25  O   UNL A   1      42.584  18.157  25.880  1.00  0.00    -0.269 OA
BRANCH  23  26
ATOM     26  C   UNL A   1      42.395  20.440  26.386  1.00  0.00     0.039 A 
ATOM     27  C   UNL A   1      43.000  21.171  25.361  1.00  0.00     0.014 A 
ATOM     28  C   UNL A   1      42.327  20.962  27.682  1.00  0.00     0.014 A 
ATOM     29  C   UNL A   1      43.487  22.452  25.624  1.00  0.00     0.010 A 
ATOM     30  C   UNL A   1      42.745  22.267  27.924  1.00  0.00     0.010 A 
ATOM     31  C   UNL A   1      43.333  23.023  26.898  1.00  0.00    -0.014 A 
BRANCH  31  32
ATOM     32  C   UNL A   1      43.780  24.410  27.176  1.00  0.00     0.031 A 
ATOM     33  C   UNL A   1      42.807  25.425  27.708  1.00  0.00     0.074 A 
ATOM     34  C   UNL A   1      45.047  24.769  26.894  1.00  0.00     0.049 A 
ATOM     35  N   UNL A   1      42.990  26.699  27.951  1.00  0.00    -0.248 NA
ATOM     36  C   UNL A   1      41.440  24.954  27.978  1.00  0.00     0.031 C 
ATOM     37  C   UNL A   1      46.072  23.885  26.332  1.00  0.00     0.029 A 
ATOM     38  N   UNL A   1      45.690  25.975  27.029  1.00  0.00    -0.354 N 
ATOM     39  C   UNL A   1      41.763  27.181  28.387  1.00  0.00     0.074 A 
ATOM     40  C   UNL A   1      40.829  26.077  28.327  1.00  0.00     0.031 C 
ATOM     41  C   UNL A   1      47.216  24.572  26.190  1.00  0.00     0.029 A 
ATOM     42  C   UNL A   1      46.998  25.951  26.610  1.00  0.00     0.049 A 
ATOM     43  H   UNL A   1      45.254  26.779  27.390  1.00  0.00     0.167 HD
ATOM     44  C   UNL A   1      41.451  28.424  28.821  1.00  0.00     0.037 A 
ATOM     45  C   UNL A   1      47.915  26.937  26.562  1.00  0.00     0.037 A 
ATOM     46  C   UNL A   1      42.391  29.512  28.903  1.00  0.00     0.049 A 
ATOM     47  C   UNL A   1      47.536  28.313  27.041  1.00  0.00     0.074 A 
ATOM     48  C   UNL A   1      42.188  30.792  29.386  1.00  0.00     0.029 A 
ATOM     49  N   UNL A   1      43.713  29.446  28.488  1.00  0.00    -0.354 N 
ATOM     50  N   UNL A   1      46.392  28.738  27.522  1.00  0.00    -0.248 NA
ATOM     51  C   UNL A   1      48.579  29.347  26.979  1.00  0.00     0.031 C 
ATOM     52  C   UNL A   1      43.370  31.517  29.215  1.00  0.00     0.029 A 
ATOM     53  C   UNL A   1      44.329  30.671  28.682  1.00  0.00     0.049 A 
ATOM     54  H   UNL A   1      44.148  28.647  28.112  1.00  0.00     0.167 HD
ATOM     55  C   UNL A   1      46.588  30.073  27.849  1.00  0.00     0.074 A 
ATOM     56  C   UNL A   1      47.964  30.384  27.528  1.00  0.00     0.031 C 
ATOM     57  C   UNL A   1      45.705  30.962  28.368  1.00  0.00     0.037 A 
BRANCH  44  58
ATOM     58  C   UNL A   1      40.034  28.682  29.248  1.00  0.00     0.064 A 
ATOM     59  C   UNL A   1      39.061  29.124  28.339  1.00  0.00     0.173 A 
ATOM     60  C   UNL A   1      39.632  28.427  30.568  1.00  0.00     0.173 A 
ATOM     61  F   UNL A   1      39.395  29.393  27.069  1.00  0.00    -0.203 F 
ATOM     62  C   UNL A   1      37.742  29.324  28.742  1.00  0.00     0.198 A 
ATOM     63  C   UNL A   1      38.305  28.598  30.959  1.00  0.00     0.198 A 
ATOM     64  F   UNL A   1      40.519  27.997  31.476  1.00  0.00    -0.203 F 
ATOM     65  F   UNL A   1      36.840  29.789  27.867  1.00  0.00    -0.200 F 
ATOM     66  C   UNL A   1      37.365  29.052  30.048  1.00  0.00     0.200 A 
ATOM     67  F   UNL A   1      37.939  28.321  32.218  1.00  0.00    -0.200 F 
ATOM     68  F   UNL A   1      36.092  29.231  30.430  1.00  0.00    -0.200 F 
ENDBRANCH  44  58
BRANCH  45  69
ATOM     69  C   UNL A   1      49.284  26.661  26.055  1.00  0.00     0.064 A 
ATOM     70  C   UNL A   1      49.640  26.963  24.733  1.00  0.00     0.173 A 
ATOM     71  C   UNL A   1      50.260  26.070  26.872  1.00  0.00     0.173 A 
ATOM     72  F   UNL A   1      48.737  27.512  23.907  1.00  0.00    -0.203 F 
ATOM     73  C   UNL A   1      50.906  26.656  24.238  1.00  0.00     0.198 A 
ATOM     74  C   UNL A   1      51.536  25.794  26.385  1.00  0.00     0.198 A 
ATOM     75  F   UNL A   1      49.976  25.766  28.147  1.00  0.00    -0.203 F 
ATOM     76  F   UNL A   1      51.197  26.903  22.954  1.00  0.00    -0.200 F 
ATOM     77  C   UNL A   1      51.854  26.076  25.065  1.00  0.00     0.200 A 
ATOM     78  F   UNL A   1      52.455  25.248  27.193  1.00  0.00    -0.200 F 
ATOM     79  F   UNL A   1      53.071  25.781  24.588  1.00  0.00    -0.200 F 
ENDBRANCH  45  69
BRANCH  57  80
ATOM     80  C   UNL A   1      46.212  32.343  28.666  1.00  0.00     0.064 A 
ATOM     81  C   UNL A   1      46.128  33.379  27.723  1.00  0.00     0.173 A 
ATOM     82  C   UNL A   1      46.753  32.643  29.925  1.00  0.00     0.173 A 
ATOM     83  F   UNL A   1      45.633  33.142  26.500  1.00  0.00    -0.203 F 
ATOM     84  C   UNL A   1      46.593  34.658  28.023  1.00  0.00     0.198 A 
ATOM     85  C   UNL A   1      47.185  33.929  30.233  1.00  0.00     0.198 A 
ATOM     86  F   UNL A   1      46.848  31.690  30.865  1.00  0.00    -0.203 F 
ATOM     87  F   UNL A   1      46.550  35.619  27.091  1.00  0.00    -0.200 F 
ATOM     88  C   UNL A   1      47.112  34.933  29.280  1.00  0.00     0.200 A 
ATOM     89  F   UNL A   1      47.671  34.198  31.453  1.00  0.00    -0.200 F 
ATOM     90  F   UNL A   1      47.551  36.166  29.569  1.00  0.00    -0.200 F 
ENDBRANCH  57  80
ENDBRANCH  31  32
ENDBRANCH  23  26
ENDBRANCH  21  22
ENDBRANCH  20  21
ENDBRANCH  19  20
ENDBRANCH   1  19
TORSDOF 16
ENDMDL
