MODEL 1
REMARK VINA RESULT:     -12.1      0.000      0.000
REMARK SMILES Cn1ccc(Nc2nccc(C(=O)NCCCCCCNC(=O)c3ccc(-c4c5nc(c(-c6c(F)c(F)c(F)c(F)c6F)c6ccc([nH]6)c(-c6c(F)c(F)c(F)c(F)c6F)c6nc(c(-c7c(F)c(F)c(F)c(F)c7F)c7ccc4[nH]7)C=C6)C=C5)cc3)c2N)n1
REMARK SMILES IDX 17 1 16 2 15 3 14 4 12 5 13 6 11 8 7 9 8 10 87 11 9 12 10 13
REMARK SMILES IDX 6 14 5 16 1 17 2 18 3 19 89 20 4 21 88 22 18 25 19 26 20 27
REMARK SMILES IDX 21 28 22 29 23 31 24 32 25 33 86 34 26 35 85 36 27 37 28 38
REMARK SMILES IDX 29 39 79 40 30 41 84 42 78 43 80 44 31 45 83 46 77 47 76 48
REMARK SMILES IDX 32 50 64 51 44 52 63 53 45 54 48 55 62 56 81 57 46 58 47 59
REMARK SMILES IDX 61 61 82 62 49 63 33 64 34 65 42 66 35 67 36 68 40 69 43 70
REMARK SMILES IDX 37 71 38 72 41 73 39 74 65 75 66 76 74 77 67 78 68 79 72 80
REMARK SMILES IDX 75 81 69 82 70 83 73 84 71 85 50 86 51 87 59 88 52 89 53 90
REMARK SMILES IDX 57 91 60 92 54 93 55 94 58 95 56 96
REMARK H PARENT 14 7 6 15 88 23 88 24 21 30 80 49 48 60
REMARK Flexibility Score: inf
ROOT
ATOM      1  C   UNL A   1      32.160  29.839  27.231  1.00  0.00     0.002 C 
ENDROOT
BRANCH   1   2
ATOM      2  C   UNL A   1      31.674  28.388  27.271  1.00  0.00     0.021 C 
BRANCH   2   3
ATOM      3  C   UNL A   1      32.747  27.369  26.863  1.00  0.00     0.116 C 
BRANCH   3   4
ATOM      4  N   UNL A   1      32.120  26.086  26.602  1.00  0.00    -0.352 N 
ATOM      5  C   UNL A   1      31.261  25.664  25.619  1.00  0.00     0.253 C 
ATOM      6  O   UNL A   1      30.812  24.519  25.729  1.00  0.00    -0.269 OA
ATOM      7  H   UNL A   1      32.353  25.388  27.255  1.00  0.00     0.163 HD
BRANCH   5   8
ATOM      8  C   UNL A   1      30.923  26.440  24.392  1.00  0.00     0.068 A 
ATOM      9  C   UNL A   1      29.591  27.719  22.848  1.00  0.00     0.155 A 
ATOM     10  N   UNL A   1      30.641  27.961  22.033  1.00  0.00    -0.237 NA
ATOM     11  C   UNL A   1      29.655  26.859  23.976  1.00  0.00     0.088 A 
ATOM     12  C   UNL A   1      31.831  27.464  22.413  1.00  0.00     0.114 A 
ATOM     13  C   UNL A   1      32.025  26.747  23.579  1.00  0.00     0.036 A 
BRANCH   9  14
ATOM     14  N   UNL A   1      28.399  28.411  22.540  1.00  0.00    -0.322 N 
ATOM     15  H   UNL A   1      27.567  27.888  22.484  1.00  0.00     0.170 HD
BRANCH  14  16
ATOM     16  C   UNL A   1      28.321  29.748  22.317  1.00  0.00     0.153 A 
ATOM     17  C   UNL A   1      27.727  32.548  20.329  1.00  0.00     0.173 C 
ATOM     18  N   UNL A   1      28.033  31.639  21.408  1.00  0.00    -0.274 N 
ATOM     19  C   UNL A   1      28.022  31.908  22.742  1.00  0.00     0.110 A 
ATOM     20  N   UNL A   1      28.304  30.356  21.127  1.00  0.00    -0.155 NA
ATOM     21  C   UNL A   1      28.181  30.690  23.364  1.00  0.00     0.068 A 
ENDBRANCH  14  16
ENDBRANCH   9  14
BRANCH  11  22
ATOM     22  N   UNL A   1      28.458  26.318  24.482  1.00  0.00    -0.395 N 
ATOM     23  H   UNL A   1      28.234  26.422  25.435  1.00  0.00     0.156 HD
ATOM     24  H   UNL A   1      27.844  25.835  23.883  1.00  0.00     0.156 HD
ENDBRANCH  11  22
ENDBRANCH   5   8
ENDBRANCH   3   4
ENDBRANCH   2   3
ENDBRANCH   1   2
BRANCH   1  25
ATOM     25  C   UNL A   1      31.484  30.703  26.160  1.00  0.00     0.002 C 
BRANCH  25  26
ATOM     26  C   UNL A   1      31.384  32.195  26.493  1.00  0.00     0.021 C 
BRANCH  26  27
ATOM     27  C   UNL A   1      32.598  32.769  27.219  1.00  0.00     0.116 C 
BRANCH  27  28
ATOM     28  N   UNL A   1      32.402  34.166  27.576  1.00  0.00    -0.352 N 
ATOM     29  C   UNL A   1      32.983  34.902  28.578  1.00  0.00     0.251 C 
ATOM     30  H   UNL A   1      31.758  34.655  27.016  1.00  0.00     0.163 HD
ATOM     31  O   UNL A   1      32.526  35.997  28.888  1.00  0.00    -0.269 OA
BRANCH  29  32
ATOM     32  C   UNL A   1      34.160  34.370  29.297  1.00  0.00     0.039 A 
ATOM     33  C   UNL A   1      33.967  33.693  30.504  1.00  0.00     0.014 A 
ATOM     34  C   UNL A   1      35.451  34.561  28.795  1.00  0.00     0.014 A 
ATOM     35  C   UNL A   1      35.065  33.155  31.178  1.00  0.00     0.010 A 
ATOM     36  C   UNL A   1      36.537  33.968  29.434  1.00  0.00     0.010 A 
ATOM     37  C   UNL A   1      36.355  33.259  30.631  1.00  0.00    -0.014 A 
BRANCH  37  38
ATOM     38  C   UNL A   1      37.522  32.622  31.290  1.00  0.00     0.031 A 
ATOM     39  C   UNL A   1      38.247  31.490  30.620  1.00  0.00     0.074 A 
ATOM     40  C   UNL A   1      37.883  33.022  32.524  1.00  0.00     0.049 A 
ATOM     41  N   UNL A   1      39.240  30.762  31.068  1.00  0.00    -0.248 NA
ATOM     42  C   UNL A   1      37.780  31.106  29.280  1.00  0.00     0.031 C 
ATOM     43  C   UNL A   1      37.228  34.078  33.296  1.00  0.00     0.029 A 
ATOM     44  N   UNL A   1      38.883  32.577  33.353  1.00  0.00    -0.354 N 
ATOM     45  C   UNL A   1      39.504  29.830  30.073  1.00  0.00     0.074 A 
ATOM     46  C   UNL A   1      38.538  30.051  29.019  1.00  0.00     0.031 C 
ATOM     47  C   UNL A   1      37.853  34.214  34.476  1.00  0.00     0.029 A 
ATOM     48  C   UNL A   1      38.927  33.230  34.561  1.00  0.00     0.049 A 
ATOM     49  H   UNL A   1      39.509  31.859  33.105  1.00  0.00     0.167 HD
ATOM     50  C   UNL A   1      40.481  28.891  30.034  1.00  0.00     0.037 A 
ATOM     51  C   UNL A   1      39.736  33.047  35.621  1.00  0.00     0.037 A 
ATOM     52  C   UNL A   1      41.454  28.691  31.075  1.00  0.00     0.049 A 
ATOM     53  C   UNL A   1      40.806  31.990  35.555  1.00  0.00     0.074 A 
ATOM     54  C   UNL A   1      42.521  27.810  31.102  1.00  0.00     0.029 A 
ATOM     55  N   UNL A   1      41.475  29.379  32.279  1.00  0.00    -0.354 N 
ATOM     56  N   UNL A   1      41.091  31.163  34.580  1.00  0.00    -0.248 NA
ATOM     57  C   UNL A   1      41.668  31.847  36.736  1.00  0.00     0.031 C 
ATOM     58  C   UNL A   1      43.159  27.932  32.340  1.00  0.00     0.029 A 
ATOM     59  C   UNL A   1      42.521  28.925  33.066  1.00  0.00     0.049 A 
ATOM     60  H   UNL A   1      40.841  30.086  32.537  1.00  0.00     0.167 HD
ATOM     61  C   UNL A   1      42.178  30.419  35.017  1.00  0.00     0.074 A 
ATOM     62  C   UNL A   1      42.512  30.905  36.340  1.00  0.00     0.031 C 
ATOM     63  C   UNL A   1      42.840  29.420  34.381  1.00  0.00     0.037 A 
BRANCH  50  64
ATOM     64  C   UNL A   1      40.546  28.008  28.821  1.00  0.00     0.064 A 
ATOM     65  C   UNL A   1      41.338  28.339  27.711  1.00  0.00     0.173 A 
ATOM     66  C   UNL A   1      39.841  26.795  28.785  1.00  0.00     0.173 A 
ATOM     67  F   UNL A   1      42.024  29.491  27.691  1.00  0.00    -0.203 F 
ATOM     68  C   UNL A   1      41.398  27.503  26.598  1.00  0.00     0.198 A 
ATOM     69  C   UNL A   1      39.928  25.948  27.683  1.00  0.00     0.198 A 
ATOM     70  F   UNL A   1      39.074  26.427  29.822  1.00  0.00    -0.203 F 
ATOM     71  F   UNL A   1      42.123  27.865  25.531  1.00  0.00    -0.200 F 
ATOM     72  C   UNL A   1      40.700  26.306  26.588  1.00  0.00     0.200 A 
ATOM     73  F   UNL A   1      39.263  24.784  27.679  1.00  0.00    -0.200 F 
ATOM     74  F   UNL A   1      40.765  25.500  25.520  1.00  0.00    -0.200 F 
ENDBRANCH  50  64
BRANCH  51  75
ATOM     75  C   UNL A   1      39.579  33.897  36.830  1.00  0.00     0.064 A 
ATOM     76  C   UNL A   1      38.815  33.461  37.921  1.00  0.00     0.173 A 
ATOM     77  C   UNL A   1      40.185  35.158  36.920  1.00  0.00     0.173 A 
ATOM     78  F   UNL A   1      38.200  32.270  37.874  1.00  0.00    -0.203 F 
ATOM     79  C   UNL A   1      38.648  34.262  39.049  1.00  0.00     0.198 A 
ATOM     80  C   UNL A   1      40.041  35.946  38.059  1.00  0.00     0.198 A 
ATOM     81  F   UNL A   1      40.931  35.620  35.905  1.00  0.00    -0.203 F 
ATOM     82  F   UNL A   1      37.877  33.839  40.060  1.00  0.00    -0.200 F 
ATOM     83  C   UNL A   1      39.266  35.501  39.120  1.00  0.00     0.200 A 
ATOM     84  F   UNL A   1      40.653  37.136  38.130  1.00  0.00    -0.200 F 
ATOM     85  F   UNL A   1      39.110  36.269  40.206  1.00  0.00    -0.200 F 
ENDBRANCH  51  75
BRANCH  63  86
ATOM     86  C   UNL A   1      44.005  28.803  35.099  1.00  0.00     0.064 A 
ATOM     87  C   UNL A   1      43.847  27.691  35.937  1.00  0.00     0.173 A 
ATOM     88  C   UNL A   1      45.300  29.312  34.918  1.00  0.00     0.173 A 
ATOM     89  F   UNL A   1      42.626  27.177  36.155  1.00  0.00    -0.203 F 
ATOM     90  C   UNL A   1      44.940  27.124  36.589  1.00  0.00     0.198 A 
ATOM     91  C   UNL A   1      46.394  28.725  35.547  1.00  0.00     0.198 A 
ATOM     92  F   UNL A   1      45.506  30.372  34.122  1.00  0.00    -0.203 F 
ATOM     93  F   UNL A   1      44.758  26.092  37.423  1.00  0.00    -0.200 F 
ATOM     94  C   UNL A   1      46.213  27.637  36.387  1.00  0.00     0.200 A 
ATOM     95  F   UNL A   1      47.626  29.214  35.342  1.00  0.00    -0.200 F 
ATOM     96  F   UNL A   1      47.264  27.087  37.010  1.00  0.00    -0.200 F 
ENDBRANCH  63  86
ENDBRANCH  37  38
ENDBRANCH  29  32
ENDBRANCH  27  28
ENDBRANCH  26  27
ENDBRANCH  25  26
ENDBRANCH   1  25
TORSDOF 16
ENDMDL
MODEL 2
REMARK VINA RESULT:     -12.0      1.688      3.558
REMARK SMILES Cn1ccc(Nc2nccc(C(=O)NCCCCCCNC(=O)c3ccc(-c4c5nc(c(-c6c(F)c(F)c(F)c(F)c6F)c6ccc([nH]6)c(-c6c(F)c(F)c(F)c(F)c6F)c6nc(c(-c7c(F)c(F)c(F)c(F)c7F)c7ccc4[nH]7)C=C6)C=C5)cc3)c2N)n1
REMARK SMILES IDX 17 1 16 2 15 3 14 4 12 5 13 6 11 8 7 9 8 10 87 11 9 12 10 13
REMARK SMILES IDX 6 14 5 16 1 17 2 18 3 19 89 20 4 21 88 22 18 25 19 26 20 27
REMARK SMILES IDX 21 28 22 29 23 31 24 32 25 33 86 34 26 35 85 36 27 37 28 38
REMARK SMILES IDX 29 39 79 40 30 41 84 42 78 43 80 44 31 45 83 46 77 47 76 48
REMARK SMILES IDX 32 50 64 51 44 52 63 53 45 54 48 55 62 56 81 57 46 58 47 59
REMARK SMILES IDX 61 61 82 62 49 63 33 64 34 65 42 66 35 67 36 68 40 69 43 70
REMARK SMILES IDX 37 71 38 72 41 73 39 74 65 75 66 76 74 77 67 78 68 79 72 80
REMARK SMILES IDX 75 81 69 82 70 83 73 84 71 85 50 86 51 87 59 88 52 89 53 90
REMARK SMILES IDX 57 91 60 92 54 93 55 94 58 95 56 96
REMARK H PARENT 14 7 6 15 88 23 88 24 21 30 80 49 48 60
REMARK Flexibility Score: inf
ROOT
ATOM      1  C   UNL A   1      32.837  30.154  26.443  1.00  0.00     0.002 C 
ENDROOT
BRANCH   1   2
ATOM      2  C   UNL A   1      33.073  28.819  25.732  1.00  0.00     0.021 C 
BRANCH   2   3
ATOM      3  C   UNL A   1      33.561  28.971  24.285  1.00  0.00     0.116 C 
BRANCH   3   4
ATOM      4  N   UNL A   1      32.455  29.394  23.445  1.00  0.00    -0.352 N 
ATOM      5  C   UNL A   1      31.468  28.692  22.800  1.00  0.00     0.253 C 
ATOM      6  O   UNL A   1      30.720  29.339  22.062  1.00  0.00    -0.269 OA
ATOM      7  H   UNL A   1      32.405  30.368  23.311  1.00  0.00     0.163 HD
BRANCH   5   8
ATOM      8  C   UNL A   1      31.176  27.245  23.009  1.00  0.00     0.068 A 
ATOM      9  C   UNL A   1      31.375  24.861  22.747  1.00  0.00     0.155 A 
ATOM     10  N   UNL A   1      30.469  24.608  23.717  1.00  0.00    -0.237 NA
ATOM     11  C   UNL A   1      31.671  26.165  22.270  1.00  0.00     0.088 A 
ATOM     12  C   UNL A   1      29.941  25.673  24.345  1.00  0.00     0.114 A 
ATOM     13  C   UNL A   1      30.286  26.980  24.060  1.00  0.00     0.036 A 
BRANCH   9  14
ATOM     14  N   UNL A   1      32.063  23.738  22.237  1.00  0.00    -0.322 N 
ATOM     15  H   UNL A   1      31.711  23.316  21.421  1.00  0.00     0.170 HD
BRANCH  14  16
ATOM     16  C   UNL A   1      33.178  23.201  22.795  1.00  0.00     0.153 A 
ATOM     17  C   UNL A   1      36.608  23.071  23.402  1.00  0.00     0.173 C 
ATOM     18  N   UNL A   1      35.184  22.837  23.371  1.00  0.00    -0.274 N 
ATOM     19  C   UNL A   1      34.448  22.108  24.255  1.00  0.00     0.110 A 
ATOM     20  N   UNL A   1      34.442  23.430  22.425  1.00  0.00    -0.155 NA
ATOM     21  C   UNL A   1      33.133  22.346  23.921  1.00  0.00     0.068 A 
ENDBRANCH  14  16
ENDBRANCH   9  14
BRANCH  11  22
ATOM     22  N   UNL A   1      32.257  26.303  20.998  1.00  0.00    -0.395 N 
ATOM     23  H   UNL A   1      33.060  25.782  20.766  1.00  0.00     0.156 HD
ATOM     24  H   UNL A   1      31.865  26.920  20.339  1.00  0.00     0.156 HD
ENDBRANCH  11  22
ENDBRANCH   5   8
ENDBRANCH   3   4
ENDBRANCH   2   3
ENDBRANCH   1   2
BRANCH   1  25
ATOM     25  C   UNL A   1      31.489  30.809  26.127  1.00  0.00     0.002 C 
BRANCH  25  26
ATOM     26  C   UNL A   1      31.339  32.258  26.603  1.00  0.00     0.021 C 
BRANCH  26  27
ATOM     27  C   UNL A   1      32.579  32.838  27.280  1.00  0.00     0.116 C 
BRANCH  27  28
ATOM     28  N   UNL A   1      32.399  34.240  27.625  1.00  0.00    -0.352 N 
ATOM     29  C   UNL A   1      32.992  34.979  28.618  1.00  0.00     0.251 C 
ATOM     30  H   UNL A   1      31.757  34.730  27.064  1.00  0.00     0.163 HD
ATOM     31  O   UNL A   1      32.548  36.082  28.920  1.00  0.00    -0.269 OA
BRANCH  29  32
ATOM     32  C   UNL A   1      34.168  34.442  29.335  1.00  0.00     0.039 A 
ATOM     33  C   UNL A   1      33.983  33.842  30.584  1.00  0.00     0.014 A 
ATOM     34  C   UNL A   1      35.450  34.552  28.790  1.00  0.00     0.014 A 
ATOM     35  C   UNL A   1      35.077  33.299  31.259  1.00  0.00     0.010 A 
ATOM     36  C   UNL A   1      36.530  33.952  29.434  1.00  0.00     0.010 A 
ATOM     37  C   UNL A   1      36.354  33.320  30.674  1.00  0.00    -0.014 A 
BRANCH  37  38
ATOM     38  C   UNL A   1      37.514  32.675  31.338  1.00  0.00     0.031 A 
ATOM     39  C   UNL A   1      38.237  31.540  30.670  1.00  0.00     0.074 A 
ATOM     40  C   UNL A   1      37.870  33.069  32.576  1.00  0.00     0.049 A 
ATOM     41  N   UNL A   1      39.223  30.806  31.122  1.00  0.00    -0.248 NA
ATOM     42  C   UNL A   1      37.775  31.163  29.326  1.00  0.00     0.031 C 
ATOM     43  C   UNL A   1      37.216  34.127  33.347  1.00  0.00     0.029 A 
ATOM     44  N   UNL A   1      38.862  32.617  33.409  1.00  0.00    -0.354 N 
ATOM     45  C   UNL A   1      39.488  29.875  30.126  1.00  0.00     0.074 A 
ATOM     46  C   UNL A   1      38.529  30.105  29.067  1.00  0.00     0.031 C 
ATOM     47  C   UNL A   1      37.834  34.256  34.530  1.00  0.00     0.029 A 
ATOM     48  C   UNL A   1      38.902  33.265  34.620  1.00  0.00     0.049 A 
ATOM     49  H   UNL A   1      39.486  31.895  33.163  1.00  0.00     0.167 HD
ATOM     50  C   UNL A   1      40.459  28.931  30.090  1.00  0.00     0.037 A 
ATOM     51  C   UNL A   1      39.704  33.075  35.684  1.00  0.00     0.037 A 
ATOM     52  C   UNL A   1      41.425  28.722  31.136  1.00  0.00     0.049 A 
ATOM     53  C   UNL A   1      40.768  32.013  35.621  1.00  0.00     0.074 A 
ATOM     54  C   UNL A   1      42.487  27.836  31.167  1.00  0.00     0.029 A 
ATOM     55  N   UNL A   1      41.443  29.407  32.343  1.00  0.00    -0.354 N 
ATOM     56  N   UNL A   1      41.055  31.186  34.646  1.00  0.00    -0.248 NA
ATOM     57  C   UNL A   1      41.623  31.862  36.807  1.00  0.00     0.031 C 
ATOM     58  C   UNL A   1      43.118  27.950  32.410  1.00  0.00     0.029 A 
ATOM     59  C   UNL A   1      42.481  28.945  33.135  1.00  0.00     0.049 A 
ATOM     60  H   UNL A   1      40.811  30.117  32.598  1.00  0.00     0.167 HD
ATOM     61  C   UNL A   1      42.135  30.435  35.088  1.00  0.00     0.074 A 
ATOM     62  C   UNL A   1      42.464  30.916  36.414  1.00  0.00     0.031 C 
ATOM     63  C   UNL A   1      42.795  29.435  34.453  1.00  0.00     0.037 A 
BRANCH  50  64
ATOM     64  C   UNL A   1      40.527  28.051  28.875  1.00  0.00     0.064 A 
ATOM     65  C   UNL A   1      39.811  26.847  28.797  1.00  0.00     0.173 A 
ATOM     66  C   UNL A   1      41.284  28.436  27.758  1.00  0.00     0.173 A 
ATOM     67  F   UNL A   1      39.079  26.428  29.839  1.00  0.00    -0.203 F 
ATOM     68  C   UNL A   1      39.874  26.048  27.658  1.00  0.00     0.198 A 
ATOM     69  C   UNL A   1      41.321  27.649  26.610  1.00  0.00     0.198 A 
ATOM     70  F   UNL A   1      41.983  29.581  27.777  1.00  0.00    -0.203 F 
ATOM     71  F   UNL A   1      39.219  24.879  27.626  1.00  0.00    -0.200 F 
ATOM     72  C   UNL A   1      40.621  26.452  26.564  1.00  0.00     0.200 A 
ATOM     73  F   UNL A   1      42.034  28.048  25.547  1.00  0.00    -0.200 F 
ATOM     74  F   UNL A   1      40.675  25.686  25.465  1.00  0.00    -0.200 F 
ENDBRANCH  50  64
BRANCH  51  75
ATOM     75  C   UNL A   1      39.544  33.924  36.894  1.00  0.00     0.064 A 
ATOM     76  C   UNL A   1      40.157  35.181  36.976  1.00  0.00     0.173 A 
ATOM     77  C   UNL A   1      38.777  33.498  37.988  1.00  0.00     0.173 A 
ATOM     78  F   UNL A   1      40.916  35.623  35.963  1.00  0.00    -0.203 F 
ATOM     79  C   UNL A   1      40.027  35.973  38.115  1.00  0.00     0.198 A 
ATOM     80  C   UNL A   1      38.624  34.302  39.115  1.00  0.00     0.198 A 
ATOM     81  F   UNL A   1      38.165  32.305  37.958  1.00  0.00    -0.203 F 
ATOM     82  F   UNL A   1      40.659  37.152  38.185  1.00  0.00    -0.200 F 
ATOM     83  C   UNL A   1      39.255  35.536  39.181  1.00  0.00     0.200 A 
ATOM     84  F   UNL A   1      37.864  33.883  40.137  1.00  0.00    -0.200 F 
ATOM     85  F   UNL A   1      39.124  36.299  40.274  1.00  0.00    -0.200 F 
ENDBRANCH  51  75
BRANCH  63  86
ATOM     86  C   UNL A   1      43.952  28.810  35.176  1.00  0.00     0.064 A 
ATOM     87  C   UNL A   1      43.780  27.709  36.027  1.00  0.00     0.173 A 
ATOM     88  C   UNL A   1      45.254  29.297  34.988  1.00  0.00     0.173 A 
ATOM     89  F   UNL A   1      42.552  27.216  36.253  1.00  0.00    -0.203 F 
ATOM     90  C   UNL A   1      44.865  27.135  36.684  1.00  0.00     0.198 A 
ATOM     91  C   UNL A   1      46.341  28.702  35.621  1.00  0.00     0.198 A 
ATOM     92  F   UNL A   1      45.474  30.345  34.179  1.00  0.00    -0.203 F 
ATOM     93  F   UNL A   1      44.670  26.115  37.531  1.00  0.00    -0.200 F 
ATOM     94  C   UNL A   1      46.145  27.627  36.474  1.00  0.00     0.200 A 
ATOM     95  F   UNL A   1      47.579  29.170  35.409  1.00  0.00    -0.200 F 
ATOM     96  F   UNL A   1      47.189  27.069  37.102  1.00  0.00    -0.200 F 
ENDBRANCH  63  86
ENDBRANCH  37  38
ENDBRANCH  29  32
ENDBRANCH  27  28
ENDBRANCH  26  27
ENDBRANCH  25  26
ENDBRANCH   1  25
TORSDOF 16
ENDMDL
MODEL 3
REMARK VINA RESULT:     -11.9      0.804      2.276
REMARK SMILES Cn1ccc(Nc2nccc(C(=O)NCCCCCCNC(=O)c3ccc(-c4c5nc(c(-c6c(F)c(F)c(F)c(F)c6F)c6ccc([nH]6)c(-c6c(F)c(F)c(F)c(F)c6F)c6nc(c(-c7c(F)c(F)c(F)c(F)c7F)c7ccc4[nH]7)C=C6)C=C5)cc3)c2N)n1
REMARK SMILES IDX 17 1 16 2 15 3 14 4 12 5 13 6 11 8 7 9 8 10 87 11 9 12 10 13
REMARK SMILES IDX 6 14 5 16 1 17 2 18 3 19 89 20 4 21 88 22 18 25 19 26 20 27
REMARK SMILES IDX 21 28 22 29 23 31 24 32 25 33 86 34 26 35 85 36 27 37 28 38
REMARK SMILES IDX 29 39 79 40 30 41 84 42 78 43 80 44 31 45 83 46 77 47 76 48
REMARK SMILES IDX 32 50 64 51 44 52 63 53 45 54 48 55 62 56 81 57 46 58 47 59
REMARK SMILES IDX 61 61 82 62 49 63 33 64 34 65 42 66 35 67 36 68 40 69 43 70
REMARK SMILES IDX 37 71 38 72 41 73 39 74 65 75 66 76 74 77 67 78 68 79 72 80
REMARK SMILES IDX 75 81 69 82 70 83 73 84 71 85 50 86 51 87 59 88 52 89 53 90
REMARK SMILES IDX 57 91 60 92 54 93 55 94 58 95 56 96
REMARK H PARENT 14 7 6 15 88 23 88 24 21 30 80 49 48 60
REMARK Flexibility Score: inf
ROOT
ATOM      1  C   UNL A   1      32.892  30.132  27.092  1.00  0.00     0.002 C 
ENDROOT
BRANCH   1   2
ATOM      2  C   UNL A   1      33.619  29.225  26.095  1.00  0.00     0.021 C 
BRANCH   2   3
ATOM      3  C   UNL A   1      33.304  27.734  26.278  1.00  0.00     0.116 C 
BRANCH   3   4
ATOM      4  N   UNL A   1      33.652  27.015  25.065  1.00  0.00    -0.352 N 
ATOM      5  C   UNL A   1      32.916  26.657  23.964  1.00  0.00     0.253 C 
ATOM      6  O   UNL A   1      33.480  25.945  23.128  1.00  0.00    -0.269 OA
ATOM      7  H   UNL A   1      34.593  26.729  25.028  1.00  0.00     0.163 HD
BRANCH   5   8
ATOM      8  C   UNL A   1      31.542  27.149  23.661  1.00  0.00     0.068 A 
ATOM      9  C   UNL A   1      29.810  28.438  22.597  1.00  0.00     0.155 A 
ATOM     10  N   UNL A   1      28.824  27.771  23.236  1.00  0.00    -0.237 NA
ATOM     11  C   UNL A   1      31.190  28.247  22.869  1.00  0.00     0.088 A 
ATOM     12  C   UNL A   1      29.200  26.781  24.065  1.00  0.00     0.114 A 
ATOM     13  C   UNL A   1      30.516  26.414  24.274  1.00  0.00     0.036 A 
BRANCH   9  14
ATOM     14  N   UNL A   1      29.394  29.334  21.588  1.00  0.00    -0.322 N 
ATOM     15  H   UNL A   1      29.406  29.014  20.658  1.00  0.00     0.170 HD
BRANCH  14  16
ATOM     16  C   UNL A   1      28.978  30.607  21.814  1.00  0.00     0.153 A 
ATOM     17  C   UNL A   1      29.205  33.738  23.327  1.00  0.00     0.173 C 
ATOM     18  N   UNL A   1      28.826  32.593  22.535  1.00  0.00    -0.274 N 
ATOM     19  C   UNL A   1      28.034  32.580  21.428  1.00  0.00     0.110 A 
ATOM     20  N   UNL A   1      29.333  31.389  22.839  1.00  0.00    -0.155 NA
ATOM     21  C   UNL A   1      28.133  31.304  20.919  1.00  0.00     0.068 A 
ENDBRANCH  14  16
ENDBRANCH   9  14
BRANCH  11  22
ATOM     22  N   UNL A   1      32.096  29.263  22.510  1.00  0.00    -0.395 N 
ATOM     23  H   UNL A   1      31.820  30.208  22.551  1.00  0.00     0.156 HD
ATOM     24  H   UNL A   1      33.007  29.031  22.218  1.00  0.00     0.156 HD
ENDBRANCH  11  22
ENDBRANCH   5   8
ENDBRANCH   3   4
ENDBRANCH   2   3
ENDBRANCH   1   2
BRANCH   1  25
ATOM     25  C   UNL A   1      31.596  30.749  26.556  1.00  0.00     0.002 C 
BRANCH  25  26
ATOM     26  C   UNL A   1      31.448  32.256  26.784  1.00  0.00     0.021 C 
BRANCH  26  27
ATOM     27  C   UNL A   1      32.737  32.971  27.182  1.00  0.00     0.116 C 
BRANCH  27  28
ATOM     28  N   UNL A   1      32.484  34.334  27.623  1.00  0.00    -0.352 N 
ATOM     29  C   UNL A   1      33.008  35.019  28.691  1.00  0.00     0.251 C 
ATOM     30  H   UNL A   1      31.843  34.840  27.075  1.00  0.00     0.163 HD
ATOM     31  O   UNL A   1      32.506  36.076  29.056  1.00  0.00    -0.269 OA
BRANCH  29  32
ATOM     32  C   UNL A   1      34.179  34.476  29.413  1.00  0.00     0.039 A 
ATOM     33  C   UNL A   1      33.987  33.879  30.661  1.00  0.00     0.014 A 
ATOM     34  C   UNL A   1      35.463  34.579  28.871  1.00  0.00     0.014 A 
ATOM     35  C   UNL A   1      35.076  33.331  31.341  1.00  0.00     0.010 A 
ATOM     36  C   UNL A   1      36.539  33.974  29.519  1.00  0.00     0.010 A 
ATOM     37  C   UNL A   1      36.355  33.345  30.759  1.00  0.00    -0.014 A 
BRANCH  37  38
ATOM     38  C   UNL A   1      37.510  32.694  31.428  1.00  0.00     0.031 A 
ATOM     39  C   UNL A   1      38.226  31.552  30.765  1.00  0.00     0.074 A 
ATOM     40  C   UNL A   1      37.867  33.091  32.664  1.00  0.00     0.049 A 
ATOM     41  N   UNL A   1      39.206  30.812  31.222  1.00  0.00    -0.248 NA
ATOM     42  C   UNL A   1      37.763  31.172  29.422  1.00  0.00     0.031 C 
ATOM     43  C   UNL A   1      37.219  34.157  33.429  1.00  0.00     0.029 A 
ATOM     44  N   UNL A   1      38.855  32.635  33.501  1.00  0.00    -0.354 N 
ATOM     45  C   UNL A   1      39.466  29.876  30.229  1.00  0.00     0.074 A 
ATOM     46  C   UNL A   1      38.510  30.107  29.168  1.00  0.00     0.031 C 
ATOM     47  C   UNL A   1      37.836  34.286  34.614  1.00  0.00     0.029 A 
ATOM     48  C   UNL A   1      38.898  33.289  34.708  1.00  0.00     0.049 A 
ATOM     49  H   UNL A   1      39.473  31.909  33.259  1.00  0.00     0.167 HD
ATOM     50  C   UNL A   1      40.430  28.924  30.199  1.00  0.00     0.037 A 
ATOM     51  C   UNL A   1      39.697  33.097  35.775  1.00  0.00     0.037 A 
ATOM     52  C   UNL A   1      41.393  28.714  31.248  1.00  0.00     0.049 A 
ATOM     53  C   UNL A   1      40.754  32.028  35.718  1.00  0.00     0.074 A 
ATOM     54  C   UNL A   1      42.449  27.820  31.283  1.00  0.00     0.029 A 
ATOM     55  N   UNL A   1      41.415  29.403  32.451  1.00  0.00    -0.354 N 
ATOM     56  N   UNL A   1      41.036  31.195  34.746  1.00  0.00    -0.248 NA
ATOM     57  C   UNL A   1      41.605  31.876  36.906  1.00  0.00     0.031 C 
ATOM     58  C   UNL A   1      43.079  27.935  32.526  1.00  0.00     0.029 A 
ATOM     59  C   UNL A   1      42.449  28.937  33.246  1.00  0.00     0.049 A 
ATOM     60  H   UNL A   1      40.787  30.119  32.703  1.00  0.00     0.167 HD
ATOM     61  C   UNL A   1      42.110  30.438  35.192  1.00  0.00     0.074 A 
ATOM     62  C   UNL A   1      42.440  30.922  36.517  1.00  0.00     0.031 C 
ATOM     63  C   UNL A   1      42.764  29.430  34.563  1.00  0.00     0.037 A 
BRANCH  50  64
ATOM     64  C   UNL A   1      40.494  28.039  28.987  1.00  0.00     0.064 A 
ATOM     65  C   UNL A   1      39.760  26.845  28.909  1.00  0.00     0.173 A 
ATOM     66  C   UNL A   1      41.264  28.409  27.875  1.00  0.00     0.173 A 
ATOM     67  F   UNL A   1      39.015  26.441  29.948  1.00  0.00    -0.203 F 
ATOM     68  C   UNL A   1      39.819  26.041  27.773  1.00  0.00     0.198 A 
ATOM     69  C   UNL A   1      41.297  27.617  26.730  1.00  0.00     0.198 A 
ATOM     70  F   UNL A   1      41.980  29.544  27.894  1.00  0.00    -0.203 F 
ATOM     71  F   UNL A   1      39.148  24.882  27.741  1.00  0.00    -0.200 F 
ATOM     72  C   UNL A   1      40.581  26.431  26.683  1.00  0.00     0.200 A 
ATOM     73  F   UNL A   1      42.023  28.002  25.671  1.00  0.00    -0.200 F 
ATOM     74  F   UNL A   1      40.630  25.659  25.588  1.00  0.00    -0.200 F 
ENDBRANCH  50  64
BRANCH  51  75
ATOM     75  C   UNL A   1      39.541  33.952  36.981  1.00  0.00     0.064 A 
ATOM     76  C   UNL A   1      40.143  35.216  37.049  1.00  0.00     0.173 A 
ATOM     77  C   UNL A   1      38.790  33.526  38.086  1.00  0.00     0.173 A 
ATOM     78  F   UNL A   1      40.887  35.659  36.024  1.00  0.00    -0.203 F 
ATOM     79  C   UNL A   1      40.016  36.013  38.184  1.00  0.00     0.198 A 
ATOM     80  C   UNL A   1      38.641  34.336  39.209  1.00  0.00     0.198 A 
ATOM     81  F   UNL A   1      38.190  32.327  38.069  1.00  0.00    -0.203 F 
ATOM     82  F   UNL A   1      40.638  37.199  38.240  1.00  0.00    -0.200 F 
ATOM     83  C   UNL A   1      39.260  35.576  39.261  1.00  0.00     0.200 A 
ATOM     84  F   UNL A   1      37.896  33.916  40.241  1.00  0.00    -0.200 F 
ATOM     85  F   UNL A   1      39.133  36.345  40.350  1.00  0.00    -0.200 F 
ENDBRANCH  51  75
BRANCH  63  86
ATOM     86  C   UNL A   1      43.916  28.800  35.290  1.00  0.00     0.064 A 
ATOM     87  C   UNL A   1      45.231  29.254  35.115  1.00  0.00     0.173 A 
ATOM     88  C   UNL A   1      43.697  27.753  36.197  1.00  0.00     0.173 A 
ATOM     89  F   UNL A   1      45.496  30.242  34.246  1.00  0.00    -0.203 F 
ATOM     90  C   UNL A   1      46.289  28.665  35.804  1.00  0.00     0.198 A 
ATOM     91  C   UNL A   1      44.751  27.187  36.907  1.00  0.00     0.198 A 
ATOM     92  F   UNL A   1      42.456  27.286  36.404  1.00  0.00    -0.203 F 
ATOM     93  F   UNL A   1      47.543  29.082  35.585  1.00  0.00    -0.200 F 
ATOM     94  C   UNL A   1      46.047  27.638  36.704  1.00  0.00     0.200 A 
ATOM     95  F   UNL A   1      44.516  26.203  37.786  1.00  0.00    -0.200 F 
ATOM     96  F   UNL A   1      47.065  27.076  37.371  1.00  0.00    -0.200 F 
ENDBRANCH  63  86
ENDBRANCH  37  38
ENDBRANCH  29  32
ENDBRANCH  27  28
ENDBRANCH  26  27
ENDBRANCH  25  26
ENDBRANCH   1  25
TORSDOF 16
ENDMDL
