MODEL 1
REMARK VINA RESULT:     -11.7      0.000      0.000
REMARK SMILES C[C@H]1CN(S(=O)(=O)N2CCO[C@H](CC(=O)NCCCCCCNC(=O)c3ccc(-c4c5nc(c(-c6c(F)c(F)c(F)c(F)c6F)c6ccc([nH]6)c(-c6c(F)c(F)c(F)c(F)c6F)c6nc(c(-c7c(F)c(F)c(F)c(F)c7F)c7ccc4[nH]7)C=C6)C=C5)cc3)C2)C[C@H](C)O1
REMARK SMILES IDX 19 1 18 2 17 3 16 4 14 5 15 6 13 8 12 9 8 10 9 11 89 12
REMARK SMILES IDX 10 13 11 14 5 15 6 16 7 17 4 18 1 19 2 20 3 21 93 22 91 23
REMARK SMILES IDX 90 24 92 25 20 26 21 27 22 28 23 29 24 30 25 32 26 33 27 34
REMARK SMILES IDX 88 35 28 36 87 37 29 38 30 39 31 40 81 41 32 42 86 43 80 44
REMARK SMILES IDX 82 45 33 46 85 47 79 48 78 49 34 51 66 52 46 53 65 54 47 55
REMARK SMILES IDX 50 56 64 57 83 58 48 59 49 60 63 62 84 63 51 64 35 65 36 66
REMARK SMILES IDX 44 67 37 68 38 69 42 70 45 71 39 72 40 73 43 74 41 75 67 76
REMARK SMILES IDX 68 77 76 78 69 79 70 80 74 81 77 82 71 83 72 84 75 85 73 86
REMARK SMILES IDX 52 87 53 88 61 89 54 90 55 91 59 92 62 93 56 94 57 95 60 96
REMARK SMILES IDX 58 97
REMARK H PARENT 16 7 23 31 82 50 50 61
REMARK Flexibility Score: inf
ROOT
ATOM      1  C   UNL A   1      35.225  33.618  29.240  1.00  0.00     0.002 C 
ENDROOT
BRANCH   1   2
ATOM      2  C   UNL A   1      34.680  32.187  29.245  1.00  0.00     0.021 C 
BRANCH   2   3
ATOM      3  C   UNL A   1      34.555  31.434  27.905  1.00  0.00     0.116 C 
BRANCH   3   4
ATOM      4  N   UNL A   1      33.577  30.356  27.989  1.00  0.00    -0.356 N 
ATOM      5  C   UNL A   1      32.826  29.704  27.058  1.00  0.00     0.222 C 
ATOM      6  O   UNL A   1      32.070  28.818  27.467  1.00  0.00    -0.275 OA
ATOM      7  H   UNL A   1      33.429  30.033  28.907  1.00  0.00     0.163 HD
BRANCH   5   8
ATOM      8  C   UNL A   1      32.883  30.008  25.572  1.00  0.00     0.133 C 
BRANCH   8   9
ATOM      9  C   UNL A   1      32.156  29.019  24.664  1.00  0.00     0.142 C 
ATOM     10  N   UNL A   1      32.031  27.838  22.466  1.00  0.00    -0.184 NA
ATOM     11  C   UNL A   1      30.597  28.172  22.379  1.00  0.00     0.132 C 
ATOM     12  C   UNL A   1      32.823  28.796  23.284  1.00  0.00     0.136 C 
ATOM     13  C   UNL A   1      30.035  28.417  23.783  1.00  0.00     0.177 C 
ATOM     14  O   UNL A   1      30.780  29.433  24.488  1.00  0.00    -0.375 OA
BRANCH  10  15
ATOM     15  S   UNL A   1      32.593  26.342  21.991  1.00  0.00     0.282 S 
ATOM     16  O   UNL A   1      34.007  26.419  21.728  1.00  0.00    -0.195 OA
ATOM     17  O   UNL A   1      31.667  25.801  21.021  1.00  0.00    -0.195 OA
BRANCH  15  18
ATOM     18  N   UNL A   1      32.388  25.447  23.407  1.00  0.00    -0.184 NA
ATOM     19  C   UNL A   1      34.611  23.805  25.936  1.00  0.00     0.040 C 
ATOM     20  C   UNL A   1      33.352  24.252  25.219  1.00  0.00     0.130 C 
ATOM     21  C   UNL A   1      33.482  24.513  23.724  1.00  0.00     0.135 C 
ATOM     22  O   UNL A   1      32.304  23.277  25.323  1.00  0.00    -0.373 OA
ATOM     23  C   UNL A   1      31.045  23.843  24.866  1.00  0.00     0.130 C 
ATOM     24  C   UNL A   1      31.111  24.656  23.517  1.00  0.00     0.135 C 
ATOM     25  C   UNL A   1      30.458  24.652  26.016  1.00  0.00     0.040 C 
ENDBRANCH  15  18
ENDBRANCH  10  15
ENDBRANCH   8   9
ENDBRANCH   5   8
ENDBRANCH   3   4
ENDBRANCH   2   3
ENDBRANCH   1   2
BRANCH   1  26
ATOM     26  C   UNL A   1      34.523  34.638  28.328  1.00  0.00     0.002 C 
BRANCH  26  27
ATOM     27  C   UNL A   1      33.267  35.368  28.833  1.00  0.00     0.021 C 
BRANCH  27  28
ATOM     28  C   UNL A   1      33.458  36.571  29.757  1.00  0.00     0.116 C 
BRANCH  28  29
ATOM     29  N   UNL A   1      32.512  36.563  30.862  1.00  0.00    -0.352 N 
ATOM     30  C   UNL A   1      32.500  35.816  32.017  1.00  0.00     0.251 C 
ATOM     31  H   UNL A   1      31.761  37.193  30.768  1.00  0.00     0.163 HD
ATOM     32  O   UNL A   1      31.481  35.772  32.701  1.00  0.00    -0.269 OA
BRANCH  30  33
ATOM     33  C   UNL A   1      33.695  35.051  32.453  1.00  0.00     0.039 A 
ATOM     34  C   UNL A   1      33.534  33.738  32.912  1.00  0.00     0.014 A 
ATOM     35  C   UNL A   1      34.961  35.639  32.484  1.00  0.00     0.014 A 
ATOM     36  C   UNL A   1      34.645  32.996  33.333  1.00  0.00     0.010 A 
ATOM     37  C   UNL A   1      36.076  34.880  32.843  1.00  0.00     0.010 A 
ATOM     38  C   UNL A   1      35.933  33.549  33.270  1.00  0.00    -0.014 A 
BRANCH  38  39
ATOM     39  C   UNL A   1      37.146  32.770  33.647  1.00  0.00     0.031 A 
ATOM     40  C   UNL A   1      37.868  33.072  34.933  1.00  0.00     0.074 A 
ATOM     41  C   UNL A   1      37.653  31.854  32.798  1.00  0.00     0.049 A 
ATOM     42  N   UNL A   1      39.022  32.626  35.365  1.00  0.00    -0.248 NA
ATOM     43  C   UNL A   1      37.215  34.025  35.843  1.00  0.00     0.031 C 
ATOM     44  C   UNL A   1      37.062  31.471  31.517  1.00  0.00     0.029 A 
ATOM     45  N   UNL A   1      38.797  31.095  32.874  1.00  0.00    -0.354 N 
ATOM     46  C   UNL A   1      39.241  33.257  36.582  1.00  0.00     0.074 A 
ATOM     47  C   UNL A   1      38.125  34.153  36.799  1.00  0.00     0.031 C 
ATOM     48  C   UNL A   1      37.841  30.548  30.930  1.00  0.00     0.029 A 
ATOM     49  C   UNL A   1      39.016  30.314  31.764  1.00  0.00     0.049 A 
ATOM     50  H   UNL A   1      39.404  31.111  33.650  1.00  0.00     0.167 HD
ATOM     51  C   UNL A   1      40.271  33.094  37.448  1.00  0.00     0.037 A 
ATOM     52  C   UNL A   1      40.056  29.520  31.441  1.00  0.00     0.037 A 
ATOM     53  C   UNL A   1      41.372  32.190  37.237  1.00  0.00     0.049 A 
ATOM     54  C   UNL A   1      41.215  29.394  32.396  1.00  0.00     0.074 A 
ATOM     55  C   UNL A   1      42.440  31.923  38.077  1.00  0.00     0.029 A 
ATOM     56  N   UNL A   1      41.551  31.411  36.103  1.00  0.00    -0.354 N 
ATOM     57  N   UNL A   1      41.390  29.962  33.564  1.00  0.00    -0.248 NA
ATOM     58  C   UNL A   1      42.324  28.518  31.988  1.00  0.00     0.031 C 
ATOM     59  C   UNL A   1      43.296  31.030  37.424  1.00  0.00     0.029 A 
ATOM     60  C   UNL A   1      42.727  30.687  36.209  1.00  0.00     0.049 A 
ATOM     61  H   UNL A   1      40.933  31.379  35.336  1.00  0.00     0.167 HD
ATOM     62  C   UNL A   1      42.601  29.482  34.047  1.00  0.00     0.074 A 
ATOM     63  C   UNL A   1      43.120  28.575  33.047  1.00  0.00     0.031 C 
ATOM     64  C   UNL A   1      43.222  29.766  35.217  1.00  0.00     0.037 A 
BRANCH  51  65
ATOM     65  C   UNL A   1      40.267  33.922  38.702  1.00  0.00     0.064 A 
ATOM     66  C   UNL A   1      39.620  33.491  39.871  1.00  0.00     0.173 A 
ATOM     67  C   UNL A   1      40.958  35.144  38.752  1.00  0.00     0.173 A 
ATOM     68  F   UNL A   1      38.940  32.335  39.879  1.00  0.00    -0.203 F 
ATOM     69  C   UNL A   1      39.634  34.267  41.028  1.00  0.00     0.198 A 
ATOM     70  C   UNL A   1      41.001  35.899  39.920  1.00  0.00     0.198 A 
ATOM     71  F   UNL A   1      41.605  35.599  37.669  1.00  0.00    -0.203 F 
ATOM     72  F   UNL A   1      38.960  33.861  42.113  1.00  0.00    -0.200 F 
ATOM     73  C   UNL A   1      40.330  35.466  41.054  1.00  0.00     0.200 A 
ATOM     74  F   UNL A   1      41.691  37.048  39.949  1.00  0.00    -0.200 F 
ATOM     75  F   UNL A   1      40.350  36.207  42.170  1.00  0.00    -0.200 F 
ENDBRANCH  51  65
BRANCH  52  76
ATOM     76  C   UNL A   1      40.055  28.776  30.152  1.00  0.00     0.064 A 
ATOM     77  C   UNL A   1      39.458  27.512  30.050  1.00  0.00     0.173 A 
ATOM     78  C   UNL A   1      40.661  29.303  29.002  1.00  0.00     0.173 A 
ATOM     79  F   UNL A   1      38.885  26.953  31.127  1.00  0.00    -0.203 F 
ATOM     80  C   UNL A   1      39.488  26.793  28.856  1.00  0.00     0.198 A 
ATOM     81  C   UNL A   1      40.661  28.599  27.799  1.00  0.00     0.198 A 
ATOM     82  F   UNL A   1      41.245  30.510  29.042  1.00  0.00    -0.203 F 
ATOM     83  F   UNL A   1      38.958  25.563  28.803  1.00  0.00    -0.200 F 
ATOM     84  C   UNL A   1      40.085  27.340  27.730  1.00  0.00     0.200 A 
ATOM     85  F   UNL A   1      41.224  29.138  26.710  1.00  0.00    -0.200 F 
ATOM     86  F   UNL A   1      40.111  26.651  26.581  1.00  0.00    -0.200 F 
ENDBRANCH  52  76
BRANCH  64  87
ATOM     87  C   UNL A   1      44.506  29.047  35.525  1.00  0.00     0.064 A 
ATOM     88  C   UNL A   1      44.525  27.821  36.206  1.00  0.00     0.173 A 
ATOM     89  C   UNL A   1      45.727  29.555  35.055  1.00  0.00     0.173 A 
ATOM     90  F   UNL A   1      43.388  27.299  36.690  1.00  0.00    -0.203 F 
ATOM     91  C   UNL A   1      45.720  27.138  36.414  1.00  0.00     0.198 A 
ATOM     92  C   UNL A   1      46.915  28.853  35.234  1.00  0.00     0.198 A 
ATOM     93  F   UNL A   1      45.763  30.721  34.391  1.00  0.00    -0.203 F 
ATOM     94  F   UNL A   1      45.720  25.984  37.097  1.00  0.00    -0.200 F 
ATOM     95  C   UNL A   1      46.911  27.647  35.917  1.00  0.00     0.200 A 
ATOM     96  F   UNL A   1      48.060  29.339  34.738  1.00  0.00    -0.200 F 
ATOM     97  F   UNL A   1      48.056  26.975  36.098  1.00  0.00    -0.200 F 
ENDBRANCH  64  87
ENDBRANCH  38  39
ENDBRANCH  30  33
ENDBRANCH  28  29
ENDBRANCH  27  28
ENDBRANCH  26  27
ENDBRANCH   1  26
TORSDOF 16
ENDMDL
MODEL 2
REMARK VINA RESULT:     -11.6      6.858     12.618
REMARK SMILES C[C@H]1CN(S(=O)(=O)N2CCO[C@H](CC(=O)NCCCCCCNC(=O)c3ccc(-c4c5nc(c(-c6c(F)c(F)c(F)c(F)c6F)c6ccc([nH]6)c(-c6c(F)c(F)c(F)c(F)c6F)c6nc(c(-c7c(F)c(F)c(F)c(F)c7F)c7ccc4[nH]7)C=C6)C=C5)cc3)C2)C[C@H](C)O1
REMARK SMILES IDX 19 1 18 2 17 3 16 4 14 5 15 6 13 8 12 9 8 10 9 11 89 12
REMARK SMILES IDX 10 13 11 14 5 15 6 16 7 17 4 18 1 19 2 20 3 21 93 22 91 23
REMARK SMILES IDX 90 24 92 25 20 26 21 27 22 28 23 29 24 30 25 32 26 33 27 34
REMARK SMILES IDX 88 35 28 36 87 37 29 38 30 39 31 40 81 41 32 42 86 43 80 44
REMARK SMILES IDX 82 45 33 46 85 47 79 48 78 49 34 51 66 52 46 53 65 54 47 55
REMARK SMILES IDX 50 56 64 57 83 58 48 59 49 60 63 62 84 63 51 64 35 65 36 66
REMARK SMILES IDX 44 67 37 68 38 69 42 70 45 71 39 72 40 73 43 74 41 75 67 76
REMARK SMILES IDX 68 77 76 78 69 79 70 80 74 81 77 82 71 83 72 84 75 85 73 86
REMARK SMILES IDX 52 87 53 88 61 89 54 90 55 91 59 92 62 93 56 94 57 95 60 96
REMARK SMILES IDX 58 97
REMARK H PARENT 16 7 23 31 82 50 50 61
REMARK Flexibility Score: inf
ROOT
ATOM      1  C   UNL A   1      40.392  21.268  26.971  1.00  0.00     0.002 C 
ENDROOT
BRANCH   1   2
ATOM      2  C   UNL A   1      40.146  22.757  27.227  1.00  0.00     0.021 C 
BRANCH   2   3
ATOM      3  C   UNL A   1      38.942  23.440  26.549  1.00  0.00     0.116 C 
BRANCH   3   4
ATOM      4  N   UNL A   1      38.405  22.621  25.468  1.00  0.00    -0.356 N 
ATOM      5  C   UNL A   1      37.247  22.664  24.752  1.00  0.00     0.222 C 
ATOM      6  O   UNL A   1      37.090  21.800  23.885  1.00  0.00    -0.275 OA
ATOM      7  H   UNL A   1      39.003  21.886  25.200  1.00  0.00     0.163 HD
BRANCH   5   8
ATOM      8  C   UNL A   1      36.169  23.712  24.965  1.00  0.00     0.133 C 
BRANCH   8   9
ATOM      9  C   UNL A   1      34.836  23.193  25.500  1.00  0.00     0.142 C 
ATOM     10  N   UNL A   1      32.625  23.685  26.552  1.00  0.00    -0.184 NA
ATOM     11  C   UNL A   1      32.844  22.582  27.507  1.00  0.00     0.132 C 
ATOM     12  C   UNL A   1      33.881  24.290  26.033  1.00  0.00     0.136 C 
ATOM     13  C   UNL A   1      33.831  21.572  26.914  1.00  0.00     0.177 C 
ATOM     14  O   UNL A   1      35.071  22.199  26.526  1.00  0.00    -0.375 OA
BRANCH  10  15
ATOM     15  S   UNL A   1      31.123  23.950  25.878  1.00  0.00     0.282 S 
ATOM     16  O   UNL A   1      30.236  24.495  26.873  1.00  0.00    -0.195 OA
ATOM     17  O   UNL A   1      30.768  22.785  25.097  1.00  0.00    -0.195 OA
BRANCH  15  18
ATOM     18  N   UNL A   1      31.468  25.183  24.777  1.00  0.00    -0.184 NA
ATOM     19  C   UNL A   1      31.352  28.927  24.757  1.00  0.00     0.040 C 
ATOM     20  C   UNL A   1      31.543  27.503  24.275  1.00  0.00     0.130 C 
ATOM     21  C   UNL A   1      30.717  26.434  24.979  1.00  0.00     0.135 C 
ATOM     22  O   UNL A   1      31.204  27.360  22.887  1.00  0.00    -0.373 OA
ATOM     23  C   UNL A   1      31.648  26.067  22.392  1.00  0.00     0.130 C 
ATOM     24  C   UNL A   1      31.326  24.834  23.319  1.00  0.00     0.135 C 
ATOM     25  C   UNL A   1      33.130  26.185  22.057  1.00  0.00     0.040 C 
ENDBRANCH  15  18
ENDBRANCH  10  15
ENDBRANCH   8   9
ENDBRANCH   5   8
ENDBRANCH   3   4
ENDBRANCH   2   3
ENDBRANCH   1   2
BRANCH   1  26
ATOM     26  C   UNL A   1      41.672  20.884  26.210  1.00  0.00     0.002 C 
BRANCH  26  27
ATOM     27  C   UNL A   1      41.880  19.428  25.761  1.00  0.00     0.021 C 
BRANCH  27  28
ATOM     28  C   UNL A   1      43.177  18.729  26.172  1.00  0.00     0.116 C 
BRANCH  28  29
ATOM     29  N   UNL A   1      44.029  18.449  25.026  1.00  0.00    -0.352 N 
ATOM     30  C   UNL A   1      44.715  19.306  24.198  1.00  0.00     0.251 C 
ATOM     31  H   UNL A   1      44.131  17.494  24.810  1.00  0.00     0.163 HD
ATOM     32  O   UNL A   1      45.170  18.890  23.135  1.00  0.00    -0.269 OA
BRANCH  30  33
ATOM     33  C   UNL A   1      44.913  20.733  24.558  1.00  0.00     0.039 A 
ATOM     34  C   UNL A   1      44.528  21.725  23.648  1.00  0.00     0.014 A 
ATOM     35  C   UNL A   1      45.540  21.100  25.749  1.00  0.00     0.014 A 
ATOM     36  C   UNL A   1      44.708  23.079  23.961  1.00  0.00     0.010 A 
ATOM     37  C   UNL A   1      45.662  22.448  26.090  1.00  0.00     0.010 A 
ATOM     38  C   UNL A   1      45.246  23.455  25.202  1.00  0.00    -0.014 A 
BRANCH  38  39
ATOM     39  C   UNL A   1      45.392  24.883  25.598  1.00  0.00     0.031 A 
ATOM     40  C   UNL A   1      46.739  25.552  25.527  1.00  0.00     0.074 A 
ATOM     41  C   UNL A   1      44.341  25.556  26.107  1.00  0.00     0.049 A 
ATOM     42  N   UNL A   1      47.110  26.727  25.974  1.00  0.00    -0.248 NA
ATOM     43  C   UNL A   1      47.819  24.785  24.891  1.00  0.00     0.031 C 
ATOM     44  C   UNL A   1      42.985  25.026  26.242  1.00  0.00     0.029 A 
ATOM     45  N   UNL A   1      44.253  26.825  26.629  1.00  0.00    -0.354 N 
ATOM     46  C   UNL A   1      48.465  26.830  25.691  1.00  0.00     0.074 A 
ATOM     47  C   UNL A   1      48.863  25.580  25.077  1.00  0.00     0.031 C 
ATOM     48  C   UNL A   1      42.200  25.960  26.803  1.00  0.00     0.029 A 
ATOM     49  C   UNL A   1      43.007  27.135  27.119  1.00  0.00     0.049 A 
ATOM     50  H   UNL A   1      45.012  27.452  26.650  1.00  0.00     0.167 HD
ATOM     51  C   UNL A   1      49.300  27.875  25.908  1.00  0.00     0.037 A 
ATOM     52  C   UNL A   1      42.570  28.229  27.774  1.00  0.00     0.037 A 
ATOM     53  C   UNL A   1      48.897  29.123  26.504  1.00  0.00     0.049 A 
ATOM     54  C   UNL A   1      43.528  29.358  28.051  1.00  0.00     0.074 A 
ATOM     55  C   UNL A   1      49.660  30.258  26.726  1.00  0.00     0.029 A 
ATOM     56  N   UNL A   1      47.623  29.399  26.980  1.00  0.00    -0.354 N 
ATOM     57  N   UNL A   1      44.797  29.461  27.740  1.00  0.00    -0.248 NA
ATOM     58  C   UNL A   1      42.995  30.524  28.774  1.00  0.00     0.031 C 
ATOM     59  C   UNL A   1      48.864  31.196  27.392  1.00  0.00     0.029 A 
ATOM     60  C   UNL A   1      47.588  30.674  27.521  1.00  0.00     0.049 A 
ATOM     61  H   UNL A   1      46.859  28.780  26.940  1.00  0.00     0.167 HD
ATOM     62  C   UNL A   1      45.201  30.713  28.187  1.00  0.00     0.074 A 
ATOM     63  C   UNL A   1      44.044  31.335  28.793  1.00  0.00     0.031 C 
ATOM     64  C   UNL A   1      46.422  31.294  28.099  1.00  0.00     0.037 A 
BRANCH  51  65
ATOM     65  C   UNL A   1      50.741  27.714  25.513  1.00  0.00     0.064 A 
ATOM     66  C   UNL A   1      51.172  27.911  24.191  1.00  0.00     0.173 A 
ATOM     67  C   UNL A   1      51.713  27.402  26.477  1.00  0.00     0.173 A 
ATOM     68  F   UNL A   1      50.285  28.204  23.229  1.00  0.00    -0.203 F 
ATOM     69  C   UNL A   1      52.513  27.765  23.845  1.00  0.00     0.198 A 
ATOM     70  C   UNL A   1      53.058  27.294  26.133  1.00  0.00     0.198 A 
ATOM     71  F   UNL A   1      51.361  27.215  27.758  1.00  0.00    -0.203 F 
ATOM     72  F   UNL A   1      52.891  27.902  22.566  1.00  0.00    -0.200 F 
ATOM     73  C   UNL A   1      53.456  27.465  24.816  1.00  0.00     0.200 A 
ATOM     74  F   UNL A   1      53.969  27.022  27.077  1.00  0.00    -0.200 F 
ATOM     75  F   UNL A   1      54.746  27.334  24.482  1.00  0.00    -0.200 F 
ENDBRANCH  51  65
BRANCH  52  76
ATOM     76  C   UNL A   1      41.151  28.316  28.217  1.00  0.00     0.064 A 
ATOM     77  C   UNL A   1      40.168  28.865  27.381  1.00  0.00     0.173 A 
ATOM     78  C   UNL A   1      40.750  27.868  29.484  1.00  0.00     0.173 A 
ATOM     79  F   UNL A   1      40.504  29.330  26.168  1.00  0.00    -0.203 F 
ATOM     80  C   UNL A   1      38.846  28.986  27.805  1.00  0.00     0.198 A 
ATOM     81  C   UNL A   1      39.422  27.958  29.894  1.00  0.00     0.198 A 
ATOM     82  F   UNL A   1      41.649  27.332  30.323  1.00  0.00    -0.203 F 
ATOM     83  F   UNL A   1      37.938  29.566  27.007  1.00  0.00    -0.200 F 
ATOM     84  C   UNL A   1      38.472  28.526  29.059  1.00  0.00     0.200 A 
ATOM     85  F   UNL A   1      39.062  27.497  31.100  1.00  0.00    -0.200 F 
ATOM     86  F   UNL A   1      37.201  28.639  29.465  1.00  0.00    -0.200 F 
ENDBRANCH  52  76
BRANCH  64  87
ATOM     87  C   UNL A   1      46.571  32.699  28.609  1.00  0.00     0.064 A 
ATOM     88  C   UNL A   1      46.403  33.814  27.775  1.00  0.00     0.173 A 
ATOM     89  C   UNL A   1      46.804  32.932  29.974  1.00  0.00     0.173 A 
ATOM     90  F   UNL A   1      46.194  33.648  26.459  1.00  0.00    -0.203 F 
ATOM     91  C   UNL A   1      46.472  35.107  28.286  1.00  0.00     0.198 A 
ATOM     92  C   UNL A   1      46.839  34.225  30.488  1.00  0.00     0.198 A 
ATOM     93  F   UNL A   1      46.966  31.901  30.817  1.00  0.00    -0.203 F 
ATOM     94  F   UNL A   1      46.341  36.158  27.465  1.00  0.00    -0.200 F 
ATOM     95  C   UNL A   1      46.677  35.311  29.643  1.00  0.00     0.200 A 
ATOM     96  F   UNL A   1      47.019  34.418  31.801  1.00  0.00    -0.200 F 
ATOM     97  F   UNL A   1      46.719  36.556  30.136  1.00  0.00    -0.200 F 
ENDBRANCH  64  87
ENDBRANCH  38  39
ENDBRANCH  30  33
ENDBRANCH  28  29
ENDBRANCH  27  28
ENDBRANCH  26  27
ENDBRANCH   1  26
TORSDOF 16
ENDMDL
MODEL 3
REMARK VINA RESULT:     -11.5      0.951      2.229
REMARK SMILES C[C@H]1CN(S(=O)(=O)N2CCO[C@H](CC(=O)NCCCCCCNC(=O)c3ccc(-c4c5nc(c(-c6c(F)c(F)c(F)c(F)c6F)c6ccc([nH]6)c(-c6c(F)c(F)c(F)c(F)c6F)c6nc(c(-c7c(F)c(F)c(F)c(F)c7F)c7ccc4[nH]7)C=C6)C=C5)cc3)C2)C[C@H](C)O1
REMARK SMILES IDX 19 1 18 2 17 3 16 4 14 5 15 6 13 8 12 9 8 10 9 11 89 12
REMARK SMILES IDX 10 13 11 14 5 15 6 16 7 17 4 18 1 19 2 20 3 21 93 22 91 23
REMARK SMILES IDX 90 24 92 25 20 26 21 27 22 28 23 29 24 30 25 32 26 33 27 34
REMARK SMILES IDX 88 35 28 36 87 37 29 38 30 39 31 40 81 41 32 42 86 43 80 44
REMARK SMILES IDX 82 45 33 46 85 47 79 48 78 49 34 51 66 52 46 53 65 54 47 55
REMARK SMILES IDX 50 56 64 57 83 58 48 59 49 60 63 62 84 63 51 64 35 65 36 66
REMARK SMILES IDX 44 67 37 68 38 69 42 70 45 71 39 72 40 73 43 74 41 75 67 76
REMARK SMILES IDX 68 77 76 78 69 79 70 80 74 81 77 82 71 83 72 84 75 85 73 86
REMARK SMILES IDX 52 87 53 88 61 89 54 90 55 91 59 92 62 93 56 94 57 95 60 96
REMARK SMILES IDX 58 97
REMARK H PARENT 16 7 23 31 82 50 50 61
REMARK Flexibility Score: inf
ROOT
ATOM      1  C   UNL A   1      35.167  32.843  28.654  1.00  0.00     0.002 C 
ENDROOT
BRANCH   1   2
ATOM      2  C   UNL A   1      34.725  31.391  28.446  1.00  0.00     0.021 C 
BRANCH   2   3
ATOM      3  C   UNL A   1      33.837  31.051  27.233  1.00  0.00     0.116 C 
BRANCH   3   4
ATOM      4  N   UNL A   1      32.760  30.139  27.601  1.00  0.00    -0.356 N 
ATOM      5  C   UNL A   1      32.534  28.818  27.360  1.00  0.00     0.222 C 
ATOM      6  O   UNL A   1      31.496  28.333  27.819  1.00  0.00    -0.275 OA
ATOM      7  H   UNL A   1      32.050  30.567  28.132  1.00  0.00     0.163 HD
BRANCH   5   8
ATOM      8  C   UNL A   1      33.487  27.933  26.576  1.00  0.00     0.133 C 
BRANCH   8   9
ATOM      9  C   UNL A   1      33.154  27.745  25.098  1.00  0.00     0.142 C 
ATOM     10  N   UNL A   1      33.480  26.450  22.988  1.00  0.00    -0.184 NA
ATOM     11  C   UNL A   1      33.661  27.715  22.250  1.00  0.00     0.132 C 
ATOM     12  C   UNL A   1      33.848  26.535  24.426  1.00  0.00     0.136 C 
ATOM     13  C   UNL A   1      32.980  28.859  23.008  1.00  0.00     0.177 C 
ATOM     14  O   UNL A   1      33.456  28.958  24.368  1.00  0.00    -0.375 OA
BRANCH  10  15
ATOM     15  S   UNL A   1      32.610  25.189  22.327  1.00  0.00     0.282 S 
ATOM     16  O   UNL A   1      33.345  24.621  21.227  1.00  0.00    -0.195 OA
ATOM     17  O   UNL A   1      31.236  25.617  22.186  1.00  0.00    -0.195 OA
BRANCH  15  18
ATOM     18  N   UNL A   1      32.641  24.070  23.590  1.00  0.00    -0.184 NA
ATOM     19  C   UNL A   1      34.886  21.288  24.709  1.00  0.00     0.040 C 
ATOM     20  C   UNL A   1      33.708  22.240  24.665  1.00  0.00     0.130 C 
ATOM     21  C   UNL A   1      33.352  22.813  23.298  1.00  0.00     0.135 C 
ATOM     22  O   UNL A   1      32.498  21.613  25.116  1.00  0.00    -0.373 OA
ATOM     23  C   UNL A   1      31.460  22.611  25.317  1.00  0.00     0.130 C 
ATOM     24  C   UNL A   1      31.306  23.677  24.166  1.00  0.00     0.135 C 
ATOM     25  C   UNL A   1      31.686  23.244  26.684  1.00  0.00     0.040 C 
ENDBRANCH  15  18
ENDBRANCH  10  15
ENDBRANCH   8   9
ENDBRANCH   5   8
ENDBRANCH   3   4
ENDBRANCH   2   3
ENDBRANCH   1   2
BRANCH   1  26
ATOM     26  C   UNL A   1      34.303  33.943  28.016  1.00  0.00     0.002 C 
BRANCH  26  27
ATOM     27  C   UNL A   1      33.151  34.566  28.822  1.00  0.00     0.021 C 
BRANCH  27  28
ATOM     28  C   UNL A   1      33.271  36.036  29.225  1.00  0.00     0.116 C 
BRANCH  28  29
ATOM     29  N   UNL A   1      32.545  36.324  30.452  1.00  0.00    -0.352 N 
ATOM     30  C   UNL A   1      32.676  35.783  31.710  1.00  0.00     0.251 C 
ATOM     31  H   UNL A   1      31.849  37.016  30.369  1.00  0.00     0.163 HD
ATOM     32  O   UNL A   1      31.798  35.976  32.548  1.00  0.00    -0.269 OA
BRANCH  30  33
ATOM     33  C   UNL A   1      33.856  34.963  32.078  1.00  0.00     0.039 A 
ATOM     34  C   UNL A   1      35.134  35.529  31.990  1.00  0.00     0.014 A 
ATOM     35  C   UNL A   1      33.724  33.621  32.438  1.00  0.00     0.014 A 
ATOM     36  C   UNL A   1      36.266  34.775  32.328  1.00  0.00     0.010 A 
ATOM     37  C   UNL A   1      34.844  32.888  32.835  1.00  0.00     0.010 A 
ATOM     38  C   UNL A   1      36.128  33.456  32.787  1.00  0.00    -0.014 A 
BRANCH  38  39
ATOM     39  C   UNL A   1      37.301  32.644  33.217  1.00  0.00     0.031 A 
ATOM     40  C   UNL A   1      37.991  32.946  34.521  1.00  0.00     0.074 A 
ATOM     41  C   UNL A   1      37.804  31.697  32.402  1.00  0.00     0.049 A 
ATOM     42  N   UNL A   1      39.115  32.469  34.999  1.00  0.00    -0.248 NA
ATOM     43  C   UNL A   1      37.341  33.937  35.393  1.00  0.00     0.031 C 
ATOM     44  C   UNL A   1      37.242  31.310  31.109  1.00  0.00     0.029 A 
ATOM     45  N   UNL A   1      38.919  30.901  32.529  1.00  0.00    -0.354 N 
ATOM     46  C   UNL A   1      39.314  33.115  36.212  1.00  0.00     0.074 A 
ATOM     47  C   UNL A   1      38.223  34.052  36.376  1.00  0.00     0.031 C 
ATOM     48  C   UNL A   1      38.008  30.351  30.564  1.00  0.00     0.029 A 
ATOM     49  C   UNL A   1      39.147  30.093  31.441  1.00  0.00     0.049 A 
ATOM     50  H   UNL A   1      39.500  30.911  33.324  1.00  0.00     0.167 HD
ATOM     51  C   UNL A   1      40.309  32.934  37.114  1.00  0.00     0.037 A 
ATOM     52  C   UNL A   1      40.169  29.259  31.167  1.00  0.00     0.037 A 
ATOM     53  C   UNL A   1      41.386  31.990  36.955  1.00  0.00     0.049 A 
ATOM     54  C   UNL A   1      41.291  29.112  32.161  1.00  0.00     0.074 A 
ATOM     55  C   UNL A   1      42.416  31.702  37.835  1.00  0.00     0.029 A 
ATOM     56  N   UNL A   1      41.574  31.185  35.841  1.00  0.00    -0.354 N 
ATOM     57  N   UNL A   1      41.447  29.695  33.324  1.00  0.00    -0.248 NA
ATOM     58  C   UNL A   1      42.383  28.192  31.805  1.00  0.00     0.031 C 
ATOM     59  C   UNL A   1      43.262  30.770  37.226  1.00  0.00     0.029 A 
ATOM     60  C   UNL A   1      42.721  30.423  35.999  1.00  0.00     0.049 A 
ATOM     61  H   UNL A   1      40.982  31.159  35.056  1.00  0.00     0.167 HD
ATOM     62  C   UNL A   1      42.625  29.184  33.855  1.00  0.00     0.074 A 
ATOM     63  C   UNL A   1      43.146  28.241  32.889  1.00  0.00     0.031 C 
ATOM     64  C   UNL A   1      43.217  29.468  35.041  1.00  0.00     0.037 A 
BRANCH  51  65
ATOM     65  C   UNL A   1      40.293  33.784  38.353  1.00  0.00     0.064 A 
ATOM     66  C   UNL A   1      41.016  34.985  38.437  1.00  0.00     0.173 A 
ATOM     67  C   UNL A   1      39.506  33.418  39.458  1.00  0.00     0.173 A 
ATOM     68  F   UNL A   1      41.788  35.380  37.414  1.00  0.00    -0.203 F 
ATOM     69  C   UNL A   1      40.982  35.765  39.590  1.00  0.00     0.198 A 
ATOM     70  C   UNL A   1      39.445  34.219  40.594  1.00  0.00     0.198 A 
ATOM     71  F   UNL A   1      38.784  32.288  39.429  1.00  0.00    -0.203 F 
ATOM     72  F   UNL A   1      41.726  36.876  39.667  1.00  0.00    -0.200 F 
ATOM     73  C   UNL A   1      40.191  35.386  40.665  1.00  0.00     0.200 A 
ATOM     74  F   UNL A   1      38.665  33.861  41.624  1.00  0.00    -0.200 F 
ATOM     75  F   UNL A   1      40.153  36.142  41.770  1.00  0.00    -0.200 F 
ENDBRANCH  51  65
BRANCH  52  76
ATOM     76  C   UNL A   1      40.185  28.491  29.890  1.00  0.00     0.064 A 
ATOM     77  C   UNL A   1      40.836  28.994  28.756  1.00  0.00     0.173 A 
ATOM     78  C   UNL A   1      39.539  27.252  29.773  1.00  0.00     0.173 A 
ATOM     79  F   UNL A   1      41.449  30.187  28.809  1.00  0.00    -0.203 F 
ATOM     80  C   UNL A   1      40.821  28.300  27.547  1.00  0.00     0.198 A 
ATOM     81  C   UNL A   1      39.553  26.542  28.575  1.00  0.00     0.198 A 
ATOM     82  F   UNL A   1      38.902  26.722  30.829  1.00  0.00    -0.203 F 
ATOM     83  F   UNL A   1      41.404  28.831  26.464  1.00  0.00    -0.200 F 
ATOM     84  C   UNL A   1      40.184  27.071  27.459  1.00  0.00     0.200 A 
ATOM     85  F   UNL A   1      38.951  25.347  28.499  1.00  0.00    -0.200 F 
ATOM     86  F   UNL A   1      40.172  26.402  26.299  1.00  0.00    -0.200 F 
ENDBRANCH  52  76
BRANCH  64  87
ATOM     87  C   UNL A   1      44.465  28.713  35.403  1.00  0.00     0.064 A 
ATOM     88  C   UNL A   1      45.744  29.201  35.097  1.00  0.00     0.173 A 
ATOM     89  C   UNL A   1      44.377  27.522  36.142  1.00  0.00     0.173 A 
ATOM     90  F   UNL A   1      45.883  30.326  34.379  1.00  0.00    -0.203 F 
ATOM     91  C   UNL A   1      46.886  28.520  35.508  1.00  0.00     0.198 A 
ATOM     92  C   UNL A   1      45.521  26.862  36.580  1.00  0.00     0.198 A 
ATOM     93  F   UNL A   1      43.178  27.015  36.466  1.00  0.00    -0.203 F 
ATOM     94  F   UNL A   1      48.098  28.986  35.177  1.00  0.00    -0.200 F 
ATOM     95  C   UNL A   1      46.774  27.359  36.260  1.00  0.00     0.200 A 
ATOM     96  F   UNL A   1      45.409  25.751  37.320  1.00  0.00    -0.200 F 
ATOM     97  F   UNL A   1      47.876  26.719  36.675  1.00  0.00    -0.200 F 
ENDBRANCH  64  87
ENDBRANCH  38  39
ENDBRANCH  30  33
ENDBRANCH  28  29
ENDBRANCH  27  28
ENDBRANCH  26  27
ENDBRANCH   1  26
TORSDOF 16
ENDMDL
