MODEL 1
REMARK VINA RESULT:     -11.2      0.000      0.000
REMARK SMILES O=C(NCCCCCCNC(=O)[C@]1([NH2+]C2CC2)CCC[C@H](SC[C@H](O)CO)C1)c1ccc(-c2c3nc(c(-c4c(F)c(F)c(F)c(F)c4F)c4ccc([nH]4)c(-c4c(F)c(F)c(F)c(F)c4F)c4nc(c(-c5c(F)c(F)c(F)c(F)c5F)c5ccc2[nH]5)C=C4)C=C3)cc1
REMARK SMILES IDX 8 1 7 2 6 3 5 4 4 5 3 6 1 7 2 8 29 10 30 11 91 12 31 13
REMARK SMILES IDX 90 14 32 15 33 16 34 17 84 18 35 19 89 20 83 21 85 22 36 23
REMARK SMILES IDX 88 24 82 25 81 26 37 28 69 29 49 30 68 31 50 32 53 33 67 34
REMARK SMILES IDX 86 35 51 36 52 37 66 39 87 40 54 41 38 42 39 43 47 44 40 45
REMARK SMILES IDX 41 46 45 47 48 48 42 49 43 50 46 51 44 52 70 53 71 54 79 55
REMARK SMILES IDX 72 56 73 57 77 58 80 59 74 60 75 61 78 62 76 63 55 64 56 65
REMARK SMILES IDX 64 66 57 67 58 68 62 69 65 70 59 71 60 72 63 73 61 74 9 75
REMARK SMILES IDX 10 76 11 77 12 79 13 80 18 81 28 82 19 83 21 84 20 85 14 86
REMARK SMILES IDX 15 89 16 90 17 91 22 92 23 93 24 94 26 95 27 96 25 98
REMARK H PARENT 3 9 85 27 53 38 10 78 14 87 14 88 27 97 25 99
REMARK Flexibility Score: inf
ROOT
ATOM      1  C   UNL A   1      31.783  28.547  27.476  1.00  0.00     0.021 C 
ENDROOT
BRANCH   1   2
ATOM      2  C   UNL A   1      32.330  29.909  27.038  1.00  0.00     0.002 C 
BRANCH   2   3
ATOM      3  C   UNL A   1      31.439  30.753  26.122  1.00  0.00     0.002 C 
BRANCH   3   4
ATOM      4  C   UNL A   1      31.300  32.231  26.482  1.00  0.00     0.021 C 
BRANCH   4   5
ATOM      5  C   UNL A   1      32.462  32.831  27.261  1.00  0.00     0.116 C 
BRANCH   5   6
ATOM      6  N   UNL A   1      32.249  34.219  27.629  1.00  0.00    -0.352 N 
ATOM      7  O   UNL A   1      32.542  36.105  28.838  1.00  0.00    -0.269 OA
ATOM      8  C   UNL A   1      32.917  34.974  28.564  1.00  0.00     0.251 C 
ATOM      9  H   UNL A   1      31.530  34.683  27.143  1.00  0.00     0.163 HD
BRANCH   8  10
ATOM     10  C   UNL A   1      34.093  34.399  29.255  1.00  0.00     0.039 A 
ATOM     11  C   UNL A   1      33.939  33.655  30.428  1.00  0.00     0.014 A 
ATOM     12  C   UNL A   1      35.363  34.589  28.703  1.00  0.00     0.014 A 
ATOM     13  C   UNL A   1      35.058  33.186  31.103  1.00  0.00     0.010 A 
ATOM     14  C   UNL A   1      36.483  34.045  29.338  1.00  0.00     0.010 A 
ATOM     15  C   UNL A   1      36.338  33.342  30.544  1.00  0.00    -0.014 A 
BRANCH  15  16
ATOM     16  C   UNL A   1      37.487  32.634  31.156  1.00  0.00     0.031 A 
ATOM     17  C   UNL A   1      38.153  31.478  30.471  1.00  0.00     0.074 A 
ATOM     18  C   UNL A   1      37.906  33.047  32.369  1.00  0.00     0.049 A 
ATOM     19  N   UNL A   1      39.137  30.727  30.899  1.00  0.00    -0.248 NA
ATOM     20  C   UNL A   1      37.653  31.108  29.138  1.00  0.00     0.031 C 
ATOM     21  C   UNL A   1      37.310  34.149  33.131  1.00  0.00     0.029 A 
ATOM     22  N   UNL A   1      38.915  32.594  33.179  1.00  0.00    -0.354 N 
ATOM     23  C   UNL A   1      39.359  29.784  29.904  1.00  0.00     0.074 A 
ATOM     24  C   UNL A   1      38.403  30.050  28.851  1.00  0.00     0.031 C 
ATOM     25  C   UNL A   1      37.974  34.298  34.286  1.00  0.00     0.029 A 
ATOM     26  C   UNL A   1      38.991  33.258  34.379  1.00  0.00     0.049 A 
ATOM     27  H   UNL A   1      39.525  31.864  32.926  1.00  0.00     0.167 HD
ATOM     28  C   UNL A   1      40.282  28.793  29.885  1.00  0.00     0.037 A 
ATOM     29  C   UNL A   1      39.762  33.030  35.457  1.00  0.00     0.037 A 
ATOM     30  C   UNL A   1      41.241  28.558  30.935  1.00  0.00     0.049 A 
ATOM     31  C   UNL A   1      40.746  31.896  35.412  1.00  0.00     0.074 A 
ATOM     32  C   UNL A   1      42.273  27.635  30.966  1.00  0.00     0.029 A 
ATOM     33  N   UNL A   1      41.275  29.236  32.144  1.00  0.00    -0.354 N 
ATOM     34  N   UNL A   1      41.004  31.066  34.432  1.00  0.00    -0.248 NA
ATOM     35  C   UNL A   1      41.540  31.660  36.624  1.00  0.00     0.031 C 
ATOM     36  C   UNL A   1      42.887  27.709  32.220  1.00  0.00     0.029 A 
ATOM     37  C   UNL A   1      42.277  28.717  32.948  1.00  0.00     0.049 A 
ATOM     38  H   UNL A   1      40.677  29.978  32.393  1.00  0.00     0.167 HD
ATOM     39  C   UNL A   1      41.992  30.216  34.904  1.00  0.00     0.074 A 
ATOM     40  C   UNL A   1      42.313  30.653  36.246  1.00  0.00     0.031 C 
ATOM     41  C   UNL A   1      42.576  29.160  34.285  1.00  0.00     0.037 A 
BRANCH  28  42
ATOM     42  C   UNL A   1      40.305  27.861  28.709  1.00  0.00     0.064 A 
ATOM     43  C   UNL A   1      41.050  28.142  27.555  1.00  0.00     0.173 A 
ATOM     44  C   UNL A   1      39.664  26.614  28.788  1.00  0.00     0.173 A 
ATOM     45  F   UNL A   1      41.679  29.319  27.427  1.00  0.00    -0.203 F 
ATOM     46  C   UNL A   1      41.148  27.211  26.522  1.00  0.00     0.198 A 
ATOM     47  C   UNL A   1      39.784  25.677  27.765  1.00  0.00     0.198 A 
ATOM     48  F   UNL A   1      38.945  26.292  29.874  1.00  0.00    -0.203 F 
ATOM     49  F   UNL A   1      41.852  27.507  25.421  1.00  0.00    -0.200 F 
ATOM     50  C   UNL A   1      40.526  25.977  26.634  1.00  0.00     0.200 A 
ATOM     51  F   UNL A   1      39.194  24.479  27.882  1.00  0.00    -0.200 F 
ATOM     52  F   UNL A   1      40.643  25.074  25.650  1.00  0.00    -0.200 F 
ENDBRANCH  28  42
BRANCH  29  53
ATOM     53  C   UNL A   1      39.595  33.855  36.682  1.00  0.00     0.064 A 
ATOM     54  C   UNL A   1      38.793  33.422  37.745  1.00  0.00     0.173 A 
ATOM     55  C   UNL A   1      40.221  35.105  36.805  1.00  0.00     0.173 A 
ATOM     56  F   UNL A   1      38.159  32.242  37.669  1.00  0.00    -0.203 F 
ATOM     57  C   UNL A   1      38.597  34.222  38.869  1.00  0.00     0.198 A 
ATOM     58  C   UNL A   1      40.054  35.887  37.944  1.00  0.00     0.198 A 
ATOM     59  F   UNL A   1      41.005  35.565  35.818  1.00  0.00    -0.203 F 
ATOM     60  F   UNL A   1      37.774  33.811  39.844  1.00  0.00    -0.200 F 
ATOM     61  C   UNL A   1      39.231  35.451  38.971  1.00  0.00     0.200 A 
ATOM     62  F   UNL A   1      40.686  37.064  38.045  1.00  0.00    -0.200 F 
ATOM     63  F   UNL A   1      39.041  36.218  40.051  1.00  0.00    -0.200 F 
ENDBRANCH  29  53
BRANCH  41  64
ATOM     64  C   UNL A   1      43.622  28.411  35.056  1.00  0.00     0.064 A 
ATOM     65  C   UNL A   1      43.289  27.302  35.848  1.00  0.00     0.173 A 
ATOM     66  C   UNL A   1      44.973  28.781  34.973  1.00  0.00     0.173 A 
ATOM     67  F   UNL A   1      42.009  26.923  35.976  1.00  0.00    -0.203 F 
ATOM     68  C   UNL A   1      44.270  26.602  36.545  1.00  0.00     0.198 A 
ATOM     69  C   UNL A   1      45.953  28.059  35.645  1.00  0.00     0.198 A 
ATOM     70  F   UNL A   1      45.341  29.833  34.226  1.00  0.00    -0.203 F 
ATOM     71  F   UNL A   1      43.925  25.576  37.333  1.00  0.00    -0.200 F 
ATOM     72  C   UNL A   1      45.602  26.975  36.435  1.00  0.00     0.200 A 
ATOM     73  F   UNL A   1      47.242  28.412  35.527  1.00  0.00    -0.200 F 
ATOM     74  F   UNL A   1      46.546  26.293  37.098  1.00  0.00    -0.200 F 
ENDBRANCH  41  64
ENDBRANCH  15  16
ENDBRANCH   8  10
ENDBRANCH   5   6
ENDBRANCH   4   5
ENDBRANCH   3   4
ENDBRANCH   2   3
ENDBRANCH   1   2
BRANCH   1  75
ATOM     75  C   UNL A   1      32.442  27.323  26.850  1.00  0.00     0.116 C 
BRANCH  75  76
ATOM     76  N   UNL A   1      31.662  26.106  26.943  1.00  0.00    -0.351 N 
ATOM     77  C   UNL A   1      31.157  25.309  25.946  1.00  0.00     0.281 C 
ATOM     78  H   UNL A   1      31.464  25.805  27.859  1.00  0.00     0.163 HD
ATOM     79  O   UNL A   1      30.633  24.246  26.302  1.00  0.00    -0.268 OA
BRANCH  77  80
ATOM     80  C   UNL A   1      31.167  25.751  24.433  1.00  0.00     0.176 C 
ATOM     81  C   UNL A   1      30.392  24.731  23.539  1.00  0.00     0.079 C 
ATOM     82  C   UNL A   1      32.601  25.899  23.824  1.00  0.00     0.093 C 
ATOM     83  C   UNL A   1      31.141  23.439  23.222  1.00  0.00     0.008 C 
ATOM     84  C   UNL A   1      33.374  24.561  23.624  1.00  0.00     0.053 C 
ATOM     85  C   UNL A   1      32.530  23.715  22.671  1.00  0.00     0.015 C 
BRANCH  80  86
ATOM     86  N   UNL A   1      30.433  27.072  24.371  1.00  0.00    -0.331 N 
ATOM     87  H   UNL A   1      30.961  27.762  24.905  1.00  0.00     0.347 HD
ATOM     88  H   UNL A   1      29.501  26.920  24.756  1.00  0.00     0.347 HD
BRANCH  86  89
ATOM     89  C   UNL A   1      30.263  27.578  22.983  1.00  0.00     0.183 C 
ATOM     90  C   UNL A   1      29.282  28.686  22.717  1.00  0.00     0.071 C 
ATOM     91  C   UNL A   1      30.752  28.939  22.585  1.00  0.00     0.071 C 
ENDBRANCH  86  89
ENDBRANCH  80  86
BRANCH  84  92
ATOM     92  S   UNL A   1      33.750  23.788  25.264  1.00  0.00    -0.156 SA
BRANCH  92  93
ATOM     93  C   UNL A   1      33.791  21.983  25.001  1.00  0.00     0.104 C 
BRANCH  93  94
ATOM     94  C   UNL A   1      32.815  21.165  25.847  1.00  0.00     0.149 C 
BRANCH  94  95
ATOM     95  C   UNL A   1      32.797  19.709  25.376  1.00  0.00     0.188 C 
BRANCH  95  96
ATOM     96  O   UNL A   1      32.904  18.835  26.497  1.00  0.00    -0.394 OA
ATOM     97  H   UNL A   1      33.278  19.319  27.249  1.00  0.00     0.210 HD
ENDBRANCH  95  96
ENDBRANCH  94  95
BRANCH  94  98
ATOM     98  O   UNL A   1      33.237  21.166  27.222  1.00  0.00    -0.390 OA
ATOM     99  H   UNL A   1      33.139  20.274  27.592  1.00  0.00     0.211 HD
ENDBRANCH  94  98
ENDBRANCH  93  94
ENDBRANCH  92  93
ENDBRANCH  84  92
ENDBRANCH  77  80
ENDBRANCH  75  76
ENDBRANCH   1  75
TORSDOF 21
ENDMDL
MODEL 2
REMARK VINA RESULT:     -11.2      0.607      1.699
REMARK SMILES O=C(NCCCCCCNC(=O)[C@]1([NH2+]C2CC2)CCC[C@H](SC[C@H](O)CO)C1)c1ccc(-c2c3nc(c(-c4c(F)c(F)c(F)c(F)c4F)c4ccc([nH]4)c(-c4c(F)c(F)c(F)c(F)c4F)c4nc(c(-c5c(F)c(F)c(F)c(F)c5F)c5ccc2[nH]5)C=C4)C=C3)cc1
REMARK SMILES IDX 8 1 7 2 6 3 5 4 4 5 3 6 1 7 2 8 29 10 30 11 91 12 31 13
REMARK SMILES IDX 90 14 32 15 33 16 34 17 84 18 35 19 89 20 83 21 85 22 36 23
REMARK SMILES IDX 88 24 82 25 81 26 37 28 69 29 49 30 68 31 50 32 53 33 67 34
REMARK SMILES IDX 86 35 51 36 52 37 66 39 87 40 54 41 38 42 39 43 47 44 40 45
REMARK SMILES IDX 41 46 45 47 48 48 42 49 43 50 46 51 44 52 70 53 71 54 79 55
REMARK SMILES IDX 72 56 73 57 77 58 80 59 74 60 75 61 78 62 76 63 55 64 56 65
REMARK SMILES IDX 64 66 57 67 58 68 62 69 65 70 59 71 60 72 63 73 61 74 9 75
REMARK SMILES IDX 10 76 11 77 12 79 13 80 18 81 28 82 19 83 21 84 20 85 14 86
REMARK SMILES IDX 15 89 16 90 17 91 22 92 23 93 24 94 26 95 27 96 25 98
REMARK H PARENT 3 9 85 27 53 38 10 78 14 87 14 88 27 97 25 99
REMARK Flexibility Score: inf
ROOT
ATOM      1  C   UNL A   1      33.679  29.076  26.610  1.00  0.00     0.021 C 
ENDROOT
BRANCH   1   2
ATOM      2  C   UNL A   1      32.335  29.665  27.052  1.00  0.00     0.002 C 
BRANCH   2   3
ATOM      3  C   UNL A   1      31.686  30.688  26.115  1.00  0.00     0.002 C 
BRANCH   3   4
ATOM      4  C   UNL A   1      31.426  32.075  26.700  1.00  0.00     0.021 C 
BRANCH   4   5
ATOM      5  C   UNL A   1      32.646  32.794  27.257  1.00  0.00     0.116 C 
BRANCH   5   6
ATOM      6  N   UNL A   1      32.379  34.171  27.633  1.00  0.00    -0.352 N 
ATOM      7  O   UNL A   1      32.576  36.051  28.870  1.00  0.00    -0.269 OA
ATOM      8  C   UNL A   1      32.995  34.936  28.595  1.00  0.00     0.251 C 
ATOM      9  H   UNL A   1      31.659  34.617  27.131  1.00  0.00     0.163 HD
BRANCH   8  10
ATOM     10  C   UNL A   1      34.169  34.391  29.313  1.00  0.00     0.039 A 
ATOM     11  C   UNL A   1      34.017  33.744  30.542  1.00  0.00     0.014 A 
ATOM     12  C   UNL A   1      35.435  34.509  28.731  1.00  0.00     0.014 A 
ATOM     13  C   UNL A   1      35.137  33.304  31.237  1.00  0.00     0.010 A 
ATOM     14  C   UNL A   1      36.552  33.992  29.392  1.00  0.00     0.010 A 
ATOM     15  C   UNL A   1      36.410  33.388  30.651  1.00  0.00    -0.014 A 
BRANCH  15  16
ATOM     16  C   UNL A   1      37.554  32.705  31.301  1.00  0.00     0.031 A 
ATOM     17  C   UNL A   1      38.243  31.539  30.656  1.00  0.00     0.074 A 
ATOM     18  C   UNL A   1      37.944  33.149  32.513  1.00  0.00     0.049 A 
ATOM     19  N   UNL A   1      39.225  30.807  31.120  1.00  0.00    -0.248 NA
ATOM     20  C   UNL A   1      37.773  31.135  29.322  1.00  0.00     0.031 C 
ATOM     21  C   UNL A   1      37.324  34.262  33.237  1.00  0.00     0.029 A 
ATOM     22  N   UNL A   1      38.942  32.724  33.353  1.00  0.00    -0.354 N 
ATOM     23  C   UNL A   1      39.475  29.845  30.152  1.00  0.00     0.074 A 
ATOM     24  C   UNL A   1      38.537  30.078  29.075  1.00  0.00     0.031 C 
ATOM     25  C   UNL A   1      37.964  34.443  34.402  1.00  0.00     0.029 A 
ATOM     26  C   UNL A   1      38.988  33.415  34.538  1.00  0.00     0.049 A 
ATOM     27  H   UNL A   1      39.563  31.994  33.128  1.00  0.00     0.167 HD
ATOM     28  C   UNL A   1      40.406  28.862  30.173  1.00  0.00     0.037 A 
ATOM     29  C   UNL A   1      39.740  33.219  35.636  1.00  0.00     0.037 A 
ATOM     30  C   UNL A   1      41.347  28.659  31.246  1.00  0.00     0.049 A 
ATOM     31  C   UNL A   1      40.735  32.093  35.636  1.00  0.00     0.074 A 
ATOM     32  C   UNL A   1      42.385  27.747  31.319  1.00  0.00     0.029 A 
ATOM     33  N   UNL A   1      41.351  29.365  32.440  1.00  0.00    -0.354 N 
ATOM     34  N   UNL A   1      41.019  31.243  34.680  1.00  0.00    -0.248 NA
ATOM     35  C   UNL A   1      41.507  31.892  36.868  1.00  0.00     0.031 C 
ATOM     36  C   UNL A   1      42.974  27.854  32.582  1.00  0.00     0.029 A 
ATOM     37  C   UNL A   1      42.341  28.874  33.276  1.00  0.00     0.049 A 
ATOM     38  H   UNL A   1      40.742  30.107  32.661  1.00  0.00     0.167 HD
ATOM     39  C   UNL A   1      42.005  30.413  35.190  1.00  0.00     0.074 A 
ATOM     40  C   UNL A   1      42.296  30.884  36.529  1.00  0.00     0.031 C 
ATOM     41  C   UNL A   1      42.610  29.350  34.608  1.00  0.00     0.037 A 
BRANCH  28  42
ATOM     42  C   UNL A   1      40.461  27.903  29.019  1.00  0.00     0.064 A 
ATOM     43  C   UNL A   1      39.678  26.741  28.983  1.00  0.00     0.173 A 
ATOM     44  C   UNL A   1      41.225  28.216  27.882  1.00  0.00     0.173 A 
ATOM     45  F   UNL A   1      38.933  26.396  30.043  1.00  0.00    -0.203 F 
ATOM     46  C   UNL A   1      39.660  25.925  27.854  1.00  0.00     0.198 A 
ATOM     47  C   UNL A   1      41.186  27.410  26.747  1.00  0.00     0.198 A 
ATOM     48  F   UNL A   1      41.985  29.321  27.863  1.00  0.00    -0.203 F 
ATOM     49  F   UNL A   1      38.916  24.810  27.847  1.00  0.00    -0.200 F 
ATOM     50  C   UNL A   1      40.404  26.267  26.734  1.00  0.00     0.200 A 
ATOM     51  F   UNL A   1      41.894  27.751  25.661  1.00  0.00    -0.200 F 
ATOM     52  F   UNL A   1      40.365  25.493  25.640  1.00  0.00    -0.200 F 
ENDBRANCH  28  42
BRANCH  29  53
ATOM     53  C   UNL A   1      39.541  34.069  36.839  1.00  0.00     0.064 A 
ATOM     54  C   UNL A   1      40.140  35.331  36.943  1.00  0.00     0.173 A 
ATOM     55  C   UNL A   1      38.763  33.625  37.920  1.00  0.00     0.173 A 
ATOM     56  F   UNL A   1      40.907  35.793  35.944  1.00  0.00    -0.203 F 
ATOM     57  C   UNL A   1      39.994  36.102  38.094  1.00  0.00     0.198 A 
ATOM     58  C   UNL A   1      38.588  34.413  39.054  1.00  0.00     0.198 A 
ATOM     59  F   UNL A   1      38.163  32.427  37.870  1.00  0.00    -0.203 F 
ATOM     60  F   UNL A   1      40.629  37.279  38.193  1.00  0.00    -0.200 F 
ATOM     61  C   UNL A   1      39.214  35.646  39.146  1.00  0.00     0.200 A 
ATOM     62  F   UNL A   1      37.817  33.975  40.058  1.00  0.00    -0.200 F 
ATOM     63  F   UNL A   1      39.076  36.388  40.252  1.00  0.00    -0.200 F 
ENDBRANCH  29  53
BRANCH  41  64
ATOM     64  C   UNL A   1      43.647  28.628  35.416  1.00  0.00     0.064 A 
ATOM     65  C   UNL A   1      43.294  27.607  36.311  1.00  0.00     0.173 A 
ATOM     66  C   UNL A   1      45.008  28.933  35.267  1.00  0.00     0.173 A 
ATOM     67  F   UNL A   1      42.003  27.294  36.503  1.00  0.00    -0.203 F 
ATOM     68  C   UNL A   1      44.266  26.931  37.042  1.00  0.00     0.198 A 
ATOM     69  C   UNL A   1      45.979  28.232  35.976  1.00  0.00     0.198 A 
ATOM     70  F   UNL A   1      45.397  29.899  34.421  1.00  0.00    -0.203 F 
ATOM     71  F   UNL A   1      43.902  25.992  37.927  1.00  0.00    -0.200 F 
ATOM     72  C   UNL A   1      45.607  27.236  36.868  1.00  0.00     0.200 A 
ATOM     73  F   UNL A   1      47.276  28.519  35.795  1.00  0.00    -0.200 F 
ATOM     74  F   UNL A   1      46.542  26.576  37.564  1.00  0.00    -0.200 F 
ENDBRANCH  41  64
ENDBRANCH  15  16
ENDBRANCH   8  10
ENDBRANCH   5   6
ENDBRANCH   4   5
ENDBRANCH   3   4
ENDBRANCH   2   3
ENDBRANCH   1   2
BRANCH   1  75
ATOM     75  C   UNL A   1      33.628  27.700  25.954  1.00  0.00     0.116 C 
BRANCH  75  76
ATOM     76  N   UNL A   1      32.647  26.799  26.522  1.00  0.00    -0.351 N 
ATOM     77  C   UNL A   1      31.662  26.070  25.903  1.00  0.00     0.281 C 
ATOM     78  H   UNL A   1      32.694  26.693  27.499  1.00  0.00     0.163 HD
ATOM     79  O   UNL A   1      31.039  25.270  26.613  1.00  0.00    -0.268 OA
BRANCH  77  80
ATOM     80  C   UNL A   1      31.284  26.289  24.389  1.00  0.00     0.176 C 
ATOM     81  C   UNL A   1      30.169  25.293  23.933  1.00  0.00     0.079 C 
ATOM     82  C   UNL A   1      32.485  26.118  23.402  1.00  0.00     0.093 C 
ATOM     83  C   UNL A   1      30.639  23.865  23.665  1.00  0.00     0.008 C 
ATOM     84  C   UNL A   1      33.007  24.657  23.246  1.00  0.00     0.053 C 
ATOM     85  C   UNL A   1      31.831  23.834  22.722  1.00  0.00     0.015 C 
BRANCH  80  86
ATOM     86  N   UNL A   1      30.721  27.690  24.289  1.00  0.00    -0.331 N 
ATOM     87  H   UNL A   1      31.457  28.353  24.531  1.00  0.00     0.347 HD
ATOM     88  H   UNL A   1      29.930  27.746  24.931  1.00  0.00     0.347 HD
BRANCH  86  89
ATOM     89  C   UNL A   1      30.215  28.018  22.931  1.00  0.00     0.183 C 
ATOM     90  C   UNL A   1      29.069  28.980  22.783  1.00  0.00     0.071 C 
ATOM     91  C   UNL A   1      30.439  29.371  22.322  1.00  0.00     0.071 C 
ENDBRANCH  86  89
ENDBRANCH  80  86
BRANCH  84  92
ATOM     92  S   UNL A   1      33.752  24.070  24.837  1.00  0.00    -0.156 SA
BRANCH  92  93
ATOM     93  C   UNL A   1      34.208  22.320  24.592  1.00  0.00     0.104 C 
BRANCH  93  94
ATOM     94  C   UNL A   1      34.122  21.431  25.833  1.00  0.00     0.149 C 
BRANCH  94  95
ATOM     95  C   UNL A   1      33.080  20.329  25.624  1.00  0.00     0.188 C 
BRANCH  95  96
ATOM     96  O   UNL A   1      31.783  20.905  25.499  1.00  0.00    -0.394 OA
ATOM     97  H   UNL A   1      31.259  20.390  24.867  1.00  0.00     0.210 HD
ENDBRANCH  95  96
ENDBRANCH  94  95
BRANCH  94  98
ATOM     98  O   UNL A   1      35.387  20.787  26.066  1.00  0.00    -0.390 OA
ATOM     99  H   UNL A   1      35.936  21.348  26.637  1.00  0.00     0.211 HD
ENDBRANCH  94  98
ENDBRANCH  93  94
ENDBRANCH  92  93
ENDBRANCH  84  92
ENDBRANCH  77  80
ENDBRANCH  75  76
ENDBRANCH   1  75
TORSDOF 21
ENDMDL
MODEL 3
REMARK VINA RESULT:     -11.1      5.688     11.181
REMARK SMILES O=C(NCCCCCCNC(=O)[C@]1([NH2+]C2CC2)CCC[C@H](SC[C@H](O)CO)C1)c1ccc(-c2c3nc(c(-c4c(F)c(F)c(F)c(F)c4F)c4ccc([nH]4)c(-c4c(F)c(F)c(F)c(F)c4F)c4nc(c(-c5c(F)c(F)c(F)c(F)c5F)c5ccc2[nH]5)C=C4)C=C3)cc1
REMARK SMILES IDX 8 1 7 2 6 3 5 4 4 5 3 6 1 7 2 8 29 10 30 11 91 12 31 13
REMARK SMILES IDX 90 14 32 15 33 16 34 17 84 18 35 19 89 20 83 21 85 22 36 23
REMARK SMILES IDX 88 24 82 25 81 26 37 28 69 29 49 30 68 31 50 32 53 33 67 34
REMARK SMILES IDX 86 35 51 36 52 37 66 39 87 40 54 41 38 42 39 43 47 44 40 45
REMARK SMILES IDX 41 46 45 47 48 48 42 49 43 50 46 51 44 52 70 53 71 54 79 55
REMARK SMILES IDX 72 56 73 57 77 58 80 59 74 60 75 61 78 62 76 63 55 64 56 65
REMARK SMILES IDX 64 66 57 67 58 68 62 69 65 70 59 71 60 72 63 73 61 74 9 75
REMARK SMILES IDX 10 76 11 77 12 79 13 80 18 81 28 82 19 83 21 84 20 85 14 86
REMARK SMILES IDX 15 89 16 90 17 91 22 92 23 93 24 94 26 95 27 96 25 98
REMARK H PARENT 3 9 85 27 53 38 10 78 14 87 14 88 27 97 25 99
REMARK Flexibility Score: inf
ROOT
ATOM      1  C   UNL A   1      36.926  23.192  25.555  1.00  0.00     0.021 C 
ENDROOT
BRANCH   1   2
ATOM      2  C   UNL A   1      37.289  22.088  24.556  1.00  0.00     0.002 C 
BRANCH   2   3
ATOM      3  C   UNL A   1      36.906  20.655  24.937  1.00  0.00     0.002 C 
BRANCH   3   4
ATOM      4  C   UNL A   1      38.045  19.640  24.996  1.00  0.00     0.021 C 
BRANCH   4   5
ATOM      5  C   UNL A   1      39.285  20.084  25.759  1.00  0.00     0.116 C 
BRANCH   5   6
ATOM      6  N   UNL A   1      40.295  19.046  25.865  1.00  0.00    -0.352 N 
ATOM      7  O   UNL A   1      42.383  18.208  26.062  1.00  0.00    -0.269 OA
ATOM      8  C   UNL A   1      41.641  19.178  26.115  1.00  0.00     0.251 C 
ATOM      9  H   UNL A   1      39.973  18.124  25.742  1.00  0.00     0.163 HD
BRANCH   8  10
ATOM     10  C   UNL A   1      42.192  20.513  26.437  1.00  0.00     0.039 A 
ATOM     11  C   UNL A   1      42.659  21.355  25.425  1.00  0.00     0.014 A 
ATOM     12  C   UNL A   1      42.216  20.933  27.770  1.00  0.00     0.014 A 
ATOM     13  C   UNL A   1      43.240  22.574  25.750  1.00  0.00     0.010 A 
ATOM     14  C   UNL A   1      42.726  22.195  28.089  1.00  0.00     0.010 A 
ATOM     15  C   UNL A   1      43.243  23.022  27.081  1.00  0.00    -0.014 A 
BRANCH  15  16
ATOM     16  C   UNL A   1      43.652  24.417  27.376  1.00  0.00     0.031 A 
ATOM     17  C   UNL A   1      42.670  25.433  27.879  1.00  0.00     0.074 A 
ATOM     18  C   UNL A   1      44.937  24.755  27.152  1.00  0.00     0.049 A 
ATOM     19  N   UNL A   1      42.864  26.703  28.135  1.00  0.00    -0.248 NA
ATOM     20  C   UNL A   1      41.294  24.976  28.121  1.00  0.00     0.031 C 
ATOM     21  C   UNL A   1      45.967  23.845  26.641  1.00  0.00     0.029 A 
ATOM     22  N   UNL A   1      45.600  25.945  27.314  1.00  0.00    -0.354 N 
ATOM     23  C   UNL A   1      41.635  27.201  28.547  1.00  0.00     0.074 A 
ATOM     24  C   UNL A   1      40.697  26.100  28.498  1.00  0.00     0.031 C 
ATOM     25  C   UNL A   1      47.131  24.502  26.548  1.00  0.00     0.029 A 
ATOM     26  C   UNL A   1      46.915  25.894  26.921  1.00  0.00     0.049 A 
ATOM     27  H   UNL A   1      45.174  26.755  27.675  1.00  0.00     0.167 HD
ATOM     28  C   UNL A   1      41.332  28.465  28.927  1.00  0.00     0.037 A 
ATOM     29  C   UNL A   1      47.837  26.869  26.828  1.00  0.00     0.037 A 
ATOM     30  C   UNL A   1      42.287  29.544  28.990  1.00  0.00     0.049 A 
ATOM     31  C   UNL A   1      47.452  28.266  27.222  1.00  0.00     0.074 A 
ATOM     32  C   UNL A   1      42.095  30.836  29.447  1.00  0.00     0.029 A 
ATOM     33  N   UNL A   1      43.604  29.461  28.565  1.00  0.00    -0.354 N 
ATOM     34  N   UNL A   1      46.309  28.706  27.689  1.00  0.00    -0.248 NA
ATOM     35  C   UNL A   1      48.478  29.305  27.067  1.00  0.00     0.031 C 
ATOM     36  C   UNL A   1      43.276  31.554  29.237  1.00  0.00     0.029 A 
ATOM     37  C   UNL A   1      44.222  30.694  28.702  1.00  0.00     0.049 A 
ATOM     38  H   UNL A   1      44.038  28.647  28.219  1.00  0.00     0.167 HD
ATOM     39  C   UNL A   1      46.480  30.066  27.892  1.00  0.00     0.074 A 
ATOM     40  C   UNL A   1      47.848  30.374  27.530  1.00  0.00     0.031 C 
ATOM     41  C   UNL A   1      45.583  30.983  28.329  1.00  0.00     0.037 A 
BRANCH  28  42
ATOM     42  C   UNL A   1      39.911  28.781  29.292  1.00  0.00     0.064 A 
ATOM     43  C   UNL A   1      38.982  29.224  28.340  1.00  0.00     0.173 A 
ATOM     44  C   UNL A   1      39.446  28.525  30.593  1.00  0.00     0.173 A 
ATOM     45  F   UNL A   1      39.374  29.486  27.085  1.00  0.00    -0.203 F 
ATOM     46  C   UNL A   1      37.642  29.403  28.677  1.00  0.00     0.198 A 
ATOM     47  C   UNL A   1      38.102  28.682  30.920  1.00  0.00     0.198 A 
ATOM     48  F   UNL A   1      40.293  28.092  31.539  1.00  0.00    -0.203 F 
ATOM     49  F   UNL A   1      36.774  29.842  27.755  1.00  0.00    -0.200 F 
ATOM     50  C   UNL A   1      37.202  29.120  29.962  1.00  0.00     0.200 A 
ATOM     51  F   UNL A   1      37.676  28.394  32.158  1.00  0.00    -0.200 F 
ATOM     52  F   UNL A   1      35.907  29.269  30.276  1.00  0.00    -0.200 F 
ENDBRANCH  28  42
BRANCH  29  53
ATOM     53  C   UNL A   1      49.190  26.567  26.290  1.00  0.00     0.064 A 
ATOM     54  C   UNL A   1      50.191  26.026  27.105  1.00  0.00     0.173 A 
ATOM     55  C   UNL A   1      49.514  26.836  24.951  1.00  0.00     0.173 A 
ATOM     56  F   UNL A   1      49.937  25.767  28.397  1.00  0.00    -0.203 F 
ATOM     57  C   UNL A   1      51.473  25.794  26.611  1.00  0.00     0.198 A 
ATOM     58  C   UNL A   1      50.784  26.569  24.448  1.00  0.00     0.198 A 
ATOM     59  F   UNL A   1      48.590  27.350  24.125  1.00  0.00    -0.203 F 
ATOM     60  F   UNL A   1      52.430  25.333  27.429  1.00  0.00    -0.200 F 
ATOM     61  C   UNL A   1      51.767  26.060  25.281  1.00  0.00     0.200 A 
ATOM     62  F   UNL A   1      51.056  26.809  23.158  1.00  0.00    -0.200 F 
ATOM     63  F   UNL A   1      52.999  25.838  24.808  1.00  0.00    -0.200 F 
ENDBRANCH  29  53
BRANCH  41  64
ATOM     64  C   UNL A   1      46.056  32.402  28.442  1.00  0.00     0.064 A 
ATOM     65  C   UNL A   1      46.688  32.869  29.603  1.00  0.00     0.173 A 
ATOM     66  C   UNL A   1      45.910  33.291  27.367  1.00  0.00     0.173 A 
ATOM     67  F   UNL A   1      46.832  32.062  30.666  1.00  0.00    -0.203 F 
ATOM     68  C   UNL A   1      47.141  34.182  29.691  1.00  0.00     0.198 A 
ATOM     69  C   UNL A   1      46.393  34.593  27.447  1.00  0.00     0.198 A 
ATOM     70  F   UNL A   1      45.314  32.891  26.234  1.00  0.00    -0.203 F 
ATOM     71  F   UNL A   1      47.699  34.621  30.827  1.00  0.00    -0.200 F 
ATOM     72  C   UNL A   1      47.002  35.041  28.610  1.00  0.00     0.200 A 
ATOM     73  F   UNL A   1      46.270  35.417  26.396  1.00  0.00    -0.200 F 
ATOM     74  F   UNL A   1      47.448  36.301  28.692  1.00  0.00    -0.200 F 
ENDBRANCH  41  64
ENDBRANCH  15  16
ENDBRANCH   8  10
ENDBRANCH   5   6
ENDBRANCH   4   5
ENDBRANCH   3   4
ENDBRANCH   2   3
ENDBRANCH   1   2
BRANCH   1  75
ATOM     75  C   UNL A   1      35.796  24.128  25.144  1.00  0.00     0.116 C 
BRANCH  75  76
ATOM     76  N   UNL A   1      35.251  23.870  23.826  1.00  0.00    -0.351 N 
ATOM     77  C   UNL A   1      33.969  23.551  23.453  1.00  0.00     0.281 C 
ATOM     78  H   UNL A   1      35.898  23.933  23.087  1.00  0.00     0.163 HD
ATOM     79  O   UNL A   1      33.742  23.511  22.238  1.00  0.00    -0.268 OA
BRANCH  77  80
ATOM     80  C   UNL A   1      32.859  23.176  24.507  1.00  0.00     0.176 C 
ATOM     81  C   UNL A   1      31.509  22.816  23.805  1.00  0.00     0.079 C 
ATOM     82  C   UNL A   1      32.551  24.312  25.538  1.00  0.00     0.093 C 
ATOM     83  C   UNL A   1      30.700  24.006  23.296  1.00  0.00     0.008 C 
ATOM     84  C   UNL A   1      31.824  25.559  24.949  1.00  0.00     0.053 C 
ATOM     85  C   UNL A   1      30.500  25.054  24.378  1.00  0.00     0.015 C 
BRANCH  80  86
ATOM     86  N   UNL A   1      33.352  21.939  25.224  1.00  0.00    -0.331 N 
ATOM     87  H   UNL A   1      33.300  22.104  26.229  1.00  0.00     0.347 HD
ATOM     88  H   UNL A   1      34.309  21.769  24.913  1.00  0.00     0.347 HD
BRANCH  86  89
ATOM     89  C   UNL A   1      32.558  20.724  24.902  1.00  0.00     0.183 C 
ATOM     90  C   UNL A   1      33.172  19.646  24.053  1.00  0.00     0.071 C 
ATOM     91  C   UNL A   1      32.897  19.391  25.503  1.00  0.00     0.071 C 
ENDBRANCH  86  89
ENDBRANCH  80  86
BRANCH  84  92
ATOM     92  S   UNL A   1      32.930  26.438  23.752  1.00  0.00    -0.156 SA
BRANCH  92  93
ATOM     93  C   UNL A   1      31.846  27.342  22.597  1.00  0.00     0.104 C 
BRANCH  93  94
ATOM     94  C   UNL A   1      31.465  28.762  23.016  1.00  0.00     0.149 C 
BRANCH  94  95
ATOM     95  C   UNL A   1      32.379  29.245  24.145  1.00  0.00     0.188 C 
BRANCH  95  96
ATOM     96  O   UNL A   1      33.609  29.720  23.603  1.00  0.00    -0.394 OA
ATOM     97  H   UNL A   1      34.340  29.172  23.930  1.00  0.00     0.210 HD
ENDBRANCH  95  96
ENDBRANCH  94  95
BRANCH  94  98
ATOM     98  O   UNL A   1      31.638  29.665  21.909  1.00  0.00    -0.390 OA
ATOM     99  H   UNL A   1      32.561  29.639  21.611  1.00  0.00     0.211 HD
ENDBRANCH  94  98
ENDBRANCH  93  94
ENDBRANCH  92  93
ENDBRANCH  84  92
ENDBRANCH  77  80
ENDBRANCH  75  76
ENDBRANCH   1  75
TORSDOF 21
ENDMDL
