MODEL 1
REMARK VINA RESULT:     -11.3      0.000      0.000
REMARK SMILES CC(=O)N1[C@@H](c2c(F)cccc2Cl)SC[C@H]1C(=O)NCCCCCCNC(=O)c1ccc(-c2c3nc(c(-c4c(F)c(F)c(F)c(F)c4F)c4ccc([nH]4)c(-c4c(F)c(F)c(F)c(F)c4F)c4nc(c(-c5c(F)c(F)c(F)c(F)c5F)c5ccc2[nH]5)C=C4)C=C3)cc1
REMARK SMILES IDX 23 1 22 2 21 3 20 4 19 5 17 6 18 7 16 9 4 10 5 11 14 12
REMARK SMILES IDX 15 13 2 14 1 15 3 16 6 17 7 18 12 19 8 20 9 21 11 22 13 23
REMARK SMILES IDX 10 24 24 25 25 26 26 27 27 28 28 30 29 31 30 32 91 33 31 34
REMARK SMILES IDX 90 35 32 36 33 37 34 38 84 39 35 40 89 41 83 42 85 43 36 44
REMARK SMILES IDX 88 45 82 46 81 47 37 49 69 50 49 51 68 52 50 53 53 54 67 55
REMARK SMILES IDX 86 56 51 57 52 58 66 60 87 61 54 62 38 63 39 64 47 65 40 66
REMARK SMILES IDX 41 67 45 68 48 69 42 70 43 71 46 72 44 73 70 74 71 75 79 76
REMARK SMILES IDX 72 77 73 78 77 79 80 80 74 81 75 82 78 83 76 84 55 85 56 86
REMARK SMILES IDX 64 87 57 88 58 89 62 90 65 91 59 92 60 93 63 94 61 95
REMARK H PARENT 19 8 26 29 85 48 53 59
REMARK Flexibility Score: inf
ROOT
ATOM      1  C   UNL A   1      32.655  28.497  24.213  1.00  0.00     0.002 C 
ENDROOT
BRANCH   1   2
ATOM      2  C   UNL A   1      31.262  27.850  24.281  1.00  0.00     0.002 C 
BRANCH   2   3
ATOM      3  C   UNL A   1      30.944  26.732  23.278  1.00  0.00     0.021 C 
BRANCH   3   4
ATOM      4  C   UNL A   1      31.004  25.304  23.817  1.00  0.00     0.116 C 
BRANCH   4   5
ATOM      5  N   UNL A   1      31.522  25.174  25.155  1.00  0.00    -0.354 N 
ATOM      6  C   UNL A   1      32.431  24.280  25.648  1.00  0.00     0.243 C 
ATOM      7  O   UNL A   1      33.019  24.620  26.684  1.00  0.00    -0.273 OA
ATOM      8  H   UNL A   1      31.171  25.821  25.809  1.00  0.00     0.163 HD
BRANCH   6   9
ATOM      9  C   UNL A   1      32.901  22.999  24.900  1.00  0.00     0.185 C 
ATOM     10  N   UNL A   1      34.137  22.999  24.087  1.00  0.00    -0.314 N 
ATOM     11  C   UNL A   1      35.032  21.841  24.286  1.00  0.00     0.179 C 
ATOM     12  S   UNL A   1      33.965  20.571  25.039  1.00  0.00    -0.129 SA
ATOM     13  C   UNL A   1      32.884  21.794  25.834  1.00  0.00     0.107 C 
BRANCH  10  14
ATOM     14  C   UNL A   1      34.008  23.738  22.919  1.00  0.00     0.221 C 
ATOM     15  C   UNL A   1      33.236  23.164  21.761  1.00  0.00     0.114 C 
ATOM     16  O   UNL A   1      34.410  24.902  22.857  1.00  0.00    -0.275 OA
ENDBRANCH  10  14
BRANCH  11  17
ATOM     17  C   UNL A   1      36.316  22.179  25.053  1.00  0.00     0.039 A 
ATOM     18  C   UNL A   1      36.589  23.458  25.579  1.00  0.00     0.130 A 
ATOM     19  C   UNL A   1      37.355  21.239  25.214  1.00  0.00     0.050 A 
ATOM     20  F   UNL A   1      35.696  24.451  25.501  1.00  0.00    -0.207 F 
ATOM     21  C   UNL A   1      37.822  23.811  26.133  1.00  0.00     0.040 A 
ATOM     22  C   UNL A   1      38.607  21.594  25.749  1.00  0.00     0.021 A 
ATOM     23  Cl  UNL A   1      37.176  19.564  24.847  1.00  0.00    -0.084 Cl
ATOM     24  C   UNL A   1      38.848  22.885  26.195  1.00  0.00     0.005 A 
ENDBRANCH  11  17
ENDBRANCH   6   9
ENDBRANCH   4   5
ENDBRANCH   3   4
ENDBRANCH   2   3
ENDBRANCH   1   2
BRANCH   1  25
ATOM     25  C   UNL A   1      33.742  27.963  25.153  1.00  0.00     0.021 C 
BRANCH  25  26
ATOM     26  C   UNL A   1      33.598  28.271  26.646  1.00  0.00     0.116 C 
BRANCH  26  27
ATOM     27  N   UNL A   1      33.458  29.688  26.930  1.00  0.00    -0.352 N 
ATOM     28  C   UNL A   1      34.275  30.549  27.622  1.00  0.00     0.251 C 
ATOM     29  H   UNL A   1      32.642  30.100  26.564  1.00  0.00     0.163 HD
ATOM     30  O   UNL A   1      33.884  31.700  27.836  1.00  0.00    -0.269 OA
BRANCH  28  31
ATOM     31  C   UNL A   1      35.606  30.142  28.141  1.00  0.00     0.039 A 
ATOM     32  C   UNL A   1      36.683  30.105  27.244  1.00  0.00     0.014 A 
ATOM     33  C   UNL A   1      35.800  29.711  29.456  1.00  0.00     0.014 A 
ATOM     34  C   UNL A   1      37.950  29.686  27.670  1.00  0.00     0.010 A 
ATOM     35  C   UNL A   1      37.078  29.333  29.894  1.00  0.00     0.010 A 
ATOM     36  C   UNL A   1      38.166  29.311  29.006  1.00  0.00    -0.014 A 
BRANCH  36  37
ATOM     37  C   UNL A   1      39.520  28.896  29.470  1.00  0.00     0.031 A 
ATOM     38  C   UNL A   1      40.289  29.728  30.459  1.00  0.00     0.074 A 
ATOM     39  C   UNL A   1      40.081  27.772  28.983  1.00  0.00     0.049 A 
ATOM     40  N   UNL A   1      41.478  29.523  30.971  1.00  0.00    -0.248 NA
ATOM     41  C   UNL A   1      39.643  30.964  30.922  1.00  0.00     0.031 C 
ATOM     42  C   UNL A   1      39.463  26.878  28.004  1.00  0.00     0.029 A 
ATOM     43  N   UNL A   1      41.298  27.189  29.246  1.00  0.00    -0.354 N 
ATOM     44  C   UNL A   1      41.725  30.602  31.810  1.00  0.00     0.074 A 
ATOM     45  C   UNL A   1      40.581  31.484  31.701  1.00  0.00     0.031 C 
ATOM     46  C   UNL A   1      40.292  25.849  27.766  1.00  0.00     0.029 A 
ATOM     47  C   UNL A   1      41.512  26.022  28.552  1.00  0.00     0.049 A 
ATOM     48  H   UNL A   1      41.954  27.571  29.872  1.00  0.00     0.167 HD
ATOM     49  C   UNL A   1      42.795  30.830  32.612  1.00  0.00     0.037 A 
ATOM     50  C   UNL A   1      42.566  25.185  28.550  1.00  0.00     0.037 A 
ATOM     51  C   UNL A   1      43.929  29.951  32.739  1.00  0.00     0.049 A 
ATOM     52  C   UNL A   1      43.755  25.474  29.424  1.00  0.00     0.074 A 
ATOM     53  C   UNL A   1      45.026  30.072  33.576  1.00  0.00     0.029 A 
ATOM     54  N   UNL A   1      44.118  28.791  32.003  1.00  0.00    -0.354 N 
ATOM     55  N   UNL A   1      43.945  26.463  30.262  1.00  0.00    -0.248 NA
ATOM     56  C   UNL A   1      44.876  24.525  29.354  1.00  0.00     0.031 C 
ATOM     57  C   UNL A   1      45.901  29.011  33.311  1.00  0.00     0.029 A 
ATOM     58  C   UNL A   1      45.327  28.204  32.343  1.00  0.00     0.049 A 
ATOM     59  H   UNL A   1      43.485  28.436  31.337  1.00  0.00     0.167 HD
ATOM     60  C   UNL A   1      45.190  26.243  30.838  1.00  0.00     0.074 A 
ATOM     61  C   UNL A   1      45.708  25.020  30.260  1.00  0.00     0.031 C 
ATOM     62  C   UNL A   1      45.840  26.988  31.765  1.00  0.00     0.037 A 
BRANCH  49  63
ATOM     63  C   UNL A   1      42.791  32.100  33.416  1.00  0.00     0.064 A 
ATOM     64  C   UNL A   1      43.352  33.287  32.921  1.00  0.00     0.173 A 
ATOM     65  C   UNL A   1      42.201  32.135  34.689  1.00  0.00     0.173 A 
ATOM     66  F   UNL A   1      43.934  33.305  31.712  1.00  0.00    -0.203 F 
ATOM     67  C   UNL A   1      43.357  34.451  33.685  1.00  0.00     0.198 A 
ATOM     68  C   UNL A   1      42.182  33.308  35.438  1.00  0.00     0.198 A 
ATOM     69  F   UNL A   1      41.641  31.031  35.205  1.00  0.00    -0.203 F 
ATOM     70  F   UNL A   1      43.948  35.557  33.214  1.00  0.00    -0.200 F 
ATOM     71  C   UNL A   1      42.768  34.462  34.941  1.00  0.00     0.200 A 
ATOM     72  F   UNL A   1      41.601  33.320  36.646  1.00  0.00    -0.200 F 
ATOM     73  F   UNL A   1      42.776  35.583  35.676  1.00  0.00    -0.200 F 
ENDBRANCH  49  63
BRANCH  50  74
ATOM     74  C   UNL A   1      42.527  23.959  27.711  1.00  0.00     0.064 A 
ATOM     75  C   UNL A   1      42.861  24.015  26.351  1.00  0.00     0.173 A 
ATOM     76  C   UNL A   1      42.171  22.716  28.248  1.00  0.00     0.173 A 
ATOM     77  F   UNL A   1      43.185  25.188  25.788  1.00  0.00    -0.203 F 
ATOM     78  C   UNL A   1      42.835  22.870  25.558  1.00  0.00     0.198 A 
ATOM     79  C   UNL A   1      42.167  21.567  27.460  1.00  0.00     0.198 A 
ATOM     80  F   UNL A   1      41.843  22.613  29.545  1.00  0.00    -0.203 F 
ATOM     81  F   UNL A   1      43.130  22.953  24.253  1.00  0.00    -0.200 F 
ATOM     82  C   UNL A   1      42.496  21.645  26.115  1.00  0.00     0.200 A 
ATOM     83  F   UNL A   1      41.850  20.384  28.004  1.00  0.00    -0.200 F 
ATOM     84  F   UNL A   1      42.481  20.542  25.354  1.00  0.00    -0.200 F 
ENDBRANCH  50  74
BRANCH  62  85
ATOM     85  C   UNL A   1      47.177  26.492  32.236  1.00  0.00     0.064 A 
ATOM     86  C   UNL A   1      47.290  25.546  33.267  1.00  0.00     0.173 A 
ATOM     87  C   UNL A   1      48.359  26.940  31.626  1.00  0.00     0.173 A 
ATOM     88  F   UNL A   1      46.191  25.099  33.893  1.00  0.00    -0.203 F 
ATOM     89  C   UNL A   1      48.536  25.086  33.683  1.00  0.00     0.198 A 
ATOM     90  C   UNL A   1      49.602  26.458  32.027  1.00  0.00     0.198 A 
ATOM     91  F   UNL A   1      48.307  27.841  30.633  1.00  0.00    -0.203 F 
ATOM     92  F   UNL A   1      48.622  24.215  34.699  1.00  0.00    -0.200 F 
ATOM     93  C   UNL A   1      49.690  25.536  33.060  1.00  0.00     0.200 A 
ATOM     94  F   UNL A   1      50.715  26.887  31.416  1.00  0.00    -0.200 F 
ATOM     95  F   UNL A   1      50.889  25.088  33.458  1.00  0.00    -0.200 F 
ENDBRANCH  62  85
ENDBRANCH  36  37
ENDBRANCH  28  31
ENDBRANCH  26  27
ENDBRANCH  25  26
ENDBRANCH   1  25
TORSDOF 15
ENDMDL
MODEL 2
REMARK VINA RESULT:     -11.3      2.228      7.553
REMARK SMILES CC(=O)N1[C@@H](c2c(F)cccc2Cl)SC[C@H]1C(=O)NCCCCCCNC(=O)c1ccc(-c2c3nc(c(-c4c(F)c(F)c(F)c(F)c4F)c4ccc([nH]4)c(-c4c(F)c(F)c(F)c(F)c4F)c4nc(c(-c5c(F)c(F)c(F)c(F)c5F)c5ccc2[nH]5)C=C4)C=C3)cc1
REMARK SMILES IDX 23 1 22 2 21 3 20 4 19 5 17 6 18 7 16 9 4 10 5 11 14 12
REMARK SMILES IDX 15 13 2 14 1 15 3 16 6 17 7 18 12 19 8 20 9 21 11 22 13 23
REMARK SMILES IDX 10 24 24 25 25 26 26 27 27 28 28 30 29 31 30 32 91 33 31 34
REMARK SMILES IDX 90 35 32 36 33 37 34 38 84 39 35 40 89 41 83 42 85 43 36 44
REMARK SMILES IDX 88 45 82 46 81 47 37 49 69 50 49 51 68 52 50 53 53 54 67 55
REMARK SMILES IDX 86 56 51 57 52 58 66 60 87 61 54 62 38 63 39 64 47 65 40 66
REMARK SMILES IDX 41 67 45 68 48 69 42 70 43 71 46 72 44 73 70 74 71 75 79 76
REMARK SMILES IDX 72 77 73 78 77 79 80 80 74 81 75 82 78 83 76 84 55 85 56 86
REMARK SMILES IDX 64 87 57 88 58 89 62 90 65 91 59 92 60 93 63 94 61 95
REMARK H PARENT 19 8 26 29 85 48 53 59
REMARK Flexibility Score: inf
ROOT
ATOM      1  C   UNL A   1      31.125  28.111  24.643  1.00  0.00     0.002 C 
ENDROOT
BRANCH   1   2
ATOM      2  C   UNL A   1      30.151  27.095  24.025  1.00  0.00     0.002 C 
BRANCH   2   3
ATOM      3  C   UNL A   1      30.749  25.901  23.268  1.00  0.00     0.021 C 
BRANCH   3   4
ATOM      4  C   UNL A   1      30.648  24.543  23.960  1.00  0.00     0.116 C 
BRANCH   4   5
ATOM      5  N   UNL A   1      31.225  24.482  25.279  1.00  0.00    -0.354 N 
ATOM      6  C   UNL A   1      32.305  23.771  25.719  1.00  0.00     0.243 C 
ATOM      7  O   UNL A   1      32.850  24.192  26.748  1.00  0.00    -0.273 OA
ATOM      8  H   UNL A   1      30.777  25.032  25.962  1.00  0.00     0.163 HD
BRANCH   6   9
ATOM      9  C   UNL A   1      32.991  22.625  24.919  1.00  0.00     0.185 C 
ATOM     10  N   UNL A   1      34.236  22.863  24.158  1.00  0.00    -0.314 N 
ATOM     11  C   UNL A   1      35.292  21.844  24.325  1.00  0.00     0.179 C 
ATOM     12  S   UNL A   1      34.411  20.382  24.962  1.00  0.00    -0.129 SA
ATOM     13  C   UNL A   1      33.130  21.375  25.782  1.00  0.00     0.107 C 
BRANCH  10  14
ATOM     14  C   UNL A   1      34.031  23.645  23.029  1.00  0.00     0.221 C 
ATOM     15  C   UNL A   1      33.202  23.104  21.893  1.00  0.00     0.114 C 
ATOM     16  O   UNL A   1      34.412  24.817  22.991  1.00  0.00    -0.275 OA
ENDBRANCH  10  14
BRANCH  11  17
ATOM     17  C   UNL A   1      36.484  22.325  25.161  1.00  0.00     0.039 A 
ATOM     18  C   UNL A   1      36.538  23.593  25.774  1.00  0.00     0.130 A 
ATOM     19  C   UNL A   1      37.652  21.548  25.306  1.00  0.00     0.050 A 
ATOM     20  F   UNL A   1      35.504  24.440  25.722  1.00  0.00    -0.207 F 
ATOM     21  C   UNL A   1      37.684  24.095  26.396  1.00  0.00     0.040 A 
ATOM     22  C   UNL A   1      38.817  22.056  25.909  1.00  0.00     0.021 A 
ATOM     23  Cl  UNL A   1      37.749  19.894  24.831  1.00  0.00    -0.084 Cl
ATOM     24  C   UNL A   1      38.840  23.337  26.442  1.00  0.00     0.005 A 
ENDBRANCH  11  17
ENDBRANCH   6   9
ENDBRANCH   4   5
ENDBRANCH   3   4
ENDBRANCH   2   3
ENDBRANCH   1   2
BRANCH   1  25
ATOM     25  C   UNL A   1      32.602  28.028  24.241  1.00  0.00     0.021 C 
BRANCH  25  26
ATOM     26  C   UNL A   1      33.574  28.996  24.920  1.00  0.00     0.116 C 
BRANCH  26  27
ATOM     27  N   UNL A   1      32.918  30.151  25.508  1.00  0.00    -0.352 N 
ATOM     28  C   UNL A   1      33.235  30.891  26.621  1.00  0.00     0.251 C 
ATOM     29  H   UNL A   1      32.114  30.454  25.028  1.00  0.00     0.163 HD
ATOM     30  O   UNL A   1      32.452  31.768  26.997  1.00  0.00    -0.269 OA
BRANCH  28  31
ATOM     31  C   UNL A   1      34.477  30.665  27.403  1.00  0.00     0.039 A 
ATOM     32  C   UNL A   1      34.676  29.402  27.978  1.00  0.00     0.014 A 
ATOM     33  C   UNL A   1      35.400  31.682  27.660  1.00  0.00     0.014 A 
ATOM     34  C   UNL A   1      35.809  29.147  28.763  1.00  0.00     0.010 A 
ATOM     35  C   UNL A   1      36.555  31.416  28.409  1.00  0.00     0.010 A 
ATOM     36  C   UNL A   1      36.771  30.148  28.973  1.00  0.00    -0.014 A 
BRANCH  36  37
ATOM     37  C   UNL A   1      37.993  29.870  29.780  1.00  0.00     0.031 A 
ATOM     38  C   UNL A   1      39.083  28.979  29.252  1.00  0.00     0.074 A 
ATOM     39  C   UNL A   1      38.119  30.403  31.011  1.00  0.00     0.049 A 
ATOM     40  N   UNL A   1      40.213  28.625  29.817  1.00  0.00    -0.248 NA
ATOM     41  C   UNL A   1      38.870  28.394  27.921  1.00  0.00     0.031 C 
ATOM     42  C   UNL A   1      37.134  31.267  31.660  1.00  0.00     0.029 A 
ATOM     43  N   UNL A   1      39.130  30.295  31.937  1.00  0.00    -0.354 N 
ATOM     44  C   UNL A   1      40.840  27.775  28.915  1.00  0.00     0.074 A 
ATOM     45  C   UNL A   1      39.943  27.628  27.787  1.00  0.00     0.031 C 
ATOM     46  C   UNL A   1      37.597  31.630  32.867  1.00  0.00     0.029 A 
ATOM     47  C   UNL A   1      38.899  31.003  33.091  1.00  0.00     0.049 A 
ATOM     48  H   UNL A   1      39.943  29.760  31.787  1.00  0.00     0.167 HD
ATOM     49  C   UNL A   1      42.058  27.184  29.007  1.00  0.00     0.037 A 
ATOM     50  C   UNL A   1      39.648  31.137  34.202  1.00  0.00     0.037 A 
ATOM     51  C   UNL A   1      42.963  27.337  30.117  1.00  0.00     0.049 A 
ATOM     52  C   UNL A   1      40.981  30.449  34.295  1.00  0.00     0.074 A 
ATOM     53  C   UNL A   1      44.243  26.828  30.264  1.00  0.00     0.029 A 
ATOM     54  N   UNL A   1      42.683  28.045  31.276  1.00  0.00    -0.354 N 
ATOM     55  N   UNL A   1      41.591  29.703  33.407  1.00  0.00    -0.248 NA
ATOM     56  C   UNL A   1      41.733  30.626  35.546  1.00  0.00     0.031 C 
ATOM     57  C   UNL A   1      44.718  27.188  31.532  1.00  0.00     0.029 A 
ATOM     58  C   UNL A   1      43.752  27.961  32.155  1.00  0.00     0.049 A 
ATOM     59  H   UNL A   1      41.846  28.536  31.449  1.00  0.00     0.167 HD
ATOM     60  C   UNL A   1      42.806  29.344  33.977  1.00  0.00     0.074 A 
ATOM     61  C   UNL A   1      42.852  29.963  35.287  1.00  0.00     0.031 C 
ATOM     62  C   UNL A   1      43.793  28.575  33.458  1.00  0.00     0.037 A 
BRANCH  49  63
ATOM     63  C   UNL A   1      42.481  26.303  27.866  1.00  0.00     0.064 A 
ATOM     64  C   UNL A   1      42.065  24.965  27.775  1.00  0.00     0.173 A 
ATOM     65  C   UNL A   1      43.295  26.807  26.840  1.00  0.00     0.173 A 
ATOM     66  F   UNL A   1      41.292  24.433  28.734  1.00  0.00    -0.203 F 
ATOM     67  C   UNL A   1      42.480  24.155  26.721  1.00  0.00     0.198 A 
ATOM     68  C   UNL A   1      43.684  26.002  25.773  1.00  0.00     0.198 A 
ATOM     69  F   UNL A   1      43.712  28.081  26.872  1.00  0.00    -0.203 F 
ATOM     70  F   UNL A   1      42.117  22.866  26.687  1.00  0.00    -0.200 F 
ATOM     71  C   UNL A   1      43.285  24.675  25.719  1.00  0.00     0.200 A 
ATOM     72  F   UNL A   1      44.451  26.510  24.798  1.00  0.00    -0.200 F 
ATOM     73  F   UNL A   1      43.686  23.893  24.707  1.00  0.00    -0.200 F 
ENDBRANCH  49  63
BRANCH  50  74
ATOM     74  C   UNL A   1      39.164  31.998  35.312  1.00  0.00     0.064 A 
ATOM     75  C   UNL A   1      38.420  31.452  36.367  1.00  0.00     0.173 A 
ATOM     76  C   UNL A   1      39.445  33.371  35.349  1.00  0.00     0.173 A 
ATOM     77  F   UNL A   1      38.107  30.149  36.361  1.00  0.00    -0.203 F 
ATOM     78  C   UNL A   1      37.969  32.251  37.415  1.00  0.00     0.198 A 
ATOM     79  C   UNL A   1      39.013  34.164  36.410  1.00  0.00     0.198 A 
ATOM     80  F   UNL A   1      40.154  33.938  34.362  1.00  0.00    -0.203 F 
ATOM     81  F   UNL A   1      37.234  31.711  38.398  1.00  0.00    -0.200 F 
ATOM     82  C   UNL A   1      38.273  33.604  37.441  1.00  0.00     0.200 A 
ATOM     83  F   UNL A   1      39.319  35.468  36.436  1.00  0.00    -0.200 F 
ATOM     84  F   UNL A   1      37.848  34.369  38.455  1.00  0.00    -0.200 F 
ENDBRANCH  50  74
BRANCH  62  85
ATOM     85  C   UNL A   1      45.025  28.374  34.295  1.00  0.00     0.064 A 
ATOM     86  C   UNL A   1      46.108  29.264  34.234  1.00  0.00     0.173 A 
ATOM     87  C   UNL A   1      45.108  27.300  35.193  1.00  0.00     0.173 A 
ATOM     88  F   UNL A   1      46.084  30.297  33.379  1.00  0.00    -0.203 F 
ATOM     89  C   UNL A   1      47.237  29.072  35.025  1.00  0.00     0.198 A 
ATOM     90  C   UNL A   1      46.228  27.125  36.002  1.00  0.00     0.198 A 
ATOM     91  F   UNL A   1      44.098  26.422  35.293  1.00  0.00    -0.203 F 
ATOM     92  F   UNL A   1      48.279  29.910  34.919  1.00  0.00    -0.200 F 
ATOM     93  C   UNL A   1      47.294  28.008  35.913  1.00  0.00     0.200 A 
ATOM     94  F   UNL A   1      46.276  26.102  36.867  1.00  0.00    -0.200 F 
ATOM     95  F   UNL A   1      48.380  27.828  36.678  1.00  0.00    -0.200 F 
ENDBRANCH  62  85
ENDBRANCH  36  37
ENDBRANCH  28  31
ENDBRANCH  26  27
ENDBRANCH  25  26
ENDBRANCH   1  25
TORSDOF 15
ENDMDL
MODEL 3
REMARK VINA RESULT:     -11.2      3.076      4.614
REMARK SMILES CC(=O)N1[C@@H](c2c(F)cccc2Cl)SC[C@H]1C(=O)NCCCCCCNC(=O)c1ccc(-c2c3nc(c(-c4c(F)c(F)c(F)c(F)c4F)c4ccc([nH]4)c(-c4c(F)c(F)c(F)c(F)c4F)c4nc(c(-c5c(F)c(F)c(F)c(F)c5F)c5ccc2[nH]5)C=C4)C=C3)cc1
REMARK SMILES IDX 23 1 22 2 21 3 20 4 19 5 17 6 18 7 16 9 4 10 5 11 14 12
REMARK SMILES IDX 15 13 2 14 1 15 3 16 6 17 7 18 12 19 8 20 9 21 11 22 13 23
REMARK SMILES IDX 10 24 24 25 25 26 26 27 27 28 28 30 29 31 30 32 91 33 31 34
REMARK SMILES IDX 90 35 32 36 33 37 34 38 84 39 35 40 89 41 83 42 85 43 36 44
REMARK SMILES IDX 88 45 82 46 81 47 37 49 69 50 49 51 68 52 50 53 53 54 67 55
REMARK SMILES IDX 86 56 51 57 52 58 66 60 87 61 54 62 38 63 39 64 47 65 40 66
REMARK SMILES IDX 41 67 45 68 48 69 42 70 43 71 46 72 44 73 70 74 71 75 79 76
REMARK SMILES IDX 72 77 73 78 77 79 80 80 74 81 75 82 78 83 76 84 55 85 56 86
REMARK SMILES IDX 64 87 57 88 58 89 62 90 65 91 59 92 60 93 63 94 61 95
REMARK H PARENT 19 8 26 29 85 48 53 59
REMARK Flexibility Score: inf
ROOT
ATOM      1  C   UNL A   1      31.909  30.078  27.129  1.00  0.00     0.002 C 
ENDROOT
BRANCH   1   2
ATOM      2  C   UNL A   1      31.404  28.997  26.161  1.00  0.00     0.002 C 
BRANCH   2   3
ATOM      3  C   UNL A   1      31.236  27.571  26.705  1.00  0.00     0.021 C 
BRANCH   3   4
ATOM      4  C   UNL A   1      30.753  26.520  25.709  1.00  0.00     0.116 C 
BRANCH   4   5
ATOM      5  N   UNL A   1      30.198  25.326  26.296  1.00  0.00    -0.354 N 
ATOM      6  C   UNL A   1      30.752  24.083  26.415  1.00  0.00     0.243 C 
ATOM      7  O   UNL A   1      30.278  23.360  27.301  1.00  0.00    -0.273 OA
ATOM      8  H   UNL A   1      29.290  25.419  26.664  1.00  0.00     0.163 HD
BRANCH   6   9
ATOM      9  C   UNL A   1      32.033  23.614  25.665  1.00  0.00     0.185 C 
ATOM     10  N   UNL A   1      32.253  23.952  24.242  1.00  0.00    -0.314 N 
ATOM     11  C   UNL A   1      33.604  24.441  23.904  1.00  0.00     0.179 C 
ATOM     12  S   UNL A   1      34.648  23.879  25.287  1.00  0.00    -0.129 SA
ATOM     13  C   UNL A   1      33.281  23.932  26.483  1.00  0.00     0.107 C 
BRANCH  10  14
ATOM     14  C   UNL A   1      31.399  23.263  23.392  1.00  0.00     0.221 C 
ATOM     15  C   UNL A   1      31.785  21.891  22.905  1.00  0.00     0.114 C 
ATOM     16  O   UNL A   1      30.278  23.703  23.126  1.00  0.00    -0.275 OA
ENDBRANCH  10  14
BRANCH  11  17
ATOM     17  C   UNL A   1      33.656  25.942  23.591  1.00  0.00     0.039 A 
ATOM     18  C   UNL A   1      34.052  26.914  24.531  1.00  0.00     0.130 A 
ATOM     19  C   UNL A   1      33.230  26.457  22.349  1.00  0.00     0.050 A 
ATOM     20  F   UNL A   1      34.483  26.574  25.751  1.00  0.00    -0.207 F 
ATOM     21  C   UNL A   1      33.946  28.288  24.301  1.00  0.00     0.040 A 
ATOM     22  C   UNL A   1      33.098  27.839  22.121  1.00  0.00     0.021 A 
ATOM     23  Cl  UNL A   1      32.903  25.465  20.978  1.00  0.00    -0.084 Cl
ATOM     24  C   UNL A   1      33.441  28.758  23.102  1.00  0.00     0.005 A 
ENDBRANCH  11  17
ENDBRANCH   6   9
ENDBRANCH   4   5
ENDBRANCH   3   4
ENDBRANCH   2   3
ENDBRANCH   1   2
BRANCH   1  25
ATOM     25  C   UNL A   1      31.446  31.522  26.899  1.00  0.00     0.021 C 
BRANCH  25  26
ATOM     26  C   UNL A   1      32.518  32.562  26.565  1.00  0.00     0.116 C 
BRANCH  26  27
ATOM     27  N   UNL A   1      32.324  33.828  27.251  1.00  0.00    -0.352 N 
ATOM     28  C   UNL A   1      32.995  34.382  28.314  1.00  0.00     0.251 C 
ATOM     29  H   UNL A   1      31.592  34.380  26.894  1.00  0.00     0.163 HD
ATOM     30  O   UNL A   1      32.570  35.431  28.807  1.00  0.00    -0.269 OA
BRANCH  28  31
ATOM     31  C   UNL A   1      34.204  33.757  28.908  1.00  0.00     0.039 A 
ATOM     32  C   UNL A   1      34.030  32.668  29.773  1.00  0.00     0.014 A 
ATOM     33  C   UNL A   1      35.490  34.269  28.710  1.00  0.00     0.014 A 
ATOM     34  C   UNL A   1      35.133  32.069  30.397  1.00  0.00     0.010 A 
ATOM     35  C   UNL A   1      36.598  33.643  29.298  1.00  0.00     0.010 A 
ATOM     36  C   UNL A   1      36.433  32.539  30.152  1.00  0.00    -0.014 A 
BRANCH  36  37
ATOM     37  C   UNL A   1      37.610  31.884  30.788  1.00  0.00     0.031 A 
ATOM     38  C   UNL A   1      38.055  32.268  32.173  1.00  0.00     0.074 A 
ATOM     39  C   UNL A   1      38.307  30.951  30.111  1.00  0.00     0.049 A 
ATOM     40  N   UNL A   1      39.057  31.806  32.882  1.00  0.00    -0.248 NA
ATOM     41  C   UNL A   1      37.281  33.321  32.845  1.00  0.00     0.031 C 
ATOM     42  C   UNL A   1      38.006  30.494  28.755  1.00  0.00     0.029 A 
ATOM     43  N   UNL A   1      39.413  30.218  30.472  1.00  0.00    -0.354 N 
ATOM     44  C   UNL A   1      39.037  32.514  34.077  1.00  0.00     0.074 A 
ATOM     45  C   UNL A   1      37.953  33.470  33.978  1.00  0.00     0.031 C 
ATOM     46  C   UNL A   1      38.888  29.544  28.406  1.00  0.00     0.029 A 
ATOM     47  C   UNL A   1      39.835  29.342  29.502  1.00  0.00     0.049 A 
ATOM     48  H   UNL A   1      39.860  30.312  31.344  1.00  0.00     0.167 HD
ATOM     49  C   UNL A   1      39.835  32.371  35.165  1.00  0.00     0.037 A 
ATOM     50  C   UNL A   1      40.864  28.474  29.493  1.00  0.00     0.037 A 
ATOM     51  C   UNL A   1      40.905  31.413  35.279  1.00  0.00     0.049 A 
ATOM     52  C   UNL A   1      41.754  28.354  30.698  1.00  0.00     0.074 A 
ATOM     53  C   UNL A   1      41.721  31.155  36.368  1.00  0.00     0.029 A 
ATOM     54  N   UNL A   1      41.315  30.560  34.265  1.00  0.00    -0.354 N 
ATOM     55  N   UNL A   1      41.683  28.982  31.846  1.00  0.00    -0.248 NA
ATOM     56  C   UNL A   1      42.868  27.398  30.607  1.00  0.00     0.031 C 
ATOM     57  C   UNL A   1      42.655  30.180  35.997  1.00  0.00     0.029 A 
ATOM     58  C   UNL A   1      42.391  29.797  34.692  1.00  0.00     0.049 A 
ATOM     59  H   UNL A   1      40.901  30.504  33.373  1.00  0.00     0.167 HD
ATOM     60  C   UNL A   1      42.720  28.481  32.622  1.00  0.00     0.074 A 
ATOM     61  C   UNL A   1      43.403  27.488  31.817  1.00  0.00     0.031 C 
ATOM     62  C   UNL A   1      43.070  28.813  33.889  1.00  0.00     0.037 A 
BRANCH  49  63
ATOM     63  C   UNL A   1      39.581  33.289  36.327  1.00  0.00     0.064 A 
ATOM     64  C   UNL A   1      38.718  32.930  37.374  1.00  0.00     0.173 A 
ATOM     65  C   UNL A   1      40.226  34.532  36.408  1.00  0.00     0.173 A 
ATOM     66  F   UNL A   1      38.072  31.754  37.342  1.00  0.00    -0.203 F 
ATOM     67  C   UNL A   1      38.479  33.797  38.437  1.00  0.00     0.198 A 
ATOM     68  C   UNL A   1      40.008  35.385  37.486  1.00  0.00     0.198 A 
ATOM     69  F   UNL A   1      41.070  34.920  35.440  1.00  0.00    -0.203 F 
ATOM     70  F   UNL A   1      37.607  33.457  39.395  1.00  0.00    -0.200 F 
ATOM     71  C   UNL A   1      39.128  35.023  38.494  1.00  0.00     0.200 A 
ATOM     72  F   UNL A   1      40.645  36.563  37.546  1.00  0.00    -0.200 F 
ATOM     73  F   UNL A   1      38.894  35.858  39.516  1.00  0.00    -0.200 F 
ENDBRANCH  49  63
BRANCH  50  74
ATOM     74  C   UNL A   1      41.085  27.613  28.302  1.00  0.00     0.064 A 
ATOM     75  C   UNL A   1      41.949  28.021  27.277  1.00  0.00     0.173 A 
ATOM     76  C   UNL A   1      40.454  26.369  28.171  1.00  0.00     0.173 A 
ATOM     77  F   UNL A   1      42.556  29.214  27.348  1.00  0.00    -0.203 F 
ATOM     78  C   UNL A   1      42.169  27.216  26.161  1.00  0.00     0.198 A 
ATOM     79  C   UNL A   1      40.692  25.555  27.066  1.00  0.00     0.198 A 
ATOM     80  F   UNL A   1      39.618  25.936  29.127  1.00  0.00    -0.203 F 
ATOM     81  F   UNL A   1      42.977  27.641  25.180  1.00  0.00    -0.200 F 
ATOM     82  C   UNL A   1      41.547  25.981  26.060  1.00  0.00     0.200 A 
ATOM     83  F   UNL A   1      40.098  24.357  26.978  1.00  0.00    -0.200 F 
ATOM     84  F   UNL A   1      41.767  25.203  24.991  1.00  0.00    -0.200 F 
ENDBRANCH  50  74
BRANCH  62  85
ATOM     85  C   UNL A   1      44.231  28.081  34.499  1.00  0.00     0.064 A 
ATOM     86  C   UNL A   1      45.537  28.589  34.434  1.00  0.00     0.173 A 
ATOM     87  C   UNL A   1      44.031  26.875  35.186  1.00  0.00     0.173 A 
ATOM     88  F   UNL A   1      45.784  29.731  33.774  1.00  0.00    -0.203 F 
ATOM     89  C   UNL A   1      46.601  27.906  35.017  1.00  0.00     0.198 A 
ATOM     90  C   UNL A   1      45.093  26.206  35.790  1.00  0.00     0.198 A 
ATOM     91  F   UNL A   1      42.800  26.346  35.280  1.00  0.00    -0.203 F 
ATOM     92  F   UNL A   1      47.847  28.389  34.905  1.00  0.00    -0.200 F 
ATOM     93  C   UNL A   1      46.378  26.719  35.699  1.00  0.00     0.200 A 
ATOM     94  F   UNL A   1      44.873  25.065  36.458  1.00  0.00    -0.200 F 
ATOM     95  F   UNL A   1      47.403  26.065  36.263  1.00  0.00    -0.200 F 
ENDBRANCH  62  85
ENDBRANCH  36  37
ENDBRANCH  28  31
ENDBRANCH  26  27
ENDBRANCH  25  26
ENDBRANCH   1  25
TORSDOF 15
ENDMDL
