MODEL 1
REMARK VINA RESULT:     -12.6      0.000      0.000
REMARK SMILES Cc1cc(C)cc(Oc2nc3ccccn3c(=O)c2/C=C2\SC(=S)N(CCC(=O)NCCCCCCNC(=O)c3ccc(-c4c5nc(c(-c6c(F)c(F)c(F)c(F)c6F)c6ccc([nH]6)c(-c6c(F)c(F)c(F)c(F)c6F)c6nc(c(-c7c(F)c(F)c(F)c(F)c7F)c7ccc4[nH]7)C=C6)C=C5)cc3)C2=O)c1
REMARK SMILES IDX 32 1 31 2 30 3 28 4 29 5 27 7 26 8 25 9 20 10 21 11 22 12
REMARK SMILES IDX 103 13 23 14 104 15 24 16 19 17 9 18 10 19 11 20 17 21 12 22
REMARK SMILES IDX 16 23 18 24 13 25 15 26 14 27 8 28 7 29 1 30 2 31 3 32
REMARK SMILES IDX 105 33 4 34 5 35 6 36 33 37 34 38 35 39 36 40 37 41 38 42
REMARK SMILES IDX 39 44 40 45 41 46 102 47 42 48 101 49 43 50 44 51 45 52
REMARK SMILES IDX 95 53 46 54 100 55 94 56 96 57 47 58 99 59 93 60 92 61 48 63
REMARK SMILES IDX 80 64 60 65 79 66 61 67 64 68 78 69 97 70 62 71 63 72 77 74
REMARK SMILES IDX 98 75 65 76 49 77 50 78 58 79 51 80 52 81 56 82 59 83 53 84
REMARK SMILES IDX 54 85 57 86 55 87 81 88 82 89 90 90 83 91 84 92 88 93 91 94
REMARK SMILES IDX 85 95 86 96 89 97 87 98 66 99 67 100 75 101 68 102 69 103
REMARK SMILES IDX 73 104 76 105 70 106 71 107 74 108 72 109
REMARK H PARENT 30 6 37 43 96 62 64 73
REMARK Flexibility Score: inf
ROOT
ATOM      1  C   UNL A   1      50.846  19.399  36.603  1.00  0.00     0.021 C 
ENDROOT
BRANCH   1   2
ATOM      2  C   UNL A   1      50.555  19.578  38.086  1.00  0.00     0.116 C 
BRANCH   2   3
ATOM      3  N   UNL A   1      51.480  18.805  38.885  1.00  0.00    -0.356 N 
ATOM      4  C   UNL A   1      51.329  18.273  40.131  1.00  0.00     0.221 C 
ATOM      5  O   UNL A   1      52.343  17.901  40.726  1.00  0.00    -0.275 OA
ATOM      6  H   UNL A   1      52.356  18.640  38.465  1.00  0.00     0.163 HD
BRANCH   4   7
ATOM      7  C   UNL A   1      49.956  18.074  40.755  1.00  0.00     0.122 C 
BRANCH   7   8
ATOM      8  C   UNL A   1      49.757  18.787  42.103  1.00  0.00     0.137 C 
BRANCH   8   9
ATOM      9  N   UNL A   1      48.411  18.571  42.661  1.00  0.00    -0.292 N 
ATOM     10  C   UNL A   1      45.526  16.544  42.298  1.00  0.00     0.041 C 
ATOM     11  C   UNL A   1      46.316  17.551  42.695  1.00  0.00     0.081 C 
ATOM     12  S   UNL A   1      46.391  18.269  44.245  1.00  0.00    -0.054 SA
ATOM     13  C   UNL A   1      47.391  18.124  41.845  1.00  0.00     0.266 C 
ATOM     14  C   UNL A   1      48.037  18.839  43.964  1.00  0.00     0.148 C 
ATOM     15  O   UNL A   1      47.347  18.177  40.626  1.00  0.00    -0.268 OA
ATOM     16  S   UNL A   1      48.936  19.544  45.175  1.00  0.00    -0.052 S 
BRANCH  10  17
ATOM     17  C   UNL A   1      44.433  15.964  43.067  1.00  0.00     0.104 A 
ATOM     18  C   UNL A   1      44.513  15.301  44.268  1.00  0.00     0.234 A 
ATOM     19  N   UNL A   1      43.505  14.580  44.851  1.00  0.00    -0.194 NA
ATOM     20  C   UNL A   1      42.794  13.987  43.967  1.00  0.00     0.143 A 
ATOM     21  C   UNL A   1      43.189  15.860  42.199  1.00  0.00     0.269 A 
ATOM     22  C   UNL A   1      42.277  12.131  44.142  1.00  0.00     0.048 A 
ATOM     23  N   UNL A   1      42.537  14.685  42.431  1.00  0.00    -0.267 N 
ATOM     24  O   UNL A   1      42.999  16.588  41.231  1.00  0.00    -0.268 OA
ATOM     25  C   UNL A   1      41.559  11.349  42.615  1.00  0.00     0.005 A 
ATOM     26  C   UNL A   1      41.795  13.896  41.084  1.00  0.00     0.096 A 
ATOM     27  C   UNL A   1      41.368  12.443  41.079  1.00  0.00     0.019 A 
BRANCH  18  28
ATOM     28  O   UNL A   1      45.722  14.859  44.819  1.00  0.00    -0.438 OA
BRANCH  28  29
ATOM     29  C   UNL A   1      45.912  13.613  45.342  1.00  0.00     0.130 A 
ATOM     30  C   UNL A   1      45.658  10.205  43.940  1.00  0.00     0.044 C 
ATOM     31  C   UNL A   1      45.803  11.273  44.970  1.00  0.00    -0.047 A 
ATOM     32  C   UNL A   1      45.515  11.058  46.326  1.00  0.00     0.007 A 
ATOM     33  C   UNL A   1      46.126  12.541  44.515  1.00  0.00     0.050 A 
ATOM     34  C   UNL A   1      45.486  12.128  47.229  1.00  0.00    -0.047 A 
ATOM     35  C   UNL A   1      45.170  11.865  48.677  1.00  0.00     0.044 C 
ATOM     36  C   UNL A   1      45.666  13.420  46.718  1.00  0.00     0.050 A 
ENDBRANCH  28  29
ENDBRANCH  18  28
ENDBRANCH  10  17
ENDBRANCH   8   9
ENDBRANCH   7   8
ENDBRANCH   4   7
ENDBRANCH   2   3
ENDBRANCH   1   2
BRANCH   1  37
ATOM     37  C   UNL A   1      51.029  20.587  35.647  1.00  0.00     0.002 C 
BRANCH  37  38
ATOM     38  C   UNL A   1      49.890  20.879  34.652  1.00  0.00     0.002 C 
BRANCH  38  39
ATOM     39  C   UNL A   1      48.888  21.959  35.076  1.00  0.00     0.021 C 
BRANCH  39  40
ATOM     40  C   UNL A   1      47.572  21.658  35.795  1.00  0.00     0.116 C 
BRANCH  40  41
ATOM     41  N   UNL A   1      47.387  22.441  37.007  1.00  0.00    -0.352 N 
ATOM     42  C   UNL A   1      46.845  23.669  37.314  1.00  0.00     0.251 C 
ATOM     43  H   UNL A   1      47.735  21.979  37.804  1.00  0.00     0.163 HD
ATOM     44  O   UNL A   1      46.984  24.071  38.472  1.00  0.00    -0.269 OA
BRANCH  42  45
ATOM     45  C   UNL A   1      46.147  24.596  36.390  1.00  0.00     0.039 A 
ATOM     46  C   UNL A   1      44.393  24.317  36.144  1.00  0.00     0.014 A 
ATOM     47  C   UNL A   1      46.869  26.039  35.584  1.00  0.00     0.014 A 
ATOM     48  C   UNL A   1      43.324  25.403  35.183  1.00  0.00     0.010 A 
ATOM     49  C   UNL A   1      45.669  27.294  34.515  1.00  0.00     0.010 A 
ATOM     50  C   UNL A   1      43.906  26.885  34.372  1.00  0.00    -0.014 A 
BRANCH  50  51
ATOM     51  C   UNL A   1      42.985  27.723  33.607  1.00  0.00     0.031 A 
ATOM     52  C   UNL A   1      42.845  27.482  32.143  1.00  0.00     0.074 A 
ATOM     53  C   UNL A   1      42.257  28.638  34.267  1.00  0.00     0.049 A 
ATOM     54  N   UNL A   1      42.028  28.018  31.277  1.00  0.00    -0.248 NA
ATOM     55  C   UNL A   1      43.757  26.494  31.558  1.00  0.00     0.031 C 
ATOM     56  C   UNL A   1      42.377  28.949  35.693  1.00  0.00     0.029 A 
ATOM     57  N   UNL A   1      41.257  29.458  33.830  1.00  0.00    -0.354 N 
ATOM     58  C   UNL A   1      42.320  27.403  30.066  1.00  0.00     0.074 A 
ATOM     59  C   UNL A   1      43.454  26.541  30.275  1.00  0.00     0.031 C 
ATOM     60  C   UNL A   1      41.447  29.860  36.023  1.00  0.00     0.029 A 
ATOM     61  C   UNL A   1      40.694  30.216  34.828  1.00  0.00     0.049 A 
ATOM     62  H   UNL A   1      40.966  29.502  32.891  1.00  0.00     0.167 HD
ATOM     63  C   UNL A   1      41.652  27.505  28.896  1.00  0.00     0.037 A 
ATOM     64  C   UNL A   1      39.677  31.092  34.756  1.00  0.00     0.037 A 
ATOM     65  C   UNL A   1      40.523  28.374  28.733  1.00  0.00     0.049 A 
ATOM     66  C   UNL A   1      39.004  31.255  33.417  1.00  0.00     0.074 A 
ATOM     67  C   UNL A   1      39.757  28.604  27.610  1.00  0.00     0.029 A 
ATOM     68  N   UNL A   1      40.008  29.168  29.752  1.00  0.00    -0.354 N 
ATOM     69  N   UNL A   1      39.249  30.638  32.282  1.00  0.00    -0.248 NA
ATOM     70  C   UNL A   1      37.904  32.222  33.350  1.00  0.00     0.031 C 
ATOM     71  C   UNL A   1      38.822  29.595  27.930  1.00  0.00     0.029 A 
ATOM     72  C   UNL A   1      38.948  29.915  29.275  1.00  0.00     0.049 A 
ATOM     73  H   UNL A   1      40.348  29.195  30.676  1.00  0.00     0.167 HD
ATOM     74  C   UNL A   1      38.312  31.113  31.376  1.00  0.00     0.074 A 
ATOM     75  C   UNL A   1      37.475  32.043  32.110  1.00  0.00     0.031 C 
ATOM     76  C   UNL A   1      38.149  30.823  30.059  1.00  0.00     0.037 A 
BRANCH  63  77
ATOM     77  C   UNL A   1      42.134  26.676  27.742  1.00  0.00     0.064 A 
ATOM     78  C   UNL A   1      41.619  25.394  27.485  1.00  0.00     0.173 A 
ATOM     79  C   UNL A   1      43.132  27.159  26.885  1.00  0.00     0.173 A 
ATOM     80  F   UNL A   1      40.682  24.866  28.289  1.00  0.00    -0.203 F 
ATOM     81  C   UNL A   1      42.108  24.618  26.436  1.00  0.00     0.198 A 
ATOM     82  C   UNL A   1      43.593  26.397  25.814  1.00  0.00     0.198 A 
ATOM     83  F   UNL A   1      43.671  28.370  27.090  1.00  0.00    -0.203 F 
ATOM     84  F   UNL A   1      41.649  23.371  26.256  1.00  0.00    -0.200 F 
ATOM     85  C   UNL A   1      43.087  25.123  25.596  1.00  0.00     0.200 A 
ATOM     86  F   UNL A   1      44.535  26.890  25.000  1.00  0.00    -0.200 F 
ATOM     87  F   UNL A   1      43.555  24.380  24.584  1.00  0.00    -0.200 F 
ENDBRANCH  63  77
BRANCH  64  88
ATOM     88  C   UNL A   1      39.234  31.854  35.957  1.00  0.00     0.064 A 
ATOM     89  C   UNL A   1      38.281  31.335  36.846  1.00  0.00     0.173 A 
ATOM     90  C   UNL A   1      39.723  33.144  36.220  1.00  0.00     0.173 A 
ATOM     91  F   UNL A   1      37.774  30.109  36.645  1.00  0.00    -0.203 F 
ATOM     92  C   UNL A   1      37.798  32.092  37.913  1.00  0.00     0.198 A 
ATOM     93  C   UNL A   1      39.272  33.882  37.312  1.00  0.00     0.198 A 
ATOM     94  F   UNL A   1      40.646  33.691  35.415  1.00  0.00    -0.203 F 
ATOM     95  F   UNL A   1      36.829  31.598  38.697  1.00  0.00    -0.200 F 
ATOM     96  C   UNL A   1      38.295  33.364  38.146  1.00  0.00     0.200 A 
ATOM     97  F   UNL A   1      39.775  35.102  37.546  1.00  0.00    -0.200 F 
ATOM     98  F   UNL A   1      37.823  34.095  39.166  1.00  0.00    -0.200 F 
ENDBRANCH  64  88
BRANCH  76  99
ATOM     99  C   UNL A   1      36.997  31.486  29.366  1.00  0.00     0.064 A 
ATOM    100  C   UNL A   1      37.009  32.853  29.052  1.00  0.00     0.173 A 
ATOM    101  C   UNL A   1      35.870  30.734  29.001  1.00  0.00     0.173 A 
ATOM    102  F   UNL A   1      38.065  33.614  29.383  1.00  0.00    -0.203 F 
ATOM    103  C   UNL A   1      35.904  33.456  28.464  1.00  0.00     0.198 A 
ATOM    104  C   UNL A   1      34.792  31.330  28.359  1.00  0.00     0.198 A 
ATOM    105  F   UNL A   1      35.819  29.418  29.258  1.00  0.00    -0.203 F 
ATOM    106  F   UNL A   1      35.897  34.781  28.266  1.00  0.00    -0.200 F 
ATOM    107  C   UNL A   1      34.801  32.694  28.112  1.00  0.00     0.200 A 
ATOM    108  F   UNL A   1      33.742  30.585  27.988  1.00  0.00    -0.200 F 
ATOM    109  F   UNL A   1      33.736  33.278  27.544  1.00  0.00    -0.200 F 
ENDBRANCH  76  99
ENDBRANCH  50  51
ENDBRANCH  42  45
ENDBRANCH  40  41
ENDBRANCH  39  40
ENDBRANCH  38  39
ENDBRANCH  37  38
ENDBRANCH   1  37
TORSDOF 18
ENDMDL
MODEL 2
REMARK VINA RESULT:     -12.5      9.542     15.720
REMARK SMILES Cc1cc(C)cc(Oc2nc3ccccn3c(=O)c2/C=C2\SC(=S)N(CCC(=O)NCCCCCCNC(=O)c3ccc(-c4c5nc(c(-c6c(F)c(F)c(F)c(F)c6F)c6ccc([nH]6)c(-c6c(F)c(F)c(F)c(F)c6F)c6nc(c(-c7c(F)c(F)c(F)c(F)c7F)c7ccc4[nH]7)C=C6)C=C5)cc3)C2=O)c1
REMARK SMILES IDX 32 1 31 2 30 3 28 4 29 5 27 7 26 8 25 9 20 10 21 11 22 12
REMARK SMILES IDX 103 13 23 14 104 15 24 16 19 17 9 18 10 19 11 20 17 21 12 22
REMARK SMILES IDX 16 23 18 24 13 25 15 26 14 27 8 28 7 29 1 30 2 31 3 32
REMARK SMILES IDX 105 33 4 34 5 35 6 36 33 37 34 38 35 39 36 40 37 41 38 42
REMARK SMILES IDX 39 44 40 45 41 46 102 47 42 48 101 49 43 50 44 51 45 52
REMARK SMILES IDX 95 53 46 54 100 55 94 56 96 57 47 58 99 59 93 60 92 61 48 63
REMARK SMILES IDX 80 64 60 65 79 66 61 67 64 68 78 69 97 70 62 71 63 72 77 74
REMARK SMILES IDX 98 75 65 76 49 77 50 78 58 79 51 80 52 81 56 82 59 83 53 84
REMARK SMILES IDX 54 85 57 86 55 87 81 88 82 89 90 90 83 91 84 92 88 93 91 94
REMARK SMILES IDX 85 95 86 96 89 97 87 98 66 99 67 100 75 101 68 102 69 103
REMARK SMILES IDX 73 104 76 105 70 106 71 107 74 108 72 109
REMARK H PARENT 30 6 37 43 96 62 64 73
REMARK Flexibility Score: inf
ROOT
ATOM      1  C   UNL A   1      32.194  27.851  26.051  1.00  0.00     0.021 C 
ENDROOT
BRANCH   1   2
ATOM      2  C   UNL A   1      31.503  26.580  25.578  1.00  0.00     0.116 C 
BRANCH   2   3
ATOM      3  N   UNL A   1      31.385  26.569  24.137  1.00  0.00    -0.356 N 
ATOM      4  C   UNL A   1      32.337  26.361  23.182  1.00  0.00     0.221 C 
ATOM      5  O   UNL A   1      32.067  26.678  22.022  1.00  0.00    -0.275 OA
ATOM      6  H   UNL A   1      30.479  26.738  23.791  1.00  0.00     0.163 HD
BRANCH   4   7
ATOM      7  C   UNL A   1      33.667  25.699  23.508  1.00  0.00     0.122 C 
BRANCH   7   8
ATOM      8  C   UNL A   1      33.653  24.163  23.436  1.00  0.00     0.137 C 
BRANCH   8   9
ATOM      9  N   UNL A   1      34.595  23.546  24.384  1.00  0.00    -0.292 N 
ATOM     10  C   UNL A   1      38.008  23.554  25.340  1.00  0.00     0.041 C 
ATOM     11  C   UNL A   1      36.727  23.172  25.248  1.00  0.00     0.081 C 
ATOM     12  S   UNL A   1      35.724  22.577  26.498  1.00  0.00    -0.054 SA
ATOM     13  C   UNL A   1      35.912  23.352  24.019  1.00  0.00     0.266 C 
ATOM     14  C   UNL A   1      34.264  23.068  25.638  1.00  0.00     0.148 C 
ATOM     15  O   UNL A   1      36.365  23.325  22.886  1.00  0.00    -0.268 OA
ATOM     16  S   UNL A   1      32.758  22.968  26.343  1.00  0.00    -0.052 S 
BRANCH  10  17
ATOM     17  C   UNL A   1      38.870  23.372  26.500  1.00  0.00     0.104 A 
ATOM     18  C   UNL A   1      39.260  24.325  27.411  1.00  0.00     0.234 A 
ATOM     19  N   UNL A   1      40.240  24.173  28.355  1.00  0.00    -0.194 NA
ATOM     20  C   UNL A   1      41.195  23.445  27.912  1.00  0.00     0.143 A 
ATOM     21  C   UNL A   1      39.605  22.046  26.396  1.00  0.00     0.269 A 
ATOM     22  C   UNL A   1      43.052  23.939  28.140  1.00  0.00     0.048 A 
ATOM     23  N   UNL A   1      40.897  22.176  26.810  1.00  0.00    -0.267 N 
ATOM     24  O   UNL A   1      39.169  21.102  25.745  1.00  0.00    -0.268 OA
ATOM     25  C   UNL A   1      44.274  22.961  27.134  1.00  0.00     0.005 A 
ATOM     26  C   UNL A   1      42.108  21.274  25.970  1.00  0.00     0.096 A 
ATOM     27  C   UNL A   1      43.591  21.572  26.039  1.00  0.00     0.019 A 
BRANCH  18  28
ATOM     28  O   UNL A   1      39.076  25.698  27.209  1.00  0.00    -0.438 OA
BRANCH  28  29
ATOM     29  C   UNL A   1      39.596  26.665  28.020  1.00  0.00     0.130 A 
ATOM     30  C   UNL A   1      38.150  28.811  30.657  1.00  0.00     0.044 C 
ATOM     31  C   UNL A   1      39.155  28.301  29.680  1.00  0.00    -0.047 A 
ATOM     32  C   UNL A   1      40.210  29.091  29.201  1.00  0.00     0.007 A 
ATOM     33  C   UNL A   1      38.939  27.033  29.166  1.00  0.00     0.050 A 
ATOM     34  C   UNL A   1      41.020  28.640  28.151  1.00  0.00    -0.047 A 
ATOM     35  C   UNL A   1      42.142  29.513  27.656  1.00  0.00     0.044 C 
ATOM     36  C   UNL A   1      40.688  27.421  27.545  1.00  0.00     0.050 A 
ENDBRANCH  28  29
ENDBRANCH  18  28
ENDBRANCH  10  17
ENDBRANCH   8   9
ENDBRANCH   7   8
ENDBRANCH   4   7
ENDBRANCH   2   3
ENDBRANCH   1   2
BRANCH   1  37
ATOM     37  C   UNL A   1      33.625  27.854  26.609  1.00  0.00     0.002 C 
BRANCH  37  38
ATOM     38  C   UNL A   1      34.375  29.199  26.626  1.00  0.00     0.002 C 
BRANCH  38  39
ATOM     39  C   UNL A   1      35.481  29.338  27.679  1.00  0.00     0.021 C 
BRANCH  39  40
ATOM     40  C   UNL A   1      36.190  30.656  27.994  1.00  0.00     0.116 C 
BRANCH  40  41
ATOM     41  N   UNL A   1      35.371  31.580  28.763  1.00  0.00    -0.352 N 
ATOM     42  C   UNL A   1      35.449  32.166  30.006  1.00  0.00     0.251 C 
ATOM     43  H   UNL A   1      34.562  31.854  28.273  1.00  0.00     0.163 HD
ATOM     44  O   UNL A   1      34.472  32.819  30.382  1.00  0.00    -0.269 OA
BRANCH  42  45
ATOM     45  C   UNL A   1      36.565  32.063  30.977  1.00  0.00     0.039 A 
ATOM     46  C   UNL A   1      36.235  31.162  32.492  1.00  0.00     0.014 A 
ATOM     47  C   UNL A   1      38.250  32.657  30.727  1.00  0.00     0.014 A 
ATOM     48  C   UNL A   1      37.482  30.793  33.738  1.00  0.00     0.010 A 
ATOM     49  C   UNL A   1      39.680  32.226  32.114  1.00  0.00     0.010 A 
ATOM     50  C   UNL A   1      39.193  31.287  33.590  1.00  0.00    -0.014 A 
BRANCH  50  51
ATOM     51  C   UNL A   1      40.156  30.955  34.639  1.00  0.00     0.031 A 
ATOM     52  C   UNL A   1      40.999  29.737  34.478  1.00  0.00     0.074 A 
ATOM     53  C   UNL A   1      40.282  31.796  35.676  1.00  0.00     0.049 A 
ATOM     54  N   UNL A   1      41.983  29.293  35.211  1.00  0.00    -0.248 NA
ATOM     55  C   UNL A   1      40.695  28.885  33.324  1.00  0.00     0.031 C 
ATOM     56  C   UNL A   1      39.459  32.984  35.911  1.00  0.00     0.029 A 
ATOM     57  N   UNL A   1      41.167  31.794  36.717  1.00  0.00    -0.354 N 
ATOM     58  C   UNL A   1      42.420  28.134  34.580  1.00  0.00     0.074 A 
ATOM     59  C   UNL A   1      41.534  27.878  33.475  1.00  0.00     0.031 C 
ATOM     60  C   UNL A   1      39.911  33.624  37.002  1.00  0.00     0.029 A 
ATOM     61  C   UNL A   1      41.031  32.873  37.555  1.00  0.00     0.049 A 
ATOM     62  H   UNL A   1      41.839  31.087  36.853  1.00  0.00     0.167 HD
ATOM     63  C   UNL A   1      43.509  27.389  34.866  1.00  0.00     0.037 A 
ATOM     64  C   UNL A   1      41.751  33.198  38.643  1.00  0.00     0.037 A 
ATOM     65  C   UNL A   1      44.368  27.684  35.975  1.00  0.00     0.049 A 
ATOM     66  C   UNL A   1      42.908  32.299  38.994  1.00  0.00     0.074 A 
ATOM     67  C   UNL A   1      45.494  27.014  36.407  1.00  0.00     0.029 A 
ATOM     68  N   UNL A   1      44.174  28.757  36.837  1.00  0.00    -0.354 N 
ATOM     69  N   UNL A   1      43.351  31.230  38.370  1.00  0.00    -0.248 NA
ATOM     70  C   UNL A   1      43.678  32.658  40.189  1.00  0.00     0.031 C 
ATOM     71  C   UNL A   1      45.938  27.639  37.576  1.00  0.00     0.029 A 
ATOM     72  C   UNL A   1      45.144  28.752  37.820  1.00  0.00     0.049 A 
ATOM     73  H   UNL A   1      43.452  29.423  36.759  1.00  0.00     0.167 HD
ATOM     74  C   UNL A   1      44.470  30.809  39.072  1.00  0.00     0.074 A 
ATOM     75  C   UNL A   1      44.654  31.764  40.149  1.00  0.00     0.031 C 
ATOM     76  C   UNL A   1      45.276  29.736  38.866  1.00  0.00     0.037 A 
BRANCH  63  77
ATOM     77  C   UNL A   1      43.802  26.212  33.981  1.00  0.00     0.064 A 
ATOM     78  C   UNL A   1      44.415  26.364  32.726  1.00  0.00     0.173 A 
ATOM     79  C   UNL A   1      43.457  24.915  34.383  1.00  0.00     0.173 A 
ATOM     80  F   UNL A   1      44.742  27.586  32.274  1.00  0.00    -0.203 F 
ATOM     81  C   UNL A   1      44.640  25.267  31.896  1.00  0.00     0.198 A 
ATOM     82  C   UNL A   1      43.718  23.816  33.569  1.00  0.00     0.198 A 
ATOM     83  F   UNL A   1      42.857  24.711  35.565  1.00  0.00    -0.203 F 
ATOM     84  F   UNL A   1      45.162  25.448  30.674  1.00  0.00    -0.200 F 
ATOM     85  C   UNL A   1      44.300  23.993  32.322  1.00  0.00     0.200 A 
ATOM     86  F   UNL A   1      43.394  22.584  33.985  1.00  0.00    -0.200 F 
ATOM     87  F   UNL A   1      44.521  22.938  31.527  1.00  0.00    -0.200 F 
ENDBRANCH  63  77
BRANCH  64  88
ATOM     88  C   UNL A   1      41.417  34.403  39.452  1.00  0.00     0.064 A 
ATOM     89  C   UNL A   1      40.517  34.341  40.527  1.00  0.00     0.173 A 
ATOM     90  C   UNL A   1      41.961  35.660  39.142  1.00  0.00     0.173 A 
ATOM     91  F   UNL A   1      39.963  33.168  40.870  1.00  0.00    -0.203 F 
ATOM     92  C   UNL A   1      40.134  35.490  41.218  1.00  0.00     0.198 A 
ATOM     93  C   UNL A   1      41.611  36.800  39.862  1.00  0.00     0.198 A 
ATOM     94  F   UNL A   1      42.837  35.783  38.134  1.00  0.00    -0.203 F 
ATOM     95  F   UNL A   1      39.211  35.408  42.188  1.00  0.00    -0.200 F 
ATOM     96  C   UNL A   1      40.683  36.718  40.887  1.00  0.00     0.200 A 
ATOM     97  F   UNL A   1      42.163  37.981  39.552  1.00  0.00    -0.200 F 
ATOM     98  F   UNL A   1      40.306  37.823  41.545  1.00  0.00    -0.200 F 
ENDBRANCH  64  88
BRANCH  76  99
ATOM     99  C   UNL A   1      46.444  29.587  39.795  1.00  0.00     0.064 A 
ATOM    100  C   UNL A   1      47.680  30.198  39.534  1.00  0.00     0.173 A 
ATOM    101  C   UNL A   1      46.315  28.827  40.968  1.00  0.00     0.173 A 
ATOM    102  F   UNL A   1      47.851  30.932  38.424  1.00  0.00    -0.203 F 
ATOM    103  C   UNL A   1      48.764  29.994  40.379  1.00  0.00     0.198 A 
ATOM    104  C   UNL A   1      47.386  28.676  41.840  1.00  0.00     0.198 A 
ATOM    105  F   UNL A   1      45.148  28.242  41.274  1.00  0.00    -0.203 F 
ATOM    106  F   UNL A   1      49.961  30.504  40.059  1.00  0.00    -0.200 F 
ATOM    107  C   UNL A   1      48.615  29.240  41.533  1.00  0.00     0.200 A 
ATOM    108  F   UNL A   1      47.230  27.977  42.972  1.00  0.00    -0.200 F 
ATOM    109  F   UNL A   1      49.662  29.046  42.346  1.00  0.00    -0.200 F 
ENDBRANCH  76  99
ENDBRANCH  50  51
ENDBRANCH  42  45
ENDBRANCH  40  41
ENDBRANCH  39  40
ENDBRANCH  38  39
ENDBRANCH  37  38
ENDBRANCH   1  37
TORSDOF 18
ENDMDL
MODEL 3
REMARK VINA RESULT:     -12.3      7.927     13.587
REMARK SMILES Cc1cc(C)cc(Oc2nc3ccccn3c(=O)c2/C=C2\SC(=S)N(CCC(=O)NCCCCCCNC(=O)c3ccc(-c4c5nc(c(-c6c(F)c(F)c(F)c(F)c6F)c6ccc([nH]6)c(-c6c(F)c(F)c(F)c(F)c6F)c6nc(c(-c7c(F)c(F)c(F)c(F)c7F)c7ccc4[nH]7)C=C6)C=C5)cc3)C2=O)c1
REMARK SMILES IDX 32 1 31 2 30 3 28 4 29 5 27 7 26 8 25 9 20 10 21 11 22 12
REMARK SMILES IDX 103 13 23 14 104 15 24 16 19 17 9 18 10 19 11 20 17 21 12 22
REMARK SMILES IDX 16 23 18 24 13 25 15 26 14 27 8 28 7 29 1 30 2 31 3 32
REMARK SMILES IDX 105 33 4 34 5 35 6 36 33 37 34 38 35 39 36 40 37 41 38 42
REMARK SMILES IDX 39 44 40 45 41 46 102 47 42 48 101 49 43 50 44 51 45 52
REMARK SMILES IDX 95 53 46 54 100 55 94 56 96 57 47 58 99 59 93 60 92 61 48 63
REMARK SMILES IDX 80 64 60 65 79 66 61 67 64 68 78 69 97 70 62 71 63 72 77 74
REMARK SMILES IDX 98 75 65 76 49 77 50 78 58 79 51 80 52 81 56 82 59 83 53 84
REMARK SMILES IDX 54 85 57 86 55 87 81 88 82 89 90 90 83 91 84 92 88 93 91 94
REMARK SMILES IDX 85 95 86 96 89 97 87 98 66 99 67 100 75 101 68 102 69 103
REMARK SMILES IDX 73 104 76 105 70 106 71 107 74 108 72 109
REMARK H PARENT 30 6 37 43 96 62 64 73
REMARK Flexibility Score: inf
ROOT
ATOM      1  C   UNL A   1      47.730  26.063  32.200  1.00  0.00     0.021 C 
ENDROOT
BRANCH   1   2
ATOM      2  C   UNL A   1      48.500  25.894  30.899  1.00  0.00     0.116 C 
BRANCH   2   3
ATOM      3  N   UNL A   1      49.799  26.525  30.988  1.00  0.00    -0.356 N 
ATOM      4  C   UNL A   1      50.566  27.090  30.013  1.00  0.00     0.221 C 
ATOM      5  O   UNL A   1      51.752  27.308  30.268  1.00  0.00    -0.275 OA
ATOM      6  H   UNL A   1      50.189  26.549  31.891  1.00  0.00     0.163 HD
BRANCH   4   7
ATOM      7  C   UNL A   1      49.980  27.505  28.672  1.00  0.00     0.122 C 
BRANCH   7   8
ATOM      8  C   UNL A   1      50.585  26.782  27.457  1.00  0.00     0.137 C 
BRANCH   8   9
ATOM      9  N   UNL A   1      49.560  26.157  26.605  1.00  0.00    -0.292 N 
ATOM     10  C   UNL A   1      46.571  24.259  26.763  1.00  0.00     0.041 C 
ATOM     11  C   UNL A   1      47.663  24.847  26.259  1.00  0.00     0.081 C 
ATOM     12  S   UNL A   1      47.811  25.667  24.766  1.00  0.00    -0.054 SA
ATOM     13  C   UNL A   1      48.929  25.002  27.022  1.00  0.00     0.266 C 
ATOM     14  C   UNL A   1      49.191  26.599  25.349  1.00  0.00     0.148 C 
ATOM     15  O   UNL A   1      49.318  24.216  27.870  1.00  0.00    -0.268 OA
ATOM     16  S   UNL A   1      49.850  27.839  24.453  1.00  0.00    -0.052 S 
BRANCH  10  17
ATOM     17  C   UNL A   1      45.315  24.043  26.056  1.00  0.00     0.104 A 
ATOM     18  C   UNL A   1      44.091  24.601  26.334  1.00  0.00     0.234 A 
ATOM     19  N   UNL A   1      42.894  24.211  25.794  1.00  0.00    -0.194 NA
ATOM     20  C   UNL A   1      42.866  22.946  25.606  1.00  0.00     0.143 A 
ATOM     21  C   UNL A   1      45.430  22.820  25.160  1.00  0.00     0.269 A 
ATOM     22  C   UNL A   1      41.347  21.865  26.121  1.00  0.00     0.048 A 
ATOM     23  N   UNL A   1      44.283  22.085  25.199  1.00  0.00    -0.267 N 
ATOM     24  O   UNL A   1      46.506  22.418  24.729  1.00  0.00    -0.268 OA
ATOM     25  C   UNL A   1      41.624  20.025  26.100  1.00  0.00     0.005 A 
ATOM     26  C   UNL A   1      44.427  20.363  25.141  1.00  0.00     0.096 A 
ATOM     27  C   UNL A   1      43.325  19.404  25.542  1.00  0.00     0.019 A 
BRANCH  18  28
ATOM     28  O   UNL A   1      43.814  25.287  27.522  1.00  0.00    -0.438 OA
BRANCH  28  29
ATOM     29  C   UNL A   1      43.697  26.644  27.611  1.00  0.00     0.130 A 
ATOM     30  C   UNL A   1      40.854  28.974  27.241  1.00  0.00     0.044 C 
ATOM     31  C   UNL A   1      42.268  28.524  27.389  1.00  0.00    -0.047 A 
ATOM     32  C   UNL A   1      43.357  29.324  27.014  1.00  0.00     0.007 A 
ATOM     33  C   UNL A   1      42.469  27.220  27.809  1.00  0.00     0.050 A 
ATOM     34  C   UNL A   1      44.656  28.800  26.995  1.00  0.00    -0.047 A 
ATOM     35  C   UNL A   1      45.804  29.682  26.583  1.00  0.00     0.044 C 
ATOM     36  C   UNL A   1      44.816  27.437  27.278  1.00  0.00     0.050 A 
ENDBRANCH  28  29
ENDBRANCH  18  28
ENDBRANCH  10  17
ENDBRANCH   8   9
ENDBRANCH   7   8
ENDBRANCH   4   7
ENDBRANCH   2   3
ENDBRANCH   1   2
BRANCH   1  37
ATOM     37  C   UNL A   1      48.341  25.735  33.571  1.00  0.00     0.002 C 
BRANCH  37  38
ATOM     38  C   UNL A   1      49.078  24.390  33.714  1.00  0.00     0.002 C 
BRANCH  38  39
ATOM     39  C   UNL A   1      48.387  23.336  34.586  1.00  0.00     0.021 C 
BRANCH  39  40
ATOM     40  C   UNL A   1      47.169  23.628  35.464  1.00  0.00     0.116 C 
BRANCH  40  41
ATOM     41  N   UNL A   1      45.984  22.884  35.068  1.00  0.00    -0.352 N 
ATOM     42  C   UNL A   1      44.891  23.125  34.266  1.00  0.00     0.251 C 
ATOM     43  H   UNL A   1      45.955  21.988  35.474  1.00  0.00     0.163 HD
ATOM     44  O   UNL A   1      43.994  22.279  34.269  1.00  0.00    -0.269 OA
BRANCH  42  45
ATOM     45  C   UNL A   1      44.645  24.321  33.424  1.00  0.00     0.039 A 
ATOM     46  C   UNL A   1      44.533  25.896  34.274  1.00  0.00     0.014 A 
ATOM     47  C   UNL A   1      44.561  24.355  31.622  1.00  0.00     0.014 A 
ATOM     48  C   UNL A   1      44.383  27.485  33.439  1.00  0.00     0.010 A 
ATOM     49  C   UNL A   1      44.418  26.145  30.659  1.00  0.00     0.010 A 
ATOM     50  C   UNL A   1      44.333  27.658  31.661  1.00  0.00    -0.014 A 
BRANCH  50  51
ATOM     51  C   UNL A   1      44.210  28.978  31.046  1.00  0.00     0.031 A 
ATOM     52  C   UNL A   1      42.868  29.624  30.999  1.00  0.00     0.074 A 
ATOM     53  C   UNL A   1      45.324  29.580  30.603  1.00  0.00     0.049 A 
ATOM     54  N   UNL A   1      42.524  30.819  30.603  1.00  0.00    -0.248 NA
ATOM     55  C   UNL A   1      41.740  28.810  31.462  1.00  0.00     0.031 C 
ATOM     56  C   UNL A   1      46.662  28.985  30.586  1.00  0.00     0.029 A 
ATOM     57  N   UNL A   1      45.513  30.837  30.103  1.00  0.00    -0.354 N 
ATOM     58  C   UNL A   1      41.150  30.892  30.803  1.00  0.00     0.074 A 
ATOM     59  C   UNL A   1      40.704  29.598  31.247  1.00  0.00     0.031 C 
ATOM     60  C   UNL A   1      47.543  29.897  30.144  1.00  0.00     0.029 A 
ATOM     61  C   UNL A   1      46.826  31.123  29.818  1.00  0.00     0.049 A 
ATOM     62  H   UNL A   1      44.779  31.478  29.960  1.00  0.00     0.167 HD
ATOM     63  C   UNL A   1      40.347  31.972  30.687  1.00  0.00     0.037 A 
ATOM     64  C   UNL A   1      47.364  32.263  29.352  1.00  0.00     0.037 A 
ATOM     65  C   UNL A   1      40.836  33.245  30.246  1.00  0.00     0.049 A 
ATOM     66  C   UNL A   1      46.431  33.429  29.145  1.00  0.00     0.074 A 
ATOM     67  C   UNL A   1      40.147  34.424  30.056  1.00  0.00     0.029 A 
ATOM     68  N   UNL A   1      42.165  33.489  29.917  1.00  0.00    -0.354 N 
ATOM     69  N   UNL A   1      45.140  33.513  29.380  1.00  0.00    -0.248 NA
ATOM     70  C   UNL A   1      47.028  34.663  28.626  1.00  0.00     0.031 C 
ATOM     71  C   UNL A   1      41.046  35.364  29.541  1.00  0.00     0.029 A 
ATOM     72  C   UNL A   1      42.312  34.796  29.496  1.00  0.00     0.049 A 
ATOM     73  H   UNL A   1      42.893  32.829  29.975  1.00  0.00     0.167 HD
ATOM     74  C   UNL A   1      44.777  34.816  29.073  1.00  0.00     0.074 A 
ATOM     75  C   UNL A   1      45.996  35.491  28.668  1.00  0.00     0.031 C 
ATOM     76  C   UNL A   1      43.557  35.412  29.109  1.00  0.00     0.037 A 
BRANCH  63  77
ATOM     77  C   UNL A   1      38.896  31.803  31.030  1.00  0.00     0.064 A 
ATOM     78  C   UNL A   1      37.938  31.472  30.056  1.00  0.00     0.173 A 
ATOM     79  C   UNL A   1      38.449  31.986  32.345  1.00  0.00     0.173 A 
ATOM     80  F   UNL A   1      38.302  31.314  28.773  1.00  0.00    -0.203 F 
ATOM     81  C   UNL A   1      36.587  31.363  30.382  1.00  0.00     0.198 A 
ATOM     82  C   UNL A   1      37.103  31.839  32.675  1.00  0.00     0.198 A 
ATOM     83  F   UNL A   1      39.315  32.316  33.314  1.00  0.00    -0.203 F 
ATOM     84  F   UNL A   1      35.686  31.116  29.420  1.00  0.00    -0.200 F 
ATOM     85  C   UNL A   1      36.172  31.537  31.692  1.00  0.00     0.200 A 
ATOM     86  F   UNL A   1      36.705  32.001  33.944  1.00  0.00    -0.200 F 
ATOM     87  F   UNL A   1      34.875  31.427  32.006  1.00  0.00    -0.200 F 
ENDBRANCH  63  77
BRANCH  64  88
ATOM     88  C   UNL A   1      48.823  32.364  29.067  1.00  0.00     0.064 A 
ATOM     89  C   UNL A   1      49.728  32.839  30.027  1.00  0.00     0.173 A 
ATOM     90  C   UNL A   1      49.342  32.025  27.806  1.00  0.00     0.173 A 
ATOM     91  F   UNL A   1      49.291  33.181  31.249  1.00  0.00    -0.203 F 
ATOM     92  C   UNL A   1      51.076  33.023  29.723  1.00  0.00     0.198 A 
ATOM     93  C   UNL A   1      50.697  32.168  27.518  1.00  0.00     0.198 A 
ATOM     94  F   UNL A   1      48.529  31.553  26.850  1.00  0.00    -0.203 F 
ATOM     95  F   UNL A   1      51.900  33.554  30.638  1.00  0.00    -0.200 F 
ATOM     96  C   UNL A   1      51.560  32.686  28.469  1.00  0.00     0.200 A 
ATOM     97  F   UNL A   1      51.162  31.818  26.311  1.00  0.00    -0.200 F 
ATOM     98  F   UNL A   1      52.854  32.872  28.174  1.00  0.00    -0.200 F 
ENDBRANCH  64  88
BRANCH  76  99
ATOM     99  C   UNL A   1      43.512  36.867  28.750  1.00  0.00     0.064 A 
ATOM    100  C   UNL A   1      43.151  37.301  27.466  1.00  0.00     0.173 A 
ATOM    101  C   UNL A   1      43.827  37.838  29.713  1.00  0.00     0.173 A 
ATOM    102  F   UNL A   1      42.844  36.409  26.511  1.00  0.00    -0.203 F 
ATOM    103  C   UNL A   1      43.176  38.652  27.141  1.00  0.00     0.198 A 
ATOM    104  C   UNL A   1      43.792  39.191  29.398  1.00  0.00     0.198 A 
ATOM    105  F   UNL A   1      44.156  37.476  30.961  1.00  0.00    -0.203 F 
ATOM    106  F   UNL A   1      42.926  39.037  25.882  1.00  0.00    -0.200 F 
ATOM    107  C   UNL A   1      43.489  39.595  28.107  1.00  0.00     0.200 A 
ATOM    108  F   UNL A   1      44.060  40.102  30.343  1.00  0.00    -0.200 F 
ATOM    109  F   UNL A   1      43.512  40.897  27.791  1.00  0.00    -0.200 F 
ENDBRANCH  76  99
ENDBRANCH  50  51
ENDBRANCH  42  45
ENDBRANCH  40  41
ENDBRANCH  39  40
ENDBRANCH  38  39
ENDBRANCH  37  38
ENDBRANCH   1  37
TORSDOF 18
ENDMDL
