MODEL 1
REMARK VINA RESULT:     -14.1      0.000      0.000
REMARK SMILES COc1cc(C)cc2c1[C@@H](C)[C@@H](CC(=O)N[C@@H](Cc1c[nH]c3ccccc13)C(=O)NCCCCCCNC(=O)c1ccc(-c3c4nc(c(-c5c(F)c(F)c(F)c(F)c5F)c5ccc([nH]5)c(-c5c(F)c(F)c(F)c(F)c5F)c5nc(c(-c6c(F)c(F)c(F)c(F)c6F)c6ccc3[nH]6)C=C5)C=C4)cc1)C(=O)O2
REMARK SMILES IDX 32 1 31 2 30 3 28 4 29 5 17 7 16 8 14 9 15 10 13 12 12 13
REMARK SMILES IDX 3 14 4 15 9 16 5 17 8 18 10 19 6 20 7 21 105 22 11 23 103 24
REMARK SMILES IDX 104 25 2 26 1 27 18 28 19 29 20 30 27 31 21 32 22 33 26 34
REMARK SMILES IDX 23 36 25 37 24 38 33 39 34 40 35 41 36 42 37 43 38 44 39 46
REMARK SMILES IDX 40 47 41 48 102 49 42 50 101 51 43 52 44 53 45 54 95 55
REMARK SMILES IDX 46 56 100 57 94 58 96 59 47 60 99 61 93 62 92 63 48 65 80 66
REMARK SMILES IDX 60 67 79 68 61 69 64 70 78 71 97 72 62 73 63 74 77 76 98 77
REMARK SMILES IDX 65 78 49 79 50 80 58 81 51 82 52 83 56 84 59 85 53 86 54 87
REMARK SMILES IDX 57 88 55 89 81 90 82 91 90 92 83 93 84 94 88 95 91 96 85 97
REMARK SMILES IDX 86 98 89 99 87 100 66 101 67 102 75 103 68 104 69 105 73 106
REMARK SMILES IDX 76 107 70 108 71 109 74 110 72 111
REMARK H PARENT 30 6 16 11 21 35 37 45 96 64 64 75
REMARK Flexibility Score: inf
ROOT
ATOM      1  C   UNL A   1      37.508  23.088  25.601  1.00  0.00     0.021 C 
ENDROOT
BRANCH   1   2
ATOM      2  C   UNL A   1      36.311  24.030  25.659  1.00  0.00     0.116 C 
BRANCH   2   3
ATOM      3  N   UNL A   1      35.286  23.459  26.489  1.00  0.00    -0.354 N 
ATOM      4  C   UNL A   1      34.042  23.069  26.131  1.00  0.00     0.242 C 
ATOM      5  O   UNL A   1      33.221  22.936  27.048  1.00  0.00    -0.273 OA
ATOM      6  H   UNL A   1      35.520  23.337  27.437  1.00  0.00     0.163 HD
BRANCH   4   7
ATOM      7  C   UNL A   1      33.628  22.764  24.674  1.00  0.00     0.175 C 
BRANCH   7   8
ATOM      8  N   UNL A   1      34.157  23.628  23.638  1.00  0.00    -0.344 N 
ATOM      9  C   UNL A   1      33.573  24.795  23.222  1.00  0.00     0.221 C 
ATOM     10  O   UNL A   1      33.672  25.130  22.044  1.00  0.00    -0.275 OA
ATOM     11  H   UNL A   1      34.996  23.356  23.201  1.00  0.00     0.164 HD
BRANCH   9  12
ATOM     12  C   UNL A   1      32.948  25.714  24.267  1.00  0.00     0.116 C 
BRANCH  12  13
ATOM     13  C   UNL A   1      31.428  25.604  24.561  1.00  0.00     0.116 C 
ATOM     14  C   UNL A   1      31.054  29.383  24.721  1.00  0.00     0.126 A 
ATOM     15  C   UNL A   1      31.694  30.345  25.520  1.00  0.00     0.050 A 
ATOM     16  C   UNL A   1      31.123  28.029  25.057  1.00  0.00     0.041 A 
ATOM     17  C   UNL A   1      32.401  29.977  26.676  1.00  0.00    -0.044 A 
ATOM     18  C   UNL A   1      31.699  27.713  26.298  1.00  0.00     0.138 A 
ATOM     19  C   UNL A   1      30.627  26.881  24.181  1.00  0.00     0.038 C 
ATOM     20  C   UNL A   1      33.119  31.010  27.495  1.00  0.00     0.044 C 
ATOM     21  C   UNL A   1      32.363  28.650  27.087  1.00  0.00     0.051 A 
ATOM     22  O   UNL A   1      31.590  26.427  26.847  1.00  0.00    -0.426 OA
ATOM     23  C   UNL A   1      30.685  27.094  22.664  1.00  0.00     0.014 C 
ATOM     24  C   UNL A   1      31.063  25.455  26.021  1.00  0.00     0.315 C 
ATOM     25  O   UNL A   1      30.365  24.550  26.463  1.00  0.00    -0.251 OA
BRANCH  14  26
ATOM     26  O   UNL A   1      30.236  29.723  23.680  1.00  0.00    -0.496 OA
ATOM     27  C   UNL A   1      29.466  30.900  23.879  1.00  0.00     0.278 C 
ENDBRANCH  14  26
ENDBRANCH  12  13
ENDBRANCH   9  12
ENDBRANCH   7   8
BRANCH   7  28
ATOM     28  C   UNL A   1      33.290  21.372  24.162  1.00  0.00     0.072 C 
BRANCH  28  29
ATOM     29  C   UNL A   1      33.407  20.046  24.864  1.00  0.00    -0.020 A 
ATOM     30  C   UNL A   1      33.194  20.036  26.237  1.00  0.00     0.087 A 
ATOM     31  C   UNL A   1      33.534  18.661  24.476  1.00  0.00     0.003 A 
ATOM     32  N   UNL A   1      32.823  18.780  26.590  1.00  0.00    -0.361 N 
ATOM     33  C   UNL A   1      33.204  17.904  25.611  1.00  0.00     0.046 A 
ATOM     34  C   UNL A   1      33.836  17.923  23.309  1.00  0.00     0.010 A 
ATOM     35  H   UNL A   1      32.354  18.537  27.420  1.00  0.00     0.166 HD
ATOM     36  C   UNL A   1      33.212  16.504  25.657  1.00  0.00     0.026 A 
ATOM     37  C   UNL A   1      33.888  16.516  23.347  1.00  0.00     0.001 A 
ATOM     38  C   UNL A   1      33.595  15.819  24.511  1.00  0.00     0.002 A 
ENDBRANCH  28  29
ENDBRANCH   7  28
ENDBRANCH   4   7
ENDBRANCH   2   3
ENDBRANCH   1   2
BRANCH   1  39
ATOM     39  C   UNL A   1      37.341  22.034  24.503  1.00  0.00     0.002 C 
BRANCH  39  40
ATOM     40  C   UNL A   1      37.097  20.617  25.038  1.00  0.00     0.002 C 
BRANCH  40  41
ATOM     41  C   UNL A   1      38.315  19.696  24.939  1.00  0.00     0.021 C 
BRANCH  41  42
ATOM     42  C   UNL A   1      39.455  20.114  25.854  1.00  0.00     0.116 C 
BRANCH  42  43
ATOM     43  N   UNL A   1      40.435  19.048  25.997  1.00  0.00    -0.352 N 
ATOM     44  C   UNL A   1      41.802  19.138  26.108  1.00  0.00     0.251 C 
ATOM     45  H   UNL A   1      40.067  18.135  26.019  1.00  0.00     0.163 HD
ATOM     46  O   UNL A   1      42.511  18.161  25.954  1.00  0.00    -0.269 OA
BRANCH  44  47
ATOM     47  C   UNL A   1      42.390  20.459  26.399  1.00  0.00     0.039 A 
ATOM     48  C   UNL A   1      42.475  20.903  27.721  1.00  0.00     0.014 A 
ATOM     49  C   UNL A   1      42.815  21.269  25.345  1.00  0.00     0.014 A 
ATOM     50  C   UNL A   1      42.818  22.220  27.975  1.00  0.00     0.010 A 
ATOM     51  C   UNL A   1      43.262  22.563  25.615  1.00  0.00     0.010 A 
ATOM     52  C   UNL A   1      43.224  23.062  26.927  1.00  0.00    -0.014 A 
BRANCH  52  53
ATOM     53  C   UNL A   1      43.605  24.463  27.232  1.00  0.00     0.031 A 
ATOM     54  C   UNL A   1      45.000  24.953  26.971  1.00  0.00     0.074 A 
ATOM     55  C   UNL A   1      42.662  25.305  27.693  1.00  0.00     0.049 A 
ATOM     56  N   UNL A   1      45.509  26.143  27.174  1.00  0.00    -0.248 NA
ATOM     57  C   UNL A   1      45.953  23.983  26.407  1.00  0.00     0.031 C 
ATOM     58  C   UNL A   1      41.267  24.945  27.951  1.00  0.00     0.029 A 
ATOM     59  N   UNL A   1      42.723  26.641  27.994  1.00  0.00    -0.354 N 
ATOM     60  C   UNL A   1      46.836  26.061  26.775  1.00  0.00     0.074 A 
ATOM     61  C   UNL A   1      47.069  24.696  26.360  1.00  0.00     0.031 C 
ATOM     62  C   UNL A   1      40.588  26.044  28.307  1.00  0.00     0.029 A 
ATOM     63  C   UNL A   1      41.515  27.169  28.379  1.00  0.00     0.049 A 
ATOM     64  H   UNL A   1      43.550  27.170  27.939  1.00  0.00     0.167 HD
ATOM     65  C   UNL A   1      47.766  27.046  26.738  1.00  0.00     0.037 A 
ATOM     66  C   UNL A   1      41.192  28.417  28.761  1.00  0.00     0.037 A 
ATOM     67  C   UNL A   1      47.521  28.403  27.152  1.00  0.00     0.049 A 
ATOM     68  C   UNL A   1      42.265  29.465  28.802  1.00  0.00     0.074 A 
ATOM     69  C   UNL A   1      48.401  29.472  27.169  1.00  0.00     0.029 A 
ATOM     70  N   UNL A   1      46.304  28.881  27.621  1.00  0.00    -0.354 N 
ATOM     71  N   UNL A   1      43.521  29.376  28.437  1.00  0.00    -0.248 NA
ATOM     72  C   UNL A   1      41.879  30.783  29.320  1.00  0.00     0.031 C 
ATOM     73  C   UNL A   1      47.731  30.582  27.695  1.00  0.00     0.029 A 
ATOM     74  C   UNL A   1      46.416  30.222  27.950  1.00  0.00     0.049 A 
ATOM     75  H   UNL A   1      45.484  28.344  27.708  1.00  0.00     0.167 HD
ATOM     76  C   UNL A   1      44.072  30.628  28.662  1.00  0.00     0.074 A 
ATOM     77  C   UNL A   1      43.007  31.465  29.178  1.00  0.00     0.031 C 
ATOM     78  C   UNL A   1      45.347  31.045  28.461  1.00  0.00     0.037 A 
BRANCH  65  79
ATOM     79  C   UNL A   1      49.140  26.688  26.243  1.00  0.00     0.064 A 
ATOM     80  C   UNL A   1      50.085  26.075  27.080  1.00  0.00     0.173 A 
ATOM     81  C   UNL A   1      49.503  26.920  24.907  1.00  0.00     0.173 A 
ATOM     82  F   UNL A   1      49.796  25.841  28.369  1.00  0.00    -0.203 F 
ATOM     83  C   UNL A   1      51.351  25.736  26.607  1.00  0.00     0.198 A 
ATOM     84  C   UNL A   1      50.758  26.549  24.429  1.00  0.00     0.198 A 
ATOM     85  F   UNL A   1      48.636  27.496  24.060  1.00  0.00    -0.203 F 
ATOM     86  F   UNL A   1      52.253  25.198  27.440  1.00  0.00    -0.200 F 
ATOM     87  C   UNL A   1      51.683  25.965  25.280  1.00  0.00     0.200 A 
ATOM     88  F   UNL A   1      51.071  26.757  23.143  1.00  0.00    -0.200 F 
ATOM     89  F   UNL A   1      52.897  25.629  24.824  1.00  0.00    -0.200 F 
ENDBRANCH  65  79
BRANCH  66  90
ATOM     90  C   UNL A   1      39.782  28.731  29.108  1.00  0.00     0.064 A 
ATOM     91  C   UNL A   1      38.895  29.199  28.131  1.00  0.00     0.173 A 
ATOM     92  C   UNL A   1      39.280  28.519  30.401  1.00  0.00     0.173 A 
ATOM     93  F   UNL A   1      39.334  29.434  26.886  1.00  0.00    -0.203 F 
ATOM     94  C   UNL A   1      37.556  29.441  28.433  1.00  0.00     0.198 A 
ATOM     95  C   UNL A   1      37.935  28.732  30.694  1.00  0.00     0.198 A 
ATOM     96  F   UNL A   1      40.088  28.065  31.370  1.00  0.00    -0.203 F 
ATOM     97  F   UNL A   1      36.733  29.910  27.485  1.00  0.00    -0.200 F 
ATOM     98  C   UNL A   1      37.075  29.196  29.710  1.00  0.00     0.200 A 
ATOM     99  F   UNL A   1      37.471  28.473  31.923  1.00  0.00    -0.200 F 
ATOM    100  F   UNL A   1      35.782  29.406  29.993  1.00  0.00    -0.200 F 
ENDBRANCH  66  90
BRANCH  78 101
ATOM    101  C   UNL A   1      45.663  32.477  28.776  1.00  0.00     0.064 A 
ATOM    102  C   UNL A   1      45.479  33.495  27.829  1.00  0.00     0.173 A 
ATOM    103  C   UNL A   1      46.094  32.845  30.060  1.00  0.00     0.173 A 
ATOM    104  F   UNL A   1      45.084  33.194  26.583  1.00  0.00    -0.203 F 
ATOM    105  C   UNL A   1      45.732  34.826  28.151  1.00  0.00     0.198 A 
ATOM    106  C   UNL A   1      46.314  34.180  30.389  1.00  0.00     0.198 A 
ATOM    107  F   UNL A   1      46.279  31.911  31.005  1.00  0.00    -0.203 F 
ATOM    108  F   UNL A   1      45.589  35.778  27.218  1.00  0.00    -0.200 F 
ATOM    109  C   UNL A   1      46.138  35.169  29.433  1.00  0.00     0.200 A 
ATOM    110  F   UNL A   1      46.689  34.509  31.632  1.00  0.00    -0.200 F 
ATOM    111  F   UNL A   1      46.364  36.451  29.745  1.00  0.00    -0.200 F 
ENDBRANCH  78 101
ENDBRANCH  52  53
ENDBRANCH  44  47
ENDBRANCH  42  43
ENDBRANCH  41  42
ENDBRANCH  40  41
ENDBRANCH  39  40
ENDBRANCH   1  39
TORSDOF 19
ENDMDL
MODEL 2
REMARK VINA RESULT:     -14.0      0.571      6.809
REMARK SMILES COc1cc(C)cc2c1[C@@H](C)[C@@H](CC(=O)N[C@@H](Cc1c[nH]c3ccccc13)C(=O)NCCCCCCNC(=O)c1ccc(-c3c4nc(c(-c5c(F)c(F)c(F)c(F)c5F)c5ccc([nH]5)c(-c5c(F)c(F)c(F)c(F)c5F)c5nc(c(-c6c(F)c(F)c(F)c(F)c6F)c6ccc3[nH]6)C=C5)C=C4)cc1)C(=O)O2
REMARK SMILES IDX 32 1 31 2 30 3 28 4 29 5 17 7 16 8 14 9 15 10 13 12 12 13
REMARK SMILES IDX 3 14 4 15 9 16 5 17 8 18 10 19 6 20 7 21 105 22 11 23 103 24
REMARK SMILES IDX 104 25 2 26 1 27 18 28 19 29 20 30 27 31 21 32 22 33 26 34
REMARK SMILES IDX 23 36 25 37 24 38 33 39 34 40 35 41 36 42 37 43 38 44 39 46
REMARK SMILES IDX 40 47 41 48 102 49 42 50 101 51 43 52 44 53 45 54 95 55
REMARK SMILES IDX 46 56 100 57 94 58 96 59 47 60 99 61 93 62 92 63 48 65 80 66
REMARK SMILES IDX 60 67 79 68 61 69 64 70 78 71 97 72 62 73 63 74 77 76 98 77
REMARK SMILES IDX 65 78 49 79 50 80 58 81 51 82 52 83 56 84 59 85 53 86 54 87
REMARK SMILES IDX 57 88 55 89 81 90 82 91 90 92 83 93 84 94 88 95 91 96 85 97
REMARK SMILES IDX 86 98 89 99 87 100 66 101 67 102 75 103 68 104 69 105 73 106
REMARK SMILES IDX 76 107 70 108 71 109 74 110 72 111
REMARK H PARENT 30 6 16 11 21 35 37 45 96 64 64 75
REMARK Flexibility Score: inf
ROOT
ATOM      1  C   UNL A   1      37.395  23.186  25.893  1.00  0.00     0.021 C 
ENDROOT
BRANCH   1   2
ATOM      2  C   UNL A   1      36.130  24.013  25.699  1.00  0.00     0.116 C 
BRANCH   2   3
ATOM      3  N   UNL A   1      35.064  23.461  26.490  1.00  0.00    -0.354 N 
ATOM      4  C   UNL A   1      33.837  23.067  26.081  1.00  0.00     0.242 C 
ATOM      5  O   UNL A   1      32.973  22.954  26.961  1.00  0.00    -0.273 OA
ATOM      6  H   UNL A   1      35.252  23.357  27.450  1.00  0.00     0.163 HD
BRANCH   4   7
ATOM      7  C   UNL A   1      33.492  22.735  24.612  1.00  0.00     0.175 C 
BRANCH   7   8
ATOM      8  N   UNL A   1      34.003  23.626  23.591  1.00  0.00    -0.344 N 
ATOM      9  C   UNL A   1      33.415  24.807  23.221  1.00  0.00     0.221 C 
ATOM     10  O   UNL A   1      33.491  25.176  22.051  1.00  0.00    -0.275 OA
ATOM     11  H   UNL A   1      34.831  23.365  23.129  1.00  0.00     0.164 HD
BRANCH   9  12
ATOM     12  C   UNL A   1      32.815  25.697  24.304  1.00  0.00     0.116 C 
BRANCH  12  13
ATOM     13  C   UNL A   1      31.287  25.642  24.570  1.00  0.00     0.116 C 
ATOM     14  C   UNL A   1      31.038  29.433  24.681  1.00  0.00     0.126 A 
ATOM     15  C   UNL A   1      31.695  30.382  25.482  1.00  0.00     0.050 A 
ATOM     16  C   UNL A   1      31.055  28.082  25.033  1.00  0.00     0.041 A 
ATOM     17  C   UNL A   1      32.368  30.004  26.655  1.00  0.00    -0.044 A 
ATOM     18  C   UNL A   1      31.596  27.761  26.288  1.00  0.00     0.138 A 
ATOM     19  C   UNL A   1      30.537  26.941  24.161  1.00  0.00     0.038 C 
ATOM     20  C   UNL A   1      33.104  31.021  27.476  1.00  0.00     0.044 C 
ATOM     21  C   UNL A   1      32.276  28.684  27.080  1.00  0.00     0.051 A 
ATOM     22  O   UNL A   1      31.433  26.486  26.849  1.00  0.00    -0.426 OA
ATOM     23  C   UNL A   1      30.631  27.135  22.643  1.00  0.00     0.014 C 
ATOM     24  C   UNL A   1      30.889  25.523  26.025  1.00  0.00     0.315 C 
ATOM     25  O   UNL A   1      30.152  24.647  26.463  1.00  0.00    -0.251 OA
BRANCH  14  26
ATOM     26  O   UNL A   1      30.252  29.789  23.621  1.00  0.00    -0.496 OA
ATOM     27  C   UNL A   1      29.430  30.927  23.836  1.00  0.00     0.278 C 
ENDBRANCH  14  26
ENDBRANCH  12  13
ENDBRANCH   9  12
ENDBRANCH   7   8
BRANCH   7  28
ATOM     28  C   UNL A   1      33.255  21.324  24.095  1.00  0.00     0.072 C 
BRANCH  28  29
ATOM     29  C   UNL A   1      33.384  20.011  24.820  1.00  0.00    -0.020 A 
ATOM     30  C   UNL A   1      33.161  20.021  26.191  1.00  0.00     0.087 A 
ATOM     31  C   UNL A   1      33.532  18.621  24.455  1.00  0.00     0.003 A 
ATOM     32  N   UNL A   1      32.804  18.766  26.562  1.00  0.00    -0.361 N 
ATOM     33  C   UNL A   1      33.203  17.879  25.601  1.00  0.00     0.046 A 
ATOM     34  C   UNL A   1      33.852  17.868  23.303  1.00  0.00     0.010 A 
ATOM     35  H   UNL A   1      32.332  18.531  27.393  1.00  0.00     0.166 HD
ATOM     36  C   UNL A   1      33.229  16.481  25.670  1.00  0.00     0.026 A 
ATOM     37  C   UNL A   1      33.921  16.463  23.364  1.00  0.00     0.001 A 
ATOM     38  C   UNL A   1      33.629  15.782  24.537  1.00  0.00     0.002 A 
ENDBRANCH  28  29
ENDBRANCH   7  28
ENDBRANCH   4   7
ENDBRANCH   2   3
ENDBRANCH   1   2
BRANCH   1  39
ATOM     39  C   UNL A   1      37.630  22.233  24.718  1.00  0.00     0.002 C 
BRANCH  39  40
ATOM     40  C   UNL A   1      37.050  20.829  24.935  1.00  0.00     0.002 C 
BRANCH  40  41
ATOM     41  C   UNL A   1      38.110  19.738  25.105  1.00  0.00     0.021 C 
BRANCH  41  42
ATOM     42  C   UNL A   1      39.392  20.246  25.746  1.00  0.00     0.116 C 
BRANCH  42  43
ATOM     43  N   UNL A   1      40.341  19.163  25.957  1.00  0.00    -0.352 N 
ATOM     44  C   UNL A   1      41.701  19.230  26.143  1.00  0.00     0.251 C 
ATOM     45  H   UNL A   1      39.956  18.258  25.968  1.00  0.00     0.163 HD
ATOM     46  O   UNL A   1      42.399  18.237  26.042  1.00  0.00    -0.269 OA
BRANCH  44  47
ATOM     47  C   UNL A   1      42.298  20.543  26.452  1.00  0.00     0.039 A 
ATOM     48  C   UNL A   1      42.275  21.024  27.763  1.00  0.00     0.014 A 
ATOM     49  C   UNL A   1      42.839  21.311  25.420  1.00  0.00     0.014 A 
ATOM     50  C   UNL A   1      42.630  22.338  28.013  1.00  0.00     0.010 A 
ATOM     51  C   UNL A   1      43.296  22.600  25.695  1.00  0.00     0.010 A 
ATOM     52  C   UNL A   1      43.153  23.139  26.984  1.00  0.00    -0.014 A 
BRANCH  52  53
ATOM     53  C   UNL A   1      43.544  24.537  27.285  1.00  0.00     0.031 A 
ATOM     54  C   UNL A   1      42.513  25.551  27.694  1.00  0.00     0.074 A 
ATOM     55  C   UNL A   1      44.847  24.869  27.244  1.00  0.00     0.049 A 
ATOM     56  N   UNL A   1      42.674  26.815  27.996  1.00  0.00    -0.248 NA
ATOM     57  C   UNL A   1      41.119  25.089  27.774  1.00  0.00     0.031 C 
ATOM     58  C   UNL A   1      45.936  23.956  26.894  1.00  0.00     0.029 A 
ATOM     59  N   UNL A   1      45.481  26.050  27.530  1.00  0.00    -0.354 N 
ATOM     60  C   UNL A   1      41.407  27.299  28.291  1.00  0.00     0.074 A 
ATOM     61  C   UNL A   1      40.480  26.207  28.088  1.00  0.00     0.031 C 
ATOM     62  C   UNL A   1      47.106  24.589  27.049  1.00  0.00     0.029 A 
ATOM     63  C   UNL A   1      46.848  25.972  27.433  1.00  0.00     0.049 A 
ATOM     64  H   UNL A   1      45.004  26.873  27.782  1.00  0.00     0.167 HD
ATOM     65  C   UNL A   1      41.055  28.537  28.714  1.00  0.00     0.037 A 
ATOM     66  C   UNL A   1      47.790  26.915  27.617  1.00  0.00     0.037 A 
ATOM     67  C   UNL A   1      41.988  29.617  28.915  1.00  0.00     0.049 A 
ATOM     68  C   UNL A   1      47.364  28.303  27.993  1.00  0.00     0.074 A 
ATOM     69  C   UNL A   1      41.731  30.914  29.325  1.00  0.00     0.029 A 
ATOM     70  N   UNL A   1      43.360  29.524  28.719  1.00  0.00    -0.354 N 
ATOM     71  N   UNL A   1      46.162  28.756  28.255  1.00  0.00    -0.248 NA
ATOM     72  C   UNL A   1      48.424  29.315  28.086  1.00  0.00     0.031 C 
ATOM     73  C   UNL A   1      42.940  31.618  29.330  1.00  0.00     0.029 A 
ATOM     74  C   UNL A   1      43.959  30.746  28.981  1.00  0.00     0.049 A 
ATOM     75  H   UNL A   1      43.835  28.711  28.436  1.00  0.00     0.167 HD
ATOM     76  C   UNL A   1      46.320  30.099  28.564  1.00  0.00     0.074 A 
ATOM     77  C   UNL A   1      47.739  30.383  28.473  1.00  0.00     0.031 C 
ATOM     78  C   UNL A   1      45.374  31.014  28.889  1.00  0.00     0.037 A 
BRANCH  65  79
ATOM     79  C   UNL A   1      39.598  28.795  28.979  1.00  0.00     0.064 A 
ATOM     80  C   UNL A   1      39.041  28.614  30.255  1.00  0.00     0.173 A 
ATOM     81  C   UNL A   1      38.756  29.266  27.960  1.00  0.00     0.173 A 
ATOM     82  F   UNL A   1      39.797  28.154  31.263  1.00  0.00    -0.203 F 
ATOM     83  C   UNL A   1      37.692  28.868  30.492  1.00  0.00     0.198 A 
ATOM     84  C   UNL A   1      37.415  29.551  28.209  1.00  0.00     0.198 A 
ATOM     85  F   UNL A   1      39.236  29.464  26.722  1.00  0.00    -0.203 F 
ATOM     86  F   UNL A   1      37.174  28.640  31.708  1.00  0.00    -0.200 F 
ATOM     87  C   UNL A   1      36.883  29.344  29.472  1.00  0.00     0.200 A 
ATOM     88  F   UNL A   1      36.639  30.026  27.226  1.00  0.00    -0.200 F 
ATOM     89  F   UNL A   1      35.588  29.597  29.705  1.00  0.00    -0.200 F 
ENDBRANCH  65  79
BRANCH  66  90
ATOM     90  C   UNL A   1      49.223  26.553  27.469  1.00  0.00     0.064 A 
ATOM     91  C   UNL A   1      50.014  26.296  28.596  1.00  0.00     0.173 A 
ATOM     92  C   UNL A   1      49.815  26.400  26.206  1.00  0.00     0.173 A 
ATOM     93  F   UNL A   1      49.496  26.445  29.825  1.00  0.00    -0.203 F 
ATOM     94  C   UNL A   1      51.343  25.898  28.467  1.00  0.00     0.198 A 
ATOM     95  C   UNL A   1      51.135  25.974  26.077  1.00  0.00     0.198 A 
ATOM     96  F   UNL A   1      49.098  26.628  25.096  1.00  0.00    -0.203 F 
ATOM     97  F   UNL A   1      52.083  25.681  29.562  1.00  0.00    -0.200 F 
ATOM     98  C   UNL A   1      51.898  25.726  27.208  1.00  0.00     0.200 A 
ATOM     99  F   UNL A   1      51.660  25.788  24.859  1.00  0.00    -0.200 F 
ATOM    100  F   UNL A   1      53.169  25.321  27.084  1.00  0.00    -0.200 F 
ENDBRANCH  66  90
BRANCH  78 101
ATOM    101  C   UNL A   1      45.838  32.408  29.196  1.00  0.00     0.064 A 
ATOM    102  C   UNL A   1      46.244  32.778  30.487  1.00  0.00     0.173 A 
ATOM    103  C   UNL A   1      45.937  33.366  28.176  1.00  0.00     0.173 A 
ATOM    104  F   UNL A   1      46.154  31.904  31.500  1.00  0.00    -0.203 F 
ATOM    105  C   UNL A   1      46.717  34.062  30.747  1.00  0.00     0.198 A 
ATOM    106  C   UNL A   1      46.440  34.638  28.432  1.00  0.00     0.198 A 
ATOM    107  F   UNL A   1      45.566  33.060  26.923  1.00  0.00    -0.203 F 
ATOM    108  F   UNL A   1      47.062  34.407  31.995  1.00  0.00    -0.200 F 
ATOM    109  C   UNL A   1      46.825  34.987  29.718  1.00  0.00     0.200 A 
ATOM    110  F   UNL A   1      46.560  35.523  27.433  1.00  0.00    -0.200 F 
ATOM    111  F   UNL A   1      47.296  36.215  29.967  1.00  0.00    -0.200 F 
ENDBRANCH  78 101
ENDBRANCH  52  53
ENDBRANCH  44  47
ENDBRANCH  42  43
ENDBRANCH  41  42
ENDBRANCH  40  41
ENDBRANCH  39  40
ENDBRANCH   1  39
TORSDOF 19
ENDMDL
MODEL 3
REMARK VINA RESULT:     -13.7      4.620      9.691
REMARK SMILES COc1cc(C)cc2c1[C@@H](C)[C@@H](CC(=O)N[C@@H](Cc1c[nH]c3ccccc13)C(=O)NCCCCCCNC(=O)c1ccc(-c3c4nc(c(-c5c(F)c(F)c(F)c(F)c5F)c5ccc([nH]5)c(-c5c(F)c(F)c(F)c(F)c5F)c5nc(c(-c6c(F)c(F)c(F)c(F)c6F)c6ccc3[nH]6)C=C5)C=C4)cc1)C(=O)O2
REMARK SMILES IDX 32 1 31 2 30 3 28 4 29 5 17 7 16 8 14 9 15 10 13 12 12 13
REMARK SMILES IDX 3 14 4 15 9 16 5 17 8 18 10 19 6 20 7 21 105 22 11 23 103 24
REMARK SMILES IDX 104 25 2 26 1 27 18 28 19 29 20 30 27 31 21 32 22 33 26 34
REMARK SMILES IDX 23 36 25 37 24 38 33 39 34 40 35 41 36 42 37 43 38 44 39 46
REMARK SMILES IDX 40 47 41 48 102 49 42 50 101 51 43 52 44 53 45 54 95 55
REMARK SMILES IDX 46 56 100 57 94 58 96 59 47 60 99 61 93 62 92 63 48 65 80 66
REMARK SMILES IDX 60 67 79 68 61 69 64 70 78 71 97 72 62 73 63 74 77 76 98 77
REMARK SMILES IDX 65 78 49 79 50 80 58 81 51 82 52 83 56 84 59 85 53 86 54 87
REMARK SMILES IDX 57 88 55 89 81 90 82 91 90 92 83 93 84 94 88 95 91 96 85 97
REMARK SMILES IDX 86 98 89 99 87 100 66 101 67 102 75 103 68 104 69 105 73 106
REMARK SMILES IDX 76 107 70 108 71 109 74 110 72 111
REMARK H PARENT 30 6 16 11 21 35 37 45 96 64 64 75
REMARK Flexibility Score: inf
ROOT
ATOM      1  C   UNL A   1      32.271  27.877  27.031  1.00  0.00     0.021 C 
ENDROOT
BRANCH   1   2
ATOM      2  C   UNL A   1      31.774  26.722  26.171  1.00  0.00     0.116 C 
BRANCH   2   3
ATOM      3  N   UNL A   1      31.353  25.636  27.014  1.00  0.00    -0.354 N 
ATOM      4  C   UNL A   1      31.382  24.311  26.746  1.00  0.00     0.242 C 
ATOM      5  O   UNL A   1      30.664  23.591  27.453  1.00  0.00    -0.273 OA
ATOM      6  H   UNL A   1      31.000  25.890  27.896  1.00  0.00     0.163 HD
BRANCH   4   7
ATOM      7  C   UNL A   1      32.270  23.679  25.651  1.00  0.00     0.175 C 
BRANCH   7   8
ATOM      8  N   UNL A   1      33.698  23.900  25.743  1.00  0.00    -0.344 N 
ATOM      9  C   UNL A   1      34.451  24.543  24.797  1.00  0.00     0.221 C 
ATOM     10  O   UNL A   1      35.612  24.187  24.608  1.00  0.00    -0.275 OA
ATOM     11  H   UNL A   1      34.162  23.563  26.543  1.00  0.00     0.164 HD
BRANCH   9  12
ATOM     12  C   UNL A   1      33.870  25.779  24.115  1.00  0.00     0.116 C 
BRANCH  12  13
ATOM     13  C   UNL A   1      33.776  25.816  22.567  1.00  0.00     0.116 C 
ATOM     14  C   UNL A   1      30.664  27.995  22.680  1.00  0.00     0.126 A 
ATOM     15  C   UNL A   1      29.416  27.799  23.296  1.00  0.00     0.050 A 
ATOM     16  C   UNL A   1      31.541  26.923  22.508  1.00  0.00     0.041 A 
ATOM     17  C   UNL A   1      29.015  26.529  23.739  1.00  0.00    -0.044 A 
ATOM     18  C   UNL A   1      31.047  25.645  22.815  1.00  0.00     0.138 A 
ATOM     19  C   UNL A   1      32.984  27.037  22.021  1.00  0.00     0.038 C 
ATOM     20  C   UNL A   1      27.700  26.342  24.436  1.00  0.00     0.044 C 
ATOM     21  C   UNL A   1      29.826  25.436  23.453  1.00  0.00     0.051 A 
ATOM     22  O   UNL A   1      31.741  24.484  22.442  1.00  0.00    -0.426 OA
ATOM     23  C   UNL A   1      33.729  28.332  22.367  1.00  0.00     0.014 C 
ATOM     24  C   UNL A   1      33.012  24.670  21.940  1.00  0.00     0.315 C 
ATOM     25  O   UNL A   1      33.466  23.946  21.061  1.00  0.00    -0.251 OA
BRANCH  14  26
ATOM     26  O   UNL A   1      31.017  29.184  22.106  1.00  0.00    -0.496 OA
ATOM     27  C   UNL A   1      29.939  30.070  21.841  1.00  0.00     0.278 C 
ENDBRANCH  14  26
ENDBRANCH  12  13
ENDBRANCH   9  12
ENDBRANCH   7   8
BRANCH   7  28
ATOM     28  C   UNL A   1      31.921  22.395  24.912  1.00  0.00     0.072 C 
BRANCH  28  29
ATOM     29  C   UNL A   1      32.568  21.040  25.005  1.00  0.00    -0.020 A 
ATOM     30  C   UNL A   1      33.173  20.708  26.210  1.00  0.00     0.087 A 
ATOM     31  C   UNL A   1      32.612  19.841  24.200  1.00  0.00     0.003 A 
ATOM     32  N   UNL A   1      33.216  19.354  26.294  1.00  0.00    -0.361 N 
ATOM     33  C   UNL A   1      33.074  18.819  25.044  1.00  0.00     0.046 A 
ATOM     34  C   UNL A   1      32.283  19.451  22.882  1.00  0.00     0.010 A 
ATOM     35  H   UNL A   1      33.332  18.839  27.124  1.00  0.00     0.166 HD
ATOM     36  C   UNL A   1      33.269  17.491  24.643  1.00  0.00     0.026 A 
ATOM     37  C   UNL A   1      32.510  18.130  22.450  1.00  0.00     0.001 A 
ATOM     38  C   UNL A   1      33.011  17.169  23.316  1.00  0.00     0.002 A 
ENDBRANCH  28  29
ENDBRANCH   7  28
ENDBRANCH   4   7
ENDBRANCH   2   3
ENDBRANCH   1   2
BRANCH   1  39
ATOM     39  C   UNL A   1      33.742  28.194  26.752  1.00  0.00     0.002 C 
BRANCH  39  40
ATOM     40  C   UNL A   1      34.216  29.520  27.361  1.00  0.00     0.002 C 
BRANCH  40  41
ATOM     41  C   UNL A   1      33.610  30.760  26.700  1.00  0.00     0.021 C 
BRANCH  41  42
ATOM     42  C   UNL A   1      32.470  31.367  27.503  1.00  0.00     0.116 C 
BRANCH  42  43
ATOM     43  N   UNL A   1      32.430  32.814  27.351  1.00  0.00    -0.352 N 
ATOM     44  C   UNL A   1      33.172  33.772  27.999  1.00  0.00     0.251 C 
ATOM     45  H   UNL A   1      31.783  33.153  26.692  1.00  0.00     0.163 HD
ATOM     46  O   UNL A   1      32.849  34.946  27.966  1.00  0.00    -0.269 OA
BRANCH  44  47
ATOM     47  C   UNL A   1      34.363  33.339  28.754  1.00  0.00     0.039 A 
ATOM     48  C   UNL A   1      35.637  33.576  28.234  1.00  0.00     0.014 A 
ATOM     49  C   UNL A   1      34.200  32.654  29.959  1.00  0.00     0.014 A 
ATOM     50  C   UNL A   1      36.736  32.979  28.826  1.00  0.00     0.010 A 
ATOM     51  C   UNL A   1      35.323  32.142  30.610  1.00  0.00     0.010 A 
ATOM     52  C   UNL A   1      36.593  32.262  30.025  1.00  0.00    -0.014 A 
BRANCH  52  53
ATOM     53  C   UNL A   1      37.792  31.649  30.647  1.00  0.00     0.031 A 
ATOM     54  C   UNL A   1      38.169  31.970  32.066  1.00  0.00     0.074 A 
ATOM     55  C   UNL A   1      38.504  30.753  29.939  1.00  0.00     0.049 A 
ATOM     56  N   UNL A   1      39.180  31.526  32.771  1.00  0.00    -0.248 NA
ATOM     57  C   UNL A   1      37.301  32.911  32.790  1.00  0.00     0.031 C 
ATOM     58  C   UNL A   1      38.208  30.341  28.566  1.00  0.00     0.029 A 
ATOM     59  N   UNL A   1      39.599  30.004  30.283  1.00  0.00    -0.354 N 
ATOM     60  C   UNL A   1      39.075  32.140  34.012  1.00  0.00     0.074 A 
ATOM     61  C   UNL A   1      37.930  33.021  33.952  1.00  0.00     0.031 C 
ATOM     62  C   UNL A   1      39.055  29.368  28.207  1.00  0.00     0.029 A 
ATOM     63  C   UNL A   1      40.002  29.143  29.293  1.00  0.00     0.049 A 
ATOM     64  H   UNL A   1      40.050  30.076  31.154  1.00  0.00     0.167 HD
ATOM     65  C   UNL A   1      39.852  31.963  35.107  1.00  0.00     0.037 A 
ATOM     66  C   UNL A   1      41.031  28.277  29.258  1.00  0.00     0.037 A 
ATOM     67  C   UNL A   1      40.989  31.080  35.156  1.00  0.00     0.049 A 
ATOM     68  C   UNL A   1      41.934  28.172  30.452  1.00  0.00     0.074 A 
ATOM     69  C   UNL A   1      41.852  30.841  36.212  1.00  0.00     0.029 A 
ATOM     70  N   UNL A   1      41.422  30.287  34.101  1.00  0.00    -0.354 N 
ATOM     71  N   UNL A   1      41.836  28.767  31.616  1.00  0.00    -0.248 NA
ATOM     72  C   UNL A   1      43.096  27.285  30.323  1.00  0.00     0.031 C 
ATOM     73  C   UNL A   1      42.834  29.944  35.781  1.00  0.00     0.029 A 
ATOM     74  C   UNL A   1      42.551  29.575  34.475  1.00  0.00     0.049 A 
ATOM     75  H   UNL A   1      40.990  30.239  33.218  1.00  0.00     0.167 HD
ATOM     76  C   UNL A   1      42.910  28.314  32.366  1.00  0.00     0.074 A 
ATOM     77  C   UNL A   1      43.637  27.379  31.530  1.00  0.00     0.031 C 
ATOM     78  C   UNL A   1      43.263  28.646  33.633  1.00  0.00     0.037 A 
BRANCH  65  79
ATOM     79  C   UNL A   1      39.506  32.749  36.341  1.00  0.00     0.064 A 
ATOM     80  C   UNL A   1      40.115  33.983  36.621  1.00  0.00     0.173 A 
ATOM     81  C   UNL A   1      38.526  32.287  37.233  1.00  0.00     0.173 A 
ATOM     82  F   UNL A   1      41.066  34.466  35.808  1.00  0.00    -0.203 F 
ATOM     83  C   UNL A   1      39.776  34.708  37.761  1.00  0.00     0.198 A 
ATOM     84  C   UNL A   1      38.166  33.031  38.355  1.00  0.00     0.198 A 
ATOM     85  F   UNL A   1      37.906  31.117  37.013  1.00  0.00    -0.203 F 
ATOM     86  F   UNL A   1      40.408  35.860  38.031  1.00  0.00    -0.200 F 
ATOM     87  C   UNL A   1      38.797  34.237  38.621  1.00  0.00     0.200 A 
ATOM     88  F   UNL A   1      37.209  32.582  39.177  1.00  0.00    -0.200 F 
ATOM     89  F   UNL A   1      38.466  34.942  39.712  1.00  0.00    -0.200 F 
ENDBRANCH  65  79
BRANCH  66  90
ATOM     90  C   UNL A   1      41.233  27.433  28.052  1.00  0.00     0.064 A 
ATOM     91  C   UNL A   1      42.028  27.883  26.991  1.00  0.00     0.173 A 
ATOM     92  C   UNL A   1      40.686  26.144  27.960  1.00  0.00     0.173 A 
ATOM     93  F   UNL A   1      42.557  29.115  27.028  1.00  0.00    -0.203 F 
ATOM     94  C   UNL A   1      42.272  27.076  25.882  1.00  0.00     0.198 A 
ATOM     95  C   UNL A   1      40.956  25.326  26.864  1.00  0.00     0.198 A 
ATOM     96  F   UNL A   1      39.923  25.664  28.952  1.00  0.00    -0.203 F 
ATOM     97  F   UNL A   1      43.018  27.540  24.871  1.00  0.00    -0.200 F 
ATOM     98  C   UNL A   1      41.745  25.794  25.825  1.00  0.00     0.200 A 
ATOM     99  F   UNL A   1      40.462  24.082  26.824  1.00  0.00    -0.200 F 
ATOM    100  F   UNL A   1      42.000  25.010  24.769  1.00  0.00    -0.200 F 
ENDBRANCH  66  90
BRANCH  78 101
ATOM    101  C   UNL A   1      44.478  27.979  34.208  1.00  0.00     0.064 A 
ATOM    102  C   UNL A   1      45.739  28.591  34.171  1.00  0.00     0.173 A 
ATOM    103  C   UNL A   1      44.367  26.741  34.861  1.00  0.00     0.173 A 
ATOM    104  F   UNL A   1      45.901  29.766  33.545  1.00  0.00    -0.203 F 
ATOM    105  C   UNL A   1      46.848  27.980  34.751  1.00  0.00     0.198 A 
ATOM    106  C   UNL A   1      45.471  26.149  35.468  1.00  0.00     0.198 A 
ATOM    107  F   UNL A   1      43.182  26.116  34.930  1.00  0.00    -0.203 F 
ATOM    108  F   UNL A   1      48.052  28.564  34.669  1.00  0.00    -0.200 F 
ATOM    109  C   UNL A   1      46.711  26.766  35.409  1.00  0.00     0.200 A 
ATOM    110  F   UNL A   1      45.332  24.985  36.117  1.00  0.00    -0.200 F 
ATOM    111  F   UNL A   1      47.776  26.189  35.981  1.00  0.00    -0.200 F 
ENDBRANCH  78 101
ENDBRANCH  52  53
ENDBRANCH  44  47
ENDBRANCH  42  43
ENDBRANCH  41  42
ENDBRANCH  40  41
ENDBRANCH  39  40
ENDBRANCH   1  39
TORSDOF 19
ENDMDL
