MODEL 1
REMARK VINA RESULT:     -12.1      0.000      0.000
REMARK SMILES O=C(NCCCCCCNC(=O)c1cccnc1SCC(=O)c1ccccc1Cl)c1ccc(-c2c3nc(c(-c4c(F)c(F)c(F)c(F)c4F)c4ccc([nH]4)c(-c4c(F)c(F)c(F)c(F)c4F)c4nc(c(-c5c(F)c(F)c(F)c(F)c5F)c5ccc2[nH]5)C=C4)C=C3)cc1
REMARK SMILES IDX 7 1 6 2 5 3 4 4 3 5 1 6 2 7 30 9 31 10 92 11 32 12 91 13
REMARK SMILES IDX 33 14 34 15 35 16 85 17 36 18 90 19 84 20 86 21 37 22 89 23
REMARK SMILES IDX 83 24 82 25 38 27 70 28 50 29 69 30 51 31 54 32 68 33 87 34
REMARK SMILES IDX 52 35 53 36 67 38 88 39 55 40 39 41 40 42 48 43 41 44 42 45
REMARK SMILES IDX 46 46 49 47 43 48 44 49 47 50 45 51 71 52 72 53 80 54 73 55
REMARK SMILES IDX 74 56 78 57 81 58 75 59 76 60 79 61 77 62 56 63 57 64 65 65
REMARK SMILES IDX 58 66 59 67 63 68 66 69 60 70 61 71 64 72 62 73 8 74 9 75
REMARK SMILES IDX 10 76 11 77 12 79 13 80 14 81 18 82 15 83 17 84 16 85 19 86
REMARK SMILES IDX 20 87 21 88 22 89 23 90 24 91 28 92 25 93 27 94 29 95 26 96
REMARK H PARENT 3 8 86 26 54 37 10 78
REMARK Flexibility Score: inf
ROOT
ATOM      1  C   UNL A   1      32.451  29.924  26.994  1.00  0.00     0.002 C 
ENDROOT
BRANCH   1   2
ATOM      2  C   UNL A   1      31.455  30.745  26.173  1.00  0.00     0.002 C 
BRANCH   2   3
ATOM      3  C   UNL A   1      31.364  32.234  26.502  1.00  0.00     0.021 C 
BRANCH   3   4
ATOM      4  C   UNL A   1      32.546  32.813  27.266  1.00  0.00     0.116 C 
BRANCH   4   5
ATOM      5  N   UNL A   1      32.354  34.205  27.624  1.00  0.00    -0.352 N 
ATOM      6  O   UNL A   1      32.597  36.079  28.855  1.00  0.00    -0.269 OA
ATOM      7  C   UNL A   1      32.988  34.943  28.589  1.00  0.00     0.251 C 
ATOM      8  H   UNL A   1      31.673  34.688  27.101  1.00  0.00     0.163 HD
BRANCH   7   9
ATOM      9  C   UNL A   1      34.136  34.376  29.333  1.00  0.00     0.039 A 
ATOM     10  C   UNL A   1      33.945  33.642  30.508  1.00  0.00     0.014 A 
ATOM     11  C   UNL A   1      35.423  34.538  28.813  1.00  0.00     0.014 A 
ATOM     12  C   UNL A   1      35.044  33.144  31.204  1.00  0.00     0.010 A 
ATOM     13  C   UNL A   1      36.520  33.984  29.477  1.00  0.00     0.010 A 
ATOM     14  C   UNL A   1      36.339  33.288  30.681  1.00  0.00    -0.014 A 
BRANCH  14  15
ATOM     15  C   UNL A   1      37.475  32.595  31.336  1.00  0.00     0.031 A 
ATOM     16  C   UNL A   1      38.175  31.443  30.677  1.00  0.00     0.074 A 
ATOM     17  C   UNL A   1      37.856  33.013  32.558  1.00  0.00     0.049 A 
ATOM     18  N   UNL A   1      39.172  30.722  31.127  1.00  0.00    -0.248 NA
ATOM     19  C   UNL A   1      37.695  31.040  29.347  1.00  0.00     0.031 C 
ATOM     20  C   UNL A   1      37.225  34.103  33.306  1.00  0.00     0.029 A 
ATOM     21  N   UNL A   1      38.856  32.577  33.388  1.00  0.00    -0.354 N 
ATOM     22  C   UNL A   1      39.428  29.773  30.148  1.00  0.00     0.074 A 
ATOM     23  C   UNL A   1      38.475  29.997  29.082  1.00  0.00     0.031 C 
ATOM     24  C   UNL A   1      37.862  34.261  34.475  1.00  0.00     0.029 A 
ATOM     25  C   UNL A   1      38.913  33.256  34.580  1.00  0.00     0.049 A 
ATOM     26  H   UNL A   1      39.474  31.848  33.152  1.00  0.00     0.167 HD
ATOM     27  C   UNL A   1      40.378  28.807  30.145  1.00  0.00     0.037 A 
ATOM     28  C   UNL A   1      39.706  33.074  35.652  1.00  0.00     0.037 A 
ATOM     29  C   UNL A   1      41.342  28.608  31.197  1.00  0.00     0.049 A 
ATOM     30  C   UNL A   1      40.737  31.985  35.620  1.00  0.00     0.074 A 
ATOM     31  C   UNL A   1      42.405  27.722  31.235  1.00  0.00     0.029 A 
ATOM     32  N   UNL A   1      41.352  29.296  32.400  1.00  0.00    -0.354 N 
ATOM     33  N   UNL A   1      41.016  31.142  34.657  1.00  0.00    -0.248 NA
ATOM     34  C   UNL A   1      41.557  31.815  36.827  1.00  0.00     0.031 C 
ATOM     35  C   UNL A   1      43.030  27.842  32.481  1.00  0.00     0.029 A 
ATOM     36  C   UNL A   1      42.378  28.828  33.204  1.00  0.00     0.049 A 
ATOM     37  H   UNL A   1      40.723  30.013  32.646  1.00  0.00     0.167 HD
ATOM     38  C   UNL A   1      42.041  30.341  35.138  1.00  0.00     0.074 A 
ATOM     39  C   UNL A   1      42.354  30.818  36.470  1.00  0.00     0.031 C 
ATOM     40  C   UNL A   1      42.660  29.300  34.534  1.00  0.00     0.037 A 
BRANCH  27  41
ATOM     41  C   UNL A   1      40.435  27.876  28.971  1.00  0.00     0.064 A 
ATOM     42  C   UNL A   1      39.662  26.707  28.924  1.00  0.00     0.173 A 
ATOM     43  C   UNL A   1      41.197  28.209  27.841  1.00  0.00     0.173 A 
ATOM     44  F   UNL A   1      38.920  26.345  29.982  1.00  0.00    -0.203 F 
ATOM     45  C   UNL A   1      39.653  25.903  27.787  1.00  0.00     0.198 A 
ATOM     46  C   UNL A   1      41.173  27.411  26.700  1.00  0.00     0.198 A 
ATOM     47  F   UNL A   1      41.948  29.320  27.837  1.00  0.00    -0.203 F 
ATOM     48  F   UNL A   1      38.918  24.783  27.767  1.00  0.00    -0.200 F 
ATOM     49  C   UNL A   1      40.402  26.259  26.675  1.00  0.00     0.200 A 
ATOM     50  F   UNL A   1      41.888  27.763  25.623  1.00  0.00    -0.200 F 
ATOM     51  F   UNL A   1      40.377  25.492  25.576  1.00  0.00    -0.200 F 
ENDBRANCH  27  41
BRANCH  28  52
ATOM     52  C   UNL A   1      39.530  33.930  36.851  1.00  0.00     0.064 A 
ATOM     53  C   UNL A   1      40.109  35.204  36.920  1.00  0.00     0.173 A 
ATOM     54  C   UNL A   1      38.772  33.493  37.946  1.00  0.00     0.173 A 
ATOM     55  F   UNL A   1      40.859  35.655  35.904  1.00  0.00    -0.203 F 
ATOM     56  C   UNL A   1      39.945  36.005  38.048  1.00  0.00     0.198 A 
ATOM     57  C   UNL A   1      38.587  34.304  39.062  1.00  0.00     0.198 A 
ATOM     58  F   UNL A   1      38.198  32.282  37.925  1.00  0.00    -0.203 F 
ATOM     59  F   UNL A   1      40.538  37.205  38.106  1.00  0.00    -0.200 F 
ATOM     60  C   UNL A   1      39.179  35.558  39.115  1.00  0.00     0.200 A 
ATOM     61  F   UNL A   1      37.837  33.874  40.086  1.00  0.00    -0.200 F 
ATOM     62  F   UNL A   1      39.018  36.331  40.197  1.00  0.00    -0.200 F 
ENDBRANCH  28  52
BRANCH  40  63
ATOM     63  C   UNL A   1      43.727  28.600  35.318  1.00  0.00     0.064 A 
ATOM     64  C   UNL A   1      45.072  28.986  35.214  1.00  0.00     0.173 A 
ATOM     65  C   UNL A   1      43.405  27.555  36.195  1.00  0.00     0.173 A 
ATOM     66  F   UNL A   1      45.430  29.967  34.372  1.00  0.00    -0.203 F 
ATOM     67  C   UNL A   1      46.060  28.334  35.947  1.00  0.00     0.198 A 
ATOM     68  C   UNL A   1      44.393  26.922  36.944  1.00  0.00     0.198 A 
ATOM     69  F   UNL A   1      42.133  27.154  36.330  1.00  0.00    -0.203 F 
ATOM     70  F   UNL A   1      47.344  28.690  35.801  1.00  0.00    -0.200 F 
ATOM     71  C   UNL A   1      45.719  27.307  36.815  1.00  0.00     0.200 A 
ATOM     72  F   UNL A   1      44.062  25.935  37.787  1.00  0.00    -0.200 F 
ATOM     73  F   UNL A   1      46.671  26.683  37.522  1.00  0.00    -0.200 F 
ENDBRANCH  40  63
ENDBRANCH  14  15
ENDBRANCH   7   9
ENDBRANCH   4   5
ENDBRANCH   3   4
ENDBRANCH   2   3
ENDBRANCH   1   2
BRANCH   1  74
ATOM     74  C   UNL A   1      31.948  28.595  27.562  1.00  0.00     0.021 C 
BRANCH  74  75
ATOM     75  C   UNL A   1      31.342  27.614  26.563  1.00  0.00     0.116 C 
BRANCH  75  76
ATOM     76  N   UNL A   1      31.965  26.305  26.554  1.00  0.00    -0.352 N 
ATOM     77  C   UNL A   1      32.984  25.899  25.739  1.00  0.00     0.254 C 
ATOM     78  H   UNL A   1      31.621  25.644  27.198  1.00  0.00     0.163 HD
ATOM     79  O   UNL A   1      33.766  25.002  26.062  1.00  0.00    -0.269 OA
BRANCH  77  80
ATOM     80  C   UNL A   1      33.211  26.585  24.473  1.00  0.00     0.072 A 
ATOM     81  C   UNL A   1      33.969  27.762  24.531  1.00  0.00     0.018 A 
ATOM     82  C   UNL A   1      32.679  26.148  23.258  1.00  0.00     0.109 A 
ATOM     83  C   UNL A   1      34.164  28.501  23.375  1.00  0.00     0.021 A 
ATOM     84  N   UNL A   1      32.902  26.859  22.118  1.00  0.00    -0.249 NA
ATOM     85  C   UNL A   1      33.631  28.002  22.200  1.00  0.00     0.112 A 
BRANCH  82  86
ATOM     86  S   UNL A   1      31.349  24.959  23.111  1.00  0.00    -0.097 SA
BRANCH  86  87
ATOM     87  C   UNL A   1      32.036  23.285  23.254  1.00  0.00     0.157 C 
BRANCH  87  88
ATOM     88  C   UNL A   1      33.422  23.044  22.725  1.00  0.00     0.174 C 
ATOM     89  O   UNL A   1      33.683  23.364  21.560  1.00  0.00    -0.293 OA
BRANCH  88  90
ATOM     90  C   UNL A   1      34.552  22.623  23.626  1.00  0.00     0.037 A 
ATOM     91  C   UNL A   1      35.685  23.467  23.610  1.00  0.00     0.013 A 
ATOM     92  C   UNL A   1      34.577  21.516  24.490  1.00  0.00     0.051 A 
ATOM     93  C   UNL A   1      36.786  23.239  24.442  1.00  0.00     0.001 A 
ATOM     94  C   UNL A   1      35.683  21.300  25.330  1.00  0.00     0.021 A 
ATOM     95  Cl  UNL A   1      33.351  20.307  24.600  1.00  0.00    -0.084 Cl
ATOM     96  C   UNL A   1      36.780  22.157  25.311  1.00  0.00     0.002 A 
ENDBRANCH  88  90
ENDBRANCH  87  88
ENDBRANCH  86  87
ENDBRANCH  82  86
ENDBRANCH  77  80
ENDBRANCH  75  76
ENDBRANCH  74  75
ENDBRANCH   1  74
TORSDOF 17
ENDMDL
MODEL 2
REMARK VINA RESULT:     -11.9      1.050      1.933
REMARK SMILES O=C(NCCCCCCNC(=O)c1cccnc1SCC(=O)c1ccccc1Cl)c1ccc(-c2c3nc(c(-c4c(F)c(F)c(F)c(F)c4F)c4ccc([nH]4)c(-c4c(F)c(F)c(F)c(F)c4F)c4nc(c(-c5c(F)c(F)c(F)c(F)c5F)c5ccc2[nH]5)C=C4)C=C3)cc1
REMARK SMILES IDX 7 1 6 2 5 3 4 4 3 5 1 6 2 7 30 9 31 10 92 11 32 12 91 13
REMARK SMILES IDX 33 14 34 15 35 16 85 17 36 18 90 19 84 20 86 21 37 22 89 23
REMARK SMILES IDX 83 24 82 25 38 27 70 28 50 29 69 30 51 31 54 32 68 33 87 34
REMARK SMILES IDX 52 35 53 36 67 38 88 39 55 40 39 41 40 42 48 43 41 44 42 45
REMARK SMILES IDX 46 46 49 47 43 48 44 49 47 50 45 51 71 52 72 53 80 54 73 55
REMARK SMILES IDX 74 56 78 57 81 58 75 59 76 60 79 61 77 62 56 63 57 64 65 65
REMARK SMILES IDX 58 66 59 67 63 68 66 69 60 70 61 71 64 72 62 73 8 74 9 75
REMARK SMILES IDX 10 76 11 77 12 79 13 80 14 81 18 82 15 83 17 84 16 85 19 86
REMARK SMILES IDX 20 87 21 88 22 89 23 90 24 91 28 92 25 93 27 94 29 95 26 96
REMARK H PARENT 3 8 86 26 54 37 10 78
REMARK Flexibility Score: inf
ROOT
ATOM      1  C   UNL A   1      32.361  29.915  26.665  1.00  0.00     0.002 C 
ENDROOT
BRANCH   1   2
ATOM      2  C   UNL A   1      31.403  30.845  25.917  1.00  0.00     0.002 C 
BRANCH   2   3
ATOM      3  C   UNL A   1      31.218  32.245  26.501  1.00  0.00     0.021 C 
BRANCH   3   4
ATOM      4  C   UNL A   1      32.415  32.809  27.251  1.00  0.00     0.116 C 
BRANCH   4   5
ATOM      5  N   UNL A   1      32.244  34.203  27.612  1.00  0.00    -0.352 N 
ATOM      6  O   UNL A   1      32.528  36.075  28.838  1.00  0.00    -0.269 OA
ATOM      7  C   UNL A   1      32.903  34.935  28.565  1.00  0.00     0.251 C 
ATOM      8  H   UNL A   1      31.557  34.692  27.103  1.00  0.00     0.163 HD
BRANCH   7   9
ATOM      9  C   UNL A   1      34.060  34.357  29.286  1.00  0.00     0.039 A 
ATOM     10  C   UNL A   1      33.886  33.631  30.469  1.00  0.00     0.014 A 
ATOM     11  C   UNL A   1      35.338  34.501  28.737  1.00  0.00     0.014 A 
ATOM     12  C   UNL A   1      34.994  33.122  31.143  1.00  0.00     0.010 A 
ATOM     13  C   UNL A   1      36.442  33.937  29.380  1.00  0.00     0.010 A 
ATOM     14  C   UNL A   1      36.279  33.248  30.591  1.00  0.00    -0.014 A 
BRANCH  14  15
ATOM     15  C   UNL A   1      37.420  32.544  31.223  1.00  0.00     0.031 A 
ATOM     16  C   UNL A   1      38.107  31.395  30.544  1.00  0.00     0.074 A 
ATOM     17  C   UNL A   1      37.820  32.949  32.444  1.00  0.00     0.049 A 
ATOM     18  N   UNL A   1      39.106  30.666  30.975  1.00  0.00    -0.248 NA
ATOM     19  C   UNL A   1      37.607  31.007  29.217  1.00  0.00     0.031 C 
ATOM     20  C   UNL A   1      37.203  34.034  33.211  1.00  0.00     0.029 A 
ATOM     21  N   UNL A   1      38.829  32.501  33.257  1.00  0.00    -0.354 N 
ATOM     22  C   UNL A   1      39.345  29.725  29.983  1.00  0.00     0.074 A 
ATOM     23  C   UNL A   1      38.379  29.964  28.932  1.00  0.00     0.031 C 
ATOM     24  C   UNL A   1      37.857  34.179  34.373  1.00  0.00     0.029 A 
ATOM     25  C   UNL A   1      38.905  33.168  34.455  1.00  0.00     0.049 A 
ATOM     26  H   UNL A   1      39.440  31.771  33.005  1.00  0.00     0.167 HD
ATOM     27  C   UNL A   1      40.291  28.755  29.958  1.00  0.00     0.037 A 
ATOM     28  C   UNL A   1      39.711  32.972  35.514  1.00  0.00     0.037 A 
ATOM     29  C   UNL A   1      41.268  28.542  30.995  1.00  0.00     0.049 A 
ATOM     30  C   UNL A   1      40.736  31.879  35.458  1.00  0.00     0.074 A 
ATOM     31  C   UNL A   1      42.328  27.651  31.011  1.00  0.00     0.029 A 
ATOM     32  N   UNL A   1      41.297  29.219  32.205  1.00  0.00    -0.354 N 
ATOM     33  N   UNL A   1      40.999  31.045  34.484  1.00  0.00    -0.248 NA
ATOM     34  C   UNL A   1      41.572  31.694  36.653  1.00  0.00     0.031 C 
ATOM     35  C   UNL A   1      42.970  27.757  32.250  1.00  0.00     0.029 A 
ATOM     36  C   UNL A   1      42.332  28.738  32.990  1.00  0.00     0.049 A 
ATOM     37  H   UNL A   1      40.674  29.936  32.466  1.00  0.00     0.167 HD
ATOM     38  C   UNL A   1      42.027  30.234  34.943  1.00  0.00     0.074 A 
ATOM     39  C   UNL A   1      42.359  30.697  36.275  1.00  0.00     0.031 C 
ATOM     40  C   UNL A   1      42.634  29.196  34.321  1.00  0.00     0.037 A 
BRANCH  27  41
ATOM     41  C   UNL A   1      40.329  27.836  28.775  1.00  0.00     0.064 A 
ATOM     42  C   UNL A   1      41.108  28.126  27.645  1.00  0.00     0.173 A 
ATOM     43  C   UNL A   1      39.655  26.606  28.814  1.00  0.00     0.173 A 
ATOM     44  F   UNL A   1      41.767  29.291  27.559  1.00  0.00    -0.203 F 
ATOM     45  C   UNL A   1      41.207  27.215  26.595  1.00  0.00     0.198 A 
ATOM     46  C   UNL A   1      39.770  25.692  27.769  1.00  0.00     0.198 A 
ATOM     47  F   UNL A   1      38.903  26.282  29.876  1.00  0.00    -0.203 F 
ATOM     48  F   UNL A   1      41.946  27.517  25.518  1.00  0.00    -0.200 F 
ATOM     49  C   UNL A   1      40.546  25.998  26.661  1.00  0.00     0.200 A 
ATOM     50  F   UNL A   1      39.140  24.512  27.840  1.00  0.00    -0.200 F 
ATOM     51  F   UNL A   1      40.658  25.118  25.657  1.00  0.00    -0.200 F 
ENDBRANCH  27  41
BRANCH  28  52
ATOM     52  C   UNL A   1      39.555  33.818  36.723  1.00  0.00     0.064 A 
ATOM     53  C   UNL A   1      38.752  33.406  37.794  1.00  0.00     0.173 A 
ATOM     54  C   UNL A   1      40.215  35.050  36.833  1.00  0.00     0.173 A 
ATOM     55  F   UNL A   1      38.085  32.244  37.724  1.00  0.00    -0.203 F 
ATOM     56  C   UNL A   1      38.605  34.203  38.927  1.00  0.00     0.198 A 
ATOM     57  C   UNL A   1      40.088  35.833  37.977  1.00  0.00     0.198 A 
ATOM     58  F   UNL A   1      40.996  35.485  35.834  1.00  0.00    -0.203 F 
ATOM     59  F   UNL A   1      37.803  33.805  39.924  1.00  0.00    -0.200 F 
ATOM     60  C   UNL A   1      39.278  35.412  39.021  1.00  0.00     0.200 A 
ATOM     61  F   UNL A   1      40.750  36.995  38.068  1.00  0.00    -0.200 F 
ATOM     62  F   UNL A   1      39.141  36.175  40.114  1.00  0.00    -0.200 F 
ENDBRANCH  28  52
BRANCH  40  63
ATOM     63  C   UNL A   1      43.708  28.485  35.084  1.00  0.00     0.064 A 
ATOM     64  C   UNL A   1      45.053  28.868  34.968  1.00  0.00     0.173 A 
ATOM     65  C   UNL A   1      43.393  27.430  35.953  1.00  0.00     0.173 A 
ATOM     66  F   UNL A   1      45.403  29.859  34.134  1.00  0.00    -0.203 F 
ATOM     67  C   UNL A   1      46.047  28.206  35.682  1.00  0.00     0.198 A 
ATOM     68  C   UNL A   1      44.388  26.786  36.682  1.00  0.00     0.198 A 
ATOM     69  F   UNL A   1      42.122  27.031  36.098  1.00  0.00    -0.203 F 
ATOM     70  F   UNL A   1      47.330  28.560  35.525  1.00  0.00    -0.200 F 
ATOM     71  C   UNL A   1      45.713  27.169  36.542  1.00  0.00     0.200 A 
ATOM     72  F   UNL A   1      44.065  25.790  37.518  1.00  0.00    -0.200 F 
ATOM     73  F   UNL A   1      46.672  26.534  37.230  1.00  0.00    -0.200 F 
ENDBRANCH  40  63
ENDBRANCH  14  15
ENDBRANCH   7   9
ENDBRANCH   4   5
ENDBRANCH   3   4
ENDBRANCH   2   3
ENDBRANCH   1   2
BRANCH   1  74
ATOM     74  C   UNL A   1      31.738  28.716  27.385  1.00  0.00     0.021 C 
BRANCH  74  75
ATOM     75  C   UNL A   1      32.244  27.337  26.975  1.00  0.00     0.116 C 
BRANCH  75  76
ATOM     76  N   UNL A   1      31.207  26.424  26.535  1.00  0.00    -0.352 N 
ATOM     77  C   UNL A   1      30.785  26.238  25.248  1.00  0.00     0.254 C 
ATOM     78  H   UNL A   1      30.764  25.886  27.229  1.00  0.00     0.163 HD
ATOM     79  O   UNL A   1      30.278  25.180  24.870  1.00  0.00    -0.269 OA
BRANCH  77  80
ATOM     80  C   UNL A   1      30.998  27.290  24.261  1.00  0.00     0.072 A 
ATOM     81  C   UNL A   1      29.875  28.053  23.915  1.00  0.00     0.018 A 
ATOM     82  C   UNL A   1      32.226  27.521  23.639  1.00  0.00     0.109 A 
ATOM     83  C   UNL A   1      29.991  29.023  22.932  1.00  0.00     0.021 A 
ATOM     84  N   UNL A   1      32.344  28.498  22.698  1.00  0.00    -0.249 NA
ATOM     85  C   UNL A   1      31.240  29.218  22.371  1.00  0.00     0.112 A 
BRANCH  82  86
ATOM     86  S   UNL A   1      33.589  26.360  23.639  1.00  0.00    -0.097 SA
BRANCH  86  87
ATOM     87  C   UNL A   1      33.133  24.917  22.635  1.00  0.00     0.157 C 
BRANCH  87  88
ATOM     88  C   UNL A   1      33.433  23.551  23.188  1.00  0.00     0.174 C 
ATOM     89  O   UNL A   1      32.782  22.583  22.779  1.00  0.00    -0.293 OA
BRANCH  88  90
ATOM     90  C   UNL A   1      34.632  23.296  24.060  1.00  0.00     0.037 A 
ATOM     91  C   UNL A   1      35.819  22.955  23.372  1.00  0.00     0.013 A 
ATOM     92  C   UNL A   1      34.696  23.394  25.460  1.00  0.00     0.051 A 
ATOM     93  C   UNL A   1      37.028  22.752  24.045  1.00  0.00     0.001 A 
ATOM     94  C   UNL A   1      35.919  23.199  26.126  1.00  0.00     0.021 A 
ATOM     95  Cl  UNL A   1      33.356  23.700  26.502  1.00  0.00    -0.084 Cl
ATOM     96  C   UNL A   1      37.079  22.884  25.425  1.00  0.00     0.002 A 
ENDBRANCH  88  90
ENDBRANCH  87  88
ENDBRANCH  86  87
ENDBRANCH  82  86
ENDBRANCH  77  80
ENDBRANCH  75  76
ENDBRANCH  74  75
ENDBRANCH   1  74
TORSDOF 17
ENDMDL
MODEL 3
REMARK VINA RESULT:     -11.9      1.749      7.713
REMARK SMILES O=C(NCCCCCCNC(=O)c1cccnc1SCC(=O)c1ccccc1Cl)c1ccc(-c2c3nc(c(-c4c(F)c(F)c(F)c(F)c4F)c4ccc([nH]4)c(-c4c(F)c(F)c(F)c(F)c4F)c4nc(c(-c5c(F)c(F)c(F)c(F)c5F)c5ccc2[nH]5)C=C4)C=C3)cc1
REMARK SMILES IDX 7 1 6 2 5 3 4 4 3 5 1 6 2 7 30 9 31 10 92 11 32 12 91 13
REMARK SMILES IDX 33 14 34 15 35 16 85 17 36 18 90 19 84 20 86 21 37 22 89 23
REMARK SMILES IDX 83 24 82 25 38 27 70 28 50 29 69 30 51 31 54 32 68 33 87 34
REMARK SMILES IDX 52 35 53 36 67 38 88 39 55 40 39 41 40 42 48 43 41 44 42 45
REMARK SMILES IDX 46 46 49 47 43 48 44 49 47 50 45 51 71 52 72 53 80 54 73 55
REMARK SMILES IDX 74 56 78 57 81 58 75 59 76 60 79 61 77 62 56 63 57 64 65 65
REMARK SMILES IDX 58 66 59 67 63 68 66 69 60 70 61 71 64 72 62 73 8 74 9 75
REMARK SMILES IDX 10 76 11 77 12 79 13 80 14 81 18 82 15 83 17 84 16 85 19 86
REMARK SMILES IDX 20 87 21 88 22 89 23 90 24 91 28 92 25 93 27 94 29 95 26 96
REMARK H PARENT 3 8 86 26 54 37 10 78
REMARK Flexibility Score: inf
ROOT
ATOM      1  C   UNL A   1      32.296  29.700  27.198  1.00  0.00     0.002 C 
ENDROOT
BRANCH   1   2
ATOM      2  C   UNL A   1      31.497  30.553  26.209  1.00  0.00     0.002 C 
BRANCH   2   3
ATOM      3  C   UNL A   1      31.427  32.050  26.503  1.00  0.00     0.021 C 
BRANCH   3   4
ATOM      4  C   UNL A   1      32.618  32.631  27.251  1.00  0.00     0.116 C 
BRANCH   4   5
ATOM      5  N   UNL A   1      32.425  34.021  27.618  1.00  0.00    -0.352 N 
ATOM      6  O   UNL A   1      32.665  35.887  28.862  1.00  0.00    -0.269 OA
ATOM      7  C   UNL A   1      33.057  34.753  28.589  1.00  0.00     0.251 C 
ATOM      8  H   UNL A   1      31.744  34.507  27.097  1.00  0.00     0.163 HD
BRANCH   7   9
ATOM      9  C   UNL A   1      34.203  34.181  29.332  1.00  0.00     0.039 A 
ATOM     10  C   UNL A   1      34.008  33.403  30.477  1.00  0.00     0.014 A 
ATOM     11  C   UNL A   1      35.495  34.385  28.838  1.00  0.00     0.014 A 
ATOM     12  C   UNL A   1      35.106  32.901  31.173  1.00  0.00     0.010 A 
ATOM     13  C   UNL A   1      36.593  33.828  29.500  1.00  0.00     0.010 A 
ATOM     14  C   UNL A   1      36.406  33.087  30.676  1.00  0.00    -0.014 A 
BRANCH  14  15
ATOM     15  C   UNL A   1      37.544  32.392  31.324  1.00  0.00     0.031 A 
ATOM     16  C   UNL A   1      38.042  32.798  32.680  1.00  0.00     0.074 A 
ATOM     17  C   UNL A   1      38.142  31.389  30.653  1.00  0.00     0.049 A 
ATOM     18  N   UNL A   1      39.037  32.301  33.372  1.00  0.00    -0.248 NA
ATOM     19  C   UNL A   1      37.342  33.907  33.345  1.00  0.00     0.031 C 
ATOM     20  C   UNL A   1      37.762  30.931  29.314  1.00  0.00     0.029 A 
ATOM     21  N   UNL A   1      39.193  30.576  30.994  1.00  0.00    -0.354 N 
ATOM     22  C   UNL A   1      39.094  33.044  34.543  1.00  0.00     0.074 A 
ATOM     23  C   UNL A   1      38.043  34.036  34.466  1.00  0.00     0.031 C 
ATOM     24  C   UNL A   1      38.555  29.911  28.956  1.00  0.00     0.029 A 
ATOM     25  C   UNL A   1      39.528  29.674  30.016  1.00  0.00     0.049 A 
ATOM     26  H   UNL A   1      39.661  30.635  31.858  1.00  0.00     0.167 HD
ATOM     27  C   UNL A   1      39.948  32.901  35.585  1.00  0.00     0.037 A 
ATOM     28  C   UNL A   1      40.524  28.772  29.964  1.00  0.00     0.037 A 
ATOM     29  C   UNL A   1      40.973  31.892  35.667  1.00  0.00     0.049 A 
ATOM     30  C   UNL A   1      41.461  28.651  31.129  1.00  0.00     0.074 A 
ATOM     31  C   UNL A   1      41.818  31.606  36.726  1.00  0.00     0.029 A 
ATOM     32  N   UNL A   1      41.301  31.014  34.646  1.00  0.00    -0.354 N 
ATOM     33  N   UNL A   1      41.457  29.310  32.261  1.00  0.00    -0.248 NA
ATOM     34  C   UNL A   1      42.546  27.667  31.008  1.00  0.00     0.031 C 
ATOM     35  C   UNL A   1      42.688  30.585  36.328  1.00  0.00     0.029 A 
ATOM     36  C   UNL A   1      42.361  30.212  35.035  1.00  0.00     0.049 A 
ATOM     37  H   UNL A   1      40.846  30.967  33.773  1.00  0.00     0.167 HD
ATOM     38  C   UNL A   1      42.535  28.826  32.987  1.00  0.00     0.074 A 
ATOM     39  C   UNL A   1      43.154  27.796  32.178  1.00  0.00     0.031 C 
ATOM     40  C   UNL A   1      42.977  29.207  34.208  1.00  0.00     0.037 A 
BRANCH  27  41
ATOM     41  C   UNL A   1      39.825  33.855  36.734  1.00  0.00     0.064 A 
ATOM     42  C   UNL A   1      38.991  33.582  37.829  1.00  0.00     0.173 A 
ATOM     43  C   UNL A   1      40.625  35.007  36.786  1.00  0.00     0.173 A 
ATOM     44  F   UNL A   1      38.204  32.496  37.824  1.00  0.00    -0.203 F 
ATOM     45  C   UNL A   1      38.961  34.432  38.932  1.00  0.00     0.198 A 
ATOM     46  C   UNL A   1      40.603  35.845  37.898  1.00  0.00     0.198 A 
ATOM     47  F   UNL A   1      41.443  35.306  35.766  1.00  0.00    -0.203 F 
ATOM     48  F   UNL A   1      38.147  34.161  39.962  1.00  0.00    -0.200 F 
ATOM     49  C   UNL A   1      39.772  35.557  38.969  1.00  0.00     0.200 A 
ATOM     50  F   UNL A   1      41.396  36.925  37.937  1.00  0.00    -0.200 F 
ATOM     51  F   UNL A   1      39.753  36.363  40.040  1.00  0.00    -0.200 F 
ENDBRANCH  27  41
BRANCH  28  52
ATOM     52  C   UNL A   1      40.696  27.934  28.751  1.00  0.00     0.064 A 
ATOM     53  C   UNL A   1      41.517  28.352  27.695  1.00  0.00     0.173 A 
ATOM     54  C   UNL A   1      40.050  26.696  28.630  1.00  0.00     0.173 A 
ATOM     55  F   UNL A   1      42.138  29.539  27.758  1.00  0.00    -0.203 F 
ATOM     56  C   UNL A   1      41.674  27.565  26.556  1.00  0.00     0.198 A 
ATOM     57  C   UNL A   1      40.229  25.899  27.503  1.00  0.00     0.198 A 
ATOM     58  F   UNL A   1      39.257  26.254  29.616  1.00  0.00    -0.203 F 
ATOM     59  F   UNL A   1      42.436  28.002  25.544  1.00  0.00    -0.200 F 
ATOM     60  C   UNL A   1      41.037  26.336  26.464  1.00  0.00     0.200 A 
ATOM     61  F   UNL A   1      39.621  24.707  27.422  1.00  0.00    -0.200 F 
ATOM     62  F   UNL A   1      41.194  25.579  25.371  1.00  0.00    -0.200 F 
ENDBRANCH  28  52
BRANCH  40  63
ATOM     63  C   UNL A   1      44.195  28.513  34.734  1.00  0.00     0.064 A 
ATOM     64  C   UNL A   1      45.479  29.028  34.499  1.00  0.00     0.173 A 
ATOM     65  C   UNL A   1      44.081  27.340  35.494  1.00  0.00     0.173 A 
ATOM     66  F   UNL A   1      45.637  30.136  33.761  1.00  0.00    -0.203 F 
ATOM     67  C   UNL A   1      46.609  28.380  34.993  1.00  0.00     0.198 A 
ATOM     68  C   UNL A   1      45.212  26.708  36.005  1.00  0.00     0.198 A 
ATOM     69  F   UNL A   1      42.875  26.812  35.745  1.00  0.00    -0.203 F 
ATOM     70  F   UNL A   1      47.828  28.866  34.723  1.00  0.00    -0.200 F 
ATOM     71  C   UNL A   1      46.473  27.225  35.749  1.00  0.00     0.200 A 
ATOM     72  F   UNL A   1      45.081  25.597  36.740  1.00  0.00    -0.200 F 
ATOM     73  F   UNL A   1      47.562  26.605  36.224  1.00  0.00    -0.200 F 
ENDBRANCH  40  63
ENDBRANCH  14  15
ENDBRANCH   7   9
ENDBRANCH   4   5
ENDBRANCH   3   4
ENDBRANCH   2   3
ENDBRANCH   1   2
BRANCH   1  74
ATOM     74  C   UNL A   1      31.759  28.296  27.489  1.00  0.00     0.021 C 
BRANCH  74  75
ATOM     75  C   UNL A   1      31.542  27.387  26.283  1.00  0.00     0.116 C 
BRANCH  75  76
ATOM     76  N   UNL A   1      30.887  26.131  26.590  1.00  0.00    -0.352 N 
ATOM     77  C   UNL A   1      31.437  24.884  26.480  1.00  0.00     0.254 C 
ATOM     78  H   UNL A   1      29.957  26.179  26.907  1.00  0.00     0.163 HD
ATOM     79  O   UNL A   1      31.049  23.933  27.162  1.00  0.00    -0.269 OA
BRANCH  77  80
ATOM     80  C   UNL A   1      32.566  24.671  25.583  1.00  0.00     0.072 A 
ATOM     81  C   UNL A   1      33.840  24.744  26.159  1.00  0.00     0.018 A 
ATOM     82  C   UNL A   1      32.424  24.450  24.211  1.00  0.00     0.109 A 
ATOM     83  C   UNL A   1      34.959  24.619  25.351  1.00  0.00     0.021 A 
ATOM     84  N   UNL A   1      33.526  24.294  23.425  1.00  0.00    -0.249 NA
ATOM     85  C   UNL A   1      34.751  24.379  24.005  1.00  0.00     0.112 A 
BRANCH  82  86
ATOM     86  S   UNL A   1      30.928  24.784  23.287  1.00  0.00    -0.097 SA
BRANCH  86  87
ATOM     87  C   UNL A   1      31.236  26.161  22.145  1.00  0.00     0.157 C 
BRANCH  87  88
ATOM     88  C   UNL A   1      31.242  27.555  22.706  1.00  0.00     0.174 C 
ATOM     89  O   UNL A   1      32.316  28.054  23.061  1.00  0.00    -0.293 OA
BRANCH  88  90
ATOM     90  C   UNL A   1      30.022  28.434  22.656  1.00  0.00     0.037 A 
ATOM     91  C   UNL A   1      30.206  29.690  22.035  1.00  0.00     0.013 A 
ATOM     92  C   UNL A   1      28.735  28.123  23.126  1.00  0.00     0.051 A 
ATOM     93  C   UNL A   1      29.148  30.587  21.858  1.00  0.00     0.001 A 
ATOM     94  C   UNL A   1      27.676  29.027  22.934  1.00  0.00     0.021 A 
ATOM     95  Cl  UNL A   1      28.308  26.697  23.997  1.00  0.00    -0.084 Cl
ATOM     96  C   UNL A   1      27.877  30.250  22.300  1.00  0.00     0.002 A 
ENDBRANCH  88  90
ENDBRANCH  87  88
ENDBRANCH  86  87
ENDBRANCH  82  86
ENDBRANCH  77  80
ENDBRANCH  75  76
ENDBRANCH  74  75
ENDBRANCH   1  74
TORSDOF 17
ENDMDL
