MODEL 1
REMARK VINA RESULT:     -12.0      0.000      0.000
REMARK SMILES C=CCOc1ccccc1-c1cc(C(=O)NCCCCCCNC(=O)c2ccc(-c3c4nc(c(-c5c(F)c(F)c(F)c(F)c5F)c5ccc([nH]5)c(-c5c(F)c(F)c(F)c(F)c5F)c5nc(c(-c6c(F)c(F)c(F)c(F)c6F)c6ccc3[nH]6)C=C5)C=C4)cc2)nc(N)n1
REMARK SMILES IDX 18 1 17 2 16 3 14 4 15 5 13 7 11 8 12 9 92 10 90 11 89 12
REMARK SMILES IDX 10 13 5 14 6 15 7 16 9 17 8 18 4 19 3 20 2 21 1 22 91 23
REMARK SMILES IDX 19 26 20 27 21 28 22 29 23 30 24 31 25 33 26 34 27 35 88 36
REMARK SMILES IDX 28 37 87 38 29 39 30 40 31 41 81 42 32 43 86 44 80 45 82 46
REMARK SMILES IDX 33 47 85 48 79 49 78 50 34 52 66 53 46 54 65 55 47 56 50 57
REMARK SMILES IDX 64 58 83 59 48 60 49 61 63 63 84 64 51 65 35 66 36 67 44 68
REMARK SMILES IDX 37 69 38 70 42 71 45 72 39 73 40 74 43 75 41 76 67 77 68 78
REMARK SMILES IDX 76 79 69 80 70 81 74 82 77 83 71 84 72 85 75 86 73 87 52 88
REMARK SMILES IDX 53 89 61 90 54 91 55 92 59 93 62 94 56 95 57 96 60 97 58 98
REMARK H PARENT 16 6 91 24 91 25 23 32 82 51 50 62
REMARK Flexibility Score: inf
ROOT
ATOM      1  C   UNL A   1      33.803  25.892  25.998  1.00  0.00     0.021 C 
ENDROOT
BRANCH   1   2
ATOM      2  C   UNL A   1      34.404  25.278  24.735  1.00  0.00     0.116 C 
BRANCH   2   3
ATOM      3  N   UNL A   1      33.547  25.432  23.576  1.00  0.00    -0.351 N 
ATOM      4  C   UNL A   1      32.499  24.654  23.143  1.00  0.00     0.270 C 
ATOM      5  O   UNL A   1      31.927  24.981  22.102  1.00  0.00    -0.268 OA
ATOM      6  H   UNL A   1      33.746  26.214  23.011  1.00  0.00     0.163 HD
BRANCH   4   7
ATOM      7  C   UNL A   1      32.069  23.417  23.865  1.00  0.00     0.134 A 
ATOM      8  C   UNL A   1      32.310  21.135  24.253  1.00  0.00     0.080 A 
ATOM      9  C   UNL A   1      32.639  22.225  23.484  1.00  0.00     0.063 A 
ATOM     10  N   UNL A   1      31.426  21.214  25.273  1.00  0.00    -0.213 NA
ATOM     11  C   UNL A   1      30.912  22.414  25.544  1.00  0.00     0.221 A 
ATOM     12  N   UNL A   1      31.185  23.530  24.876  1.00  0.00    -0.208 NA
BRANCH   8  13
ATOM     13  C   UNL A   1      32.959  19.829  24.073  1.00  0.00     0.042 A 
ATOM     14  C   UNL A   1      34.197  19.515  24.670  1.00  0.00     0.129 A 
ATOM     15  C   UNL A   1      34.822  18.285  24.449  1.00  0.00     0.047 A 
ATOM     16  C   UNL A   1      34.195  17.322  23.660  1.00  0.00     0.004 A 
ATOM     17  C   UNL A   1      32.340  18.833  23.298  1.00  0.00     0.014 A 
ATOM     18  C   UNL A   1      32.952  17.593  23.091  1.00  0.00     0.001 A 
BRANCH  14  19
ATOM     19  O   UNL A   1      34.857  20.437  25.449  1.00  0.00    -0.489 OA
BRANCH  19  20
ATOM     20  C   UNL A   1      36.215  20.614  25.018  1.00  0.00     0.257 C 
BRANCH  20  21
ATOM     21  C   UNL A   1      36.450  22.069  24.735  1.00  0.00     0.006 C 
ATOM     22  C   UNL A   1      36.553  22.593  23.506  1.00  0.00     0.007 C 
ENDBRANCH  20  21
ENDBRANCH  19  20
ENDBRANCH  14  19
ENDBRANCH   8  13
BRANCH  11  23
ATOM     23  N   UNL A   1      30.107  22.518  26.641  1.00  0.00    -0.368 N 
ATOM     24  H   UNL A   1      30.460  22.902  27.476  1.00  0.00     0.159 HD
ATOM     25  H   UNL A   1      29.174  22.206  26.598  1.00  0.00     0.159 HD
ENDBRANCH  11  23
ENDBRANCH   4   7
ENDBRANCH   2   3
ENDBRANCH   1   2
BRANCH   1  26
ATOM     26  C   UNL A   1      33.207  27.294  25.850  1.00  0.00     0.002 C 
BRANCH  26  27
ATOM     27  C   UNL A   1      32.079  27.649  26.822  1.00  0.00     0.002 C 
BRANCH  27  28
ATOM     28  C   UNL A   1      31.876  29.141  27.081  1.00  0.00     0.021 C 
BRANCH  28  29
ATOM     29  C   UNL A   1      32.883  30.062  26.403  1.00  0.00     0.116 C 
BRANCH  29  30
ATOM     30  N   UNL A   1      32.612  31.471  26.638  1.00  0.00    -0.352 N 
ATOM     31  C   UNL A   1      33.322  32.365  27.408  1.00  0.00     0.251 C 
ATOM     32  H   UNL A   1      31.815  31.834  26.188  1.00  0.00     0.163 HD
ATOM     33  O   UNL A   1      32.901  33.492  27.616  1.00  0.00    -0.269 OA
BRANCH  31  34
ATOM     34  C   UNL A   1      34.602  31.930  28.007  1.00  0.00     0.039 A 
ATOM     35  C   UNL A   1      35.691  32.805  27.996  1.00  0.00     0.014 A 
ATOM     36  C   UNL A   1      34.705  30.676  28.614  1.00  0.00     0.014 A 
ATOM     37  C   UNL A   1      36.869  32.450  28.658  1.00  0.00     0.010 A 
ATOM     38  C   UNL A   1      35.851  30.353  29.330  1.00  0.00     0.010 A 
ATOM     39  C   UNL A   1      36.943  31.237  29.360  1.00  0.00    -0.014 A 
BRANCH  39  40
ATOM     40  C   UNL A   1      38.151  30.836  30.125  1.00  0.00     0.031 A 
ATOM     41  C   UNL A   1      39.111  29.855  29.520  1.00  0.00     0.074 A 
ATOM     42  C   UNL A   1      38.326  31.265  31.389  1.00  0.00     0.049 A 
ATOM     43  N   UNL A   1      40.115  29.223  30.072  1.00  0.00    -0.248 NA
ATOM     44  C   UNL A   1      38.888  29.513  28.107  1.00  0.00     0.031 C 
ATOM     45  C   UNL A   1      37.460  32.213  32.091  1.00  0.00     0.029 A 
ATOM     46  N   UNL A   1      39.283  30.938  32.316  1.00  0.00    -0.354 N 
ATOM     47  C   UNL A   1      40.620  28.388  29.086  1.00  0.00     0.074 A 
ATOM     48  C   UNL A   1      39.785  28.559  27.916  1.00  0.00     0.031 C 
ATOM     49  C   UNL A   1      37.935  32.402  33.333  1.00  0.00     0.029 A 
ATOM     50  C   UNL A   1      39.105  31.553  33.531  1.00  0.00     0.049 A 
ATOM     51  H   UNL A   1      40.028  30.323  32.127  1.00  0.00     0.167 HD
ATOM     52  C   UNL A   1      41.693  27.565  29.145  1.00  0.00     0.037 A 
ATOM     53  C   UNL A   1      39.798  31.426  34.679  1.00  0.00     0.037 A 
ATOM     54  C   UNL A   1      42.534  27.418  30.305  1.00  0.00     0.049 A 
ATOM     55  C   UNL A   1      40.962  30.474  34.737  1.00  0.00     0.074 A 
ATOM     56  C   UNL A   1      43.671  26.645  30.456  1.00  0.00     0.029 A 
ATOM     57  N   UNL A   1      42.324  28.064  31.515  1.00  0.00    -0.354 N 
ATOM     58  N   UNL A   1      41.454  29.711  33.791  1.00  0.00    -0.248 NA
ATOM     59  C   UNL A   1      41.664  30.362  36.024  1.00  0.00     0.031 C 
ATOM     60  C   UNL A   1      44.125  26.790  31.771  1.00  0.00     0.029 A 
ATOM     61  C   UNL A   1      43.301  27.692  32.424  1.00  0.00     0.049 A 
ATOM     62  H   UNL A   1      41.590  28.694  31.699  1.00  0.00     0.167 HD
ATOM     63  C   UNL A   1      42.545  29.061  34.353  1.00  0.00     0.074 A 
ATOM     64  C   UNL A   1      42.639  29.515  35.725  1.00  0.00     0.031 C 
ATOM     65  C   UNL A   1      43.394  28.175  33.780  1.00  0.00     0.037 A 
BRANCH  52  66
ATOM     66  C   UNL A   1      42.003  26.751  27.922  1.00  0.00     0.064 A 
ATOM     67  C   UNL A   1      41.423  25.491  27.708  1.00  0.00     0.173 A 
ATOM     68  C   UNL A   1      42.897  27.233  26.955  1.00  0.00     0.173 A 
ATOM     69  F   UNL A   1      40.571  24.979  28.610  1.00  0.00    -0.203 F 
ATOM     70  C   UNL A   1      41.762  24.725  26.597  1.00  0.00     0.198 A 
ATOM     71  C   UNL A   1      43.208  26.479  25.826  1.00  0.00     0.198 A 
ATOM     72  F   UNL A   1      43.476  28.434  27.105  1.00  0.00    -0.203 F 
ATOM     73  F   UNL A   1      41.248  23.496  26.451  1.00  0.00    -0.200 F 
ATOM     74  C   UNL A   1      42.650  25.220  25.654  1.00  0.00     0.200 A 
ATOM     75  F   UNL A   1      44.057  26.964  24.910  1.00  0.00    -0.200 F 
ATOM     76  F   UNL A   1      42.980  24.479  24.588  1.00  0.00    -0.200 F 
ENDBRANCH  52  66
BRANCH  53  77
ATOM     77  C   UNL A   1      39.428  32.250  35.859  1.00  0.00     0.064 A 
ATOM     78  C   UNL A   1      39.997  33.517  36.048  1.00  0.00     0.173 A 
ATOM     79  C   UNL A   1      38.498  31.803  36.809  1.00  0.00     0.173 A 
ATOM     80  F   UNL A   1      40.908  33.976  35.177  1.00  0.00    -0.203 F 
ATOM     81  C   UNL A   1      39.658  34.303  37.146  1.00  0.00     0.198 A 
ATOM     82  C   UNL A   1      38.141  32.600  37.895  1.00  0.00     0.198 A 
ATOM     83  F   UNL A   1      37.923  30.599  36.672  1.00  0.00    -0.203 F 
ATOM     84  F   UNL A   1      40.241  35.496  37.320  1.00  0.00    -0.200 F 
ATOM     85  C   UNL A   1      38.724  33.847  38.065  1.00  0.00     0.200 A 
ATOM     86  F   UNL A   1      37.229  32.162  38.774  1.00  0.00    -0.200 F 
ATOM     87  F   UNL A   1      38.390  34.607  39.117  1.00  0.00    -0.200 F 
ENDBRANCH  53  77
BRANCH  65  88
ATOM     88  C   UNL A   1      44.544  27.681  34.605  1.00  0.00     0.064 A 
ATOM     89  C   UNL A   1      45.759  28.376  34.671  1.00  0.00     0.173 A 
ATOM     90  C   UNL A   1      44.396  26.535  35.402  1.00  0.00     0.173 A 
ATOM     91  F   UNL A   1      45.955  29.467  33.917  1.00  0.00    -0.203 F 
ATOM     92  C   UNL A   1      46.789  27.936  35.500  1.00  0.00     0.198 A 
ATOM     93  C   UNL A   1      45.417  26.113  36.249  1.00  0.00     0.198 A 
ATOM     94  F   UNL A   1      43.250  25.837  35.377  1.00  0.00    -0.203 F 
ATOM     95  F   UNL A   1      47.954  28.598  35.527  1.00  0.00    -0.200 F 
ATOM     96  C   UNL A   1      46.613  26.812  36.294  1.00  0.00     0.200 A 
ATOM     97  F   UNL A   1      45.240  25.034  37.025  1.00  0.00    -0.200 F 
ATOM     98  F   UNL A   1      47.599  26.401  37.105  1.00  0.00    -0.200 F 
ENDBRANCH  65  88
ENDBRANCH  39  40
ENDBRANCH  31  34
ENDBRANCH  29  30
ENDBRANCH  28  29
ENDBRANCH  27  28
ENDBRANCH  26  27
ENDBRANCH   1  26
TORSDOF 18
ENDMDL
MODEL 2
REMARK VINA RESULT:     -11.9      2.242      4.414
REMARK SMILES C=CCOc1ccccc1-c1cc(C(=O)NCCCCCCNC(=O)c2ccc(-c3c4nc(c(-c5c(F)c(F)c(F)c(F)c5F)c5ccc([nH]5)c(-c5c(F)c(F)c(F)c(F)c5F)c5nc(c(-c6c(F)c(F)c(F)c(F)c6F)c6ccc3[nH]6)C=C5)C=C4)cc2)nc(N)n1
REMARK SMILES IDX 18 1 17 2 16 3 14 4 15 5 13 7 11 8 12 9 92 10 90 11 89 12
REMARK SMILES IDX 10 13 5 14 6 15 7 16 9 17 8 18 4 19 3 20 2 21 1 22 91 23
REMARK SMILES IDX 19 26 20 27 21 28 22 29 23 30 24 31 25 33 26 34 27 35 88 36
REMARK SMILES IDX 28 37 87 38 29 39 30 40 31 41 81 42 32 43 86 44 80 45 82 46
REMARK SMILES IDX 33 47 85 48 79 49 78 50 34 52 66 53 46 54 65 55 47 56 50 57
REMARK SMILES IDX 64 58 83 59 48 60 49 61 63 63 84 64 51 65 35 66 36 67 44 68
REMARK SMILES IDX 37 69 38 70 42 71 45 72 39 73 40 74 43 75 41 76 67 77 68 78
REMARK SMILES IDX 76 79 69 80 70 81 74 82 77 83 71 84 72 85 75 86 73 87 52 88
REMARK SMILES IDX 53 89 61 90 54 91 55 92 59 93 62 94 56 95 57 96 60 97 58 98
REMARK H PARENT 16 6 91 24 91 25 23 32 82 51 50 62
REMARK Flexibility Score: inf
ROOT
ATOM      1  C   UNL A   1      33.358  24.970  25.485  1.00  0.00     0.021 C 
ENDROOT
BRANCH   1   2
ATOM      2  C   UNL A   1      34.577  24.803  24.580  1.00  0.00     0.116 C 
BRANCH   2   3
ATOM      3  N   UNL A   1      34.229  24.337  23.252  1.00  0.00    -0.351 N 
ATOM      4  C   UNL A   1      33.467  24.938  22.277  1.00  0.00     0.270 C 
ATOM      5  O   UNL A   1      33.294  24.327  21.221  1.00  0.00    -0.268 OA
ATOM      6  H   UNL A   1      34.593  23.455  23.011  1.00  0.00     0.163 HD
BRANCH   4   7
ATOM      7  C   UNL A   1      32.819  26.271  22.475  1.00  0.00     0.134 A 
ATOM      8  C   UNL A   1      30.897  27.531  22.845  1.00  0.00     0.080 A 
ATOM      9  C   UNL A   1      31.446  26.309  22.539  1.00  0.00     0.063 A 
ATOM     10  N   UNL A   1      31.654  28.640  23.002  1.00  0.00    -0.213 NA
ATOM     11  C   UNL A   1      32.975  28.498  22.896  1.00  0.00     0.221 A 
ATOM     12  N   UNL A   1      33.602  27.357  22.627  1.00  0.00    -0.208 NA
BRANCH   8  13
ATOM     13  C   UNL A   1      29.461  27.698  23.106  1.00  0.00     0.042 A 
ATOM     14  C   UNL A   1      28.741  28.826  22.663  1.00  0.00     0.129 A 
ATOM     15  C   UNL A   1      27.386  28.989  22.961  1.00  0.00     0.047 A 
ATOM     16  C   UNL A   1      26.710  28.000  23.673  1.00  0.00     0.004 A 
ATOM     17  C   UNL A   1      28.750  26.707  23.805  1.00  0.00     0.014 A 
ATOM     18  C   UNL A   1      27.390  26.856  24.088  1.00  0.00     0.001 A 
BRANCH  14  19
ATOM     19  O   UNL A   1      29.368  29.832  21.964  1.00  0.00    -0.489 OA
BRANCH  19  20
ATOM     20  C   UNL A   1      28.426  30.626  21.227  1.00  0.00     0.257 C 
BRANCH  20  21
ATOM     21  C   UNL A   1      28.639  32.073  21.569  1.00  0.00     0.006 C 
ATOM     22  C   UNL A   1      28.611  32.568  22.814  1.00  0.00     0.007 C 
ENDBRANCH  20  21
ENDBRANCH  19  20
ENDBRANCH  14  19
ENDBRANCH   8  13
BRANCH  11  23
ATOM     23  N   UNL A   1      33.747  29.592  23.164  1.00  0.00    -0.368 N 
ATOM     24  H   UNL A   1      33.488  30.213  23.883  1.00  0.00     0.159 HD
ATOM     25  H   UNL A   1      34.560  29.761  22.637  1.00  0.00     0.159 HD
ENDBRANCH  11  23
ENDBRANCH   4   7
ENDBRANCH   2   3
ENDBRANCH   1   2
BRANCH   1  26
ATOM     26  C   UNL A   1      33.180  26.347  26.132  1.00  0.00     0.002 C 
BRANCH  26  27
ATOM     27  C   UNL A   1      31.737  26.771  26.418  1.00  0.00     0.002 C 
BRANCH  27  28
ATOM     28  C   UNL A   1      31.528  28.260  26.689  1.00  0.00     0.021 C 
BRANCH  28  29
ATOM     29  C   UNL A   1      32.776  29.126  26.556  1.00  0.00     0.116 C 
BRANCH  29  30
ATOM     30  N   UNL A   1      32.486  30.550  26.609  1.00  0.00    -0.352 N 
ATOM     31  C   UNL A   1      33.210  31.552  27.215  1.00  0.00     0.251 C 
ATOM     32  H   UNL A   1      31.663  30.836  26.149  1.00  0.00     0.163 HD
ATOM     33  O   UNL A   1      32.776  32.691  27.286  1.00  0.00    -0.269 OA
BRANCH  31  34
ATOM     34  C   UNL A   1      34.523  31.221  27.811  1.00  0.00     0.039 A 
ATOM     35  C   UNL A   1      35.518  32.202  27.852  1.00  0.00     0.014 A 
ATOM     36  C   UNL A   1      34.749  29.958  28.361  1.00  0.00     0.014 A 
ATOM     37  C   UNL A   1      36.720  31.938  28.512  1.00  0.00     0.010 A 
ATOM     38  C   UNL A   1      35.915  29.720  29.077  1.00  0.00     0.010 A 
ATOM     39  C   UNL A   1      36.912  30.708  29.160  1.00  0.00    -0.014 A 
BRANCH  39  40
ATOM     40  C   UNL A   1      38.148  30.397  29.920  1.00  0.00     0.031 A 
ATOM     41  C   UNL A   1      39.149  29.443  29.337  1.00  0.00     0.074 A 
ATOM     42  C   UNL A   1      38.318  30.881  31.165  1.00  0.00     0.049 A 
ATOM     43  N   UNL A   1      40.191  28.883  29.898  1.00  0.00    -0.248 NA
ATOM     44  C   UNL A   1      38.926  29.038  27.941  1.00  0.00     0.031 C 
ATOM     45  C   UNL A   1      37.414  31.810  31.845  1.00  0.00     0.029 A 
ATOM     46  N   UNL A   1      39.303  30.638  32.089  1.00  0.00    -0.354 N 
ATOM     47  C   UNL A   1      40.725  28.039  28.935  1.00  0.00     0.074 A 
ATOM     48  C   UNL A   1      39.867  28.124  27.772  1.00  0.00     0.031 C 
ATOM     49  C   UNL A   1      37.895  32.069  33.072  1.00  0.00     0.029 A 
ATOM     50  C   UNL A   1      39.109  31.287  33.284  1.00  0.00     0.049 A 
ATOM     51  H   UNL A   1      40.075  30.054  31.912  1.00  0.00     0.167 HD
ATOM     52  C   UNL A   1      41.839  27.273  29.009  1.00  0.00     0.037 A 
ATOM     53  C   UNL A   1      39.823  31.238  34.425  1.00  0.00     0.037 A 
ATOM     54  C   UNL A   1      42.701  27.212  30.160  1.00  0.00     0.049 A 
ATOM     55  C   UNL A   1      41.035  30.349  34.500  1.00  0.00     0.074 A 
ATOM     56  C   UNL A   1      43.878  26.503  30.323  1.00  0.00     0.029 A 
ATOM     57  N   UNL A   1      42.474  27.891  31.349  1.00  0.00    -0.354 N 
ATOM     58  N   UNL A   1      41.552  29.576  33.576  1.00  0.00    -0.248 NA
ATOM     59  C   UNL A   1      41.758  30.320  35.779  1.00  0.00     0.031 C 
ATOM     60  C   UNL A   1      44.341  26.719  31.624  1.00  0.00     0.029 A 
ATOM     61  C   UNL A   1      43.480  27.603  32.256  1.00  0.00     0.049 A 
ATOM     62  H   UNL A   1      41.712  28.490  31.521  1.00  0.00     0.167 HD
ATOM     63  C   UNL A   1      42.682  29.004  34.145  1.00  0.00     0.074 A 
ATOM     64  C   UNL A   1      42.771  29.512  35.498  1.00  0.00     0.031 C 
ATOM     65  C   UNL A   1      43.567  28.140  33.592  1.00  0.00     0.037 A 
BRANCH  52  66
ATOM     66  C   UNL A   1      42.174  26.430  27.811  1.00  0.00     0.064 A 
ATOM     67  C   UNL A   1      41.579  25.177  27.603  1.00  0.00     0.173 A 
ATOM     68  C   UNL A   1      43.106  26.879  26.865  1.00  0.00     0.173 A 
ATOM     69  F   UNL A   1      40.689  24.697  28.485  1.00  0.00    -0.203 F 
ATOM     70  C   UNL A   1      41.940  24.384  26.517  1.00  0.00     0.198 A 
ATOM     71  C   UNL A   1      43.440  26.098  25.762  1.00  0.00     0.198 A 
ATOM     72  F   UNL A   1      43.701  28.072  27.011  1.00  0.00    -0.203 F 
ATOM     73  F   UNL A   1      41.409  23.161  26.377  1.00  0.00    -0.200 F 
ATOM     74  C   UNL A   1      42.867  24.845  25.595  1.00  0.00     0.200 A 
ATOM     75  F   UNL A   1      44.327  26.551  24.865  1.00  0.00    -0.200 F 
ATOM     76  F   UNL A   1      43.217  24.078  24.554  1.00  0.00    -0.200 F 
ENDBRANCH  52  66
BRANCH  53  77
ATOM     77  C   UNL A   1      39.427  32.086  35.580  1.00  0.00     0.064 A 
ATOM     78  C   UNL A   1      38.504  31.613  36.524  1.00  0.00     0.173 A 
ATOM     79  C   UNL A   1      39.962  33.367  35.774  1.00  0.00     0.173 A 
ATOM     80  F   UNL A   1      37.949  30.403  36.367  1.00  0.00    -0.203 F 
ATOM     81  C   UNL A   1      38.126  32.393  37.614  1.00  0.00     0.198 A 
ATOM     82  C   UNL A   1      39.601  34.137  36.878  1.00  0.00     0.198 A 
ATOM     83  F   UNL A   1      40.849  33.864  34.899  1.00  0.00    -0.203 F 
ATOM     84  F   UNL A   1      37.218  31.930  38.484  1.00  0.00    -0.200 F 
ATOM     85  C   UNL A   1      38.681  33.651  37.794  1.00  0.00     0.200 A 
ATOM     86  F   UNL A   1      40.148  35.348  37.055  1.00  0.00    -0.200 F 
ATOM     87  F   UNL A   1      38.323  34.398  38.847  1.00  0.00    -0.200 F 
ENDBRANCH  53  77
BRANCH  65  88
ATOM     88  C   UNL A   1      44.751  27.735  34.418  1.00  0.00     0.064 A 
ATOM     89  C   UNL A   1      45.927  28.497  34.447  1.00  0.00     0.173 A 
ATOM     90  C   UNL A   1      44.674  26.609  35.252  1.00  0.00     0.173 A 
ATOM     91  F   UNL A   1      46.055  29.573  33.657  1.00  0.00    -0.203 F 
ATOM     92  C   UNL A   1      46.988  28.140  35.275  1.00  0.00     0.198 A 
ATOM     93  C   UNL A   1      45.726  26.270  36.098  1.00  0.00     0.198 A 
ATOM     94  F   UNL A   1      43.568  25.850  35.263  1.00  0.00    -0.203 F 
ATOM     95  F   UNL A   1      48.116  28.865  35.268  1.00  0.00    -0.200 F 
ATOM     96  C   UNL A   1      46.883  27.034  36.107  1.00  0.00     0.200 A 
ATOM     97  F   UNL A   1      45.617  25.209  36.909  1.00  0.00    -0.200 F 
ATOM     98  F   UNL A   1      47.899  26.703  36.917  1.00  0.00    -0.200 F 
ENDBRANCH  65  88
ENDBRANCH  39  40
ENDBRANCH  31  34
ENDBRANCH  29  30
ENDBRANCH  28  29
ENDBRANCH  27  28
ENDBRANCH  26  27
ENDBRANCH   1  26
TORSDOF 18
ENDMDL
MODEL 3
REMARK VINA RESULT:     -11.9      4.706      9.920
REMARK SMILES C=CCOc1ccccc1-c1cc(C(=O)NCCCCCCNC(=O)c2ccc(-c3c4nc(c(-c5c(F)c(F)c(F)c(F)c5F)c5ccc([nH]5)c(-c5c(F)c(F)c(F)c(F)c5F)c5nc(c(-c6c(F)c(F)c(F)c(F)c6F)c6ccc3[nH]6)C=C5)C=C4)cc2)nc(N)n1
REMARK SMILES IDX 18 1 17 2 16 3 14 4 15 5 13 7 11 8 12 9 92 10 90 11 89 12
REMARK SMILES IDX 10 13 5 14 6 15 7 16 9 17 8 18 4 19 3 20 2 21 1 22 91 23
REMARK SMILES IDX 19 26 20 27 21 28 22 29 23 30 24 31 25 33 26 34 27 35 88 36
REMARK SMILES IDX 28 37 87 38 29 39 30 40 31 41 81 42 32 43 86 44 80 45 82 46
REMARK SMILES IDX 33 47 85 48 79 49 78 50 34 52 66 53 46 54 65 55 47 56 50 57
REMARK SMILES IDX 64 58 83 59 48 60 49 61 63 63 84 64 51 65 35 66 36 67 44 68
REMARK SMILES IDX 37 69 38 70 42 71 45 72 39 73 40 74 43 75 41 76 67 77 68 78
REMARK SMILES IDX 76 79 69 80 70 81 74 82 77 83 71 84 72 85 75 86 73 87 52 88
REMARK SMILES IDX 53 89 61 90 54 91 55 92 59 93 62 94 56 95 57 96 60 97 58 98
REMARK H PARENT 16 6 91 24 91 25 23 32 82 51 50 62
REMARK Flexibility Score: inf
ROOT
ATOM      1  C   UNL A   1      35.222  21.148  25.752  1.00  0.00     0.021 C 
ENDROOT
BRANCH   1   2
ATOM      2  C   UNL A   1      33.825  20.578  25.513  1.00  0.00     0.116 C 
BRANCH   2   3
ATOM      3  N   UNL A   1      33.284  20.947  24.221  1.00  0.00    -0.351 N 
ATOM      4  C   UNL A   1      32.358  21.910  23.894  1.00  0.00     0.270 C 
ATOM      5  O   UNL A   1      32.036  22.024  22.709  1.00  0.00    -0.268 OA
ATOM      6  H   UNL A   1      33.632  20.429  23.459  1.00  0.00     0.163 HD
BRANCH   4   7
ATOM      7  C   UNL A   1      31.708  22.778  24.923  1.00  0.00     0.134 A 
ATOM      8  C   UNL A   1      31.331  24.896  25.813  1.00  0.00     0.080 A 
ATOM      9  C   UNL A   1      32.042  24.112  24.935  1.00  0.00     0.063 A 
ATOM     10  N   UNL A   1      30.415  24.377  26.660  1.00  0.00    -0.213 NA
ATOM     11  C   UNL A   1      30.183  23.067  26.583  1.00  0.00     0.221 A 
ATOM     12  N   UNL A   1      30.799  22.230  25.754  1.00  0.00    -0.208 NA
BRANCH   8  13
ATOM     13  C   UNL A   1      31.458  26.359  25.830  1.00  0.00     0.042 A 
ATOM     14  C   UNL A   1      30.955  27.171  24.793  1.00  0.00     0.129 A 
ATOM     15  C   UNL A   1      31.128  28.557  24.805  1.00  0.00     0.047 A 
ATOM     16  C   UNL A   1      31.769  29.167  25.881  1.00  0.00     0.004 A 
ATOM     17  C   UNL A   1      32.084  27.001  26.913  1.00  0.00     0.014 A 
ATOM     18  C   UNL A   1      32.241  28.390  26.938  1.00  0.00     0.001 A 
BRANCH  14  19
ATOM     19  O   UNL A   1      30.322  26.613  23.706  1.00  0.00    -0.489 OA
BRANCH  19  20
ATOM     20  C   UNL A   1      30.847  27.128  22.473  1.00  0.00     0.257 C 
BRANCH  20  21
ATOM     21  C   UNL A   1      32.019  26.287  22.055  1.00  0.00     0.006 C 
ATOM     22  C   UNL A   1      33.293  26.700  22.083  1.00  0.00     0.007 C 
ENDBRANCH  20  21
ENDBRANCH  19  20
ENDBRANCH  14  19
ENDBRANCH   8  13
BRANCH  11  23
ATOM     23  N   UNL A   1      29.181  22.560  27.358  1.00  0.00    -0.368 N 
ATOM     24  H   UNL A   1      28.599  23.168  27.869  1.00  0.00     0.159 HD
ATOM     25  H   UNL A   1      29.041  21.587  27.408  1.00  0.00     0.159 HD
ENDBRANCH  11  23
ENDBRANCH   4   7
ENDBRANCH   2   3
ENDBRANCH   1   2
BRANCH   1  26
ATOM     26  C   UNL A   1      35.896  21.812  24.548  1.00  0.00     0.002 C 
BRANCH  26  27
ATOM     27  C   UNL A   1      37.411  21.625  24.440  1.00  0.00     0.002 C 
BRANCH  27  28
ATOM     28  C   UNL A   1      37.957  20.319  25.015  1.00  0.00     0.021 C 
BRANCH  28  29
ATOM     29  C   UNL A   1      39.130  20.473  25.977  1.00  0.00     0.116 C 
BRANCH  29  30
ATOM     30  N   UNL A   1      40.078  19.374  25.895  1.00  0.00    -0.352 N 
ATOM     31  C   UNL A   1      41.445  19.405  26.056  1.00  0.00     0.251 C 
ATOM     32  H   UNL A   1      39.692  18.489  25.699  1.00  0.00     0.163 HD
ATOM     33  O   UNL A   1      42.131  18.421  25.832  1.00  0.00    -0.269 OA
BRANCH  31  34
ATOM     34  C   UNL A   1      42.082  20.670  26.484  1.00  0.00     0.039 A 
ATOM     35  C   UNL A   1      42.515  21.577  25.512  1.00  0.00     0.014 A 
ATOM     36  C   UNL A   1      42.211  20.970  27.842  1.00  0.00     0.014 A 
ATOM     37  C   UNL A   1      43.013  22.822  25.903  1.00  0.00     0.010 A 
ATOM     38  C   UNL A   1      42.641  22.234  28.227  1.00  0.00     0.010 A 
ATOM     39  C   UNL A   1      43.045  23.172  27.262  1.00  0.00    -0.014 A 
BRANCH  39  40
ATOM     40  C   UNL A   1      43.514  24.501  27.726  1.00  0.00     0.031 A 
ATOM     41  C   UNL A   1      42.505  25.551  28.088  1.00  0.00     0.074 A 
ATOM     42  C   UNL A   1      44.828  24.797  27.720  1.00  0.00     0.049 A 
ATOM     43  N   UNL A   1      42.678  26.825  28.329  1.00  0.00    -0.248 NA
ATOM     44  C   UNL A   1      41.103  25.111  28.152  1.00  0.00     0.031 C 
ATOM     45  C   UNL A   1      45.905  23.867  27.382  1.00  0.00     0.029 A 
ATOM     46  N   UNL A   1      45.477  25.977  27.985  1.00  0.00    -0.354 N 
ATOM     47  C   UNL A   1      41.408  27.342  28.541  1.00  0.00     0.074 A 
ATOM     48  C   UNL A   1      40.471  26.255  28.355  1.00  0.00     0.031 C 
ATOM     49  C   UNL A   1      47.082  24.508  27.476  1.00  0.00     0.029 A 
ATOM     50  C   UNL A   1      46.839  25.903  27.829  1.00  0.00     0.049 A 
ATOM     51  H   UNL A   1      45.010  26.798  28.263  1.00  0.00     0.167 HD
ATOM     52  C   UNL A   1      41.056  28.606  28.877  1.00  0.00     0.037 A 
ATOM     53  C   UNL A   1      47.780  26.861  27.939  1.00  0.00     0.037 A 
ATOM     54  C   UNL A   1      41.997  29.676  29.084  1.00  0.00     0.049 A 
ATOM     55  C   UNL A   1      47.364  28.268  28.272  1.00  0.00     0.074 A 
ATOM     56  C   UNL A   1      41.749  30.982  29.469  1.00  0.00     0.029 A 
ATOM     57  N   UNL A   1      43.370  29.559  28.923  1.00  0.00    -0.354 N 
ATOM     58  N   UNL A   1      46.164  28.744  28.501  1.00  0.00    -0.248 NA
ATOM     59  C   UNL A   1      48.433  29.274  28.354  1.00  0.00     0.031 C 
ATOM     60  C   UNL A   1      42.968  31.666  29.500  1.00  0.00     0.029 A 
ATOM     61  C   UNL A   1      43.981  30.774  29.183  1.00  0.00     0.049 A 
ATOM     62  H   UNL A   1      43.840  28.734  28.663  1.00  0.00     0.167 HD
ATOM     63  C   UNL A   1      46.336  30.090  28.797  1.00  0.00     0.074 A 
ATOM     64  C   UNL A   1      47.757  30.357  28.709  1.00  0.00     0.031 C 
ATOM     65  C   UNL A   1      45.401  31.016  29.117  1.00  0.00     0.037 A 
BRANCH  52  66
ATOM     66  C   UNL A   1      39.590  28.895  29.023  1.00  0.00     0.064 A 
ATOM     67  C   UNL A   1      38.809  29.315  27.935  1.00  0.00     0.173 A 
ATOM     68  C   UNL A   1      38.959  28.757  30.268  1.00  0.00     0.173 A 
ATOM     69  F   UNL A   1      39.368  29.474  26.725  1.00  0.00    -0.203 F 
ATOM     70  C   UNL A   1      37.464  29.632  28.098  1.00  0.00     0.198 A 
ATOM     71  C   UNL A   1      37.605  29.042  30.420  1.00  0.00     0.198 A 
ATOM     72  F   UNL A   1      39.656  28.353  31.340  1.00  0.00    -0.203 F 
ATOM     73  F   UNL A   1      36.756  30.098  27.060  1.00  0.00    -0.200 F 
ATOM     74  C   UNL A   1      36.861  29.492  29.339  1.00  0.00     0.200 A 
ATOM     75  F   UNL A   1      37.021  28.894  31.617  1.00  0.00    -0.200 F 
ATOM     76  F   UNL A   1      35.567  29.802  29.496  1.00  0.00    -0.200 F 
ENDBRANCH  52  66
BRANCH  53  77
ATOM     77  C   UNL A   1      49.213  26.510  27.764  1.00  0.00     0.064 A 
ATOM     78  C   UNL A   1      49.757  26.363  26.481  1.00  0.00     0.173 A 
ATOM     79  C   UNL A   1      50.067  26.329  28.861  1.00  0.00     0.173 A 
ATOM     80  F   UNL A   1      48.973  26.506  25.403  1.00  0.00    -0.203 F 
ATOM     81  C   UNL A   1      51.100  26.040  26.301  1.00  0.00     0.198 A 
ATOM     82  C   UNL A   1      51.416  26.028  28.679  1.00  0.00     0.198 A 
ATOM     83  F   UNL A   1      49.595  26.460  30.110  1.00  0.00    -0.203 F 
ATOM     84  F   UNL A   1      51.587  25.873  25.063  1.00  0.00    -0.200 F 
ATOM     85  C   UNL A   1      51.930  25.880  27.400  1.00  0.00     0.200 A 
ATOM     86  F   UNL A   1      52.219  25.886  29.743  1.00  0.00    -0.200 F 
ATOM     87  F   UNL A   1      53.223  25.577  27.226  1.00  0.00    -0.200 F 
ENDBRANCH  53  77
BRANCH  65  88
ATOM     88  C   UNL A   1      45.879  32.394  29.466  1.00  0.00     0.064 A 
ATOM     89  C   UNL A   1      45.966  33.411  28.505  1.00  0.00     0.173 A 
ATOM     90  C   UNL A   1      46.179  32.718  30.798  1.00  0.00     0.173 A 
ATOM     91  F   UNL A   1      45.705  33.146  27.216  1.00  0.00    -0.203 F 
ATOM     92  C   UNL A   1      46.346  34.701  28.864  1.00  0.00     0.198 A 
ATOM     93  C   UNL A   1      46.533  34.015  31.158  1.00  0.00     0.198 A 
ATOM     94  F   UNL A   1      46.106  31.781  31.755  1.00  0.00    -0.203 F 
ATOM     95  F   UNL A   1      46.451  35.653  27.926  1.00  0.00    -0.200 F 
ATOM     96  C   UNL A   1      46.618  35.005  30.191  1.00  0.00     0.200 A 
ATOM     97  F   UNL A   1      46.783  34.309  32.442  1.00  0.00    -0.200 F 
ATOM     98  F   UNL A   1      46.965  36.253  30.537  1.00  0.00    -0.200 F 
ENDBRANCH  65  88
ENDBRANCH  39  40
ENDBRANCH  31  34
ENDBRANCH  29  30
ENDBRANCH  28  29
ENDBRANCH  27  28
ENDBRANCH  26  27
ENDBRANCH   1  26
TORSDOF 18
ENDMDL
