MODEL 1
REMARK VINA RESULT:     -12.7      0.000      0.000
REMARK SMILES Cc1nsc(Nc2ccccc2C(C)C)c1C(=O)NCCCCCCNC(=O)c1ccc(-c2c3nc(c(-c4c(F)c(F)c(F)c(F)c4F)c4ccc([nH]4)c(-c4c(F)c(F)c(F)c(F)c4F)c4nc(c(-c5c(F)c(F)c(F)c(F)c5F)c5ccc2[nH]5)C=C4)C=C3)cc1
REMARK SMILES IDX 22 1 21 2 20 3 19 4 17 5 18 6 16 8 1 9 2 10 3 11 4 12 5 13
REMARK SMILES IDX 6 14 7 16 8 17 12 18 9 19 11 20 10 21 13 22 14 23 15 24
REMARK SMILES IDX 23 25 24 26 25 27 26 28 27 29 28 31 29 32 30 33 91 34 31 35
REMARK SMILES IDX 90 36 32 37 33 38 34 39 84 40 35 41 89 42 83 43 85 44 36 45
REMARK SMILES IDX 88 46 82 47 81 48 37 50 69 51 49 52 68 53 50 54 53 55 67 56
REMARK SMILES IDX 86 57 51 58 52 59 66 61 87 62 54 63 38 64 39 65 47 66 40 67
REMARK SMILES IDX 41 68 45 69 48 70 42 71 43 72 46 73 44 74 70 75 71 76 79 77
REMARK SMILES IDX 72 78 73 79 77 80 80 81 74 82 75 83 78 84 76 85 55 86 56 87
REMARK SMILES IDX 64 88 57 89 58 90 62 91 65 92 59 93 60 94 63 95 61 96
REMARK H PARENT 19 7 6 15 26 30 85 49 53 60
REMARK Flexibility Score: inf
ROOT
ATOM      1  C   UNL A   1      35.818  23.922  25.259  1.00  0.00     0.002 C 
ENDROOT
BRANCH   1   2
ATOM      2  C   UNL A   1      34.317  24.224  25.352  1.00  0.00     0.021 C 
BRANCH   2   3
ATOM      3  C   UNL A   1      34.013  25.676  25.716  1.00  0.00     0.116 C 
BRANCH   3   4
ATOM      4  N   UNL A   1      34.127  26.535  24.574  1.00  0.00    -0.352 N 
ATOM      5  C   UNL A   1      33.926  27.858  24.322  1.00  0.00     0.256 C 
ATOM      6  O   UNL A   1      34.232  28.151  23.156  1.00  0.00    -0.269 OA
ATOM      7  H   UNL A   1      34.426  26.047  23.773  1.00  0.00     0.163 HD
BRANCH   5   8
ATOM      8  C   UNL A   1      33.407  28.894  25.242  1.00  0.00     0.097 A 
ATOM      9  C   UNL A   1      35.022  29.242  27.379  1.00  0.00     0.069 C 
ATOM     10  C   UNL A   1      33.822  29.463  26.530  1.00  0.00     0.066 A 
ATOM     11  N   UNL A   1      32.990  30.350  27.079  1.00  0.00    -0.195 NA
ATOM     12  S   UNL A   1      31.680  30.548  26.134  1.00  0.00    -0.018 S 
ATOM     13  C   UNL A   1      32.217  29.546  24.855  1.00  0.00     0.127 A 
BRANCH  13  14
ATOM     14  N   UNL A   1      31.543  29.391  23.679  1.00  0.00    -0.345 N 
ATOM     15  H   UNL A   1      32.067  29.498  22.852  1.00  0.00     0.167 HD
BRANCH  14  16
ATOM     16  C   UNL A   1      30.179  29.093  23.524  1.00  0.00     0.043 A 
ATOM     17  C   UNL A   1      29.323  30.159  23.197  1.00  0.00     0.026 A 
ATOM     18  C   UNL A   1      29.644  27.798  23.710  1.00  0.00    -0.022 A 
ATOM     19  C   UNL A   1      27.964  29.950  22.985  1.00  0.00     0.002 A 
ATOM     20  C   UNL A   1      28.266  27.609  23.485  1.00  0.00     0.006 A 
ATOM     21  C   UNL A   1      27.438  28.672  23.117  1.00  0.00     0.000 A 
BRANCH  18  22
ATOM     22  C   UNL A   1      30.495  26.623  24.182  1.00  0.00     0.015 C 
ATOM     23  C   UNL A   1      30.404  26.438  25.702  1.00  0.00     0.012 C 
ATOM     24  C   UNL A   1      30.129  25.316  23.470  1.00  0.00     0.012 C 
ENDBRANCH  18  22
ENDBRANCH  14  16
ENDBRANCH  13  14
ENDBRANCH   5   8
ENDBRANCH   3   4
ENDBRANCH   2   3
ENDBRANCH   1   2
BRANCH   1  25
ATOM     25  C   UNL A   1      36.192  22.430  25.191  1.00  0.00     0.002 C 
BRANCH  25  26
ATOM     26  C   UNL A   1      37.684  22.109  25.006  1.00  0.00     0.021 C 
BRANCH  26  27
ATOM     27  C   UNL A   1      38.515  22.357  26.254  1.00  0.00     0.116 C 
BRANCH  27  28
ATOM     28  N   UNL A   1      39.922  22.020  26.045  1.00  0.00    -0.352 N 
ATOM     29  C   UNL A   1      41.038  22.826  26.153  1.00  0.00     0.251 C 
ATOM     30  H   UNL A   1      40.099  21.086  25.792  1.00  0.00     0.163 HD
ATOM     31  O   UNL A   1      42.094  22.517  25.631  1.00  0.00    -0.269 OA
BRANCH  29  32
ATOM     32  C   UNL A   1      40.923  24.078  26.918  1.00  0.00     0.039 A 
ATOM     33  C   UNL A   1      41.683  24.294  28.070  1.00  0.00     0.014 A 
ATOM     34  C   UNL A   1      40.060  25.055  26.436  1.00  0.00     0.014 A 
ATOM     35  C   UNL A   1      41.621  25.542  28.683  1.00  0.00     0.010 A 
ATOM     36  C   UNL A   1      40.142  26.330  26.926  1.00  0.00     0.010 A 
ATOM     37  C   UNL A   1      40.862  26.563  28.090  1.00  0.00    -0.014 A 
BRANCH  37  38
ATOM     38  C   UNL A   1      40.862  27.910  28.641  1.00  0.00     0.031 A 
ATOM     39  C   UNL A   1      41.939  28.804  28.137  1.00  0.00     0.074 A 
ATOM     40  C   UNL A   1      39.855  28.390  29.401  1.00  0.00     0.049 A 
ATOM     41  N   UNL A   1      42.916  29.311  28.812  1.00  0.00    -0.248 NA
ATOM     42  C   UNL A   1      41.999  29.086  26.695  1.00  0.00     0.031 C 
ATOM     43  C   UNL A   1      38.571  27.769  29.745  1.00  0.00     0.029 A 
ATOM     44  N   UNL A   1      39.745  29.622  29.961  1.00  0.00    -0.354 N 
ATOM     45  C   UNL A   1      43.629  30.112  27.924  1.00  0.00     0.074 A 
ATOM     46  C   UNL A   1      43.110  29.822  26.611  1.00  0.00     0.031 C 
ATOM     47  C   UNL A   1      37.733  28.704  30.240  1.00  0.00     0.029 A 
ATOM     48  C   UNL A   1      38.474  29.938  30.419  1.00  0.00     0.049 A 
ATOM     49  H   UNL A   1      40.506  30.242  30.036  1.00  0.00     0.167 HD
ATOM     50  C   UNL A   1      44.450  31.102  28.373  1.00  0.00     0.037 A 
ATOM     51  C   UNL A   1      38.066  31.143  30.884  1.00  0.00     0.037 A 
ATOM     52  C   UNL A   1      44.770  30.926  29.767  1.00  0.00     0.049 A 
ATOM     53  C   UNL A   1      39.288  31.887  31.290  1.00  0.00     0.074 A 
ATOM     54  C   UNL A   1      45.369  29.913  30.493  1.00  0.00     0.029 A 
ATOM     55  N   UNL A   1      44.102  31.690  30.695  1.00  0.00    -0.354 N 
ATOM     56  N   UNL A   1      40.039  31.543  32.300  1.00  0.00    -0.248 NA
ATOM     57  C   UNL A   1      39.934  32.719  30.286  1.00  0.00     0.031 C 
ATOM     58  C   UNL A   1      44.598  29.817  31.691  1.00  0.00     0.029 A 
ATOM     59  C   UNL A   1      43.637  30.827  31.656  1.00  0.00     0.049 A 
ATOM     60  H   UNL A   1      43.982  32.667  30.674  1.00  0.00     0.167 HD
ATOM     61  C   UNL A   1      41.338  31.740  31.857  1.00  0.00     0.074 A 
ATOM     62  C   UNL A   1      41.209  32.542  30.641  1.00  0.00     0.031 C 
ATOM     63  C   UNL A   1      42.378  30.998  32.342  1.00  0.00     0.037 A 
BRANCH  50  64
ATOM     64  C   UNL A   1      44.698  32.399  27.646  1.00  0.00     0.064 A 
ATOM     65  C   UNL A   1      45.874  32.557  26.888  1.00  0.00     0.173 A 
ATOM     66  C   UNL A   1      43.972  33.583  27.898  1.00  0.00     0.173 A 
ATOM     67  F   UNL A   1      46.657  31.501  26.611  1.00  0.00    -0.203 F 
ATOM     68  C   UNL A   1      46.322  33.814  26.472  1.00  0.00     0.198 A 
ATOM     69  C   UNL A   1      44.393  34.828  27.436  1.00  0.00     0.198 A 
ATOM     70  F   UNL A   1      42.896  33.601  28.693  1.00  0.00    -0.203 F 
ATOM     71  F   UNL A   1      47.509  33.929  25.861  1.00  0.00    -0.200 F 
ATOM     72  C   UNL A   1      45.582  34.948  26.750  1.00  0.00     0.200 A 
ATOM     73  F   UNL A   1      43.672  35.918  27.733  1.00  0.00    -0.200 F 
ATOM     74  F   UNL A   1      46.037  36.160  26.405  1.00  0.00    -0.200 F 
ENDBRANCH  50  64
BRANCH  51  75
ATOM     75  C   UNL A   1      36.745  31.790  30.721  1.00  0.00     0.064 A 
ATOM     76  C   UNL A   1      35.973  32.143  31.840  1.00  0.00     0.173 A 
ATOM     77  C   UNL A   1      36.336  32.329  29.485  1.00  0.00     0.173 A 
ATOM     78  F   UNL A   1      36.315  31.705  33.060  1.00  0.00    -0.203 F 
ATOM     79  C   UNL A   1      34.882  33.014  31.734  1.00  0.00     0.198 A 
ATOM     80  C   UNL A   1      35.243  33.190  29.380  1.00  0.00     0.198 A 
ATOM     81  F   UNL A   1      37.045  32.109  28.368  1.00  0.00    -0.203 F 
ATOM     82  F   UNL A   1      34.213  33.382  32.836  1.00  0.00    -0.200 F 
ATOM     83  C   UNL A   1      34.526  33.546  30.506  1.00  0.00     0.200 A 
ATOM     84  F   UNL A   1      34.931  33.724  28.190  1.00  0.00    -0.200 F 
ATOM     85  F   UNL A   1      33.524  34.431  30.415  1.00  0.00    -0.200 F 
ENDBRANCH  51  75
BRANCH  63  86
ATOM     86  C   UNL A   1      42.124  30.107  33.530  1.00  0.00     0.064 A 
ATOM     87  C   UNL A   1      41.720  28.763  33.436  1.00  0.00     0.173 A 
ATOM     88  C   UNL A   1      42.455  30.585  34.804  1.00  0.00     0.173 A 
ATOM     89  F   UNL A   1      41.487  28.192  32.249  1.00  0.00    -0.203 F 
ATOM     90  C   UNL A   1      41.611  27.954  34.567  1.00  0.00     0.198 A 
ATOM     91  C   UNL A   1      42.382  29.765  35.928  1.00  0.00     0.198 A 
ATOM     92  F   UNL A   1      42.903  31.842  34.956  1.00  0.00    -0.203 F 
ATOM     93  F   UNL A   1      41.212  26.679  34.446  1.00  0.00    -0.200 F 
ATOM     94  C   UNL A   1      41.949  28.454  35.811  1.00  0.00     0.200 A 
ATOM     95  F   UNL A   1      42.760  30.239  37.123  1.00  0.00    -0.200 F 
ATOM     96  F   UNL A   1      41.885  27.667  36.894  1.00  0.00    -0.200 F 
ENDBRANCH  63  86
ENDBRANCH  37  38
ENDBRANCH  29  32
ENDBRANCH  27  28
ENDBRANCH  26  27
ENDBRANCH  25  26
ENDBRANCH   1  25
TORSDOF 16
ENDMDL
MODEL 2
REMARK VINA RESULT:     -12.6      1.757      2.719
REMARK SMILES Cc1nsc(Nc2ccccc2C(C)C)c1C(=O)NCCCCCCNC(=O)c1ccc(-c2c3nc(c(-c4c(F)c(F)c(F)c(F)c4F)c4ccc([nH]4)c(-c4c(F)c(F)c(F)c(F)c4F)c4nc(c(-c5c(F)c(F)c(F)c(F)c5F)c5ccc2[nH]5)C=C4)C=C3)cc1
REMARK SMILES IDX 22 1 21 2 20 3 19 4 17 5 18 6 16 8 1 9 2 10 3 11 4 12 5 13
REMARK SMILES IDX 6 14 7 16 8 17 12 18 9 19 11 20 10 21 13 22 14 23 15 24
REMARK SMILES IDX 23 25 24 26 25 27 26 28 27 29 28 31 29 32 30 33 91 34 31 35
REMARK SMILES IDX 90 36 32 37 33 38 34 39 84 40 35 41 89 42 83 43 85 44 36 45
REMARK SMILES IDX 88 46 82 47 81 48 37 50 69 51 49 52 68 53 50 54 53 55 67 56
REMARK SMILES IDX 86 57 51 58 52 59 66 61 87 62 54 63 38 64 39 65 47 66 40 67
REMARK SMILES IDX 41 68 45 69 48 70 42 71 43 72 46 73 44 74 70 75 71 76 79 77
REMARK SMILES IDX 72 78 73 79 77 80 80 81 74 82 75 83 78 84 76 85 55 86 56 87
REMARK SMILES IDX 64 88 57 89 58 90 62 91 65 92 59 93 60 94 63 95 61 96
REMARK H PARENT 19 7 6 15 26 30 85 49 53 60
REMARK Flexibility Score: inf
ROOT
ATOM      1  C   UNL A   1      35.143  22.759  25.841  1.00  0.00     0.002 C 
ENDROOT
BRANCH   1   2
ATOM      2  C   UNL A   1      34.603  22.976  27.260  1.00  0.00     0.021 C 
BRANCH   2   3
ATOM      3  C   UNL A   1      33.572  21.929  27.683  1.00  0.00     0.116 C 
BRANCH   3   4
ATOM      4  N   UNL A   1      32.252  22.485  27.727  1.00  0.00    -0.352 N 
ATOM      5  C   UNL A   1      31.309  22.838  26.810  1.00  0.00     0.256 C 
ATOM      6  O   UNL A   1      30.265  23.226  27.357  1.00  0.00    -0.269 OA
ATOM      7  H   UNL A   1      31.951  22.652  28.649  1.00  0.00     0.163 HD
BRANCH   5   8
ATOM      8  C   UNL A   1      31.416  22.811  25.334  1.00  0.00     0.097 A 
ATOM      9  C   UNL A   1      32.482  20.494  24.445  1.00  0.00     0.069 C 
ATOM     10  C   UNL A   1      31.927  21.869  24.332  1.00  0.00     0.066 A 
ATOM     11  N   UNL A   1      31.912  22.289  23.066  1.00  0.00    -0.195 NA
ATOM     12  S   UNL A   1      31.321  23.803  22.985  1.00  0.00    -0.018 S 
ATOM     13  C   UNL A   1      30.923  23.938  24.643  1.00  0.00     0.127 A 
BRANCH  13  14
ATOM     14  N   UNL A   1      30.274  25.011  25.182  1.00  0.00    -0.345 N 
ATOM     15  H   UNL A   1      29.675  24.828  25.942  1.00  0.00     0.167 HD
BRANCH  14  16
ATOM     16  C   UNL A   1      30.370  26.349  24.766  1.00  0.00     0.043 A 
ATOM     17  C   UNL A   1      29.531  26.756  23.714  1.00  0.00     0.026 A 
ATOM     18  C   UNL A   1      31.280  27.271  25.331  1.00  0.00    -0.022 A 
ATOM     19  C   UNL A   1      29.530  28.073  23.264  1.00  0.00     0.002 A 
ATOM     20  C   UNL A   1      31.258  28.600  24.863  1.00  0.00     0.006 A 
ATOM     21  C   UNL A   1      30.386  28.997  23.848  1.00  0.00     0.000 A 
BRANCH  18  22
ATOM     22  C   UNL A   1      32.302  26.865  26.390  1.00  0.00     0.015 C 
ATOM     23  C   UNL A   1      33.596  26.344  25.752  1.00  0.00     0.012 C 
ATOM     24  C   UNL A   1      32.618  28.008  27.361  1.00  0.00     0.012 C 
ENDBRANCH  18  22
ENDBRANCH  14  16
ENDBRANCH  13  14
ENDBRANCH   5   8
ENDBRANCH   3   4
ENDBRANCH   2   3
ENDBRANCH   1   2
BRANCH   1  25
ATOM     25  C   UNL A   1      36.155  21.610  25.684  1.00  0.00     0.002 C 
BRANCH  25  26
ATOM     26  C   UNL A   1      37.536  21.990  25.127  1.00  0.00     0.021 C 
BRANCH  26  27
ATOM     27  C   UNL A   1      38.397  22.760  26.115  1.00  0.00     0.116 C 
BRANCH  27  28
ATOM     28  N   UNL A   1      39.652  22.066  26.398  1.00  0.00    -0.352 N 
ATOM     29  C   UNL A   1      40.909  22.593  26.617  1.00  0.00     0.251 C 
ATOM     30  H   UNL A   1      39.593  21.085  26.438  1.00  0.00     0.163 HD
ATOM     31  O   UNL A   1      41.910  21.908  26.504  1.00  0.00    -0.269 OA
BRANCH  29  32
ATOM     32  C   UNL A   1      41.016  24.012  26.993  1.00  0.00     0.039 A 
ATOM     33  C   UNL A   1      40.371  25.007  26.256  1.00  0.00     0.014 A 
ATOM     34  C   UNL A   1      41.752  24.327  28.131  1.00  0.00     0.014 A 
ATOM     35  C   UNL A   1      40.410  26.316  26.728  1.00  0.00     0.010 A 
ATOM     36  C   UNL A   1      41.632  25.570  28.689  1.00  0.00     0.010 A 
ATOM     37  C   UNL A   1      41.026  26.585  27.959  1.00  0.00    -0.014 A 
BRANCH  37  38
ATOM     38  C   UNL A   1      40.990  27.920  28.537  1.00  0.00     0.031 A 
ATOM     39  C   UNL A   1      42.062  28.843  28.075  1.00  0.00     0.074 A 
ATOM     40  C   UNL A   1      39.960  28.367  29.286  1.00  0.00     0.049 A 
ATOM     41  N   UNL A   1      43.016  29.352  28.781  1.00  0.00    -0.248 NA
ATOM     42  C   UNL A   1      42.148  29.156  26.641  1.00  0.00     0.031 C 
ATOM     43  C   UNL A   1      38.680  27.716  29.589  1.00  0.00     0.029 A 
ATOM     44  N   UNL A   1      39.816  29.584  29.868  1.00  0.00    -0.354 N 
ATOM     45  C   UNL A   1      43.732  30.184  27.926  1.00  0.00     0.074 A 
ATOM     46  C   UNL A   1      43.246  29.913  26.597  1.00  0.00     0.031 C 
ATOM     47  C   UNL A   1      37.815  28.626  30.086  1.00  0.00     0.029 A 
ATOM     48  C   UNL A   1      38.530  29.868  30.306  1.00  0.00     0.049 A 
ATOM     49  H   UNL A   1      40.564  30.216  29.973  1.00  0.00     0.167 HD
ATOM     50  C   UNL A   1      44.527  31.178  28.413  1.00  0.00     0.037 A 
ATOM     51  C   UNL A   1      38.091  31.056  30.786  1.00  0.00     0.037 A 
ATOM     52  C   UNL A   1      44.820  30.979  29.809  1.00  0.00     0.049 A 
ATOM     53  C   UNL A   1      39.291  31.812  31.234  1.00  0.00     0.074 A 
ATOM     54  C   UNL A   1      45.421  29.961  30.527  1.00  0.00     0.029 A 
ATOM     55  N   UNL A   1      44.119  31.712  30.739  1.00  0.00    -0.354 N 
ATOM     56  N   UNL A   1      40.027  31.460  32.253  1.00  0.00    -0.248 NA
ATOM     57  C   UNL A   1      39.943  32.677  30.261  1.00  0.00     0.031 C 
ATOM     58  C   UNL A   1      44.627  29.827  31.706  1.00  0.00     0.029 A 
ATOM     59  C   UNL A   1      43.649  30.821  31.672  1.00  0.00     0.049 A 
ATOM     60  H   UNL A   1      43.982  32.687  30.735  1.00  0.00     0.167 HD
ATOM     61  C   UNL A   1      41.331  31.689  31.841  1.00  0.00     0.074 A 
ATOM     62  C   UNL A   1      41.214  32.514  30.640  1.00  0.00     0.031 C 
ATOM     63  C   UNL A   1      42.373  30.956  32.333  1.00  0.00     0.037 A 
BRANCH  50  64
ATOM     64  C   UNL A   1      44.766  32.494  27.718  1.00  0.00     0.064 A 
ATOM     65  C   UNL A   1      45.965  32.696  27.005  1.00  0.00     0.173 A 
ATOM     66  C   UNL A   1      44.003  33.655  27.965  1.00  0.00     0.173 A 
ATOM     67  F   UNL A   1      46.783  31.665  26.738  1.00  0.00    -0.203 F 
ATOM     68  C   UNL A   1      46.395  33.972  26.628  1.00  0.00     0.198 A 
ATOM     69  C   UNL A   1      44.407  34.918  27.540  1.00  0.00     0.198 A 
ATOM     70  F   UNL A   1      42.899  33.632  28.721  1.00  0.00    -0.203 F 
ATOM     71  F   UNL A   1      47.598  34.127  26.062  1.00  0.00    -0.200 F 
ATOM     72  C   UNL A   1      45.616  35.082  26.899  1.00  0.00     0.200 A 
ATOM     73  F   UNL A   1      43.648  35.985  27.830  1.00  0.00    -0.200 F 
ATOM     74  F   UNL A   1      46.052  36.310  26.592  1.00  0.00    -0.200 F 
ENDBRANCH  50  64
BRANCH  51  75
ATOM     75  C   UNL A   1      36.762  31.683  30.609  1.00  0.00     0.064 A 
ATOM     76  C   UNL A   1      35.937  31.948  31.714  1.00  0.00     0.173 A 
ATOM     77  C   UNL A   1      36.392  32.292  29.393  1.00  0.00     0.173 A 
ATOM     78  F   UNL A   1      36.239  31.440  32.917  1.00  0.00    -0.203 F 
ATOM     79  C   UNL A   1      34.830  32.799  31.616  1.00  0.00     0.198 A 
ATOM     80  C   UNL A   1      35.283  33.134  29.296  1.00  0.00     0.198 A 
ATOM     81  F   UNL A   1      37.151  32.159  28.295  1.00  0.00    -0.203 F 
ATOM     82  F   UNL A   1      34.108  33.081  32.710  1.00  0.00    -0.200 F 
ATOM     83  C   UNL A   1      34.512  33.401  30.411  1.00  0.00     0.200 A 
ATOM     84  F   UNL A   1      35.007  33.736  28.130  1.00  0.00    -0.200 F 
ATOM     85  F   UNL A   1      33.493  34.268  30.333  1.00  0.00    -0.200 F 
ENDBRANCH  51  75
BRANCH  63  86
ATOM     86  C   UNL A   1      42.110  30.036  33.497  1.00  0.00     0.064 A 
ATOM     87  C   UNL A   1      41.699  28.696  33.367  1.00  0.00     0.173 A 
ATOM     88  C   UNL A   1      42.439  30.478  34.784  1.00  0.00     0.173 A 
ATOM     89  F   UNL A   1      41.467  28.158  32.165  1.00  0.00    -0.203 F 
ATOM     90  C   UNL A   1      41.581  27.860  34.476  1.00  0.00     0.198 A 
ATOM     91  C   UNL A   1      42.358  29.631  35.887  1.00  0.00     0.198 A 
ATOM     92  F   UNL A   1      42.893  31.729  34.970  1.00  0.00    -0.203 F 
ATOM     93  F   UNL A   1      41.176  26.590  34.321  1.00  0.00    -0.200 F 
ATOM     94  C   UNL A   1      41.918  28.326  35.734  1.00  0.00     0.200 A 
ATOM     95  F   UNL A   1      42.733  30.071  37.095  1.00  0.00    -0.200 F 
ATOM     96  F   UNL A   1      41.846  27.510  36.796  1.00  0.00    -0.200 F 
ENDBRANCH  63  86
ENDBRANCH  37  38
ENDBRANCH  29  32
ENDBRANCH  27  28
ENDBRANCH  26  27
ENDBRANCH  25  26
ENDBRANCH   1  25
TORSDOF 16
ENDMDL
MODEL 3
REMARK VINA RESULT:     -12.5      3.552      9.127
REMARK SMILES Cc1nsc(Nc2ccccc2C(C)C)c1C(=O)NCCCCCCNC(=O)c1ccc(-c2c3nc(c(-c4c(F)c(F)c(F)c(F)c4F)c4ccc([nH]4)c(-c4c(F)c(F)c(F)c(F)c4F)c4nc(c(-c5c(F)c(F)c(F)c(F)c5F)c5ccc2[nH]5)C=C4)C=C3)cc1
REMARK SMILES IDX 22 1 21 2 20 3 19 4 17 5 18 6 16 8 1 9 2 10 3 11 4 12 5 13
REMARK SMILES IDX 6 14 7 16 8 17 12 18 9 19 11 20 10 21 13 22 14 23 15 24
REMARK SMILES IDX 23 25 24 26 25 27 26 28 27 29 28 31 29 32 30 33 91 34 31 35
REMARK SMILES IDX 90 36 32 37 33 38 34 39 84 40 35 41 89 42 83 43 85 44 36 45
REMARK SMILES IDX 88 46 82 47 81 48 37 50 69 51 49 52 68 53 50 54 53 55 67 56
REMARK SMILES IDX 86 57 51 58 52 59 66 61 87 62 54 63 38 64 39 65 47 66 40 67
REMARK SMILES IDX 41 68 45 69 48 70 42 71 43 72 46 73 44 74 70 75 71 76 79 77
REMARK SMILES IDX 72 78 73 79 77 80 80 81 74 82 75 83 78 84 76 85 55 86 56 87
REMARK SMILES IDX 64 88 57 89 58 90 62 91 65 92 59 93 60 94 63 95 61 96
REMARK H PARENT 19 7 6 15 26 30 85 49 53 60
REMARK Flexibility Score: inf
ROOT
ATOM      1  C   UNL A   1      33.088  27.469  25.110  1.00  0.00     0.002 C 
ENDROOT
BRANCH   1   2
ATOM      2  C   UNL A   1      33.169  26.006  24.655  1.00  0.00     0.021 C 
BRANCH   2   3
ATOM      3  C   UNL A   1      34.417  25.282  25.160  1.00  0.00     0.116 C 
BRANCH   3   4
ATOM      4  N   UNL A   1      34.084  24.285  26.134  1.00  0.00    -0.352 N 
ATOM      5  C   UNL A   1      34.633  23.115  26.562  1.00  0.00     0.256 C 
ATOM      6  O   UNL A   1      33.990  22.628  27.503  1.00  0.00    -0.269 OA
ATOM      7  H   UNL A   1      33.252  24.500  26.614  1.00  0.00     0.163 HD
BRANCH   5   8
ATOM      8  C   UNL A   1      35.831  22.423  26.036  1.00  0.00     0.097 A 
ATOM      9  C   UNL A   1      38.022  24.000  26.118  1.00  0.00     0.069 C 
ATOM     10  C   UNL A   1      37.237  22.776  25.809  1.00  0.00     0.066 A 
ATOM     11  N   UNL A   1      37.989  21.849  25.213  1.00  0.00    -0.195 NA
ATOM     12  S   UNL A   1      37.092  20.535  24.871  1.00  0.00    -0.018 S 
ATOM     13  C   UNL A   1      35.660  21.083  25.629  1.00  0.00     0.127 A 
BRANCH  13  14
ATOM     14  N   UNL A   1      34.531  20.325  25.754  1.00  0.00    -0.345 N 
ATOM     15  H   UNL A   1      34.161  20.232  26.661  1.00  0.00     0.167 HD
BRANCH  14  16
ATOM     16  C   UNL A   1      33.841  19.666  24.723  1.00  0.00     0.043 A 
ATOM     17  C   UNL A   1      34.177  18.321  24.486  1.00  0.00     0.026 A 
ATOM     18  C   UNL A   1      32.869  20.297  23.915  1.00  0.00    -0.022 A 
ATOM     19  C   UNL A   1      33.517  17.578  23.511  1.00  0.00     0.002 A 
ATOM     20  C   UNL A   1      32.211  19.524  22.939  1.00  0.00     0.006 A 
ATOM     21  C   UNL A   1      32.524  18.177  22.747  1.00  0.00     0.000 A 
BRANCH  18  22
ATOM     22  C   UNL A   1      32.545  21.784  24.039  1.00  0.00     0.015 C 
ATOM     23  C   UNL A   1      32.231  22.407  22.673  1.00  0.00     0.012 C 
ATOM     24  C   UNL A   1      31.393  22.048  25.015  1.00  0.00     0.012 C 
ENDBRANCH  18  22
ENDBRANCH  14  16
ENDBRANCH  13  14
ENDBRANCH   5   8
ENDBRANCH   3   4
ENDBRANCH   2   3
ENDBRANCH   1   2
BRANCH   1  25
ATOM     25  C   UNL A   1      33.385  27.717  26.600  1.00  0.00     0.002 C 
BRANCH  25  26
ATOM     26  C   UNL A   1      33.245  29.167  27.090  1.00  0.00     0.021 C 
BRANCH  26  27
ATOM     27  C   UNL A   1      34.536  29.963  27.002  1.00  0.00     0.116 C 
BRANCH  27  28
ATOM     28  N   UNL A   1      34.445  31.229  27.729  1.00  0.00    -0.352 N 
ATOM     29  C   UNL A   1      35.108  31.628  28.872  1.00  0.00     0.251 C 
ATOM     30  H   UNL A   1      33.823  31.890  27.349  1.00  0.00     0.163 HD
ATOM     31  O   UNL A   1      34.696  32.551  29.552  1.00  0.00    -0.269 OA
BRANCH  29  32
ATOM     32  C   UNL A   1      36.333  30.908  29.256  1.00  0.00     0.039 A 
ATOM     33  C   UNL A   1      36.278  29.620  29.792  1.00  0.00     0.014 A 
ATOM     34  C   UNL A   1      37.552  31.540  29.034  1.00  0.00     0.014 A 
ATOM     35  C   UNL A   1      37.472  28.944  30.024  1.00  0.00     0.010 A 
ATOM     36  C   UNL A   1      38.709  30.811  29.085  1.00  0.00     0.010 A 
ATOM     37  C   UNL A   1      38.685  29.541  29.647  1.00  0.00    -0.014 A 
BRANCH  37  38
ATOM     38  C   UNL A   1      39.944  28.821  29.772  1.00  0.00     0.031 A 
ATOM     39  C   UNL A   1      40.451  28.662  31.162  1.00  0.00     0.074 A 
ATOM     40  C   UNL A   1      40.522  28.171  28.740  1.00  0.00     0.049 A 
ATOM     41  N   UNL A   1      41.527  29.167  31.666  1.00  0.00    -0.248 NA
ATOM     42  C   UNL A   1      39.614  27.945  32.135  1.00  0.00     0.031 C 
ATOM     43  C   UNL A   1      40.018  27.954  27.379  1.00  0.00     0.029 A 
ATOM     44  N   UNL A   1      41.683  27.468  28.740  1.00  0.00    -0.354 N 
ATOM     45  C   UNL A   1      41.599  28.702  32.975  1.00  0.00     0.074 A 
ATOM     46  C   UNL A   1      40.331  28.078  33.254  1.00  0.00     0.031 C 
ATOM     47  C   UNL A   1      40.744  26.988  26.775  1.00  0.00     0.029 A 
ATOM     48  C   UNL A   1      41.866  26.654  27.631  1.00  0.00     0.049 A 
ATOM     49  H   UNL A   1      42.343  27.531  29.468  1.00  0.00     0.167 HD
ATOM     50  C   UNL A   1      42.781  28.690  33.654  1.00  0.00     0.037 A 
ATOM     51  C   UNL A   1      42.860  25.752  27.455  1.00  0.00     0.037 A 
ATOM     52  C   UNL A   1      43.755  29.546  33.026  1.00  0.00     0.049 A 
ATOM     53  C   UNL A   1      43.963  26.137  28.375  1.00  0.00     0.074 A 
ATOM     54  C   UNL A   1      43.789  30.894  32.717  1.00  0.00     0.029 A 
ATOM     55  N   UNL A   1      44.728  28.971  32.243  1.00  0.00    -0.354 N 
ATOM     56  N   UNL A   1      44.672  27.224  28.236  1.00  0.00    -0.248 NA
ATOM     57  C   UNL A   1      43.954  25.564  29.714  1.00  0.00     0.031 C 
ATOM     58  C   UNL A   1      44.375  30.956  31.417  1.00  0.00     0.029 A 
ATOM     59  C   UNL A   1      44.735  29.658  31.054  1.00  0.00     0.049 A 
ATOM     60  H   UNL A   1      45.306  28.213  32.488  1.00  0.00     0.167 HD
ATOM     61  C   UNL A   1      44.836  27.705  29.527  1.00  0.00     0.074 A 
ATOM     62  C   UNL A   1      44.444  26.600  30.400  1.00  0.00     0.031 C 
ATOM     63  C   UNL A   1      44.992  29.039  29.775  1.00  0.00     0.037 A 
BRANCH  50  64
ATOM     64  C   UNL A   1      43.159  27.660  34.688  1.00  0.00     0.064 A 
ATOM     65  C   UNL A   1      43.475  28.073  35.997  1.00  0.00     0.173 A 
ATOM     66  C   UNL A   1      43.502  26.328  34.370  1.00  0.00     0.173 A 
ATOM     67  F   UNL A   1      43.217  29.328  36.399  1.00  0.00    -0.203 F 
ATOM     68  C   UNL A   1      44.142  27.236  36.895  1.00  0.00     0.198 A 
ATOM     69  C   UNL A   1      44.118  25.479  35.286  1.00  0.00     0.198 A 
ATOM     70  F   UNL A   1      43.361  25.834  33.135  1.00  0.00    -0.203 F 
ATOM     71  F   UNL A   1      44.531  27.712  38.086  1.00  0.00    -0.200 F 
ATOM     72  C   UNL A   1      44.466  25.940  36.537  1.00  0.00     0.200 A 
ATOM     73  F   UNL A   1      44.443  24.232  34.912  1.00  0.00    -0.200 F 
ATOM     74  F   UNL A   1      45.158  25.155  37.373  1.00  0.00    -0.200 F 
ENDBRANCH  50  64
BRANCH  51  75
ATOM     75  C   UNL A   1      42.797  24.436  26.778  1.00  0.00     0.064 A 
ATOM     76  C   UNL A   1      43.461  24.221  25.560  1.00  0.00     0.173 A 
ATOM     77  C   UNL A   1      42.325  23.287  27.444  1.00  0.00     0.173 A 
ATOM     78  F   UNL A   1      43.975  25.256  24.880  1.00  0.00    -0.203 F 
ATOM     79  C   UNL A   1      43.672  22.932  25.057  1.00  0.00     0.198 A 
ATOM     80  C   UNL A   1      42.530  22.003  26.937  1.00  0.00     0.198 A 
ATOM     81  F   UNL A   1      41.739  23.379  28.648  1.00  0.00    -0.203 F 
ATOM     82  F   UNL A   1      44.370  22.764  23.925  1.00  0.00    -0.200 F 
ATOM     83  C   UNL A   1      43.217  21.824  25.752  1.00  0.00     0.200 A 
ATOM     84  F   UNL A   1      42.113  20.939  27.638  1.00  0.00    -0.200 F 
ATOM     85  F   UNL A   1      43.477  20.588  25.305  1.00  0.00    -0.200 F 
ENDBRANCH  51  75
BRANCH  63  86
ATOM     86  C   UNL A   1      45.203  29.963  28.604  1.00  0.00     0.064 A 
ATOM     87  C   UNL A   1      44.160  30.574  27.883  1.00  0.00     0.173 A 
ATOM     88  C   UNL A   1      46.509  30.368  28.301  1.00  0.00     0.173 A 
ATOM     89  F   UNL A   1      42.879  30.327  28.177  1.00  0.00    -0.203 F 
ATOM     90  C   UNL A   1      44.418  31.508  26.880  1.00  0.00     0.198 A 
ATOM     91  C   UNL A   1      46.763  31.330  27.325  1.00  0.00     0.198 A 
ATOM     92  F   UNL A   1      47.546  29.866  28.991  1.00  0.00    -0.203 F 
ATOM     93  F   UNL A   1      43.402  32.065  26.203  1.00  0.00    -0.200 F 
ATOM     94  C   UNL A   1      45.719  31.890  26.607  1.00  0.00     0.200 A 
ATOM     95  F   UNL A   1      48.020  31.734  27.100  1.00  0.00    -0.200 F 
ATOM     96  F   UNL A   1      45.966  32.820  25.673  1.00  0.00    -0.200 F 
ENDBRANCH  63  86
ENDBRANCH  37  38
ENDBRANCH  29  32
ENDBRANCH  27  28
ENDBRANCH  26  27
ENDBRANCH  25  26
ENDBRANCH   1  25
TORSDOF 16
ENDMDL
