MODEL 1
REMARK VINA RESULT:     -13.3      0.000      0.000
REMARK SMILES O=C(NCCCCCCNC(=O)c1cc(-c2cc(Cl)ccc2Cl)cc([N+](=O)[O-])c1)c1ccc(-c2c3nc(c(-c4c(F)c(F)c(F)c(F)c4F)c4ccc([nH]4)c(-c4c(F)c(F)c(F)c(F)c4F)c4nc(c(-c5c(F)c(F)c(F)c(F)c5F)c5ccc2[nH]5)C=C4)C=C3)cc1
REMARK SMILES IDX 6 1 5 2 4 3 3 4 1 5 2 6 30 8 31 9 92 10 32 11 91 12 33 13
REMARK SMILES IDX 34 14 35 15 85 16 36 17 90 18 84 19 86 20 37 21 89 22 83 23
REMARK SMILES IDX 82 24 38 26 70 27 50 28 69 29 51 30 54 31 68 32 87 33 52 34
REMARK SMILES IDX 53 35 67 37 88 38 55 39 39 40 40 41 48 42 41 43 42 44 46 45
REMARK SMILES IDX 49 46 43 47 44 48 47 49 45 50 71 51 72 52 80 53 73 54 74 55
REMARK SMILES IDX 78 56 81 57 75 58 76 59 79 60 77 61 56 62 57 63 65 64 58 65
REMARK SMILES IDX 59 66 63 67 66 68 60 69 61 70 64 71 62 72 7 73 8 74 9 75
REMARK SMILES IDX 10 76 11 77 12 79 13 80 14 81 29 82 15 83 25 84 24 85 16 86
REMARK SMILES IDX 17 87 22 88 18 89 21 90 23 91 19 92 20 93 26 94 27 95 28 96
REMARK H PARENT 3 7 86 25 54 36 10 78
REMARK Flexibility Score: inf
ROOT
ATOM      1  C   UNL A   1      31.590  30.740  26.106  1.00  0.00     0.002 C 
ENDROOT
BRANCH   1   2
ATOM      2  C   UNL A   1      31.390  32.200  26.508  1.00  0.00     0.021 C 
BRANCH   2   3
ATOM      3  C   UNL A   1      32.564  32.842  27.234  1.00  0.00     0.116 C 
BRANCH   3   4
ATOM      4  N   UNL A   1      32.306  34.214  27.637  1.00  0.00    -0.352 N 
ATOM      5  O   UNL A   1      32.509  36.083  28.892  1.00  0.00    -0.269 OA
ATOM      6  C   UNL A   1      32.941  34.972  28.591  1.00  0.00     0.251 C 
ATOM      7  H   UNL A   1      31.573  34.665  27.159  1.00  0.00     0.163 HD
BRANCH   6   8
ATOM      8  C   UNL A   1      34.130  34.433  29.286  1.00  0.00     0.039 A 
ATOM      9  C   UNL A   1      35.404  34.577  28.733  1.00  0.00     0.014 A 
ATOM     10  C   UNL A   1      33.965  33.760  30.499  1.00  0.00     0.014 A 
ATOM     11  C   UNL A   1      36.481  33.908  29.304  1.00  0.00     0.010 A 
ATOM     12  C   UNL A   1      35.067  33.166  31.121  1.00  0.00     0.010 A 
ATOM     13  C   UNL A   1      36.328  33.199  30.506  1.00  0.00    -0.014 A 
BRANCH  13  14
ATOM     14  C   UNL A   1      37.512  32.534  31.111  1.00  0.00     0.031 A 
ATOM     15  C   UNL A   1      37.979  32.880  32.498  1.00  0.00     0.074 A 
ATOM     16  C   UNL A   1      38.143  31.575  30.407  1.00  0.00     0.049 A 
ATOM     17  N   UNL A   1      38.959  32.357  33.193  1.00  0.00    -0.248 NA
ATOM     18  C   UNL A   1      37.262  33.957  33.196  1.00  0.00     0.031 C 
ATOM     19  C   UNL A   1      37.791  31.162  29.047  1.00  0.00     0.029 A 
ATOM     20  N   UNL A   1      39.189  30.754  30.742  1.00  0.00    -0.354 N 
ATOM     21  C   UNL A   1      38.993  33.056  34.392  1.00  0.00     0.074 A 
ATOM     22  C   UNL A   1      37.949  34.056  34.325  1.00  0.00     0.031 C 
ATOM     23  C   UNL A   1      38.564  30.128  28.686  1.00  0.00     0.029 A 
ATOM     24  C   UNL A   1      39.505  29.844  29.763  1.00  0.00     0.049 A 
ATOM     25  H   UNL A   1      39.667  30.810  31.601  1.00  0.00     0.167 HD
ATOM     26  C   UNL A   1      39.816  32.872  35.455  1.00  0.00     0.037 A 
ATOM     27  C   UNL A   1      40.452  28.889  29.732  1.00  0.00     0.037 A 
ATOM     28  C   UNL A   1      40.835  31.857  35.528  1.00  0.00     0.049 A 
ATOM     29  C   UNL A   1      41.352  28.714  30.922  1.00  0.00     0.074 A 
ATOM     30  C   UNL A   1      41.682  31.557  36.581  1.00  0.00     0.029 A 
ATOM     31  N   UNL A   1      41.148  30.974  34.503  1.00  0.00    -0.354 N 
ATOM     32  N   UNL A   1      41.342  29.350  32.067  1.00  0.00    -0.248 NA
ATOM     33  C   UNL A   1      42.396  27.687  30.812  1.00  0.00     0.031 C 
ATOM     34  C   UNL A   1      42.539  30.528  36.177  1.00  0.00     0.029 A 
ATOM     35  C   UNL A   1      42.192  30.149  34.891  1.00  0.00     0.049 A 
ATOM     36  H   UNL A   1      40.695  30.941  33.630  1.00  0.00     0.167 HD
ATOM     37  C   UNL A   1      42.361  28.790  32.822  1.00  0.00     0.074 A 
ATOM     38  C   UNL A   1      42.955  27.746  32.011  1.00  0.00     0.031 C 
ATOM     39  C   UNL A   1      42.770  29.111  34.074  1.00  0.00     0.037 A 
BRANCH  26  40
ATOM     40  C   UNL A   1      39.666  33.805  36.623  1.00  0.00     0.064 A 
ATOM     41  C   UNL A   1      38.877  33.479  37.737  1.00  0.00     0.173 A 
ATOM     42  C   UNL A   1      40.361  35.024  36.649  1.00  0.00     0.173 A 
ATOM     43  F   UNL A   1      38.183  32.330  37.759  1.00  0.00    -0.203 F 
ATOM     44  C   UNL A   1      38.769  34.350  38.819  1.00  0.00     0.198 A 
ATOM     45  C   UNL A   1      40.273  35.879  37.745  1.00  0.00     0.198 A 
ATOM     46  F   UNL A   1      41.137  35.382  35.614  1.00  0.00    -0.203 F 
ATOM     47  F   UNL A   1      37.974  34.036  39.852  1.00  0.00    -0.200 F 
ATOM     48  C   UNL A   1      39.473  35.545  38.825  1.00  0.00     0.200 A 
ATOM     49  F   UNL A   1      40.965  37.028  37.754  1.00  0.00    -0.200 F 
ATOM     50  F   UNL A   1      39.373  36.377  39.871  1.00  0.00    -0.200 F 
ENDBRANCH  26  40
BRANCH  27  51
ATOM     51  C   UNL A   1      40.583  28.018  28.536  1.00  0.00     0.064 A 
ATOM     52  C   UNL A   1      41.366  28.412  27.443  1.00  0.00     0.173 A 
ATOM     53  C   UNL A   1      39.942  26.773  28.467  1.00  0.00     0.173 A 
ATOM     54  F   UNL A   1      41.984  29.602  27.456  1.00  0.00    -0.203 F 
ATOM     55  C   UNL A   1      41.492  27.599  26.320  1.00  0.00     0.198 A 
ATOM     56  C   UNL A   1      40.092  25.947  27.356  1.00  0.00     0.198 A 
ATOM     57  F   UNL A   1      39.186  26.349  29.491  1.00  0.00    -0.203 F 
ATOM     58  F   UNL A   1      42.214  28.016  25.271  1.00  0.00    -0.200 F 
ATOM     59  C   UNL A   1      40.861  26.364  26.280  1.00  0.00     0.200 A 
ATOM     60  F   UNL A   1      39.496  24.748  27.329  1.00  0.00    -0.200 F 
ATOM     61  F   UNL A   1      40.990  25.578  25.202  1.00  0.00    -0.200 F 
ENDBRANCH  27  51
BRANCH  39  62
ATOM     62  C   UNL A   1      43.890  28.298  34.654  1.00  0.00     0.064 A 
ATOM     63  C   UNL A   1      45.230  28.694  34.525  1.00  0.00     0.173 A 
ATOM     64  C   UNL A   1      43.617  27.118  35.360  1.00  0.00     0.173 A 
ATOM     65  F   UNL A   1      45.543  29.805  33.842  1.00  0.00    -0.203 F 
ATOM     66  C   UNL A   1      46.258  27.918  35.052  1.00  0.00     0.198 A 
ATOM     67  C   UNL A   1      44.646  26.361  35.914  1.00  0.00     0.198 A 
ATOM     68  F   UNL A   1      42.353  26.700  35.517  1.00  0.00    -0.203 F 
ATOM     69  F   UNL A   1      47.534  28.283  34.868  1.00  0.00    -0.200 F 
ATOM     70  C   UNL A   1      45.966  26.756  35.751  1.00  0.00     0.200 A 
ATOM     71  F   UNL A   1      44.361  25.244  36.597  1.00  0.00    -0.200 F 
ATOM     72  F   UNL A   1      46.957  26.010  36.258  1.00  0.00    -0.200 F 
ENDBRANCH  39  62
ENDBRANCH  13  14
ENDBRANCH   6   8
ENDBRANCH   3   4
ENDBRANCH   2   3
ENDBRANCH   1   2
BRANCH   1  73
ATOM     73  C   UNL A   1      32.154  29.823  27.195  1.00  0.00     0.002 C 
BRANCH  73  74
ATOM     74  C   UNL A   1      33.655  29.527  27.113  1.00  0.00     0.021 C 
BRANCH  74  75
ATOM     75  C   UNL A   1      34.072  28.552  26.016  1.00  0.00     0.116 C 
BRANCH  75  76
ATOM     76  N   UNL A   1      33.874  27.167  26.407  1.00  0.00    -0.352 N 
ATOM     77  C   UNL A   1      33.153  26.178  25.796  1.00  0.00     0.251 C 
ATOM     78  H   UNL A   1      34.329  26.900  27.238  1.00  0.00     0.163 HD
ATOM     79  O   UNL A   1      32.962  25.110  26.374  1.00  0.00    -0.269 OA
BRANCH  77  80
ATOM     80  C   UNL A   1      32.583  26.382  24.447  1.00  0.00     0.047 A 
ATOM     81  C   UNL A   1      31.526  27.290  24.304  1.00  0.00     0.023 A 
ATOM     82  C   UNL A   1      33.019  25.635  23.352  1.00  0.00     0.099 A 
ATOM     83  C   UNL A   1      30.916  27.500  23.056  1.00  0.00    -0.009 A 
ATOM     84  C   UNL A   1      32.456  25.876  22.097  1.00  0.00     0.270 A 
ATOM     85  C   UNL A   1      31.423  26.813  21.940  1.00  0.00     0.094 A 
BRANCH  83  86
ATOM     86  C   UNL A   1      29.734  28.375  22.946  1.00  0.00     0.002 A 
ATOM     87  C   UNL A   1      29.892  29.712  22.535  1.00  0.00     0.030 A 
ATOM     88  C   UNL A   1      28.435  27.939  23.291  1.00  0.00     0.048 A 
ATOM     89  C   UNL A   1      28.797  30.576  22.475  1.00  0.00     0.041 A 
ATOM     90  C   UNL A   1      27.342  28.810  23.221  1.00  0.00     0.023 A 
ATOM     91  Cl  UNL A   1      28.123  26.335  23.863  1.00  0.00    -0.084 Cl
ATOM     92  Cl  UNL A   1      29.023  32.211  21.990  1.00  0.00    -0.084 Cl
ATOM     93  C   UNL A   1      27.523  30.131  22.817  1.00  0.00     0.022 A 
ENDBRANCH  83  86
BRANCH  84  94
ATOM     94  N   UNL A   1      32.947  25.130  20.932  1.00  0.00     0.062 N 
ATOM     95  O   UNL A   1      33.330  23.966  21.111  1.00  0.00    -0.258 OA
ATOM     96  O   UNL A   1      32.930  25.706  19.835  1.00  0.00    -0.258 OA
ENDBRANCH  84  94
ENDBRANCH  77  80
ENDBRANCH  75  76
ENDBRANCH  74  75
ENDBRANCH  73  74
ENDBRANCH   1  73
TORSDOF 15
ENDMDL
MODEL 2
REMARK VINA RESULT:     -13.1      0.483      7.206
REMARK SMILES O=C(NCCCCCCNC(=O)c1cc(-c2cc(Cl)ccc2Cl)cc([N+](=O)[O-])c1)c1ccc(-c2c3nc(c(-c4c(F)c(F)c(F)c(F)c4F)c4ccc([nH]4)c(-c4c(F)c(F)c(F)c(F)c4F)c4nc(c(-c5c(F)c(F)c(F)c(F)c5F)c5ccc2[nH]5)C=C4)C=C3)cc1
REMARK SMILES IDX 6 1 5 2 4 3 3 4 1 5 2 6 30 8 31 9 92 10 32 11 91 12 33 13
REMARK SMILES IDX 34 14 35 15 85 16 36 17 90 18 84 19 86 20 37 21 89 22 83 23
REMARK SMILES IDX 82 24 38 26 70 27 50 28 69 29 51 30 54 31 68 32 87 33 52 34
REMARK SMILES IDX 53 35 67 37 88 38 55 39 39 40 40 41 48 42 41 43 42 44 46 45
REMARK SMILES IDX 49 46 43 47 44 48 47 49 45 50 71 51 72 52 80 53 73 54 74 55
REMARK SMILES IDX 78 56 81 57 75 58 76 59 79 60 77 61 56 62 57 63 65 64 58 65
REMARK SMILES IDX 59 66 63 67 66 68 60 69 61 70 64 71 62 72 7 73 8 74 9 75
REMARK SMILES IDX 10 76 11 77 12 79 13 80 14 81 29 82 15 83 25 84 24 85 16 86
REMARK SMILES IDX 17 87 22 88 18 89 21 90 23 91 19 92 20 93 26 94 27 95 28 96
REMARK H PARENT 3 7 86 25 54 36 10 78
REMARK Flexibility Score: inf
ROOT
ATOM      1  C   UNL A   1      31.537  30.825  26.007  1.00  0.00     0.002 C 
ENDROOT
BRANCH   1   2
ATOM      2  C   UNL A   1      31.332  32.256  26.501  1.00  0.00     0.021 C 
BRANCH   2   3
ATOM      3  C   UNL A   1      32.509  32.858  27.256  1.00  0.00     0.116 C 
BRANCH   3   4
ATOM      4  N   UNL A   1      32.301  34.248  27.626  1.00  0.00    -0.352 N 
ATOM      5  O   UNL A   1      32.528  36.124  28.866  1.00  0.00    -0.269 OA
ATOM      6  C   UNL A   1      32.918  34.987  28.606  1.00  0.00     0.251 C 
ATOM      7  H   UNL A   1      31.621  34.728  27.100  1.00  0.00     0.163 HD
BRANCH   6   8
ATOM      8  C   UNL A   1      34.036  34.399  29.376  1.00  0.00     0.039 A 
ATOM      9  C   UNL A   1      35.351  34.511  28.921  1.00  0.00     0.014 A 
ATOM     10  C   UNL A   1      33.760  33.711  30.560  1.00  0.00     0.014 A 
ATOM     11  C   UNL A   1      36.361  33.798  29.556  1.00  0.00     0.010 A 
ATOM     12  C   UNL A   1      34.794  33.071  31.250  1.00  0.00     0.010 A 
ATOM     13  C   UNL A   1      36.098  33.074  30.730  1.00  0.00    -0.014 A 
BRANCH  13  14
ATOM     14  C   UNL A   1      37.213  32.362  31.408  1.00  0.00     0.031 A 
ATOM     15  C   UNL A   1      37.973  31.265  30.716  1.00  0.00     0.074 A 
ATOM     16  C   UNL A   1      37.565  32.747  32.650  1.00  0.00     0.049 A 
ATOM     17  N   UNL A   1      39.005  30.579  31.145  1.00  0.00    -0.248 NA
ATOM     18  C   UNL A   1      37.515  30.876  29.375  1.00  0.00     0.031 C 
ATOM     19  C   UNL A   1      36.892  33.789  33.428  1.00  0.00     0.029 A 
ATOM     20  N   UNL A   1      38.586  32.332  33.465  1.00  0.00    -0.354 N 
ATOM     21  C   UNL A   1      39.301  29.666  30.141  1.00  0.00     0.074 A 
ATOM     22  C   UNL A   1      38.327  29.868  29.089  1.00  0.00     0.031 C 
ATOM     23  C   UNL A   1      37.554  33.976  34.579  1.00  0.00     0.029 A 
ATOM     24  C   UNL A   1      38.658  33.026  34.647  1.00  0.00     0.049 A 
ATOM     25  H   UNL A   1      39.209  31.608  33.225  1.00  0.00     0.167 HD
ATOM     26  C   UNL A   1      40.300  28.750  30.100  1.00  0.00     0.037 A 
ATOM     27  C   UNL A   1      39.516  32.908  35.678  1.00  0.00     0.037 A 
ATOM     28  C   UNL A   1      41.283  28.572  31.137  1.00  0.00     0.049 A 
ATOM     29  C   UNL A   1      40.607  31.880  35.605  1.00  0.00     0.074 A 
ATOM     30  C   UNL A   1      42.365  27.708  31.164  1.00  0.00     0.029 A 
ATOM     31  N   UNL A   1      41.305  29.272  32.336  1.00  0.00    -0.354 N 
ATOM     32  N   UNL A   1      40.904  31.055  34.631  1.00  0.00    -0.248 NA
ATOM     33  C   UNL A   1      41.484  31.766  36.778  1.00  0.00     0.031 C 
ATOM     34  C   UNL A   1      43.011  27.849  32.397  1.00  0.00     0.029 A 
ATOM     35  C   UNL A   1      42.364  28.839  33.119  1.00  0.00     0.049 A 
ATOM     36  H   UNL A   1      40.661  29.971  32.593  1.00  0.00     0.167 HD
ATOM     37  C   UNL A   1      42.011  30.339  35.062  1.00  0.00     0.074 A 
ATOM     38  C   UNL A   1      42.345  30.843  36.379  1.00  0.00     0.031 C 
ATOM     39  C   UNL A   1      42.688  29.352  34.426  1.00  0.00     0.037 A 
BRANCH  26  40
ATOM     40  C   UNL A   1      40.370  27.846  28.901  1.00  0.00     0.064 A 
ATOM     41  C   UNL A   1      39.646  26.646  28.833  1.00  0.00     0.173 A 
ATOM     42  C   UNL A   1      41.138  28.211  27.784  1.00  0.00     0.173 A 
ATOM     43  F   UNL A   1      38.903  26.246  29.876  1.00  0.00    -0.203 F 
ATOM     44  C   UNL A   1      39.709  25.834  27.703  1.00  0.00     0.198 A 
ATOM     45  C   UNL A   1      41.177  27.410  26.646  1.00  0.00     0.198 A 
ATOM     46  F   UNL A   1      41.844  29.352  27.793  1.00  0.00    -0.203 F 
ATOM     47  F   UNL A   1      39.043  24.671  27.678  1.00  0.00    -0.200 F 
ATOM     48  C   UNL A   1      40.468  26.220  26.608  1.00  0.00     0.200 A 
ATOM     49  F   UNL A   1      41.901  27.792  25.584  1.00  0.00    -0.200 F 
ATOM     50  F   UNL A   1      40.522  25.440  25.519  1.00  0.00    -0.200 F 
ENDBRANCH  26  40
BRANCH  27  51
ATOM     51  C   UNL A   1      39.379  33.801  36.857  1.00  0.00     0.064 A 
ATOM     52  C   UNL A   1      38.658  33.392  37.987  1.00  0.00     0.173 A 
ATOM     53  C   UNL A   1      39.974  35.070  36.884  1.00  0.00     0.173 A 
ATOM     54  F   UNL A   1      38.056  32.194  38.001  1.00  0.00    -0.203 F 
ATOM     55  C   UNL A   1      38.528  34.226  39.096  1.00  0.00     0.198 A 
ATOM     56  C   UNL A   1      39.869  35.890  38.004  1.00  0.00     0.198 A 
ATOM     57  F   UNL A   1      40.679  35.503  35.829  1.00  0.00    -0.203 F 
ATOM     58  F   UNL A   1      37.801  33.827  40.148  1.00  0.00    -0.200 F 
ATOM     59  C   UNL A   1      39.139  35.471  39.106  1.00  0.00     0.200 A 
ATOM     60  F   UNL A   1      40.476  37.085  38.017  1.00  0.00    -0.200 F 
ATOM     61  F   UNL A   1      39.021  36.268  40.177  1.00  0.00    -0.200 F 
ENDBRANCH  27  51
BRANCH  39  62
ATOM     62  C   UNL A   1      43.881  28.780  35.134  1.00  0.00     0.064 A 
ATOM     63  C   UNL A   1      45.171  29.295  34.936  1.00  0.00     0.173 A 
ATOM     64  C   UNL A   1      43.728  27.713  36.032  1.00  0.00     0.173 A 
ATOM     65  F   UNL A   1      45.371  30.302  34.073  1.00  0.00    -0.203 F 
ATOM     66  C   UNL A   1      46.269  28.739  35.586  1.00  0.00     0.198 A 
ATOM     67  C   UNL A   1      44.825  27.181  36.704  1.00  0.00     0.198 A 
ATOM     68  F   UNL A   1      42.515  27.189  36.260  1.00  0.00    -0.203 F 
ATOM     69  F   UNL A   1      47.499  29.209  35.339  1.00  0.00    -0.200 F 
ATOM     70  C   UNL A   1      46.095  27.688  36.474  1.00  0.00     0.200 A 
ATOM     71  F   UNL A   1      44.653  26.172  37.569  1.00  0.00    -0.200 F 
ATOM     72  F   UNL A   1      47.154  27.154  37.099  1.00  0.00    -0.200 F 
ENDBRANCH  39  62
ENDBRANCH  13  14
ENDBRANCH   6   8
ENDBRANCH   3   4
ENDBRANCH   2   3
ENDBRANCH   1   2
BRANCH   1  73
ATOM     73  C   UNL A   1      32.174  29.861  27.012  1.00  0.00     0.002 C 
BRANCH  73  74
ATOM     74  C   UNL A   1      33.692  29.688  26.907  1.00  0.00     0.021 C 
BRANCH  74  75
ATOM     75  C   UNL A   1      34.164  28.621  25.923  1.00  0.00     0.116 C 
BRANCH  75  76
ATOM     76  N   UNL A   1      33.895  27.276  26.400  1.00  0.00    -0.352 N 
ATOM     77  C   UNL A   1      33.113  26.293  25.857  1.00  0.00     0.251 C 
ATOM     78  H   UNL A   1      34.343  27.035  27.242  1.00  0.00     0.163 HD
ATOM     79  O   UNL A   1      32.871  25.274  26.501  1.00  0.00    -0.269 OA
BRANCH  77  80
ATOM     80  C   UNL A   1      32.540  26.445  24.502  1.00  0.00     0.047 A 
ATOM     81  C   UNL A   1      31.476  27.341  24.330  1.00  0.00     0.023 A 
ATOM     82  C   UNL A   1      32.979  25.663  23.434  1.00  0.00     0.099 A 
ATOM     83  C   UNL A   1      30.863  27.503  23.076  1.00  0.00    -0.009 A 
ATOM     84  C   UNL A   1      32.412  25.856  22.172  1.00  0.00     0.270 A 
ATOM     85  C   UNL A   1      31.373  26.780  21.984  1.00  0.00     0.094 A 
BRANCH  83  86
ATOM     86  C   UNL A   1      29.676  28.366  22.938  1.00  0.00     0.002 A 
ATOM     87  C   UNL A   1      29.828  29.696  22.503  1.00  0.00     0.030 A 
ATOM     88  C   UNL A   1      28.377  27.926  23.277  1.00  0.00     0.048 A 
ATOM     89  C   UNL A   1      28.726  30.550  22.415  1.00  0.00     0.041 A 
ATOM     90  C   UNL A   1      27.278  28.786  23.180  1.00  0.00     0.023 A 
ATOM     91  Cl  UNL A   1      28.071  26.330  23.876  1.00  0.00    -0.084 Cl
ATOM     92  Cl  UNL A   1      28.944  32.178  21.902  1.00  0.00    -0.084 Cl
ATOM     93  C   UNL A   1      27.452  30.101  22.752  1.00  0.00     0.022 A 
ENDBRANCH  83  86
BRANCH  84  94
ATOM     94  N   UNL A   1      32.906  25.072  21.033  1.00  0.00     0.062 N 
ATOM     95  O   UNL A   1      33.278  23.911  21.249  1.00  0.00    -0.258 OA
ATOM     96  O   UNL A   1      32.903  25.616  19.920  1.00  0.00    -0.258 OA
ENDBRANCH  84  94
ENDBRANCH  77  80
ENDBRANCH  75  76
ENDBRANCH  74  75
ENDBRANCH  73  74
ENDBRANCH   1  73
TORSDOF 15
ENDMDL
MODEL 3
REMARK VINA RESULT:     -12.8      2.018      3.319
REMARK SMILES O=C(NCCCCCCNC(=O)c1cc(-c2cc(Cl)ccc2Cl)cc([N+](=O)[O-])c1)c1ccc(-c2c3nc(c(-c4c(F)c(F)c(F)c(F)c4F)c4ccc([nH]4)c(-c4c(F)c(F)c(F)c(F)c4F)c4nc(c(-c5c(F)c(F)c(F)c(F)c5F)c5ccc2[nH]5)C=C4)C=C3)cc1
REMARK SMILES IDX 6 1 5 2 4 3 3 4 1 5 2 6 30 8 31 9 92 10 32 11 91 12 33 13
REMARK SMILES IDX 34 14 35 15 85 16 36 17 90 18 84 19 86 20 37 21 89 22 83 23
REMARK SMILES IDX 82 24 38 26 70 27 50 28 69 29 51 30 54 31 68 32 87 33 52 34
REMARK SMILES IDX 53 35 67 37 88 38 55 39 39 40 40 41 48 42 41 43 42 44 46 45
REMARK SMILES IDX 49 46 43 47 44 48 47 49 45 50 71 51 72 52 80 53 73 54 74 55
REMARK SMILES IDX 78 56 81 57 75 58 76 59 79 60 77 61 56 62 57 63 65 64 58 65
REMARK SMILES IDX 59 66 63 67 66 68 60 69 61 70 64 71 62 72 7 73 8 74 9 75
REMARK SMILES IDX 10 76 11 77 12 79 13 80 14 81 29 82 15 83 25 84 24 85 16 86
REMARK SMILES IDX 17 87 22 88 18 89 21 90 23 91 19 92 20 93 26 94 27 95 28 96
REMARK H PARENT 3 7 86 25 54 36 10 78
REMARK Flexibility Score: inf
ROOT
ATOM      1  C   UNL A   1      31.520  30.751  26.226  1.00  0.00     0.002 C 
ENDROOT
BRANCH   1   2
ATOM      2  C   UNL A   1      31.373  32.241  26.529  1.00  0.00     0.021 C 
BRANCH   2   3
ATOM      3  C   UNL A   1      32.562  32.882  27.231  1.00  0.00     0.116 C 
BRANCH   3   4
ATOM      4  N   UNL A   1      32.314  34.256  27.636  1.00  0.00    -0.352 N 
ATOM      5  O   UNL A   1      32.522  36.119  28.898  1.00  0.00    -0.269 OA
ATOM      6  C   UNL A   1      32.947  35.005  28.599  1.00  0.00     0.251 C 
ATOM      7  H   UNL A   1      31.589  34.716  27.152  1.00  0.00     0.163 HD
BRANCH   6   8
ATOM      8  C   UNL A   1      34.124  34.452  29.303  1.00  0.00     0.039 A 
ATOM      9  C   UNL A   1      35.416  34.707  28.840  1.00  0.00     0.014 A 
ATOM     10  C   UNL A   1      33.929  33.654  30.433  1.00  0.00     0.014 A 
ATOM     11  C   UNL A   1      36.494  34.032  29.401  1.00  0.00     0.010 A 
ATOM     12  C   UNL A   1      35.026  33.050  31.055  1.00  0.00     0.010 A 
ATOM     13  C   UNL A   1      36.314  33.200  30.518  1.00  0.00    -0.014 A 
BRANCH  13  14
ATOM     14  C   UNL A   1      37.497  32.531  31.121  1.00  0.00     0.031 A 
ATOM     15  C   UNL A   1      37.972  32.881  32.504  1.00  0.00     0.074 A 
ATOM     16  C   UNL A   1      38.119  31.564  30.418  1.00  0.00     0.049 A 
ATOM     17  N   UNL A   1      38.953  32.355  33.197  1.00  0.00    -0.248 NA
ATOM     18  C   UNL A   1      37.265  33.965  33.200  1.00  0.00     0.031 C 
ATOM     19  C   UNL A   1      37.758  31.148  29.062  1.00  0.00     0.029 A 
ATOM     20  N   UNL A   1      39.161  30.739  30.752  1.00  0.00    -0.354 N 
ATOM     21  C   UNL A   1      38.996  33.059  34.393  1.00  0.00     0.074 A 
ATOM     22  C   UNL A   1      37.958  34.066  34.326  1.00  0.00     0.031 C 
ATOM     23  C   UNL A   1      38.523  30.107  28.703  1.00  0.00     0.029 A 
ATOM     24  C   UNL A   1      39.467  29.823  29.777  1.00  0.00     0.049 A 
ATOM     25  H   UNL A   1      39.643  30.796  31.609  1.00  0.00     0.167 HD
ATOM     26  C   UNL A   1      39.822  32.876  35.452  1.00  0.00     0.037 A 
ATOM     27  C   UNL A   1      40.408  28.861  29.746  1.00  0.00     0.037 A 
ATOM     28  C   UNL A   1      40.836  31.855  35.525  1.00  0.00     0.049 A 
ATOM     29  C   UNL A   1      41.312  28.687  30.933  1.00  0.00     0.074 A 
ATOM     30  C   UNL A   1      41.686  31.555  36.576  1.00  0.00     0.029 A 
ATOM     31  N   UNL A   1      41.138  30.965  34.503  1.00  0.00    -0.354 N 
ATOM     32  N   UNL A   1      41.312  29.328  32.074  1.00  0.00    -0.248 NA
ATOM     33  C   UNL A   1      42.349  27.652  30.823  1.00  0.00     0.031 C 
ATOM     34  C   UNL A   1      42.535  30.518  36.173  1.00  0.00     0.029 A 
ATOM     35  C   UNL A   1      42.180  30.135  34.890  1.00  0.00     0.049 A 
ATOM     36  H   UNL A   1      40.681  30.930  33.632  1.00  0.00     0.167 HD
ATOM     37  C   UNL A   1      42.331  28.765  32.828  1.00  0.00     0.074 A 
ATOM     38  C   UNL A   1      42.915  27.714  32.019  1.00  0.00     0.031 C 
ATOM     39  C   UNL A   1      42.748  29.090  34.076  1.00  0.00     0.037 A 
BRANCH  26  40
ATOM     40  C   UNL A   1      39.684  33.815  36.617  1.00  0.00     0.064 A 
ATOM     41  C   UNL A   1      38.898  33.499  37.735  1.00  0.00     0.173 A 
ATOM     42  C   UNL A   1      40.387  35.030  36.634  1.00  0.00     0.173 A 
ATOM     43  F   UNL A   1      38.198  32.355  37.767  1.00  0.00    -0.203 F 
ATOM     44  C   UNL A   1      38.801  34.375  38.814  1.00  0.00     0.198 A 
ATOM     45  C   UNL A   1      40.309  35.891  37.725  1.00  0.00     0.198 A 
ATOM     46  F   UNL A   1      41.159  35.378  35.593  1.00  0.00    -0.203 F 
ATOM     47  F   UNL A   1      38.009  34.072  39.852  1.00  0.00    -0.200 F 
ATOM     48  C   UNL A   1      39.512  35.566  38.811  1.00  0.00     0.200 A 
ATOM     49  F   UNL A   1      41.008  37.035  37.726  1.00  0.00    -0.200 F 
ATOM     50  F   UNL A   1      39.422  36.405  39.854  1.00  0.00    -0.200 F 
ENDBRANCH  26  40
BRANCH  27  51
ATOM     51  C   UNL A   1      40.528  27.984  28.554  1.00  0.00     0.064 A 
ATOM     52  C   UNL A   1      41.306  28.369  27.454  1.00  0.00     0.173 A 
ATOM     53  C   UNL A   1      39.881  26.741  28.495  1.00  0.00     0.173 A 
ATOM     54  F   UNL A   1      41.929  29.557  27.457  1.00  0.00    -0.203 F 
ATOM     55  C   UNL A   1      41.422  27.549  26.334  1.00  0.00     0.198 A 
ATOM     56  C   UNL A   1      40.021  25.909  27.387  1.00  0.00     0.198 A 
ATOM     57  F   UNL A   1      39.130  26.326  29.525  1.00  0.00    -0.203 F 
ATOM     58  F   UNL A   1      42.140  27.958  25.279  1.00  0.00    -0.200 F 
ATOM     59  C   UNL A   1      40.785  26.317  26.304  1.00  0.00     0.200 A 
ATOM     60  F   UNL A   1      39.419  24.712  27.370  1.00  0.00    -0.200 F 
ATOM     61  F   UNL A   1      40.905  25.526  25.230  1.00  0.00    -0.200 F 
ENDBRANCH  27  51
BRANCH  39  62
ATOM     62  C   UNL A   1      43.865  28.273  34.655  1.00  0.00     0.064 A 
ATOM     63  C   UNL A   1      45.207  28.662  34.521  1.00  0.00     0.173 A 
ATOM     64  C   UNL A   1      43.589  27.095  35.364  1.00  0.00     0.173 A 
ATOM     65  F   UNL A   1      45.523  29.770  33.835  1.00  0.00    -0.203 F 
ATOM     66  C   UNL A   1      46.232  27.882  35.047  1.00  0.00     0.198 A 
ATOM     67  C   UNL A   1      44.615  26.335  35.916  1.00  0.00     0.198 A 
ATOM     68  F   UNL A   1      42.323  26.684  35.525  1.00  0.00    -0.203 F 
ATOM     69  F   UNL A   1      47.509  28.241  34.859  1.00  0.00    -0.200 F 
ATOM     70  C   UNL A   1      45.936  26.723  35.750  1.00  0.00     0.200 A 
ATOM     71  F   UNL A   1      44.326  25.221  36.603  1.00  0.00    -0.200 F 
ATOM     72  F   UNL A   1      46.925  25.973  36.256  1.00  0.00    -0.200 F 
ENDBRANCH  39  62
ENDBRANCH  13  14
ENDBRANCH   6   8
ENDBRANCH   3   4
ENDBRANCH   2   3
ENDBRANCH   1   2
BRANCH   1  73
ATOM     73  C   UNL A   1      32.617  30.021  27.005  1.00  0.00     0.002 C 
BRANCH  73  74
ATOM     74  C   UNL A   1      33.624  29.228  26.165  1.00  0.00     0.021 C 
BRANCH  74  75
ATOM     75  C   UNL A   1      33.698  27.734  26.466  1.00  0.00     0.116 C 
BRANCH  75  76
ATOM     76  N   UNL A   1      32.403  27.182  26.826  1.00  0.00    -0.352 N 
ATOM     77  C   UNL A   1      31.644  26.240  26.187  1.00  0.00     0.251 C 
ATOM     78  H   UNL A   1      32.015  27.539  27.657  1.00  0.00     0.163 HD
ATOM     79  O   UNL A   1      30.490  26.027  26.556  1.00  0.00    -0.269 OA
BRANCH  77  80
ATOM     80  C   UNL A   1      32.188  25.481  25.041  1.00  0.00     0.047 A 
ATOM     81  C   UNL A   1      32.943  24.330  25.307  1.00  0.00     0.023 A 
ATOM     82  C   UNL A   1      32.035  25.932  23.730  1.00  0.00     0.099 A 
ATOM     83  C   UNL A   1      33.519  23.586  24.264  1.00  0.00    -0.009 A 
ATOM     84  C   UNL A   1      32.558  25.169  22.683  1.00  0.00     0.270 A 
ATOM     85  C   UNL A   1      33.281  23.994  22.941  1.00  0.00     0.094 A 
BRANCH  83  86
ATOM     86  C   UNL A   1      34.401  22.444  24.568  1.00  0.00     0.002 A 
ATOM     87  C   UNL A   1      35.765  22.668  24.833  1.00  0.00     0.030 A 
ATOM     88  C   UNL A   1      33.942  21.108  24.553  1.00  0.00     0.048 A 
ATOM     89  C   UNL A   1      36.633  21.599  25.071  1.00  0.00     0.041 A 
ATOM     90  C   UNL A   1      34.816  20.044  24.799  1.00  0.00     0.023 A 
ATOM     91  Cl  UNL A   1      32.299  20.702  24.185  1.00  0.00    -0.084 Cl
ATOM     92  Cl  UNL A   1      38.300  21.902  25.371  1.00  0.00    -0.084 Cl
ATOM     93  C   UNL A   1      36.164  20.289  25.054  1.00  0.00     0.022 A 
ENDBRANCH  83  86
BRANCH  84  94
ATOM     94  N   UNL A   1      32.355  25.612  21.298  1.00  0.00     0.062 N 
ATOM     95  O   UNL A   1      33.198  25.278  20.455  1.00  0.00    -0.258 OA
ATOM     96  O   UNL A   1      31.339  26.279  21.055  1.00  0.00    -0.258 OA
ENDBRANCH  84  94
ENDBRANCH  77  80
ENDBRANCH  75  76
ENDBRANCH  74  75
ENDBRANCH  73  74
ENDBRANCH   1  73
TORSDOF 15
ENDMDL
