MODEL 1
REMARK VINA RESULT:     -11.5      0.000      0.000
REMARK SMILES Cc1cc(S(=O)(=O)N2CC(CC(=O)NCCCCCCNC(=O)c3ccc(-c4c5nc(c(-c6c(F)c(F)c(F)c(F)c6F)c6ccc([nH]6)c(-c6c(F)c(F)c(F)c(F)c6F)c6nc(c(-c7c(F)c(F)c(F)c(F)c7F)c7ccc4[nH]7)C=C6)C=C5)cc3)C2)sc1Br
REMARK SMILES IDX 17 1 16 2 15 3 14 4 12 5 13 6 11 8 10 9 8 10 9 11 87 12 5 13
REMARK SMILES IDX 6 14 7 15 4 16 1 17 2 18 3 19 89 20 88 21 90 22 18 23 19 24
REMARK SMILES IDX 20 25 21 26 22 27 23 29 24 30 25 31 86 32 26 33 85 34 27 35
REMARK SMILES IDX 28 36 29 37 79 38 30 39 84 40 78 41 80 42 31 43 83 44 77 45
REMARK SMILES IDX 76 46 32 48 64 49 44 50 63 51 45 52 48 53 62 54 81 55 46 56
REMARK SMILES IDX 47 57 61 59 82 60 49 61 33 62 34 63 42 64 35 65 36 66 40 67
REMARK SMILES IDX 43 68 37 69 38 70 41 71 39 72 65 73 66 74 74 75 67 76 68 77
REMARK SMILES IDX 72 78 75 79 69 80 70 81 73 82 71 83 50 84 51 85 59 86 52 87
REMARK SMILES IDX 53 88 57 89 60 90 54 91 55 92 58 93 56 94
REMARK H PARENT 14 7 21 28 80 47 48 58
REMARK Flexibility Score: inf
ROOT
ATOM      1  C   UNL A   1      40.137  21.557  27.072  1.00  0.00     0.002 C 
ENDROOT
BRANCH   1   2
ATOM      2  C   UNL A   1      39.916  22.797  26.204  1.00  0.00     0.021 C 
BRANCH   2   3
ATOM      3  C   UNL A   1      38.500  23.377  26.280  1.00  0.00     0.116 C 
BRANCH   3   4
ATOM      4  N   UNL A   1      37.860  23.336  24.980  1.00  0.00    -0.356 N 
ATOM      5  C   UNL A   1      37.113  22.358  24.400  1.00  0.00     0.220 C 
ATOM      6  O   UNL A   1      36.795  22.479  23.218  1.00  0.00    -0.275 OA
ATOM      7  H   UNL A   1      37.987  24.142  24.429  1.00  0.00     0.163 HD
BRANCH   5   8
ATOM      8  C   UNL A   1      36.670  21.154  25.202  1.00  0.00     0.106 C 
BRANCH   8   9
ATOM      9  C   UNL A   1      35.255  21.247  25.761  1.00  0.00     0.029 C 
ATOM     10  N   UNL A   1      33.492  22.340  25.160  1.00  0.00    -0.196 NA
ATOM     11  C   UNL A   1      34.107  21.059  24.732  1.00  0.00     0.108 C 
ATOM     12  C   UNL A   1      34.660  22.649  26.006  1.00  0.00     0.108 C 
BRANCH  10  13
ATOM     13  S   UNL A   1      32.626  23.462  24.248  1.00  0.00     0.252 S 
ATOM     14  O   UNL A   1      31.213  23.148  24.415  1.00  0.00    -0.206 OA
ATOM     15  O   UNL A   1      33.250  23.574  22.958  1.00  0.00    -0.206 OA
BRANCH  13  16
ATOM     16  C   UNL A   1      32.804  25.067  25.005  1.00  0.00     0.136 A 
ATOM     17  C   UNL A   1      34.148  28.550  25.506  1.00  0.00     0.046 C 
ATOM     18  C   UNL A   1      33.378  27.274  25.617  1.00  0.00    -0.025 A 
ATOM     19  C   UNL A   1      33.683  26.117  24.821  1.00  0.00     0.038 A 
ATOM     20  C   UNL A   1      32.303  26.997  26.437  1.00  0.00     0.074 A 
ATOM     21  S   UNL A   1      31.669  25.436  26.230  1.00  0.00    -0.115 S 
ATOM     22  Br  UNL A   1      31.559  28.194  27.679  1.00  0.00    -0.039 Br
ENDBRANCH  13  16
ENDBRANCH  10  13
ENDBRANCH   8   9
ENDBRANCH   5   8
ENDBRANCH   3   4
ENDBRANCH   2   3
ENDBRANCH   1   2
BRANCH   1  23
ATOM     23  C   UNL A   1      41.567  21.369  27.599  1.00  0.00     0.002 C 
BRANCH  23  24
ATOM     24  C   UNL A   1      42.267  20.054  27.222  1.00  0.00     0.021 C 
BRANCH  24  25
ATOM     25  C   UNL A   1      42.302  19.793  25.726  1.00  0.00     0.116 C 
BRANCH  25  26
ATOM     26  N   UNL A   1      43.667  19.671  25.206  1.00  0.00    -0.352 N 
ATOM     27  C   UNL A   1      44.541  20.670  24.821  1.00  0.00     0.251 C 
ATOM     28  H   UNL A   1      44.008  18.752  25.119  1.00  0.00     0.163 HD
ATOM     29  O   UNL A   1      45.491  20.429  24.084  1.00  0.00    -0.269 OA
BRANCH  27  30
ATOM     30  C   UNL A   1      44.323  22.036  25.326  1.00  0.00     0.039 A 
ATOM     31  C   UNL A   1      43.416  22.922  24.736  1.00  0.00     0.014 A 
ATOM     32  C   UNL A   1      45.057  22.419  26.441  1.00  0.00     0.014 A 
ATOM     33  C   UNL A   1      43.238  24.175  25.319  1.00  0.00     0.010 A 
ATOM     34  C   UNL A   1      44.691  23.521  27.151  1.00  0.00     0.010 A 
ATOM     35  C   UNL A   1      43.884  24.458  26.533  1.00  0.00    -0.014 A 
BRANCH  35  36
ATOM     36  C   UNL A   1      43.681  25.699  27.259  1.00  0.00     0.031 A 
ATOM     37  C   UNL A   1      44.634  26.764  26.874  1.00  0.00     0.074 A 
ATOM     38  C   UNL A   1      42.580  25.925  28.010  1.00  0.00     0.049 A 
ATOM     39  N   UNL A   1      45.586  27.252  27.595  1.00  0.00    -0.248 NA
ATOM     40  C   UNL A   1      44.652  27.216  25.473  1.00  0.00     0.031 C 
ATOM     41  C   UNL A   1      41.408  25.059  28.207  1.00  0.00     0.029 A 
ATOM     42  N   UNL A   1      42.226  27.047  28.691  1.00  0.00    -0.354 N 
ATOM     43  C   UNL A   1      46.181  28.236  26.815  1.00  0.00     0.074 A 
ATOM     44  C   UNL A   1      45.723  28.013  25.469  1.00  0.00     0.031 C 
ATOM     45  C   UNL A   1      40.398  25.772  28.754  1.00  0.00     0.029 A 
ATOM     46  C   UNL A   1      40.895  27.091  29.097  1.00  0.00     0.049 A 
ATOM     47  H   UNL A   1      42.863  27.773  28.882  1.00  0.00     0.167 HD
ATOM     48  C   UNL A   1      46.761  29.318  27.404  1.00  0.00     0.037 A 
ATOM     49  C   UNL A   1      40.255  28.155  29.649  1.00  0.00     0.037 A 
ATOM     50  C   UNL A   1      46.990  29.070  28.810  1.00  0.00     0.049 A 
ATOM     51  C   UNL A   1      41.307  29.067  30.171  1.00  0.00     0.074 A 
ATOM     52  C   UNL A   1      47.703  28.124  29.523  1.00  0.00     0.029 A 
ATOM     53  N   UNL A   1      46.104  29.615  29.707  1.00  0.00    -0.354 N 
ATOM     54  N   UNL A   1      42.079  28.768  31.179  1.00  0.00    -0.248 NA
ATOM     55  C   UNL A   1      41.826  30.076  29.261  1.00  0.00     0.031 C 
ATOM     56  C   UNL A   1      46.879  27.808  30.646  1.00  0.00     0.029 A 
ATOM     57  C   UNL A   1      45.758  28.638  30.605  1.00  0.00     0.049 A 
ATOM     58  H   UNL A   1      45.775  30.544  29.706  1.00  0.00     0.167 HD
ATOM     59  C   UNL A   1      43.341  29.195  30.789  1.00  0.00     0.074 A 
ATOM     60  C   UNL A   1      43.110  30.057  29.629  1.00  0.00     0.031 C 
ATOM     61  C   UNL A   1      44.466  28.569  31.245  1.00  0.00     0.037 A 
BRANCH  48  62
ATOM     62  C   UNL A   1      46.732  30.716  26.834  1.00  0.00     0.064 A 
ATOM     63  C   UNL A   1      47.930  31.460  26.818  1.00  0.00     0.173 A 
ATOM     64  C   UNL A   1      45.555  31.462  26.600  1.00  0.00     0.173 A 
ATOM     65  F   UNL A   1      49.109  30.859  27.032  1.00  0.00    -0.203 F 
ATOM     66  C   UNL A   1      47.934  32.850  26.684  1.00  0.00     0.198 A 
ATOM     67  C   UNL A   1      45.569  32.843  26.413  1.00  0.00     0.198 A 
ATOM     68  F   UNL A   1      44.335  30.919  26.654  1.00  0.00    -0.203 F 
ATOM     69  F   UNL A   1      49.083  33.525  26.816  1.00  0.00    -0.200 F 
ATOM     70  C   UNL A   1      46.753  33.542  26.492  1.00  0.00     0.200 A 
ATOM     71  F   UNL A   1      44.411  33.495  26.242  1.00  0.00    -0.200 F 
ATOM     72  F   UNL A   1      46.747  34.880  26.433  1.00  0.00    -0.200 F 
ENDBRANCH  48  62
BRANCH  49  73
ATOM     73  C   UNL A   1      38.846  28.588  29.480  1.00  0.00     0.064 A 
ATOM     74  C   UNL A   1      38.011  28.801  30.592  1.00  0.00     0.173 A 
ATOM     75  C   UNL A   1      38.373  29.080  28.247  1.00  0.00     0.173 A 
ATOM     76  F   UNL A   1      38.399  28.401  31.813  1.00  0.00    -0.203 F 
ATOM     77  C   UNL A   1      36.798  29.491  30.483  1.00  0.00     0.198 A 
ATOM     78  C   UNL A   1      37.161  29.765  28.139  1.00  0.00     0.198 A 
ATOM     79  F   UNL A   1      39.122  28.986  27.140  1.00  0.00    -0.203 F 
ATOM     80  F   UNL A   1      36.060  29.727  31.578  1.00  0.00    -0.200 F 
ATOM     81  C   UNL A   1      36.379  29.984  29.258  1.00  0.00     0.200 A 
ATOM     82  F   UNL A   1      36.783  30.262  26.952  1.00  0.00    -0.200 F 
ATOM     83  F   UNL A   1      35.249  30.697  29.162  1.00  0.00    -0.200 F 
ENDBRANCH  49  73
BRANCH  61  84
ATOM     84  C   UNL A   1      44.308  27.573  32.365  1.00  0.00     0.064 A 
ATOM     85  C   UNL A   1      44.142  26.188  32.180  1.00  0.00     0.173 A 
ATOM     86  C   UNL A   1      44.456  28.028  33.681  1.00  0.00     0.173 A 
ATOM     87  F   UNL A   1      44.098  25.655  30.954  1.00  0.00    -0.203 F 
ATOM     88  C   UNL A   1      44.075  25.313  33.263  1.00  0.00     0.198 A 
ATOM     89  C   UNL A   1      44.427  27.148  34.759  1.00  0.00     0.198 A 
ATOM     90  F   UNL A   1      44.674  29.330  33.920  1.00  0.00    -0.203 F 
ATOM     91  F   UNL A   1      43.899  23.999  33.057  1.00  0.00    -0.200 F 
ATOM     92  C   UNL A   1      44.223  25.794  34.553  1.00  0.00     0.200 A 
ATOM     93  F   UNL A   1      44.620  27.613  36.001  1.00  0.00    -0.200 F 
ATOM     94  F   UNL A   1      44.192  24.951  35.594  1.00  0.00    -0.200 F 
ENDBRANCH  61  84
ENDBRANCH  35  36
ENDBRANCH  27  30
ENDBRANCH  25  26
ENDBRANCH  24  25
ENDBRANCH  23  24
ENDBRANCH   1  23
TORSDOF 16
ENDMDL
MODEL 2
REMARK VINA RESULT:     -11.3      2.345      3.442
REMARK SMILES Cc1cc(S(=O)(=O)N2CC(CC(=O)NCCCCCCNC(=O)c3ccc(-c4c5nc(c(-c6c(F)c(F)c(F)c(F)c6F)c6ccc([nH]6)c(-c6c(F)c(F)c(F)c(F)c6F)c6nc(c(-c7c(F)c(F)c(F)c(F)c7F)c7ccc4[nH]7)C=C6)C=C5)cc3)C2)sc1Br
REMARK SMILES IDX 17 1 16 2 15 3 14 4 12 5 13 6 11 8 10 9 8 10 9 11 87 12 5 13
REMARK SMILES IDX 6 14 7 15 4 16 1 17 2 18 3 19 89 20 88 21 90 22 18 23 19 24
REMARK SMILES IDX 20 25 21 26 22 27 23 29 24 30 25 31 86 32 26 33 85 34 27 35
REMARK SMILES IDX 28 36 29 37 79 38 30 39 84 40 78 41 80 42 31 43 83 44 77 45
REMARK SMILES IDX 76 46 32 48 64 49 44 50 63 51 45 52 48 53 62 54 81 55 46 56
REMARK SMILES IDX 47 57 61 59 82 60 49 61 33 62 34 63 42 64 35 65 36 66 40 67
REMARK SMILES IDX 43 68 37 69 38 70 41 71 39 72 65 73 66 74 74 75 67 76 68 77
REMARK SMILES IDX 72 78 75 79 69 80 70 81 73 82 71 83 50 84 51 85 59 86 52 87
REMARK SMILES IDX 53 88 57 89 60 90 54 91 55 92 58 93 56 94
REMARK H PARENT 14 7 21 28 80 47 48 58
REMARK Flexibility Score: inf
ROOT
ATOM      1  C   UNL A   1      36.200  23.075  25.789  1.00  0.00     0.002 C 
ENDROOT
BRANCH   1   2
ATOM      2  C   UNL A   1      35.689  21.655  26.038  1.00  0.00     0.021 C 
BRANCH   2   3
ATOM      3  C   UNL A   1      34.391  21.584  26.849  1.00  0.00     0.116 C 
BRANCH   3   4
ATOM      4  N   UNL A   1      33.556  20.494  26.383  1.00  0.00    -0.356 N 
ATOM      5  C   UNL A   1      32.721  20.425  25.312  1.00  0.00     0.220 C 
ATOM      6  O   UNL A   1      31.991  19.442  25.194  1.00  0.00    -0.275 OA
ATOM      7  H   UNL A   1      33.601  19.676  26.928  1.00  0.00     0.163 HD
BRANCH   5   8
ATOM      8  C   UNL A   1      32.705  21.530  24.278  1.00  0.00     0.106 C 
BRANCH   8   9
ATOM      9  C   UNL A   1      31.755  22.680  24.591  1.00  0.00     0.029 C 
ATOM     10  N   UNL A   1      31.679  24.749  23.982  1.00  0.00    -0.196 NA
ATOM     11  C   UNL A   1      31.230  23.477  23.366  1.00  0.00     0.108 C 
ATOM     12  C   UNL A   1      32.360  24.016  25.066  1.00  0.00     0.108 C 
BRANCH  10  13
ATOM     13  S   UNL A   1      32.259  26.146  23.238  1.00  0.00     0.252 S 
ATOM     14  O   UNL A   1      31.139  26.748  22.527  1.00  0.00    -0.206 OA
ATOM     15  O   UNL A   1      33.507  25.832  22.598  1.00  0.00    -0.206 OA
BRANCH  13  16
ATOM     16  C   UNL A   1      32.660  27.339  24.502  1.00  0.00     0.136 A 
ATOM     17  C   UNL A   1      34.729  29.051  27.144  1.00  0.00     0.046 C 
ATOM     18  C   UNL A   1      33.649  28.670  26.183  1.00  0.00    -0.025 A 
ATOM     19  C   UNL A   1      33.707  27.470  25.394  1.00  0.00     0.038 A 
ATOM     20  C   UNL A   1      32.489  29.357  25.889  1.00  0.00     0.074 A 
ATOM     21  S   UNL A   1      31.537  28.615  24.696  1.00  0.00    -0.115 S 
ATOM     22  Br  UNL A   1      31.960  30.971  26.692  1.00  0.00    -0.039 Br
ENDBRANCH  13  16
ENDBRANCH  10  13
ENDBRANCH   8   9
ENDBRANCH   5   8
ENDBRANCH   3   4
ENDBRANCH   2   3
ENDBRANCH   1   2
BRANCH   1  23
ATOM     23  C   UNL A   1      37.723  23.250  25.867  1.00  0.00     0.002 C 
BRANCH  23  24
ATOM     24  C   UNL A   1      38.572  22.011  25.540  1.00  0.00     0.021 C 
BRANCH  24  25
ATOM     25  C   UNL A   1      39.661  21.735  26.563  1.00  0.00     0.116 C 
BRANCH  25  26
ATOM     26  N   UNL A   1      40.996  21.671  25.961  1.00  0.00    -0.352 N 
ATOM     27  C   UNL A   1      41.931  22.678  25.813  1.00  0.00     0.251 C 
ATOM     28  H   UNL A   1      41.264  20.789  25.615  1.00  0.00     0.163 HD
ATOM     29  O   UNL A   1      42.837  22.584  24.993  1.00  0.00    -0.269 OA
BRANCH  27  30
ATOM     30  C   UNL A   1      41.833  23.868  26.676  1.00  0.00     0.039 A 
ATOM     31  C   UNL A   1      42.462  23.950  27.922  1.00  0.00     0.014 A 
ATOM     32  C   UNL A   1      41.086  24.934  26.193  1.00  0.00     0.014 A 
ATOM     33  C   UNL A   1      42.356  25.138  28.641  1.00  0.00     0.010 A 
ATOM     34  C   UNL A   1      41.206  26.163  26.765  1.00  0.00     0.010 A 
ATOM     35  C   UNL A   1      41.724  26.240  28.045  1.00  0.00    -0.014 A 
BRANCH  35  36
ATOM     36  C   UNL A   1      41.652  27.543  28.681  1.00  0.00     0.031 A 
ATOM     37  C   UNL A   1      42.747  28.453  28.275  1.00  0.00     0.074 A 
ATOM     38  C   UNL A   1      40.560  27.955  29.363  1.00  0.00     0.049 A 
ATOM     39  N   UNL A   1      43.725  28.867  29.009  1.00  0.00    -0.248 NA
ATOM     40  C   UNL A   1      42.878  28.802  26.851  1.00  0.00     0.031 C 
ATOM     41  C   UNL A   1      39.281  27.257  29.558  1.00  0.00     0.029 A 
ATOM     42  N   UNL A   1      40.325  29.156  29.954  1.00  0.00    -0.354 N 
ATOM     43  C   UNL A   1      44.469  29.715  28.197  1.00  0.00     0.074 A 
ATOM     44  C   UNL A   1      44.040  29.458  26.848  1.00  0.00     0.031 C 
ATOM     45  C   UNL A   1      38.349  28.126  30.011  1.00  0.00     0.029 A 
ATOM     46  C   UNL A   1      38.995  29.393  30.294  1.00  0.00     0.049 A 
ATOM     47  H   UNL A   1      41.041  29.809  30.130  1.00  0.00     0.167 HD
ATOM     48  C   UNL A   1      45.159  30.753  28.744  1.00  0.00     0.037 A 
ATOM     49  C   UNL A   1      38.475  30.564  30.746  1.00  0.00     0.037 A 
ATOM     50  C   UNL A   1      45.299  30.575  30.173  1.00  0.00     0.049 A 
ATOM     51  C   UNL A   1      39.612  31.372  31.260  1.00  0.00     0.074 A 
ATOM     52  C   UNL A   1      45.857  29.599  30.977  1.00  0.00     0.029 A 
ATOM     53  N   UNL A   1      44.455  31.287  30.990  1.00  0.00    -0.354 N 
ATOM     54  N   UNL A   1      40.301  31.048  32.319  1.00  0.00    -0.248 NA
ATOM     55  C   UNL A   1      40.291  32.243  30.313  1.00  0.00     0.031 C 
ATOM     56  C   UNL A   1      44.957  29.465  32.077  1.00  0.00     0.029 A 
ATOM     57  C   UNL A   1      43.953  30.424  31.930  1.00  0.00     0.049 A 
ATOM     58  H   UNL A   1      44.247  32.247  30.915  1.00  0.00     0.167 HD
ATOM     59  C   UNL A   1      41.621  31.288  31.964  1.00  0.00     0.074 A 
ATOM     60  C   UNL A   1      41.547  32.091  30.742  1.00  0.00     0.031 C 
ATOM     61  C   UNL A   1      42.638  30.559  32.512  1.00  0.00     0.037 A 
BRANCH  48  62
ATOM     62  C   UNL A   1      45.330  32.102  28.087  1.00  0.00     0.064 A 
ATOM     63  C   UNL A   1      44.181  32.882  27.843  1.00  0.00     0.173 A 
ATOM     64  C   UNL A   1      46.499  32.524  27.416  1.00  0.00     0.173 A 
ATOM     65  F   UNL A   1      43.011  32.574  28.423  1.00  0.00    -0.203 F 
ATOM     66  C   UNL A   1      44.181  33.930  26.920  1.00  0.00     0.198 A 
ATOM     67  C   UNL A   1      46.508  33.604  26.535  1.00  0.00     0.198 A 
ATOM     68  F   UNL A   1      47.652  31.851  27.485  1.00  0.00    -0.203 F 
ATOM     69  F   UNL A   1      43.032  34.548  26.618  1.00  0.00    -0.200 F 
ATOM     70  C   UNL A   1      45.342  34.283  26.259  1.00  0.00     0.200 A 
ATOM     71  F   UNL A   1      47.642  33.922  25.896  1.00  0.00    -0.200 F 
ATOM     72  F   UNL A   1      45.330  35.241  25.323  1.00  0.00    -0.200 F 
ENDBRANCH  48  62
BRANCH  49  73
ATOM     73  C   UNL A   1      37.140  31.155  30.484  1.00  0.00     0.064 A 
ATOM     74  C   UNL A   1      36.289  31.530  31.540  1.00  0.00     0.173 A 
ATOM     75  C   UNL A   1      36.788  31.632  29.205  1.00  0.00     0.173 A 
ATOM     76  F   UNL A   1      36.568  31.154  32.796  1.00  0.00    -0.203 F 
ATOM     77  C   UNL A   1      35.177  32.356  31.334  1.00  0.00     0.198 A 
ATOM     78  C   UNL A   1      35.677  32.453  29.001  1.00  0.00     0.198 A 
ATOM     79  F   UNL A   1      37.569  31.387  28.144  1.00  0.00    -0.203 F 
ATOM     80  F   UNL A   1      34.426  32.741  32.376  1.00  0.00    -0.200 F 
ATOM     81  C   UNL A   1      34.879  32.828  30.066  1.00  0.00     0.200 A 
ATOM     82  F   UNL A   1      35.418  32.927  27.773  1.00  0.00    -0.200 F 
ATOM     83  F   UNL A   1      33.852  33.668  29.877  1.00  0.00    -0.200 F 
ENDBRANCH  49  73
BRANCH  61  84
ATOM     84  C   UNL A   1      42.311  29.670  33.682  1.00  0.00     0.064 A 
ATOM     85  C   UNL A   1      41.880  28.335  33.572  1.00  0.00     0.173 A 
ATOM     86  C   UNL A   1      42.566  30.153  34.972  1.00  0.00     0.173 A 
ATOM     87  F   UNL A   1      41.713  27.760  32.376  1.00  0.00    -0.203 F 
ATOM     88  C   UNL A   1      41.664  27.545  34.700  1.00  0.00     0.198 A 
ATOM     89  C   UNL A   1      42.387  29.350  36.095  1.00  0.00     0.198 A 
ATOM     90  F   UNL A   1      43.034  31.399  35.141  1.00  0.00    -0.203 F 
ATOM     91  F   UNL A   1      41.236  26.280  34.564  1.00  0.00    -0.200 F 
ATOM     92  C   UNL A   1      41.923  28.052  35.961  1.00  0.00     0.200 A 
ATOM     93  F   UNL A   1      42.688  29.830  37.309  1.00  0.00    -0.200 F 
ATOM     94  F   UNL A   1      41.749  27.284  37.045  1.00  0.00    -0.200 F 
ENDBRANCH  61  84
ENDBRANCH  35  36
ENDBRANCH  27  30
ENDBRANCH  25  26
ENDBRANCH  24  25
ENDBRANCH  23  24
ENDBRANCH   1  23
TORSDOF 16
ENDMDL
MODEL 3
REMARK VINA RESULT:     -11.1      1.443      2.061
REMARK SMILES Cc1cc(S(=O)(=O)N2CC(CC(=O)NCCCCCCNC(=O)c3ccc(-c4c5nc(c(-c6c(F)c(F)c(F)c(F)c6F)c6ccc([nH]6)c(-c6c(F)c(F)c(F)c(F)c6F)c6nc(c(-c7c(F)c(F)c(F)c(F)c7F)c7ccc4[nH]7)C=C6)C=C5)cc3)C2)sc1Br
REMARK SMILES IDX 17 1 16 2 15 3 14 4 12 5 13 6 11 8 10 9 8 10 9 11 87 12 5 13
REMARK SMILES IDX 6 14 7 15 4 16 1 17 2 18 3 19 89 20 88 21 90 22 18 23 19 24
REMARK SMILES IDX 20 25 21 26 22 27 23 29 24 30 25 31 86 32 26 33 85 34 27 35
REMARK SMILES IDX 28 36 29 37 79 38 30 39 84 40 78 41 80 42 31 43 83 44 77 45
REMARK SMILES IDX 76 46 32 48 64 49 44 50 63 51 45 52 48 53 62 54 81 55 46 56
REMARK SMILES IDX 47 57 61 59 82 60 49 61 33 62 34 63 42 64 35 65 36 66 40 67
REMARK SMILES IDX 43 68 37 69 38 70 41 71 39 72 65 73 66 74 74 75 67 76 68 77
REMARK SMILES IDX 72 78 75 79 69 80 70 81 73 82 71 83 50 84 51 85 59 86 52 87
REMARK SMILES IDX 53 88 57 89 60 90 54 91 55 92 58 93 56 94
REMARK H PARENT 14 7 21 28 80 47 48 58
REMARK Flexibility Score: inf
ROOT
ATOM      1  C   UNL A   1      41.693  20.293  27.316  1.00  0.00     0.002 C 
ENDROOT
BRANCH   1   2
ATOM      2  C   UNL A   1      40.571  21.331  27.263  1.00  0.00     0.021 C 
BRANCH   2   3
ATOM      3  C   UNL A   1      39.586  21.138  26.106  1.00  0.00     0.116 C 
BRANCH   3   4
ATOM      4  N   UNL A   1      38.965  22.399  25.748  1.00  0.00    -0.356 N 
ATOM      5  C   UNL A   1      37.660  22.696  25.507  1.00  0.00     0.220 C 
ATOM      6  O   UNL A   1      37.380  23.811  25.068  1.00  0.00    -0.275 OA
ATOM      7  H   UNL A   1      39.586  23.158  25.666  1.00  0.00     0.163 HD
BRANCH   5   8
ATOM      8  C   UNL A   1      36.576  21.680  25.791  1.00  0.00     0.106 C 
BRANCH   8   9
ATOM      9  C   UNL A   1      35.338  21.807  24.910  1.00  0.00     0.029 C 
ATOM     10  N   UNL A   1      33.311  22.447  25.285  1.00  0.00    -0.196 NA
ATOM     11  C   UNL A   1      34.580  23.160  25.000  1.00  0.00     0.108 C 
ATOM     12  C   UNL A   1      34.027  21.162  25.400  1.00  0.00     0.108 C 
BRANCH  10  13
ATOM     13  S   UNL A   1      32.012  22.927  26.247  1.00  0.00     0.252 S 
ATOM     14  O   UNL A   1      32.495  22.983  27.620  1.00  0.00    -0.206 OA
ATOM     15  O   UNL A   1      30.857  22.164  25.859  1.00  0.00    -0.206 OA
BRANCH  13  16
ATOM     16  C   UNL A   1      31.615  24.622  25.859  1.00  0.00     0.136 A 
ATOM     17  C   UNL A   1      31.638  28.372  26.212  1.00  0.00     0.046 C 
ATOM     18  C   UNL A   1      31.407  26.972  25.745  1.00  0.00    -0.025 A 
ATOM     19  C   UNL A   1      31.841  25.826  26.498  1.00  0.00     0.038 A 
ATOM     20  C   UNL A   1      30.789  26.551  24.586  1.00  0.00     0.074 A 
ATOM     21  S   UNL A   1      30.768  24.865  24.392  1.00  0.00    -0.115 S 
ATOM     22  Br  UNL A   1      30.030  27.688  23.297  1.00  0.00    -0.039 Br
ENDBRANCH  13  16
ENDBRANCH  10  13
ENDBRANCH   8   9
ENDBRANCH   5   8
ENDBRANCH   3   4
ENDBRANCH   2   3
ENDBRANCH   1   2
BRANCH   1  23
ATOM     23  C   UNL A   1      41.751  19.324  26.126  1.00  0.00     0.002 C 
BRANCH  23  24
ATOM     24  C   UNL A   1      42.743  18.157  26.242  1.00  0.00     0.021 C 
BRANCH  24  25
ATOM     25  C   UNL A   1      44.197  18.594  26.250  1.00  0.00     0.116 C 
BRANCH  25  26
ATOM     26  N   UNL A   1      44.748  18.746  24.900  1.00  0.00    -0.352 N 
ATOM     27  C   UNL A   1      44.756  19.863  24.086  1.00  0.00     0.251 C 
ATOM     28  H   UNL A   1      45.171  17.942  24.521  1.00  0.00     0.163 HD
ATOM     29  O   UNL A   1      44.919  19.762  22.875  1.00  0.00    -0.269 OA
BRANCH  27  30
ATOM     30  C   UNL A   1      44.580  21.190  24.702  1.00  0.00     0.039 A 
ATOM     31  C   UNL A   1      43.517  22.037  24.376  1.00  0.00     0.014 A 
ATOM     32  C   UNL A   1      45.522  21.573  25.648  1.00  0.00     0.014 A 
ATOM     33  C   UNL A   1      43.404  23.250  25.052  1.00  0.00     0.010 A 
ATOM     34  C   UNL A   1      45.262  22.617  26.481  1.00  0.00     0.010 A 
ATOM     35  C   UNL A   1      44.287  23.524  26.108  1.00  0.00    -0.014 A 
BRANCH  35  36
ATOM     36  C   UNL A   1      44.183  24.717  26.929  1.00  0.00     0.031 A 
ATOM     37  C   UNL A   1      45.248  25.709  26.658  1.00  0.00     0.074 A 
ATOM     38  C   UNL A   1      43.084  24.992  27.667  1.00  0.00     0.049 A 
ATOM     39  N   UNL A   1      46.219  26.039  27.441  1.00  0.00    -0.248 NA
ATOM     40  C   UNL A   1      45.358  26.267  25.300  1.00  0.00     0.031 C 
ATOM     41  C   UNL A   1      41.827  24.236  27.762  1.00  0.00     0.029 A 
ATOM     42  N   UNL A   1      42.819  26.086  28.430  1.00  0.00    -0.354 N 
ATOM     43  C   UNL A   1      46.933  27.018  26.761  1.00  0.00     0.074 A 
ATOM     44  C   UNL A   1      46.501  26.950  25.390  1.00  0.00     0.031 C 
ATOM     45  C   UNL A   1      40.874  25.001  28.341  1.00  0.00     0.029 A 
ATOM     46  C   UNL A   1      41.486  26.231  28.804  1.00  0.00     0.049 A 
ATOM     47  H   UNL A   1      43.517  26.727  28.697  1.00  0.00     0.167 HD
ATOM     48  C   UNL A   1      47.596  27.985  27.452  1.00  0.00     0.037 A 
ATOM     49  C   UNL A   1      40.935  27.307  29.425  1.00  0.00     0.037 A 
ATOM     50  C   UNL A   1      47.752  27.604  28.838  1.00  0.00     0.049 A 
ATOM     51  C   UNL A   1      42.053  28.064  30.048  1.00  0.00     0.074 A 
ATOM     52  C   UNL A   1      48.344  26.537  29.489  1.00  0.00     0.029 A 
ATOM     53  N   UNL A   1      46.894  28.162  29.754  1.00  0.00    -0.354 N 
ATOM     54  N   UNL A   1      42.758  27.610  31.047  1.00  0.00    -0.248 NA
ATOM     55  C   UNL A   1      42.700  29.085  29.238  1.00  0.00     0.031 C 
ATOM     56  C   UNL A   1      47.456  26.217  30.560  1.00  0.00     0.029 A 
ATOM     57  C   UNL A   1      46.424  27.157  30.559  1.00  0.00     0.049 A 
ATOM     58  H   UNL A   1      46.658  29.117  29.821  1.00  0.00     0.167 HD
ATOM     59  C   UNL A   1      44.068  27.937  30.726  1.00  0.00     0.074 A 
ATOM     60  C   UNL A   1      43.962  28.908  29.636  1.00  0.00     0.031 C 
ATOM     61  C   UNL A   1      45.110  27.167  31.158  1.00  0.00     0.037 A 
BRANCH  48  62
ATOM     62  C   UNL A   1      47.724  29.420  27.000  1.00  0.00     0.064 A 
ATOM     63  C   UNL A   1      48.977  30.055  27.122  1.00  0.00     0.173 A 
ATOM     64  C   UNL A   1      46.633  30.282  26.752  1.00  0.00     0.173 A 
ATOM     65  F   UNL A   1      50.084  29.338  27.362  1.00  0.00    -0.203 F 
ATOM     66  C   UNL A   1      49.106  31.445  27.104  1.00  0.00     0.198 A 
ATOM     67  C   UNL A   1      46.774  31.667  26.681  1.00  0.00     0.198 A 
ATOM     68  F   UNL A   1      45.371  29.846  26.681  1.00  0.00    -0.203 F 
ATOM     69  F   UNL A   1      50.295  32.004  27.367  1.00  0.00    -0.200 F 
ATOM     70  C   UNL A   1      48.003  32.251  26.894  1.00  0.00     0.200 A 
ATOM     71  F   UNL A   1      45.689  32.430  26.490  1.00  0.00    -0.200 F 
ATOM     72  F   UNL A   1      48.112  33.584  26.946  1.00  0.00    -0.200 F 
ENDBRANCH  48  62
BRANCH  49  73
ATOM     73  C   UNL A   1      39.582  27.892  29.257  1.00  0.00     0.064 A 
ATOM     74  C   UNL A   1      38.723  28.067  30.356  1.00  0.00     0.173 A 
ATOM     75  C   UNL A   1      39.213  28.555  28.070  1.00  0.00     0.173 A 
ATOM     76  F   UNL A   1      39.016  27.505  31.538  1.00  0.00    -0.203 F 
ATOM     77  C   UNL A   1      37.585  28.880  30.281  1.00  0.00     0.198 A 
ATOM     78  C   UNL A   1      38.076  29.363  27.995  1.00  0.00     0.198 A 
ATOM     79  F   UNL A   1      39.998  28.505  26.984  1.00  0.00    -0.203 F 
ATOM     80  F   UNL A   1      36.824  29.071  31.370  1.00  0.00    -0.200 F 
ATOM     81  C   UNL A   1      37.270  29.538  29.104  1.00  0.00     0.200 A 
ATOM     82  F   UNL A   1      37.800  30.018  26.857  1.00  0.00    -0.200 F 
ATOM     83  F   UNL A   1      36.217  30.366  29.048  1.00  0.00    -0.200 F 
ENDBRANCH  49  73
BRANCH  61  84
ATOM     84  C   UNL A   1      44.817  26.106  32.187  1.00  0.00     0.064 A 
ATOM     85  C   UNL A   1      44.718  26.344  33.569  1.00  0.00     0.173 A 
ATOM     86  C   UNL A   1      44.499  24.818  31.737  1.00  0.00     0.173 A 
ATOM     87  F   UNL A   1      44.901  27.569  34.075  1.00  0.00    -0.203 F 
ATOM     88  C   UNL A   1      44.371  25.328  34.459  1.00  0.00     0.198 A 
ATOM     89  C   UNL A   1      44.115  23.815  32.623  1.00  0.00     0.198 A 
ATOM     90  F   UNL A   1      44.519  24.542  30.423  1.00  0.00    -0.203 F 
ATOM     91  F   UNL A   1      44.301  25.581  35.775  1.00  0.00    -0.200 F 
ATOM     92  C   UNL A   1      44.065  24.065  33.984  1.00  0.00     0.200 A 
ATOM     93  F   UNL A   1      43.772  22.609  32.151  1.00  0.00    -0.200 F 
ATOM     94  F   UNL A   1      43.698  23.096  34.833  1.00  0.00    -0.200 F 
ENDBRANCH  61  84
ENDBRANCH  35  36
ENDBRANCH  27  30
ENDBRANCH  25  26
ENDBRANCH  24  25
ENDBRANCH  23  24
ENDBRANCH   1  23
TORSDOF 16
ENDMDL
