MODEL 1
REMARK VINA RESULT:     -11.3      0.000      0.000
REMARK SMILES C#CCN(CC(=O)NCCCCCCNC(=O)c1ccc(-c2c3nc(c(-c4c(F)c(F)c(F)c(F)c4F)c4ccc([nH]4)c(-c4c(F)c(F)c(F)c(F)c4F)c4nc(c(-c5c(F)c(F)c(F)c(F)c5F)c5ccc2[nH]5)C=C4)C=C3)cc1)C(=O)Nc1cc(Br)ccc1C
REMARK SMILES IDX 11 1 10 2 9 3 8 4 6 5 7 6 5 8 4 9 3 10 2 11 1 12 81 13 82 14
REMARK SMILES IDX 83 15 84 17 85 18 90 19 86 20 89 21 91 22 87 23 88 24 12 25
REMARK SMILES IDX 13 26 14 27 15 28 16 29 17 31 18 32 19 33 80 34 20 35 79 36
REMARK SMILES IDX 21 37 22 38 23 39 73 40 24 41 78 42 72 43 74 44 25 45 77 46
REMARK SMILES IDX 71 47 70 48 26 50 58 51 38 52 57 53 39 54 42 55 56 56 75 57
REMARK SMILES IDX 40 58 41 59 55 61 76 62 43 63 27 64 28 65 36 66 29 67 30 68
REMARK SMILES IDX 34 69 37 70 31 71 32 72 35 73 33 74 59 75 60 76 68 77 61 78
REMARK SMILES IDX 62 79 66 80 69 81 63 82 64 83 67 84 65 85 44 86 45 87 53 88
REMARK SMILES IDX 46 89 47 90 51 91 54 92 48 93 49 94 52 95 50 96
REMARK H PARENT 8 7 83 16 15 30 74 49 42 60
REMARK Flexibility Score: inf
ROOT
ATOM      1  C   UNL A   1      31.598  30.099  25.251  1.00  0.00     0.002 C 
ENDROOT
BRANCH   1   2
ATOM      2  C   UNL A   1      32.861  29.322  24.858  1.00  0.00     0.021 C 
BRANCH   2   3
ATOM      3  C   UNL A   1      32.627  27.865  24.451  1.00  0.00     0.116 C 
BRANCH   3   4
ATOM      4  N   UNL A   1      33.144  27.502  23.151  1.00  0.00    -0.355 N 
ATOM      5  C   UNL A   1      33.459  26.313  22.568  1.00  0.00     0.239 C 
ATOM      6  O   UNL A   1      33.486  26.332  21.329  1.00  0.00    -0.273 OA
ATOM      7  H   UNL A   1      33.303  28.276  22.565  1.00  0.00     0.163 HD
BRANCH   5   8
ATOM      8  C   UNL A   1      33.611  24.965  23.308  1.00  0.00     0.222 C 
BRANCH   8   9
ATOM      9  N   UNL A   1      32.547  24.500  24.203  1.00  0.00    -0.304 N 
BRANCH   9  10
ATOM     10  C   UNL A   1      31.282  24.196  23.553  1.00  0.00     0.211 C 
BRANCH  10  11
ATOM     11  C   UNL A   1      30.242  25.286  23.752  1.00  0.00    -0.085 C 
ATOM     12  C   UNL A   1      29.350  26.222  23.922  1.00  0.00     0.006 C 
ENDBRANCH  10  11
ENDBRANCH   9  10
BRANCH   9  13
ATOM     13  C   UNL A   1      32.640  24.176  25.548  1.00  0.00     0.323 C 
ATOM     14  O   UNL A   1      32.251  24.950  26.427  1.00  0.00    -0.248 OA
ATOM     15  N   UNL A   1      32.966  22.916  25.949  1.00  0.00    -0.307 N 
ATOM     16  H   UNL A   1      32.388  22.570  26.667  1.00  0.00     0.171 HD
BRANCH  15  17
ATOM     17  C   UNL A   1      33.960  22.016  25.546  1.00  0.00     0.046 A 
ATOM     18  C   UNL A   1      35.290  22.415  25.715  1.00  0.00     0.042 A 
ATOM     19  C   UNL A   1      33.686  20.792  24.925  1.00  0.00    -0.027 A 
ATOM     20  C   UNL A   1      36.324  21.517  25.453  1.00  0.00     0.020 A 
ATOM     21  C   UNL A   1      34.729  19.871  24.739  1.00  0.00     0.007 A 
ATOM     22  C   UNL A   1      32.357  20.512  24.289  1.00  0.00     0.046 C 
ATOM     23  Br  UNL A   1      38.121  22.058  25.679  1.00  0.00    -0.051 Br
ATOM     24  C   UNL A   1      36.044  20.225  25.026  1.00  0.00     0.016 A 
ENDBRANCH  15  17
ENDBRANCH   9  13
ENDBRANCH   8   9
ENDBRANCH   5   8
ENDBRANCH   3   4
ENDBRANCH   2   3
ENDBRANCH   1   2
BRANCH   1  25
ATOM     25  C   UNL A   1      31.583  30.661  26.673  1.00  0.00     0.002 C 
BRANCH  25  26
ATOM     26  C   UNL A   1      31.451  32.179  26.769  1.00  0.00     0.021 C 
BRANCH  26  27
ATOM     27  C   UNL A   1      32.726  32.892  27.196  1.00  0.00     0.116 C 
BRANCH  27  28
ATOM     28  N   UNL A   1      32.469  34.266  27.591  1.00  0.00    -0.352 N 
ATOM     29  C   UNL A   1      33.004  34.971  28.642  1.00  0.00     0.251 C 
ATOM     30  H   UNL A   1      31.825  34.758  27.032  1.00  0.00     0.163 HD
ATOM     31  O   UNL A   1      32.518  36.043  28.983  1.00  0.00    -0.269 OA
BRANCH  29  32
ATOM     32  C   UNL A   1      34.162  34.416  29.376  1.00  0.00     0.039 A 
ATOM     33  C   UNL A   1      33.942  33.728  30.570  1.00  0.00     0.014 A 
ATOM     34  C   UNL A   1      35.461  34.574  28.883  1.00  0.00     0.014 A 
ATOM     35  C   UNL A   1      35.022  33.153  31.244  1.00  0.00     0.010 A 
ATOM     36  C   UNL A   1      36.521  33.923  29.505  1.00  0.00     0.010 A 
ATOM     37  C   UNL A   1      36.316  33.220  30.702  1.00  0.00    -0.014 A 
BRANCH  37  38
ATOM     38  C   UNL A   1      37.473  32.591  31.388  1.00  0.00     0.031 A 
ATOM     39  C   UNL A   1      38.208  31.454  30.731  1.00  0.00     0.074 A 
ATOM     40  C   UNL A   1      37.828  33.002  32.621  1.00  0.00     0.049 A 
ATOM     41  N   UNL A   1      39.199  30.732  31.190  1.00  0.00    -0.248 NA
ATOM     42  C   UNL A   1      37.748  31.056  29.390  1.00  0.00     0.031 C 
ATOM     43  C   UNL A   1      37.167  34.064  33.382  1.00  0.00     0.029 A 
ATOM     44  N   UNL A   1      38.828  32.570  33.456  1.00  0.00    -0.354 N 
ATOM     45  C   UNL A   1      39.468  29.792  30.202  1.00  0.00     0.074 A 
ATOM     46  C   UNL A   1      38.498  29.992  29.150  1.00  0.00     0.031 C 
ATOM     47  C   UNL A   1      37.795  34.218  34.559  1.00  0.00     0.029 A 
ATOM     48  C   UNL A   1      38.874  33.240  34.654  1.00  0.00     0.049 A 
ATOM     49  H   UNL A   1      39.454  31.848  33.218  1.00  0.00     0.167 HD
ATOM     50  C   UNL A   1      40.454  28.864  30.165  1.00  0.00     0.037 A 
ATOM     51  C   UNL A   1      39.690  33.077  35.713  1.00  0.00     0.037 A 
ATOM     52  C   UNL A   1      41.432  28.683  31.206  1.00  0.00     0.049 A 
ATOM     53  C   UNL A   1      40.767  32.025  35.654  1.00  0.00     0.074 A 
ATOM     54  C   UNL A   1      42.505  27.810  31.239  1.00  0.00     0.029 A 
ATOM     55  N   UNL A   1      41.453  29.389  32.400  1.00  0.00    -0.354 N 
ATOM     56  N   UNL A   1      41.057  31.190  34.686  1.00  0.00    -0.248 NA
ATOM     57  C   UNL A   1      41.635  31.901  36.832  1.00  0.00     0.031 C 
ATOM     58  C   UNL A   1      43.139  27.946  32.477  1.00  0.00     0.029 A 
ATOM     59  C   UNL A   1      42.504  28.951  33.189  1.00  0.00     0.049 A 
ATOM     60  H   UNL A   1      40.815  30.096  32.650  1.00  0.00     0.167 HD
ATOM     61  C   UNL A   1      42.158  30.466  35.122  1.00  0.00     0.074 A 
ATOM     62  C   UNL A   1      42.494  30.971  36.437  1.00  0.00     0.031 C 
ATOM     63  C   UNL A   1      42.832  29.472  34.491  1.00  0.00     0.037 A 
BRANCH  50  64
ATOM     64  C   UNL A   1      40.524  27.972  28.957  1.00  0.00     0.064 A 
ATOM     65  C   UNL A   1      39.788  26.780  28.876  1.00  0.00     0.173 A 
ATOM     66  C   UNL A   1      41.314  28.329  27.854  1.00  0.00     0.173 A 
ATOM     67  F   UNL A   1      39.027  26.385  29.907  1.00  0.00    -0.203 F 
ATOM     68  C   UNL A   1      39.864  25.965  27.748  1.00  0.00     0.198 A 
ATOM     69  C   UNL A   1      41.360  27.530  26.714  1.00  0.00     0.198 A 
ATOM     70  F   UNL A   1      42.034  29.461  27.875  1.00  0.00    -0.203 F 
ATOM     71  F   UNL A   1      39.194  24.804  27.717  1.00  0.00    -0.200 F 
ATOM     72  C   UNL A   1      40.643  26.345  26.667  1.00  0.00     0.200 A 
ATOM     73  F   UNL A   1      42.101  27.907  25.663  1.00  0.00    -0.200 F 
ATOM     74  F   UNL A   1      40.708  25.564  25.579  1.00  0.00    -0.200 F 
ENDBRANCH  50  64
BRANCH  51  75
ATOM     75  C   UNL A   1      39.536  33.941  36.914  1.00  0.00     0.064 A 
ATOM     76  C   UNL A   1      40.148  35.200  36.980  1.00  0.00     0.173 A 
ATOM     77  C   UNL A   1      38.787  33.521  38.024  1.00  0.00     0.173 A 
ATOM     78  F   UNL A   1      40.891  35.639  35.953  1.00  0.00    -0.203 F 
ATOM     79  C   UNL A   1      40.041  35.995  38.120  1.00  0.00     0.198 A 
ATOM     80  C   UNL A   1      38.653  34.332  39.150  1.00  0.00     0.198 A 
ATOM     81  F   UNL A   1      38.176  32.329  38.011  1.00  0.00    -0.203 F 
ATOM     82  F   UNL A   1      40.682  37.171  38.176  1.00  0.00    -0.200 F 
ATOM     83  C   UNL A   1      39.289  35.563  39.201  1.00  0.00     0.200 A 
ATOM     84  F   UNL A   1      37.911  33.917  40.186  1.00  0.00    -0.200 F 
ATOM     85  F   UNL A   1      39.183  36.329  40.296  1.00  0.00    -0.200 F 
ENDBRANCH  51  75
BRANCH  63  86
ATOM     86  C   UNL A   1      44.029  28.895  35.192  1.00  0.00     0.064 A 
ATOM     87  C   UNL A   1      45.306  29.461  35.066  1.00  0.00     0.173 A 
ATOM     88  C   UNL A   1      43.886  27.783  36.036  1.00  0.00     0.173 A 
ATOM     89  F   UNL A   1      45.500  30.517  34.260  1.00  0.00    -0.203 F 
ATOM     90  C   UNL A   1      46.400  28.919  35.735  1.00  0.00     0.198 A 
ATOM     91  C   UNL A   1      44.974  27.265  36.732  1.00  0.00     0.198 A 
ATOM     92  F   UNL A   1      42.685  27.208  36.201  1.00  0.00    -0.203 F 
ATOM     93  F   UNL A   1      47.620  29.443  35.555  1.00  0.00    -0.200 F 
ATOM     94  C   UNL A   1      46.232  27.826  36.573  1.00  0.00     0.200 A 
ATOM     95  F   UNL A   1      44.807  26.222  37.556  1.00  0.00    -0.200 F 
ATOM     96  F   UNL A   1      47.284  27.312  37.224  1.00  0.00    -0.200 F 
ENDBRANCH  63  86
ENDBRANCH  37  38
ENDBRANCH  29  32
ENDBRANCH  27  28
ENDBRANCH  26  27
ENDBRANCH  25  26
ENDBRANCH   1  25
TORSDOF 18
ENDMDL
MODEL 2
REMARK VINA RESULT:     -11.3      3.651      8.739
REMARK SMILES C#CCN(CC(=O)NCCCCCCNC(=O)c1ccc(-c2c3nc(c(-c4c(F)c(F)c(F)c(F)c4F)c4ccc([nH]4)c(-c4c(F)c(F)c(F)c(F)c4F)c4nc(c(-c5c(F)c(F)c(F)c(F)c5F)c5ccc2[nH]5)C=C4)C=C3)cc1)C(=O)Nc1cc(Br)ccc1C
REMARK SMILES IDX 11 1 10 2 9 3 8 4 6 5 7 6 5 8 4 9 3 10 2 11 1 12 81 13 82 14
REMARK SMILES IDX 83 15 84 17 85 18 90 19 86 20 89 21 91 22 87 23 88 24 12 25
REMARK SMILES IDX 13 26 14 27 15 28 16 29 17 31 18 32 19 33 80 34 20 35 79 36
REMARK SMILES IDX 21 37 22 38 23 39 73 40 24 41 78 42 72 43 74 44 25 45 77 46
REMARK SMILES IDX 71 47 70 48 26 50 58 51 38 52 57 53 39 54 42 55 56 56 75 57
REMARK SMILES IDX 40 58 41 59 55 61 76 62 43 63 27 64 28 65 36 66 29 67 30 68
REMARK SMILES IDX 34 69 37 70 31 71 32 72 35 73 33 74 59 75 60 76 68 77 61 78
REMARK SMILES IDX 62 79 66 80 69 81 63 82 64 83 67 84 65 85 44 86 45 87 53 88
REMARK SMILES IDX 46 89 47 90 51 91 54 92 48 93 49 94 52 95 50 96
REMARK H PARENT 8 7 83 16 15 30 74 49 42 60
REMARK Flexibility Score: inf
ROOT
ATOM      1  C   UNL A   1      32.962  28.191  23.435  1.00  0.00     0.002 C 
ENDROOT
BRANCH   1   2
ATOM      2  C   UNL A   1      31.655  27.456  23.110  1.00  0.00     0.021 C 
BRANCH   2   3
ATOM      3  C   UNL A   1      31.629  25.976  23.496  1.00  0.00     0.116 C 
BRANCH   3   4
ATOM      4  N   UNL A   1      31.337  25.710  24.887  1.00  0.00    -0.355 N 
ATOM      5  C   UNL A   1      31.189  24.567  25.610  1.00  0.00     0.239 C 
ATOM      6  O   UNL A   1      31.347  24.699  26.832  1.00  0.00    -0.273 OA
ATOM      7  H   UNL A   1      31.219  26.527  25.423  1.00  0.00     0.163 HD
BRANCH   5   8
ATOM      8  C   UNL A   1      31.013  23.150  25.018  1.00  0.00     0.222 C 
BRANCH   8   9
ATOM      9  N   UNL A   1      32.192  22.362  24.646  1.00  0.00    -0.304 N 
BRANCH   9  10
ATOM     10  C   UNL A   1      32.533  21.289  25.568  1.00  0.00     0.211 C 
BRANCH  10  11
ATOM     11  C   UNL A   1      33.247  21.788  26.813  1.00  0.00    -0.085 C 
ATOM     12  C   UNL A   1      33.860  22.216  27.881  1.00  0.00     0.006 C 
ENDBRANCH  10  11
ENDBRANCH   9  10
BRANCH   9  13
ATOM     13  C   UNL A   1      32.921  22.416  23.469  1.00  0.00     0.323 C 
ATOM     14  O   UNL A   1      32.417  22.115  22.383  1.00  0.00    -0.248 OA
ATOM     15  N   UNL A   1      34.151  22.999  23.425  1.00  0.00    -0.307 N 
ATOM     16  H   UNL A   1      34.272  23.606  22.659  1.00  0.00     0.171 HD
BRANCH  15  17
ATOM     17  C   UNL A   1      35.277  22.908  24.253  1.00  0.00     0.046 A 
ATOM     18  C   UNL A   1      35.963  21.689  24.265  1.00  0.00     0.042 A 
ATOM     19  C   UNL A   1      35.693  23.937  25.106  1.00  0.00    -0.027 A 
ATOM     20  C   UNL A   1      37.162  21.574  24.967  1.00  0.00     0.020 A 
ATOM     21  C   UNL A   1      36.938  23.834  25.744  1.00  0.00     0.007 A 
ATOM     22  C   UNL A   1      34.771  25.052  25.502  1.00  0.00     0.046 C 
ATOM     23  Br  UNL A   1      38.088  19.926  24.985  1.00  0.00    -0.051 Br
ATOM     24  C   UNL A   1      37.685  22.662  25.655  1.00  0.00     0.016 A 
ENDBRANCH  15  17
ENDBRANCH   9  13
ENDBRANCH   8   9
ENDBRANCH   5   8
ENDBRANCH   3   4
ENDBRANCH   2   3
ENDBRANCH   1   2
BRANCH   1  25
ATOM     25  C   UNL A   1      33.016  28.869  24.806  1.00  0.00     0.002 C 
BRANCH  25  26
ATOM     26  C   UNL A   1      34.075  28.320  25.759  1.00  0.00     0.021 C 
BRANCH  26  27
ATOM     27  C   UNL A   1      33.765  28.539  27.232  1.00  0.00     0.116 C 
BRANCH  27  28
ATOM     28  N   UNL A   1      33.677  29.951  27.561  1.00  0.00    -0.352 N 
ATOM     29  C   UNL A   1      34.580  30.733  28.240  1.00  0.00     0.251 C 
ATOM     30  H   UNL A   1      32.861  30.410  27.256  1.00  0.00     0.163 HD
ATOM     31  O   UNL A   1      34.262  31.846  28.638  1.00  0.00    -0.269 OA
BRANCH  29  32
ATOM     32  C   UNL A   1      35.938  30.211  28.506  1.00  0.00     0.039 A 
ATOM     33  C   UNL A   1      36.904  30.288  27.501  1.00  0.00     0.014 A 
ATOM     34  C   UNL A   1      36.256  29.649  29.747  1.00  0.00     0.014 A 
ATOM     35  C   UNL A   1      38.204  29.848  27.758  1.00  0.00     0.010 A 
ATOM     36  C   UNL A   1      37.572  29.298  30.030  1.00  0.00     0.010 A 
ATOM     37  C   UNL A   1      38.556  29.377  29.034  1.00  0.00    -0.014 A 
BRANCH  37  38
ATOM     38  C   UNL A   1      39.941  28.932  29.335  1.00  0.00     0.031 A 
ATOM     39  C   UNL A   1      40.862  29.825  30.122  1.00  0.00     0.074 A 
ATOM     40  C   UNL A   1      40.387  27.754  28.857  1.00  0.00     0.049 A 
ATOM     41  N   UNL A   1      42.120  29.648  30.436  1.00  0.00    -0.248 NA
ATOM     42  C   UNL A   1      40.300  31.101  30.596  1.00  0.00     0.031 C 
ATOM     43  C   UNL A   1      39.606  26.820  28.044  1.00  0.00     0.029 A 
ATOM     44  N   UNL A   1      41.610  27.144  28.978  1.00  0.00    -0.354 N 
ATOM     45  C   UNL A   1      42.500  30.791  31.128  1.00  0.00     0.074 A 
ATOM     46  C   UNL A   1      41.362  31.682  31.133  1.00  0.00     0.031 C 
ATOM     47  C   UNL A   1      40.359  25.745  27.763  1.00  0.00     0.029 A 
ATOM     48  C   UNL A   1      41.688  25.932  28.337  1.00  0.00     0.049 A 
ATOM     49  H   UNL A   1      42.362  27.538  29.478  1.00  0.00     0.167 HD
ATOM     50  C   UNL A   1      43.683  31.062  31.728  1.00  0.00     0.037 A 
ATOM     51  C   UNL A   1      42.718  25.072  28.220  1.00  0.00     0.037 A 
ATOM     52  C   UNL A   1      44.808  30.162  31.740  1.00  0.00     0.049 A 
ATOM     53  C   UNL A   1      44.030  25.405  28.881  1.00  0.00     0.074 A 
ATOM     54  C   UNL A   1      46.031  30.318  32.367  1.00  0.00     0.029 A 
ATOM     55  N   UNL A   1      44.844  28.938  31.088  1.00  0.00    -0.354 N 
ATOM     56  N   UNL A   1      44.356  26.458  29.593  1.00  0.00    -0.248 NA
ATOM     57  C   UNL A   1      45.114  24.426  28.731  1.00  0.00     0.031 C 
ATOM     58  C   UNL A   1      46.828  29.214  32.047  1.00  0.00     0.029 A 
ATOM     59  C   UNL A   1      46.080  28.340  31.276  1.00  0.00     0.049 A 
ATOM     60  H   UNL A   1      44.102  28.551  30.569  1.00  0.00     0.167 HD
ATOM     61  C   UNL A   1      45.667  26.252  30.002  1.00  0.00     0.074 A 
ATOM     62  C   UNL A   1      46.072  24.967  29.471  1.00  0.00     0.031 C 
ATOM     63  C   UNL A   1      46.464  27.055  30.750  1.00  0.00     0.037 A 
BRANCH  50  64
ATOM     64  C   UNL A   1      43.824  32.386  32.426  1.00  0.00     0.064 A 
ATOM     65  C   UNL A   1      43.487  32.548  33.778  1.00  0.00     0.173 A 
ATOM     66  C   UNL A   1      44.333  33.500  31.741  1.00  0.00     0.173 A 
ATOM     67  F   UNL A   1      42.985  31.519  34.477  1.00  0.00    -0.203 F 
ATOM     68  C   UNL A   1      43.626  33.782  34.410  1.00  0.00     0.198 A 
ATOM     69  C   UNL A   1      44.503  34.723  32.385  1.00  0.00     0.198 A 
ATOM     70  F   UNL A   1      44.677  33.400  30.448  1.00  0.00    -0.203 F 
ATOM     71  F   UNL A   1      43.245  33.924  35.687  1.00  0.00    -0.200 F 
ATOM     72  C   UNL A   1      44.141  34.865  33.715  1.00  0.00     0.200 A 
ATOM     73  F   UNL A   1      45.017  35.765  31.716  1.00  0.00    -0.200 F 
ATOM     74  F   UNL A   1      44.281  36.050  34.327  1.00  0.00    -0.200 F 
ENDBRANCH  50  64
BRANCH  51  75
ATOM     75  C   UNL A   1      42.550  23.805  27.461  1.00  0.00     0.064 A 
ATOM     76  C   UNL A   1      42.002  22.666  28.069  1.00  0.00     0.173 A 
ATOM     77  C   UNL A   1      42.945  23.699  26.118  1.00  0.00     0.173 A 
ATOM     78  F   UNL A   1      41.628  22.710  29.356  1.00  0.00    -0.203 F 
ATOM     79  C   UNL A   1      41.881  21.465  27.373  1.00  0.00     0.198 A 
ATOM     80  C   UNL A   1      42.792  22.506  25.414  1.00  0.00     0.198 A 
ATOM     81  F   UNL A   1      43.468  24.759  25.486  1.00  0.00    -0.203 F 
ATOM     82  F   UNL A   1      41.404  20.378  27.997  1.00  0.00    -0.200 F 
ATOM     83  C   UNL A   1      42.270  21.387  26.046  1.00  0.00     0.200 A 
ATOM     84  F   UNL A   1      43.154  22.441  24.126  1.00  0.00    -0.200 F 
ATOM     85  F   UNL A   1      42.151  20.232  25.376  1.00  0.00    -0.200 F 
ENDBRANCH  51  75
BRANCH  63  86
ATOM     86  C   UNL A   1      47.839  26.549  31.080  1.00  0.00     0.064 A 
ATOM     87  C   UNL A   1      48.093  25.791  32.234  1.00  0.00     0.173 A 
ATOM     88  C   UNL A   1      48.911  26.791  30.207  1.00  0.00     0.173 A 
ATOM     89  F   UNL A   1      47.107  25.543  33.109  1.00  0.00    -0.203 F 
ATOM     90  C   UNL A   1      49.373  25.320  32.515  1.00  0.00     0.198 A 
ATOM     91  C   UNL A   1      50.181  26.288  30.472  1.00  0.00     0.198 A 
ATOM     92  F   UNL A   1      48.721  27.501  29.085  1.00  0.00    -0.203 F 
ATOM     93  F   UNL A   1      49.602  24.646  33.650  1.00  0.00    -0.200 F 
ATOM     94  C   UNL A   1      50.414  25.562  31.630  1.00  0.00     0.200 A 
ATOM     95  F   UNL A   1      51.181  26.507  29.607  1.00  0.00    -0.200 F 
ATOM     96  F   UNL A   1      51.642  25.099  31.897  1.00  0.00    -0.200 F 
ENDBRANCH  63  86
ENDBRANCH  37  38
ENDBRANCH  29  32
ENDBRANCH  27  28
ENDBRANCH  26  27
ENDBRANCH  25  26
ENDBRANCH   1  25
TORSDOF 18
ENDMDL
MODEL 3
REMARK VINA RESULT:     -11.1      2.137      3.474
REMARK SMILES C#CCN(CC(=O)NCCCCCCNC(=O)c1ccc(-c2c3nc(c(-c4c(F)c(F)c(F)c(F)c4F)c4ccc([nH]4)c(-c4c(F)c(F)c(F)c(F)c4F)c4nc(c(-c5c(F)c(F)c(F)c(F)c5F)c5ccc2[nH]5)C=C4)C=C3)cc1)C(=O)Nc1cc(Br)ccc1C
REMARK SMILES IDX 11 1 10 2 9 3 8 4 6 5 7 6 5 8 4 9 3 10 2 11 1 12 81 13 82 14
REMARK SMILES IDX 83 15 84 17 85 18 90 19 86 20 89 21 91 22 87 23 88 24 12 25
REMARK SMILES IDX 13 26 14 27 15 28 16 29 17 31 18 32 19 33 80 34 20 35 79 36
REMARK SMILES IDX 21 37 22 38 23 39 73 40 24 41 78 42 72 43 74 44 25 45 77 46
REMARK SMILES IDX 71 47 70 48 26 50 58 51 38 52 57 53 39 54 42 55 56 56 75 57
REMARK SMILES IDX 40 58 41 59 55 61 76 62 43 63 27 64 28 65 36 66 29 67 30 68
REMARK SMILES IDX 34 69 37 70 31 71 32 72 35 73 33 74 59 75 60 76 68 77 61 78
REMARK SMILES IDX 62 79 66 80 69 81 63 82 64 83 67 84 65 85 44 86 45 87 53 88
REMARK SMILES IDX 46 89 47 90 51 91 54 92 48 93 49 94 52 95 50 96
REMARK H PARENT 8 7 83 16 15 30 74 49 42 60
REMARK Flexibility Score: inf
ROOT
ATOM      1  C   UNL A   1      30.956  26.461  25.861  1.00  0.00     0.002 C 
ENDROOT
BRANCH   1   2
ATOM      2  C   UNL A   1      30.197  25.566  24.873  1.00  0.00     0.021 C 
BRANCH   2   3
ATOM      3  C   UNL A   1      30.926  24.285  24.464  1.00  0.00     0.116 C 
BRANCH   3   4
ATOM      4  N   UNL A   1      32.051  24.478  23.576  1.00  0.00    -0.355 N 
ATOM      5  C   UNL A   1      33.381  24.205  23.677  1.00  0.00     0.239 C 
ATOM      6  O   UNL A   1      33.979  24.124  22.594  1.00  0.00    -0.273 OA
ATOM      7  H   UNL A   1      31.804  24.895  22.719  1.00  0.00     0.163 HD
BRANCH   5   8
ATOM      8  C   UNL A   1      34.122  23.840  24.982  1.00  0.00     0.222 C 
BRANCH   8   9
ATOM      9  N   UNL A   1      34.008  22.487  25.533  1.00  0.00    -0.304 N 
BRANCH   9  10
ATOM     10  C   UNL A   1      35.265  21.766  25.667  1.00  0.00     0.211 C 
BRANCH  10  11
ATOM     11  C   UNL A   1      36.478  22.669  25.519  1.00  0.00    -0.085 C 
ATOM     12  C   UNL A   1      37.519  23.444  25.392  1.00  0.00     0.006 C 
ENDBRANCH  10  11
ENDBRANCH   9  10
BRANCH   9  13
ATOM     13  C   UNL A   1      32.888  21.874  26.073  1.00  0.00     0.323 C 
ATOM     14  O   UNL A   1      32.403  22.246  27.145  1.00  0.00    -0.248 OA
ATOM     15  N   UNL A   1      32.153  20.983  25.352  1.00  0.00    -0.307 N 
ATOM     16  H   UNL A   1      31.182  21.138  25.408  1.00  0.00     0.171 HD
BRANCH  15  17
ATOM     17  C   UNL A   1      32.502  19.892  24.547  1.00  0.00     0.046 A 
ATOM     18  C   UNL A   1      33.150  18.820  25.171  1.00  0.00     0.042 A 
ATOM     19  C   UNL A   1      32.304  19.860  23.162  1.00  0.00    -0.027 A 
ATOM     20  C   UNL A   1      33.410  17.652  24.455  1.00  0.00     0.020 A 
ATOM     21  C   UNL A   1      32.499  18.653  22.471  1.00  0.00     0.007 A 
ATOM     22  C   UNL A   1      32.071  21.112  22.371  1.00  0.00     0.046 C 
ATOM     23  Br  UNL A   1      34.287  16.206  25.298  1.00  0.00    -0.051 Br
ATOM     24  C   UNL A   1      33.028  17.543  23.123  1.00  0.00     0.016 A 
ENDBRANCH  15  17
ENDBRANCH   9  13
ENDBRANCH   8   9
ENDBRANCH   5   8
ENDBRANCH   3   4
ENDBRANCH   2   3
ENDBRANCH   1   2
BRANCH   1  25
ATOM     25  C   UNL A   1      31.405  27.818  25.314  1.00  0.00     0.002 C 
BRANCH  25  26
ATOM     26  C   UNL A   1      32.742  27.808  24.577  1.00  0.00     0.021 C 
BRANCH  26  27
ATOM     27  C   UNL A   1      33.679  28.943  24.965  1.00  0.00     0.116 C 
BRANCH  27  28
ATOM     28  N   UNL A   1      32.949  30.121  25.397  1.00  0.00    -0.352 N 
ATOM     29  C   UNL A   1      33.095  30.846  26.555  1.00  0.00     0.251 C 
ATOM     30  H   UNL A   1      32.255  30.444  24.778  1.00  0.00     0.163 HD
ATOM     31  O   UNL A   1      32.254  31.674  26.881  1.00  0.00    -0.269 OA
BRANCH  29  32
ATOM     32  C   UNL A   1      34.271  30.605  27.420  1.00  0.00     0.039 A 
ATOM     33  C   UNL A   1      34.425  29.356  28.023  1.00  0.00     0.014 A 
ATOM     34  C   UNL A   1      35.220  31.611  27.630  1.00  0.00     0.014 A 
ATOM     35  C   UNL A   1      35.559  29.099  28.797  1.00  0.00     0.010 A 
ATOM     36  C   UNL A   1      36.390  31.323  28.324  1.00  0.00     0.010 A 
ATOM     37  C   UNL A   1      36.565  30.070  28.930  1.00  0.00    -0.014 A 
BRANCH  37  38
ATOM     38  C   UNL A   1      37.791  29.805  29.725  1.00  0.00     0.031 A 
ATOM     39  C   UNL A   1      38.843  28.870  29.193  1.00  0.00     0.074 A 
ATOM     40  C   UNL A   1      37.933  30.360  30.944  1.00  0.00     0.049 A 
ATOM     41  N   UNL A   1      39.951  28.461  29.758  1.00  0.00    -0.248 NA
ATOM     42  C   UNL A   1      38.604  28.295  27.859  1.00  0.00     0.031 C 
ATOM     43  C   UNL A   1      36.964  31.248  31.589  1.00  0.00     0.029 A 
ATOM     44  N   UNL A   1      38.946  30.252  31.864  1.00  0.00    -0.354 N 
ATOM     45  C   UNL A   1      40.528  27.575  28.857  1.00  0.00     0.074 A 
ATOM     46  C   UNL A   1      39.621  27.456  27.739  1.00  0.00     0.031 C 
ATOM     47  C   UNL A   1      37.441  31.625  32.786  1.00  0.00     0.029 A 
ATOM     48  C   UNL A   1      38.727  30.973  33.013  1.00  0.00     0.049 A 
ATOM     49  H   UNL A   1      39.755  29.711  31.715  1.00  0.00     0.167 HD
ATOM     50  C   UNL A   1      41.721  26.941  28.942  1.00  0.00     0.037 A 
ATOM     51  C   UNL A   1      39.476  31.088  34.126  1.00  0.00     0.037 A 
ATOM     52  C   UNL A   1      42.633  27.080  30.048  1.00  0.00     0.049 A 
ATOM     53  C   UNL A   1      40.790  30.356  34.204  1.00  0.00     0.074 A 
ATOM     54  C   UNL A   1      43.890  26.524  30.206  1.00  0.00     0.029 A 
ATOM     55  N   UNL A   1      42.380  27.828  31.189  1.00  0.00    -0.354 N 
ATOM     56  N   UNL A   1      41.359  29.577  33.316  1.00  0.00    -0.248 NA
ATOM     57  C   UNL A   1      41.571  30.528  35.437  1.00  0.00     0.031 C 
ATOM     58  C   UNL A   1      44.373  26.888  31.466  1.00  0.00     0.029 A 
ATOM     59  C   UNL A   1      43.447  27.725  32.067  1.00  0.00     0.049 A 
ATOM     60  H   UNL A   1      41.564  28.354  31.351  1.00  0.00     0.167 HD
ATOM     61  C   UNL A   1      42.576  29.194  33.865  1.00  0.00     0.074 A 
ATOM     62  C   UNL A   1      42.669  29.839  35.159  1.00  0.00     0.031 C 
ATOM     63  C   UNL A   1      43.530  28.382  33.347  1.00  0.00     0.037 A 
BRANCH  50  64
ATOM     64  C   UNL A   1      42.112  26.036  27.807  1.00  0.00     0.064 A 
ATOM     65  C   UNL A   1      41.645  24.716  27.720  1.00  0.00     0.173 A 
ATOM     66  C   UNL A   1      42.939  26.507  26.775  1.00  0.00     0.173 A 
ATOM     67  F   UNL A   1      40.861  24.212  28.685  1.00  0.00    -0.203 F 
ATOM     68  C   UNL A   1      42.015  23.892  26.660  1.00  0.00     0.198 A 
ATOM     69  C   UNL A   1      43.278  25.691  25.699  1.00  0.00     0.198 A 
ATOM     70  F   UNL A   1      43.410  27.763  26.804  1.00  0.00    -0.203 F 
ATOM     71  F   UNL A   1      41.600  22.618  26.628  1.00  0.00    -0.200 F 
ATOM     72  C   UNL A   1      42.824  24.383  25.647  1.00  0.00     0.200 A 
ATOM     73  F   UNL A   1      44.048  26.172  24.712  1.00  0.00    -0.200 F 
ATOM     74  F   UNL A   1      43.173  23.591  24.623  1.00  0.00    -0.200 F 
ENDBRANCH  50  64
BRANCH  51  75
ATOM     75  C   UNL A   1      39.014  31.942  35.253  1.00  0.00     0.064 A 
ATOM     76  C   UNL A   1      39.304  33.313  35.286  1.00  0.00     0.173 A 
ATOM     77  C   UNL A   1      38.284  31.405  36.325  1.00  0.00     0.173 A 
ATOM     78  F   UNL A   1      40.015  33.870  34.294  1.00  0.00    -0.203 F 
ATOM     79  C   UNL A   1      38.908  34.108  36.359  1.00  0.00     0.198 A 
ATOM     80  C   UNL A   1      37.860  32.208  37.382  1.00  0.00     0.198 A 
ATOM     81  F   UNL A   1      37.974  30.102  36.341  1.00  0.00    -0.203 F 
ATOM     82  F   UNL A   1      39.248  35.405  36.389  1.00  0.00    -0.200 F 
ATOM     83  C   UNL A   1      38.182  33.558  37.403  1.00  0.00     0.200 A 
ATOM     84  F   UNL A   1      37.144  31.675  38.380  1.00  0.00    -0.200 F 
ATOM     85  F   UNL A   1      37.799  34.323  38.434  1.00  0.00    -0.200 F 
ENDBRANCH  51  75
BRANCH  63  86
ATOM     86  C   UNL A   1      44.780  28.180  34.155  1.00  0.00     0.064 A 
ATOM     87  C   UNL A   1      44.897  27.141  35.090  1.00  0.00     0.173 A 
ATOM     88  C   UNL A   1      45.892  29.014  33.959  1.00  0.00     0.173 A 
ATOM     89  F   UNL A   1      43.859  26.324  35.327  1.00  0.00    -0.203 F 
ATOM     90  C   UNL A   1      46.070  26.962  35.819  1.00  0.00     0.198 A 
ATOM     91  C   UNL A   1      47.075  28.811  34.663  1.00  0.00     0.198 A 
ATOM     92  F   UNL A   1      45.836  30.016  33.070  1.00  0.00    -0.203 F 
ATOM     93  F   UNL A   1      46.140  25.998  36.747  1.00  0.00    -0.200 F 
ATOM     94  C   UNL A   1      47.160  27.792  35.600  1.00  0.00     0.200 A 
ATOM     95  F   UNL A   1      48.133  29.601  34.436  1.00  0.00    -0.200 F 
ATOM     96  F   UNL A   1      48.291  27.612  36.295  1.00  0.00    -0.200 F 
ENDBRANCH  63  86
ENDBRANCH  37  38
ENDBRANCH  29  32
ENDBRANCH  27  28
ENDBRANCH  26  27
ENDBRANCH  25  26
ENDBRANCH   1  25
TORSDOF 18
ENDMDL
