MODEL 1
REMARK VINA RESULT:     -12.8      0.000      0.000
REMARK SMILES CCOc1cc(/C=C2/C(=O)N(c3cccc(C(=O)NCCCCCCNC(=O)c4ccc(-c5c6nc(c(-c7c(F)c(F)c(F)c(F)c7F)c7ccc([nH]7)c(-c7c(F)c(F)c(F)c(F)c7F)c7nc(c(-c8c(F)c(F)c(F)c(F)c8F)c8ccc5[nH]8)C=C7)C=C6)cc4)c3)N=C2C)cc(Cl)c1O
REMARK SMILES IDX 21 1 20 2 19 3 17 4 18 5 16 7 12 8 13 9 92 10 14 11 15 12
REMARK SMILES IDX 11 13 7 14 8 15 9 16 94 17 10 18 93 19 95 20 6 21 4 22 5 23
REMARK SMILES IDX 99 24 97 25 96 26 98 27 3 28 2 29 1 30 100 31 22 33 23 34
REMARK SMILES IDX 24 35 25 36 26 37 27 38 28 40 29 41 30 42 91 43 31 44 90 45
REMARK SMILES IDX 32 46 33 47 34 48 84 49 35 50 89 51 83 52 85 53 36 54 88 55
REMARK SMILES IDX 82 56 81 57 37 59 69 60 49 61 68 62 50 63 53 64 67 65 86 66
REMARK SMILES IDX 51 67 52 68 66 70 87 71 54 72 38 73 39 74 47 75 40 76 41 77
REMARK SMILES IDX 45 78 48 79 42 80 43 81 46 82 44 83 70 84 71 85 79 86 72 87
REMARK SMILES IDX 73 88 77 89 80 90 74 91 75 92 78 93 76 94 55 95 56 96 64 97
REMARK SMILES IDX 57 98 58 99 62 100 65 101 59 102 60 103 63 104 61 105
REMARK H PARENT 19 6 100 32 26 39 85 58 53 69
REMARK Flexibility Score: inf
ROOT
ATOM      1  C   UNL A   1      33.240  28.829  23.057  1.00  0.00     0.021 C 
ENDROOT
BRANCH   1   2
ATOM      2  C   UNL A   1      32.249  28.827  21.898  1.00  0.00     0.116 C 
BRANCH   2   3
ATOM      3  N   UNL A   1      31.246  29.878  21.960  1.00  0.00    -0.352 N 
ATOM      4  C   UNL A   1      29.999  29.914  22.549  1.00  0.00     0.251 C 
ATOM      5  O   UNL A   1      29.335  30.945  22.454  1.00  0.00    -0.269 OA
ATOM      6  H   UNL A   1      31.501  30.710  21.501  1.00  0.00     0.163 HD
BRANCH   4   7
ATOM      7  C   UNL A   1      29.398  28.722  23.211  1.00  0.00     0.041 A 
ATOM      8  C   UNL A   1      29.590  26.437  23.993  1.00  0.00     0.069 A 
ATOM      9  C   UNL A   1      28.193  26.334  23.981  1.00  0.00     0.028 A 
ATOM     10  C   UNL A   1      30.170  27.684  23.738  1.00  0.00     0.042 A 
ATOM     11  C   UNL A   1      27.398  27.433  23.652  1.00  0.00     0.003 A 
ATOM     12  C   UNL A   1      28.002  28.614  23.226  1.00  0.00     0.014 A 
BRANCH   8  13
ATOM     13  N   UNL A   1      30.394  25.275  24.106  1.00  0.00    -0.196 N 
ATOM     14  C   UNL A   1      32.382  22.765  25.592  1.00  0.00     0.024 C 
ATOM     15  C   UNL A   1      31.838  23.674  24.776  1.00  0.00     0.065 C 
ATOM     16  C   UNL A   1      30.858  24.671  25.286  1.00  0.00     0.280 C 
ATOM     17  C   UNL A   1      31.904  23.932  23.332  1.00  0.00     0.071 C 
ATOM     18  O   UNL A   1      30.595  24.863  26.454  1.00  0.00    -0.267 OA
ATOM     19  N   UNL A   1      31.030  24.825  22.950  1.00  0.00    -0.169 NA
ATOM     20  C   UNL A   1      32.912  23.339  22.408  1.00  0.00     0.069 C 
BRANCH  14  21
ATOM     21  C   UNL A   1      33.200  21.605  25.231  1.00  0.00    -0.019 A 
ATOM     22  C   UNL A   1      35.298  20.423  25.047  1.00  0.00     0.163 A 
ATOM     23  C   UNL A   1      34.596  21.603  25.307  1.00  0.00     0.058 A 
ATOM     24  C   UNL A   1      34.616  19.232  24.786  1.00  0.00     0.176 A 
ATOM     25  C   UNL A   1      33.230  19.240  24.665  1.00  0.00     0.087 A 
ATOM     26  C   UNL A   1      32.524  20.424  24.883  1.00  0.00     0.032 A 
ATOM     27  Cl  UNL A   1      32.348  17.805  24.295  1.00  0.00    -0.080 Cl
BRANCH  22  28
ATOM     28  O   UNL A   1      36.665  20.402  25.156  1.00  0.00    -0.490 OA
BRANCH  28  29
ATOM     29  C   UNL A   1      37.240  21.702  24.935  1.00  0.00     0.226 C 
ATOM     30  C   UNL A   1      38.542  21.852  25.707  1.00  0.00     0.049 C 
ENDBRANCH  28  29
ENDBRANCH  22  28
BRANCH  24  31
ATOM     31  O   UNL A   1      35.313  18.057  24.698  1.00  0.00    -0.503 OA
ATOM     32  H   UNL A   1      36.192  18.058  24.375  1.00  0.00     0.293 HD
ENDBRANCH  24  31
ENDBRANCH  14  21
ENDBRANCH   8  13
ENDBRANCH   4   7
ENDBRANCH   2   3
ENDBRANCH   1   2
BRANCH   1  33
ATOM     33  C   UNL A   1      33.720  27.465  23.550  1.00  0.00     0.002 C 
BRANCH  33  34
ATOM     34  C   UNL A   1      33.671  27.232  25.062  1.00  0.00     0.002 C 
BRANCH  34  35
ATOM     35  C   UNL A   1      33.015  28.332  25.898  1.00  0.00     0.021 C 
BRANCH  35  36
ATOM     36  C   UNL A   1      33.649  28.596  27.261  1.00  0.00     0.116 C 
BRANCH  36  37
ATOM     37  N   UNL A   1      33.656  30.006  27.617  1.00  0.00    -0.352 N 
ATOM     38  C   UNL A   1      34.628  30.752  28.237  1.00  0.00     0.251 C 
ATOM     39  H   UNL A   1      32.840  30.501  27.376  1.00  0.00     0.163 HD
ATOM     40  O   UNL A   1      34.392  31.901  28.595  1.00  0.00    -0.269 OA
BRANCH  38  41
ATOM     41  C   UNL A   1      35.958  30.163  28.502  1.00  0.00     0.039 A 
ATOM     42  C   UNL A   1      36.923  30.193  27.491  1.00  0.00     0.014 A 
ATOM     43  C   UNL A   1      36.257  29.586  29.739  1.00  0.00     0.014 A 
ATOM     44  C   UNL A   1      38.212  29.721  27.746  1.00  0.00     0.010 A 
ATOM     45  C   UNL A   1      37.561  29.177  30.015  1.00  0.00     0.010 A 
ATOM     46  C   UNL A   1      38.554  29.252  29.025  1.00  0.00    -0.014 A 
BRANCH  46  47
ATOM     47  C   UNL A   1      39.951  28.870  29.359  1.00  0.00     0.031 A 
ATOM     48  C   UNL A   1      40.838  29.814  30.120  1.00  0.00     0.074 A 
ATOM     49  C   UNL A   1      40.442  27.700  28.906  1.00  0.00     0.049 A 
ATOM     50  N   UNL A   1      42.107  29.697  30.420  1.00  0.00    -0.248 NA
ATOM     51  C   UNL A   1      40.224  31.066  30.584  1.00  0.00     0.031 C 
ATOM     52  C   UNL A   1      39.692  26.715  28.123  1.00  0.00     0.029 A 
ATOM     53  N   UNL A   1      41.693  27.147  29.022  1.00  0.00    -0.354 N 
ATOM     54  C   UNL A   1      42.445  30.860  31.099  1.00  0.00     0.074 A 
ATOM     55  C   UNL A   1      41.261  31.692  31.121  1.00  0.00     0.031 C 
ATOM     56  C   UNL A   1      40.491  25.674  27.846  1.00  0.00     0.029 A 
ATOM     57  C   UNL A   1      41.822  25.935  28.386  1.00  0.00     0.049 A 
ATOM     58  H   UNL A   1      42.429  27.577  29.514  1.00  0.00     0.167 HD
ATOM     59  C   UNL A   1      43.628  31.192  31.667  1.00  0.00     0.037 A 
ATOM     60  C   UNL A   1      42.894  25.135  28.238  1.00  0.00     0.037 A 
ATOM     61  C   UNL A   1      44.799  30.354  31.653  1.00  0.00     0.049 A 
ATOM     62  C   UNL A   1      44.207  25.546  28.849  1.00  0.00     0.074 A 
ATOM     63  C   UNL A   1      46.027  30.578  32.252  1.00  0.00     0.029 A 
ATOM     64  N   UNL A   1      44.890  29.134  30.999  1.00  0.00    -0.354 N 
ATOM     65  N   UNL A   1      44.495  26.617  29.547  1.00  0.00    -0.248 NA
ATOM     66  C   UNL A   1      45.343  24.636  28.651  1.00  0.00     0.031 C 
ATOM     67  C   UNL A   1      46.879  29.522  31.910  1.00  0.00     0.029 A 
ATOM     68  C   UNL A   1      46.166  28.610  31.150  1.00  0.00     0.049 A 
ATOM     69  H   UNL A   1      44.158  28.703  30.502  1.00  0.00     0.167 HD
ATOM     70  C   UNL A   1      45.835  26.499  29.892  1.00  0.00     0.074 A 
ATOM     71  C   UNL A   1      46.297  25.241  29.343  1.00  0.00     0.031 C 
ATOM     72  C   UNL A   1      46.613  27.357  30.597  1.00  0.00     0.037 A 
BRANCH  59  73
ATOM     73  C   UNL A   1      43.721  32.528  32.351  1.00  0.00     0.064 A 
ATOM     74  C   UNL A   1      43.430  32.679  33.716  1.00  0.00     0.173 A 
ATOM     75  C   UNL A   1      44.148  33.661  31.643  1.00  0.00     0.173 A 
ATOM     76  F   UNL A   1      43.008  31.629  34.438  1.00  0.00    -0.203 F 
ATOM     77  C   UNL A   1      43.533  33.920  34.338  1.00  0.00     0.198 A 
ATOM     78  C   UNL A   1      44.282  34.894  32.276  1.00  0.00     0.198 A 
ATOM     79  F   UNL A   1      44.446  33.572  30.338  1.00  0.00    -0.203 F 
ATOM     80  F   UNL A   1      43.200  34.051  35.630  1.00  0.00    -0.200 F 
ATOM     81  C   UNL A   1      43.967  35.025  33.620  1.00  0.00     0.200 A 
ATOM     82  F   UNL A   1      44.715  35.957  31.585  1.00  0.00    -0.200 F 
ATOM     83  F   UNL A   1      44.074  36.217  34.222  1.00  0.00    -0.200 F 
ENDBRANCH  59  73
BRANCH  60  84
ATOM     84  C   UNL A   1      42.773  23.860  27.483  1.00  0.00     0.064 A 
ATOM     85  C   UNL A   1      43.127  23.788  26.129  1.00  0.00     0.173 A 
ATOM     86  C   UNL A   1      42.293  22.691  28.094  1.00  0.00     0.173 A 
ATOM     87  F   UNL A   1      43.570  24.883  25.494  1.00  0.00    -0.203 F 
ATOM     88  C   UNL A   1      42.984  22.603  25.409  1.00  0.00     0.198 A 
ATOM     89  C   UNL A   1      42.181  21.499  27.381  1.00  0.00     0.198 A 
ATOM     90  F   UNL A   1      41.945  22.704  29.389  1.00  0.00    -0.203 F 
ATOM     91  F   UNL A   1      43.282  22.577  24.102  1.00  0.00    -0.200 F 
ATOM     92  C   UNL A   1      42.517  21.459  26.036  1.00  0.00     0.200 A 
ATOM     93  F   UNL A   1      41.745  20.392  27.997  1.00  0.00    -0.200 F 
ATOM     94  F   UNL A   1      42.385  20.320  25.345  1.00  0.00    -0.200 F 
ENDBRANCH  60  84
BRANCH  72  95
ATOM     95  C   UNL A   1      48.041  26.954  30.836  1.00  0.00     0.064 A 
ATOM     96  C   UNL A   1      48.396  26.092  31.884  1.00  0.00     0.173 A 
ATOM     97  C   UNL A   1      49.060  27.407  29.984  1.00  0.00     0.173 A 
ATOM     98  F   UNL A   1      47.462  25.644  32.736  1.00  0.00    -0.203 F 
ATOM     99  C   UNL A   1      49.723  25.719  32.085  1.00  0.00     0.198 A 
ATOM    100  C   UNL A   1      50.380  27.003  30.167  1.00  0.00     0.198 A 
ATOM    101  F   UNL A   1      48.773  28.226  28.962  1.00  0.00    -0.203 F 
ATOM    102  F   UNL A   1      50.045  24.934  33.122  1.00  0.00    -0.200 F 
ATOM    103  C   UNL A   1      50.712  26.167  31.222  1.00  0.00     0.200 A 
ATOM    104  F   UNL A   1      51.330  27.424  29.322  1.00  0.00    -0.200 F 
ATOM    105  F   UNL A   1      51.986  25.798  31.411  1.00  0.00    -0.200 F 
ENDBRANCH  72  95
ENDBRANCH  46  47
ENDBRANCH  38  41
ENDBRANCH  36  37
ENDBRANCH  35  36
ENDBRANCH  34  35
ENDBRANCH  33  34
ENDBRANCH   1  33
TORSDOF 18
ENDMDL
MODEL 2
REMARK VINA RESULT:     -12.8      0.794      2.052
REMARK SMILES CCOc1cc(/C=C2/C(=O)N(c3cccc(C(=O)NCCCCCCNC(=O)c4ccc(-c5c6nc(c(-c7c(F)c(F)c(F)c(F)c7F)c7ccc([nH]7)c(-c7c(F)c(F)c(F)c(F)c7F)c7nc(c(-c8c(F)c(F)c(F)c(F)c8F)c8ccc5[nH]8)C=C7)C=C6)cc4)c3)N=C2C)cc(Cl)c1O
REMARK SMILES IDX 21 1 20 2 19 3 17 4 18 5 16 7 12 8 13 9 92 10 14 11 15 12
REMARK SMILES IDX 11 13 7 14 8 15 9 16 94 17 10 18 93 19 95 20 6 21 4 22 5 23
REMARK SMILES IDX 99 24 97 25 96 26 98 27 3 28 2 29 1 30 100 31 22 33 23 34
REMARK SMILES IDX 24 35 25 36 26 37 27 38 28 40 29 41 30 42 91 43 31 44 90 45
REMARK SMILES IDX 32 46 33 47 34 48 84 49 35 50 89 51 83 52 85 53 36 54 88 55
REMARK SMILES IDX 82 56 81 57 37 59 69 60 49 61 68 62 50 63 53 64 67 65 86 66
REMARK SMILES IDX 51 67 52 68 66 70 87 71 54 72 38 73 39 74 47 75 40 76 41 77
REMARK SMILES IDX 45 78 48 79 42 80 43 81 46 82 44 83 70 84 71 85 79 86 72 87
REMARK SMILES IDX 73 88 77 89 80 90 74 91 75 92 78 93 76 94 55 95 56 96 64 97
REMARK SMILES IDX 57 98 58 99 62 100 65 101 59 102 60 103 63 104 61 105
REMARK H PARENT 19 6 100 32 26 39 85 58 53 69
REMARK Flexibility Score: inf
ROOT
ATOM      1  C   UNL A   1      33.203  29.185  23.396  1.00  0.00     0.021 C 
ENDROOT
BRANCH   1   2
ATOM      2  C   UNL A   1      32.345  28.787  22.200  1.00  0.00     0.116 C 
BRANCH   2   3
ATOM      3  N   UNL A   1      31.282  29.726  21.881  1.00  0.00    -0.352 N 
ATOM      4  C   UNL A   1      29.949  29.750  22.239  1.00  0.00     0.251 C 
ATOM      5  O   UNL A   1      29.248  30.673  21.828  1.00  0.00    -0.269 OA
ATOM      6  H   UNL A   1      31.561  30.477  21.309  1.00  0.00     0.163 HD
BRANCH   4   7
ATOM      7  C   UNL A   1      29.318  28.653  23.025  1.00  0.00     0.041 A 
ATOM      8  C   UNL A   1      29.432  26.440  24.005  1.00  0.00     0.069 A 
ATOM      9  C   UNL A   1      28.032  26.404  24.044  1.00  0.00     0.028 A 
ATOM     10  C   UNL A   1      30.059  27.630  23.621  1.00  0.00     0.042 A 
ATOM     11  C   UNL A   1      27.277  27.506  23.639  1.00  0.00     0.003 A 
ATOM     12  C   UNL A   1      27.919  28.613  23.090  1.00  0.00     0.014 A 
BRANCH   8  13
ATOM     13  N   UNL A   1      30.185  25.256  24.200  1.00  0.00    -0.196 N 
ATOM     14  C   UNL A   1      32.135  22.813  25.841  1.00  0.00     0.024 C 
ATOM     15  C   UNL A   1      31.589  23.659  24.962  1.00  0.00     0.065 C 
ATOM     16  C   UNL A   1      30.688  24.754  25.412  1.00  0.00     0.280 C 
ATOM     17  C   UNL A   1      31.584  23.762  23.497  1.00  0.00     0.071 C 
ATOM     18  O   UNL A   1      30.501  25.081  26.565  1.00  0.00    -0.267 OA
ATOM     19  N   UNL A   1      30.733  24.655  23.067  1.00  0.00    -0.169 NA
ATOM     20  C   UNL A   1      32.510  23.023  22.591  1.00  0.00     0.069 C 
BRANCH  14  21
ATOM     21  C   UNL A   1      32.876  21.580  25.564  1.00  0.00    -0.019 A 
ATOM     22  C   UNL A   1      33.030  19.264  24.896  1.00  0.00     0.163 A 
ATOM     23  C   UNL A   1      32.251  20.368  25.253  1.00  0.00     0.058 A 
ATOM     24  C   UNL A   1      34.416  19.381  24.774  1.00  0.00     0.176 A 
ATOM     25  C   UNL A   1      35.045  20.571  25.126  1.00  0.00     0.087 A 
ATOM     26  C   UNL A   1      34.277  21.667  25.523  1.00  0.00     0.032 A 
ATOM     27  Cl  UNL A   1      36.758  20.746  25.040  1.00  0.00    -0.080 Cl
BRANCH  22  28
ATOM     28  O   UNL A   1      32.424  18.083  24.553  1.00  0.00    -0.490 OA
BRANCH  28  29
ATOM     29  C   UNL A   1      32.440  17.138  25.638  1.00  0.00     0.226 C 
ATOM     30  C   UNL A   1      32.932  15.780  25.161  1.00  0.00     0.049 C 
ENDBRANCH  28  29
ENDBRANCH  22  28
BRANCH  24  31
ATOM     31  O   UNL A   1      35.142  18.338  24.265  1.00  0.00    -0.503 OA
ATOM     32  H   UNL A   1      35.153  18.182  23.341  1.00  0.00     0.293 HD
ENDBRANCH  24  31
ENDBRANCH  14  21
ENDBRANCH   8  13
ENDBRANCH   4   7
ENDBRANCH   2   3
ENDBRANCH   1   2
BRANCH   1  33
ATOM     33  C   UNL A   1      34.054  28.083  24.026  1.00  0.00     0.002 C 
BRANCH  33  34
ATOM     34  C   UNL A   1      33.410  27.292  25.166  1.00  0.00     0.002 C 
BRANCH  34  35
ATOM     35  C   UNL A   1      32.684  28.110  26.236  1.00  0.00     0.021 C 
BRANCH  35  36
ATOM     36  C   UNL A   1      33.525  28.515  27.444  1.00  0.00     0.116 C 
BRANCH  36  37
ATOM     37  N   UNL A   1      33.565  29.954  27.647  1.00  0.00    -0.352 N 
ATOM     38  C   UNL A   1      34.568  30.743  28.154  1.00  0.00     0.251 C 
ATOM     39  H   UNL A   1      32.749  30.436  27.380  1.00  0.00     0.163 HD
ATOM     40  O   UNL A   1      34.362  31.928  28.395  1.00  0.00    -0.269 OA
BRANCH  38  41
ATOM     41  C   UNL A   1      35.897  30.161  28.441  1.00  0.00     0.039 A 
ATOM     42  C   UNL A   1      36.874  30.189  27.442  1.00  0.00     0.014 A 
ATOM     43  C   UNL A   1      36.182  29.593  29.685  1.00  0.00     0.014 A 
ATOM     44  C   UNL A   1      38.161  29.722  27.717  1.00  0.00     0.010 A 
ATOM     45  C   UNL A   1      37.484  29.191  29.980  1.00  0.00     0.010 A 
ATOM     46  C   UNL A   1      38.489  29.264  29.003  1.00  0.00    -0.014 A 
BRANCH  46  47
ATOM     47  C   UNL A   1      39.883  28.889  29.356  1.00  0.00     0.031 A 
ATOM     48  C   UNL A   1      40.746  29.827  30.152  1.00  0.00     0.074 A 
ATOM     49  C   UNL A   1      40.395  27.732  28.892  1.00  0.00     0.049 A 
ATOM     50  N   UNL A   1      42.010  29.717  30.474  1.00  0.00    -0.248 NA
ATOM     51  C   UNL A   1      40.111  31.064  30.627  1.00  0.00     0.031 C 
ATOM     52  C   UNL A   1      39.670  26.755  28.077  1.00  0.00     0.029 A 
ATOM     53  N   UNL A   1      41.649  27.189  29.022  1.00  0.00    -0.354 N 
ATOM     54  C   UNL A   1      42.323  30.870  31.181  1.00  0.00     0.074 A 
ATOM     55  C   UNL A   1      41.131  31.691  31.196  1.00  0.00     0.031 C 
ATOM     56  C   UNL A   1      40.484  25.727  27.796  1.00  0.00     0.029 A 
ATOM     57  C   UNL A   1      41.801  25.991  28.367  1.00  0.00     0.049 A 
ATOM     58  H   UNL A   1      42.370  27.617  29.537  1.00  0.00     0.167 HD
ATOM     59  C   UNL A   1      43.491  31.204  31.779  1.00  0.00     0.037 A 
ATOM     60  C   UNL A   1      42.884  25.203  28.226  1.00  0.00     0.037 A 
ATOM     61  C   UNL A   1      44.670  30.377  31.772  1.00  0.00     0.049 A 
ATOM     62  C   UNL A   1      44.181  25.616  28.870  1.00  0.00     0.074 A 
ATOM     63  C   UNL A   1      45.884  30.601  32.399  1.00  0.00     0.029 A 
ATOM     64  N   UNL A   1      44.786  29.170  31.098  1.00  0.00    -0.354 N 
ATOM     65  N   UNL A   1      44.445  26.677  29.593  1.00  0.00    -0.248 NA
ATOM     66  C   UNL A   1      45.330  24.721  28.677  1.00  0.00     0.031 C 
ATOM     67  C   UNL A   1      46.753  29.561  32.055  1.00  0.00     0.029 A 
ATOM     68  C   UNL A   1      46.064  28.655  31.264  1.00  0.00     0.049 A 
ATOM     69  H   UNL A   1      44.069  28.742  30.579  1.00  0.00     0.167 HD
ATOM     70  C   UNL A   1      45.779  26.565  29.962  1.00  0.00     0.074 A 
ATOM     71  C   UNL A   1      46.264  25.322  29.399  1.00  0.00     0.031 C 
ATOM     72  C   UNL A   1      46.535  27.417  30.698  1.00  0.00     0.037 A 
BRANCH  59  73
ATOM     73  C   UNL A   1      43.557  32.527  32.488  1.00  0.00     0.064 A 
ATOM     74  C   UNL A   1      43.237  32.651  33.849  1.00  0.00     0.173 A 
ATOM     75  C   UNL A   1      43.988  33.677  31.810  1.00  0.00     0.173 A 
ATOM     76  F   UNL A   1      42.810  31.584  34.543  1.00  0.00    -0.203 F 
ATOM     77  C   UNL A   1      43.315  33.881  34.496  1.00  0.00     0.198 A 
ATOM     78  C   UNL A   1      44.097  34.899  32.468  1.00  0.00     0.198 A 
ATOM     79  F   UNL A   1      44.315  33.615  30.510  1.00  0.00    -0.203 F 
ATOM     80  F   UNL A   1      42.955  33.985  35.783  1.00  0.00    -0.200 F 
ATOM     81  C   UNL A   1      43.754  35.003  33.808  1.00  0.00     0.200 A 
ATOM     82  F   UNL A   1      44.535  35.979  31.805  1.00  0.00    -0.200 F 
ATOM     83  F   UNL A   1      43.837  36.185  34.433  1.00  0.00    -0.200 F 
ENDBRANCH  59  73
BRANCH  60  84
ATOM     84  C   UNL A   1      42.790  23.941  27.445  1.00  0.00     0.064 A 
ATOM     85  C   UNL A   1      42.326  22.760  28.039  1.00  0.00     0.173 A 
ATOM     86  C   UNL A   1      43.172  23.887  26.096  1.00  0.00     0.173 A 
ATOM     87  F   UNL A   1      41.971  22.755  29.332  1.00  0.00    -0.203 F 
ATOM     88  C   UNL A   1      42.268  21.567  27.320  1.00  0.00     0.198 A 
ATOM     89  C   UNL A   1      43.082  22.701  25.370  1.00  0.00     0.198 A 
ATOM     90  F   UNL A   1      43.618  24.990  25.478  1.00  0.00    -0.203 F 
ATOM     91  F   UNL A   1      41.868  20.441  27.927  1.00  0.00    -0.200 F 
ATOM     92  C   UNL A   1      42.640  21.540  25.985  1.00  0.00     0.200 A 
ATOM     93  F   UNL A   1      43.428  22.684  24.075  1.00  0.00    -0.200 F 
ATOM     94  F   UNL A   1      42.580  20.394  25.294  1.00  0.00    -0.200 F 
ENDBRANCH  60  84
BRANCH  72  95
ATOM     95  C   UNL A   1      47.961  27.024  30.957  1.00  0.00     0.064 A 
ATOM     96  C   UNL A   1      49.012  27.503  30.161  1.00  0.00     0.173 A 
ATOM     97  C   UNL A   1      48.284  26.187  32.037  1.00  0.00     0.173 A 
ATOM     98  F   UNL A   1      48.756  28.293  29.108  1.00  0.00    -0.203 F 
ATOM     99  C   UNL A   1      50.331  27.139  30.423  1.00  0.00     0.198 A 
ATOM    100  C   UNL A   1      49.606  25.854  32.315  1.00  0.00     0.198 A 
ATOM    101  F   UNL A   1      47.317  25.707  32.834  1.00  0.00    -0.203 F 
ATOM    102  F   UNL A   1      51.314  27.569  29.620  1.00  0.00    -0.200 F 
ATOM    103  C   UNL A   1      50.628  26.321  31.503  1.00  0.00     0.200 A 
ATOM    104  F   UNL A   1      49.891  25.078  33.370  1.00  0.00    -0.200 F 
ATOM    105  F   UNL A   1      51.898  25.981  31.759  1.00  0.00    -0.200 F 
ENDBRANCH  72  95
ENDBRANCH  46  47
ENDBRANCH  38  41
ENDBRANCH  36  37
ENDBRANCH  35  36
ENDBRANCH  34  35
ENDBRANCH  33  34
ENDBRANCH   1  33
TORSDOF 18
ENDMDL
MODEL 3
REMARK VINA RESULT:     -12.2      1.462      2.353
REMARK SMILES CCOc1cc(/C=C2/C(=O)N(c3cccc(C(=O)NCCCCCCNC(=O)c4ccc(-c5c6nc(c(-c7c(F)c(F)c(F)c(F)c7F)c7ccc([nH]7)c(-c7c(F)c(F)c(F)c(F)c7F)c7nc(c(-c8c(F)c(F)c(F)c(F)c8F)c8ccc5[nH]8)C=C7)C=C6)cc4)c3)N=C2C)cc(Cl)c1O
REMARK SMILES IDX 21 1 20 2 19 3 17 4 18 5 16 7 12 8 13 9 92 10 14 11 15 12
REMARK SMILES IDX 11 13 7 14 8 15 9 16 94 17 10 18 93 19 95 20 6 21 4 22 5 23
REMARK SMILES IDX 99 24 97 25 96 26 98 27 3 28 2 29 1 30 100 31 22 33 23 34
REMARK SMILES IDX 24 35 25 36 26 37 27 38 28 40 29 41 30 42 91 43 31 44 90 45
REMARK SMILES IDX 32 46 33 47 34 48 84 49 35 50 89 51 83 52 85 53 36 54 88 55
REMARK SMILES IDX 82 56 81 57 37 59 69 60 49 61 68 62 50 63 53 64 67 65 86 66
REMARK SMILES IDX 51 67 52 68 66 70 87 71 54 72 38 73 39 74 47 75 40 76 41 77
REMARK SMILES IDX 45 78 48 79 42 80 43 81 46 82 44 83 70 84 71 85 79 86 72 87
REMARK SMILES IDX 73 88 77 89 80 90 74 91 75 92 78 93 76 94 55 95 56 96 64 97
REMARK SMILES IDX 57 98 58 99 62 100 65 101 59 102 60 103 63 104 61 105
REMARK H PARENT 19 6 100 32 26 39 85 58 53 69
REMARK Flexibility Score: inf
ROOT
ATOM      1  C   UNL A   1      32.996  28.801  22.990  1.00  0.00     0.021 C 
ENDROOT
BRANCH   1   2
ATOM      2  C   UNL A   1      32.020  28.902  21.824  1.00  0.00     0.116 C 
BRANCH   2   3
ATOM      3  N   UNL A   1      31.037  29.966  21.950  1.00  0.00    -0.352 N 
ATOM      4  C   UNL A   1      29.811  30.004  22.582  1.00  0.00     0.251 C 
ATOM      5  O   UNL A   1      29.161  31.048  22.540  1.00  0.00    -0.269 OA
ATOM      6  H   UNL A   1      31.289  30.807  21.505  1.00  0.00     0.163 HD
BRANCH   4   7
ATOM      7  C   UNL A   1      29.215  28.803  23.232  1.00  0.00     0.041 A 
ATOM      8  C   UNL A   1      29.420  26.516  24.004  1.00  0.00     0.069 A 
ATOM      9  C   UNL A   1      28.024  26.400  23.976  1.00  0.00     0.028 A 
ATOM     10  C   UNL A   1      29.991  27.770  23.762  1.00  0.00     0.042 A 
ATOM     11  C   UNL A   1      27.222  27.492  23.644  1.00  0.00     0.003 A 
ATOM     12  C   UNL A   1      27.820  28.681  23.230  1.00  0.00     0.014 A 
BRANCH   8  13
ATOM     13  N   UNL A   1      30.234  25.362  24.121  1.00  0.00    -0.196 N 
ATOM     14  C   UNL A   1      32.244  22.873  25.613  1.00  0.00     0.024 C 
ATOM     15  C   UNL A   1      31.692  23.775  24.795  1.00  0.00     0.065 C 
ATOM     16  C   UNL A   1      30.704  24.765  25.302  1.00  0.00     0.280 C 
ATOM     17  C   UNL A   1      31.755  24.028  23.350  1.00  0.00     0.071 C 
ATOM     18  O   UNL A   1      30.440  24.959  26.470  1.00  0.00    -0.267 OA
ATOM     19  N   UNL A   1      30.873  24.913  22.965  1.00  0.00    -0.169 NA
ATOM     20  C   UNL A   1      32.768  23.441  22.427  1.00  0.00     0.069 C 
BRANCH  14  21
ATOM     21  C   UNL A   1      33.072  21.719  25.255  1.00  0.00    -0.019 A 
ATOM     22  C   UNL A   1      35.186  20.575  25.020  1.00  0.00     0.163 A 
ATOM     23  C   UNL A   1      34.470  21.749  25.271  1.00  0.00     0.058 A 
ATOM     24  C   UNL A   1      34.520  19.363  24.827  1.00  0.00     0.176 A 
ATOM     25  C   UNL A   1      33.131  19.338  24.765  1.00  0.00     0.087 A 
ATOM     26  C   UNL A   1      32.409  20.513  24.975  1.00  0.00     0.032 A 
ATOM     27  Cl  UNL A   1      32.266  17.873  24.481  1.00  0.00    -0.080 Cl
BRANCH  22  28
ATOM     28  O   UNL A   1      36.556  20.587  25.070  1.00  0.00    -0.490 OA
BRANCH  28  29
ATOM     29  C   UNL A   1      37.101  21.815  24.559  1.00  0.00     0.226 C 
ATOM     30  C   UNL A   1      37.829  22.579  25.655  1.00  0.00     0.049 C 
ENDBRANCH  28  29
ENDBRANCH  22  28
BRANCH  24  31
ATOM     31  O   UNL A   1      35.238  18.200  24.747  1.00  0.00    -0.503 OA
ATOM     32  H   UNL A   1      36.172  18.220  24.826  1.00  0.00     0.293 HD
ENDBRANCH  24  31
ENDBRANCH  14  21
ENDBRANCH   8  13
ENDBRANCH   4   7
ENDBRANCH   2   3
ENDBRANCH   1   2
BRANCH   1  33
ATOM     33  C   UNL A   1      33.784  27.498  23.115  1.00  0.00     0.002 C 
BRANCH  33  34
ATOM     34  C   UNL A   1      33.831  26.861  24.506  1.00  0.00     0.002 C 
BRANCH  34  35
ATOM     35  C   UNL A   1      33.317  27.719  25.663  1.00  0.00     0.021 C 
BRANCH  35  36
ATOM     36  C   UNL A   1      34.380  28.492  26.438  1.00  0.00     0.116 C 
BRANCH  36  37
ATOM     37  N   UNL A   1      33.980  29.857  26.737  1.00  0.00    -0.352 N 
ATOM     38  C   UNL A   1      34.527  30.763  27.613  1.00  0.00     0.251 C 
ATOM     39  H   UNL A   1      33.199  30.182  26.234  1.00  0.00     0.163 HD
ATOM     40  O   UNL A   1      33.955  31.823  27.844  1.00  0.00    -0.269 OA
BRANCH  38  41
ATOM     41  C   UNL A   1      35.795  30.451  28.306  1.00  0.00     0.039 A 
ATOM     42  C   UNL A   1      35.754  29.679  29.471  1.00  0.00     0.014 A 
ATOM     43  C   UNL A   1      37.019  30.912  27.814  1.00  0.00     0.014 A 
ATOM     44  C   UNL A   1      36.945  29.301  30.096  1.00  0.00     0.010 A 
ATOM     45  C   UNL A   1      38.208  30.478  28.397  1.00  0.00     0.010 A 
ATOM     46  C   UNL A   1      38.182  29.658  29.536  1.00  0.00    -0.014 A 
BRANCH  46  47
ATOM     47  C   UNL A   1      39.459  29.156  30.106  1.00  0.00     0.031 A 
ATOM     48  C   UNL A   1      40.110  29.863  31.260  1.00  0.00     0.074 A 
ATOM     49  C   UNL A   1      40.071  28.103  29.529  1.00  0.00     0.049 A 
ATOM     50  N   UNL A   1      41.267  29.630  31.828  1.00  0.00    -0.248 NA
ATOM     51  C   UNL A   1      39.376  30.998  31.837  1.00  0.00     0.031 C 
ATOM     52  C   UNL A   1      39.560  27.354  28.379  1.00  0.00     0.029 A 
ATOM     53  N   UNL A   1      41.265  27.489  29.818  1.00  0.00    -0.354 N 
ATOM     54  C   UNL A   1      41.402  30.592  32.821  1.00  0.00     0.074 A 
ATOM     55  C   UNL A   1      40.233  31.443  32.744  1.00  0.00     0.031 C 
ATOM     56  C   UNL A   1      40.423  26.374  28.072  1.00  0.00     0.029 A 
ATOM     57  C   UNL A   1      41.572  26.452  28.969  1.00  0.00     0.049 A 
ATOM     58  H   UNL A   1      41.846  27.765  30.563  1.00  0.00     0.167 HD
ATOM     59  C   UNL A   1      42.398  30.738  33.725  1.00  0.00     0.037 A 
ATOM     60  C   UNL A   1      42.662  25.665  28.909  1.00  0.00     0.037 A 
ATOM     61  C   UNL A   1      43.553  29.880  33.806  1.00  0.00     0.049 A 
ATOM     62  C   UNL A   1      43.773  25.873  29.904  1.00  0.00     0.074 A 
ATOM     63  C   UNL A   1      44.588  29.911  34.724  1.00  0.00     0.029 A 
ATOM     64  N   UNL A   1      43.828  28.840  32.929  1.00  0.00    -0.354 N 
ATOM     65  N   UNL A   1      43.857  26.743  30.881  1.00  0.00    -0.248 NA
ATOM     66  C   UNL A   1      44.941  24.990  29.786  1.00  0.00     0.031 C 
ATOM     67  C   UNL A   1      45.519  28.930  34.368  1.00  0.00     0.029 A 
ATOM     68  C   UNL A   1      45.036  28.246  33.264  1.00  0.00     0.049 A 
ATOM     69  H   UNL A   1      43.252  28.565  32.181  1.00  0.00     0.167 HD
ATOM     70  C   UNL A   1      45.071  26.496  31.509  1.00  0.00     0.074 A 
ATOM     71  C   UNL A   1      45.681  25.381  30.814  1.00  0.00     0.031 C 
ATOM     72  C   UNL A   1      45.632  27.137  32.563  1.00  0.00     0.037 A 
BRANCH  59  73
ATOM     73  C   UNL A   1      42.292  31.875  34.702  1.00  0.00     0.064 A 
ATOM     74  C   UNL A   1      41.646  31.727  35.939  1.00  0.00     0.173 A 
ATOM     75  C   UNL A   1      42.881  33.116  34.416  1.00  0.00     0.173 A 
ATOM     76  F   UNL A   1      41.057  30.564  36.259  1.00  0.00    -0.203 F 
ATOM     77  C   UNL A   1      41.566  32.786  36.838  1.00  0.00     0.198 A 
ATOM     78  C   UNL A   1      42.828  34.163  35.332  1.00  0.00     0.198 A 
ATOM     79  F   UNL A   1      43.518  33.312  33.251  1.00  0.00    -0.203 F 
ATOM     80  F   UNL A   1      40.899  32.636  37.991  1.00  0.00    -0.200 F 
ATOM     81  C   UNL A   1      42.164  34.001  36.539  1.00  0.00     0.200 A 
ATOM     82  F   UNL A   1      43.419  35.332  35.046  1.00  0.00    -0.200 F 
ATOM     83  F   UNL A   1      42.094  35.017  37.409  1.00  0.00    -0.200 F 
ENDBRANCH  59  73
BRANCH  60  84
ATOM     84  C   UNL A   1      42.759  24.604  27.872  1.00  0.00     0.064 A 
ATOM     85  C   UNL A   1      42.393  23.282  28.159  1.00  0.00     0.173 A 
ATOM     86  C   UNL A   1      43.227  24.886  26.580  1.00  0.00     0.173 A 
ATOM     87  F   UNL A   1      41.961  22.958  29.386  1.00  0.00    -0.203 F 
ATOM     88  C   UNL A   1      42.513  22.278  27.199  1.00  0.00     0.198 A 
ATOM     89  C   UNL A   1      43.315  23.887  25.612  1.00  0.00     0.198 A 
ATOM     90  F   UNL A   1      43.585  26.136  26.251  1.00  0.00    -0.203 F 
ATOM     91  F   UNL A   1      42.204  21.012  27.516  1.00  0.00    -0.200 F 
ATOM     92  C   UNL A   1      42.968  22.582  25.926  1.00  0.00     0.200 A 
ATOM     93  F   UNL A   1      43.740  24.189  24.378  1.00  0.00    -0.200 F 
ATOM     94  F   UNL A   1      43.079  21.617  25.004  1.00  0.00    -0.200 F 
ENDBRANCH  60  84
BRANCH  72  95
ATOM     95  C   UNL A   1      46.963  26.635  33.047  1.00  0.00     0.064 A 
ATOM     96  C   UNL A   1      48.168  27.190  32.592  1.00  0.00     0.173 A 
ATOM     97  C   UNL A   1      47.032  25.610  34.003  1.00  0.00     0.173 A 
ATOM     98  F   UNL A   1      48.157  28.162  31.667  1.00  0.00    -0.203 F 
ATOM     99  C   UNL A   1      49.393  26.721  33.059  1.00  0.00     0.198 A 
ATOM    100  C   UNL A   1      48.257  25.168  34.493  1.00  0.00     0.198 A 
ATOM    101  F   UNL A   1      45.909  25.049  34.477  1.00  0.00    -0.203 F 
ATOM    102  F   UNL A   1      50.532  27.234  32.575  1.00  0.00    -0.200 F 
ATOM    103  C   UNL A   1      49.437  25.717  34.015  1.00  0.00     0.200 A 
ATOM    104  F   UNL A   1      48.296  24.209  35.428  1.00  0.00    -0.200 F 
ATOM    105  F   UNL A   1      50.617  25.274  34.471  1.00  0.00    -0.200 F 
ENDBRANCH  72  95
ENDBRANCH  46  47
ENDBRANCH  38  41
ENDBRANCH  36  37
ENDBRANCH  35  36
ENDBRANCH  34  35
ENDBRANCH  33  34
ENDBRANCH   1  33
TORSDOF 18
ENDMDL
