MODEL 1
REMARK VINA RESULT:     -11.9      0.000      0.000
REMARK SMILES O=C(NCCCCCCNC(=O)c1ccn(Cc2c(Cl)cccc2Cl)c1)c1ccc(-c2c3nc(c(-c4c(F)c(F)c(F)c(F)c4F)c4ccc([nH]4)c(-c4c(F)c(F)c(F)c(F)c4F)c4nc(c(-c5c(F)c(F)c(F)c(F)c5F)c5ccc2[nH]5)C=C4)C=C3)cc1
REMARK SMILES IDX 6 1 5 2 4 3 3 4 1 5 2 6 27 8 28 9 89 10 29 11 88 12 30 13
REMARK SMILES IDX 31 14 32 15 82 16 33 17 87 18 81 19 83 20 34 21 86 22 80 23
REMARK SMILES IDX 79 24 35 26 67 27 47 28 66 29 48 30 51 31 65 32 84 33 49 34
REMARK SMILES IDX 50 35 64 37 85 38 52 39 36 40 37 41 45 42 38 43 39 44 43 45
REMARK SMILES IDX 46 46 40 47 41 48 44 49 42 50 68 51 69 52 77 53 70 54 71 55
REMARK SMILES IDX 75 56 78 57 72 58 73 59 76 60 74 61 53 62 54 63 62 64 55 65
REMARK SMILES IDX 56 66 60 67 63 68 57 69 58 70 61 71 59 72 7 73 8 74 9 75
REMARK SMILES IDX 10 76 11 77 12 79 13 80 14 81 26 82 15 83 16 84 17 85 18 86
REMARK SMILES IDX 19 87 24 88 20 89 21 90 23 91 25 92 22 93
REMARK H PARENT 3 7 83 25 51 36 10 78
REMARK Flexibility Score: inf
ROOT
ATOM      1  C   UNL A   1      32.439  27.322  25.886  1.00  0.00     0.002 C 
ENDROOT
BRANCH   1   2
ATOM      2  C   UNL A   1      32.991  28.255  26.968  1.00  0.00     0.021 C 
BRANCH   2   3
ATOM      3  C   UNL A   1      34.441  28.683  26.746  1.00  0.00     0.116 C 
BRANCH   3   4
ATOM      4  N   UNL A   1      34.738  30.043  27.158  1.00  0.00    -0.352 N 
ATOM      5  O   UNL A   1      35.862  31.818  27.940  1.00  0.00    -0.269 OA
ATOM      6  C   UNL A   1      35.880  30.624  27.648  1.00  0.00     0.251 C 
ATOM      7  H   UNL A   1      33.979  30.663  27.069  1.00  0.00     0.163 HD
BRANCH   6   8
ATOM      8  C   UNL A   1      37.120  29.848  27.880  1.00  0.00     0.039 A 
ATOM      9  C   UNL A   1      38.191  29.858  26.986  1.00  0.00     0.014 A 
ATOM     10  C   UNL A   1      37.228  29.130  29.082  1.00  0.00     0.014 A 
ATOM     11  C   UNL A   1      39.326  29.102  27.245  1.00  0.00     0.010 A 
ATOM     12  C   UNL A   1      38.388  28.409  29.374  1.00  0.00     0.010 A 
ATOM     13  C   UNL A   1      39.441  28.403  28.451  1.00  0.00    -0.014 A 
BRANCH  13  14
ATOM     14  C   UNL A   1      40.781  27.863  28.778  1.00  0.00     0.031 A 
ATOM     15  C   UNL A   1      40.975  26.431  28.286  1.00  0.00     0.074 A 
ATOM     16  C   UNL A   1      41.609  28.632  29.535  1.00  0.00     0.049 A 
ATOM     17  N   UNL A   1      41.715  25.477  28.766  1.00  0.00    -0.248 NA
ATOM     18  C   UNL A   1      40.157  25.971  27.133  1.00  0.00     0.031 C 
ATOM     19  C   UNL A   1      41.299  30.010  29.939  1.00  0.00     0.029 A 
ATOM     20  N   UNL A   1      42.840  28.425  30.128  1.00  0.00    -0.354 N 
ATOM     21  C   UNL A   1      41.582  24.380  27.895  1.00  0.00     0.074 A 
ATOM     22  C   UNL A   1      40.520  24.697  26.986  1.00  0.00     0.031 C 
ATOM     23  C   UNL A   1      42.264  30.492  30.746  1.00  0.00     0.029 A 
ATOM     24  C   UNL A   1      43.295  29.489  30.945  1.00  0.00     0.049 A 
ATOM     25  H   UNL A   1      43.362  27.601  29.993  1.00  0.00     0.167 HD
ATOM     26  C   UNL A   1      42.432  23.316  27.877  1.00  0.00     0.037 A 
ATOM     27  C   UNL A   1      44.396  29.556  31.756  1.00  0.00     0.037 A 
ATOM     28  C   UNL A   1      43.432  23.420  28.884  1.00  0.00     0.049 A 
ATOM     29  C   UNL A   1      45.138  28.297  31.547  1.00  0.00     0.074 A 
ATOM     30  C   UNL A   1      43.465  23.163  30.228  1.00  0.00     0.029 A 
ATOM     31  N   UNL A   1      44.597  24.056  28.538  1.00  0.00    -0.354 N 
ATOM     32  N   UNL A   1      45.846  28.019  30.493  1.00  0.00    -0.248 NA
ATOM     33  C   UNL A   1      45.058  27.243  32.567  1.00  0.00     0.031 C 
ATOM     34  C   UNL A   1      44.541  23.933  30.728  1.00  0.00     0.029 A 
ATOM     35  C   UNL A   1      45.110  24.646  29.669  1.00  0.00     0.049 A 
ATOM     36  H   UNL A   1      44.996  24.085  27.639  1.00  0.00     0.167 HD
ATOM     37  C   UNL A   1      46.028  26.657  30.595  1.00  0.00     0.074 A 
ATOM     38  C   UNL A   1      45.801  26.312  31.977  1.00  0.00     0.031 C 
ATOM     39  C   UNL A   1      45.858  25.873  29.501  1.00  0.00     0.037 A 
BRANCH  26  40
ATOM     40  C   UNL A   1      42.584  22.227  26.853  1.00  0.00     0.064 A 
ATOM     41  C   UNL A   1      41.990  20.968  27.105  1.00  0.00     0.173 A 
ATOM     42  C   UNL A   1      43.525  22.272  25.815  1.00  0.00     0.173 A 
ATOM     43  F   UNL A   1      41.065  20.828  28.067  1.00  0.00    -0.203 F 
ATOM     44  C   UNL A   1      42.380  19.817  26.423  1.00  0.00     0.198 A 
ATOM     45  C   UNL A   1      43.879  21.125  25.100  1.00  0.00     0.198 A 
ATOM     46  F   UNL A   1      44.193  23.400  25.534  1.00  0.00    -0.203 F 
ATOM     47  F   UNL A   1      41.870  18.629  26.773  1.00  0.00    -0.200 F 
ATOM     48  C   UNL A   1      43.332  19.895  25.425  1.00  0.00     0.200 A 
ATOM     49  F   UNL A   1      44.806  21.204  24.135  1.00  0.00    -0.200 F 
ATOM     50  F   UNL A   1      43.747  18.784  24.801  1.00  0.00    -0.200 F 
ENDBRANCH  26  40
BRANCH  27  51
ATOM     51  C   UNL A   1      44.958  30.515  32.790  1.00  0.00     0.064 A 
ATOM     52  C   UNL A   1      46.019  31.412  32.598  1.00  0.00     0.173 A 
ATOM     53  C   UNL A   1      44.373  30.599  34.088  1.00  0.00     0.173 A 
ATOM     54  F   UNL A   1      46.769  31.387  31.495  1.00  0.00    -0.203 F 
ATOM     55  C   UNL A   1      46.384  32.373  33.558  1.00  0.00     0.198 A 
ATOM     56  C   UNL A   1      44.716  31.569  35.033  1.00  0.00     0.198 A 
ATOM     57  F   UNL A   1      43.433  29.736  34.494  1.00  0.00    -0.203 F 
ATOM     58  F   UNL A   1      47.394  33.215  33.299  1.00  0.00    -0.200 F 
ATOM     59  C   UNL A   1      45.713  32.472  34.761  1.00  0.00     0.200 A 
ATOM     60  F   UNL A   1      44.054  31.624  36.199  1.00  0.00    -0.200 F 
ATOM     61  F   UNL A   1      46.036  33.417  35.654  1.00  0.00    -0.200 F 
ENDBRANCH  27  51
BRANCH  39  62
ATOM     62  C   UNL A   1      46.029  26.638  28.206  1.00  0.00     0.064 A 
ATOM     63  C   UNL A   1      44.908  27.044  27.469  1.00  0.00     0.173 A 
ATOM     64  C   UNL A   1      47.280  26.832  27.596  1.00  0.00     0.173 A 
ATOM     65  F   UNL A   1      43.678  26.887  27.980  1.00  0.00    -0.203 F 
ATOM     66  C   UNL A   1      45.039  27.603  26.195  1.00  0.00     0.198 A 
ATOM     67  C   UNL A   1      47.416  27.402  26.333  1.00  0.00     0.198 A 
ATOM     68  F   UNL A   1      48.397  26.464  28.219  1.00  0.00    -0.203 F 
ATOM     69  F   UNL A   1      43.946  27.969  25.511  1.00  0.00    -0.200 F 
ATOM     70  C   UNL A   1      46.291  27.780  25.627  1.00  0.00     0.200 A 
ATOM     71  F   UNL A   1      48.637  27.579  25.807  1.00  0.00    -0.200 F 
ATOM     72  F   UNL A   1      46.416  28.321  24.407  1.00  0.00    -0.200 F 
ENDBRANCH  39  62
ENDBRANCH  13  14
ENDBRANCH   6   8
ENDBRANCH   3   4
ENDBRANCH   2   3
ENDBRANCH   1   2
BRANCH   1  73
ATOM     73  C   UNL A   1      31.189  27.835  25.162  1.00  0.00     0.002 C 
BRANCH  73  74
ATOM     74  C   UNL A   1      31.358  28.079  23.656  1.00  0.00     0.021 C 
BRANCH  74  75
ATOM     75  C   UNL A   1      32.783  27.876  23.141  1.00  0.00     0.116 C 
BRANCH  75  76
ATOM     76  N   UNL A   1      32.785  27.027  21.964  1.00  0.00    -0.352 N 
ATOM     77  C   UNL A   1      33.043  25.683  21.894  1.00  0.00     0.252 C 
ATOM     78  H   UNL A   1      32.576  27.471  21.110  1.00  0.00     0.163 HD
ATOM     79  O   UNL A   1      33.368  25.189  20.811  1.00  0.00    -0.269 OA
BRANCH  77  80
ATOM     80  C   UNL A   1      32.899  24.887  23.100  1.00  0.00     0.057 A 
ATOM     81  C   UNL A   1      31.748  24.176  23.548  1.00  0.00     0.033 A 
ATOM     82  C   UNL A   1      33.906  24.602  24.007  1.00  0.00     0.099 A 
ATOM     83  C   UNL A   1      32.091  23.501  24.696  1.00  0.00     0.087 A 
ATOM     84  N   UNL A   1      33.398  23.794  24.993  1.00  0.00    -0.349 N 
BRANCH  84  85
ATOM     85  C   UNL A   1      34.162  23.219  26.100  1.00  0.00     0.160 C 
BRANCH  85  86
ATOM     86  C   UNL A   1      35.207  22.232  25.629  1.00  0.00     0.009 A 
ATOM     87  C   UNL A   1      34.878  20.897  25.315  1.00  0.00     0.047 A 
ATOM     88  C   UNL A   1      36.559  22.606  25.489  1.00  0.00     0.047 A 
ATOM     89  Cl  UNL A   1      33.251  20.306  25.334  1.00  0.00    -0.084 Cl
ATOM     90  C   UNL A   1      35.857  19.975  24.923  1.00  0.00     0.021 A 
ATOM     91  C   UNL A   1      37.532  21.687  25.073  1.00  0.00     0.021 A 
ATOM     92  Cl  UNL A   1      37.108  24.221  25.782  1.00  0.00    -0.084 Cl
ATOM     93  C   UNL A   1      37.184  20.368  24.801  1.00  0.00     0.003 A 
ENDBRANCH  85  86
ENDBRANCH  84  85
ENDBRANCH  77  80
ENDBRANCH  75  76
ENDBRANCH  74  75
ENDBRANCH  73  74
ENDBRANCH   1  73
TORSDOF 15
ENDMDL
MODEL 2
REMARK VINA RESULT:     -11.7      0.547      1.936
REMARK SMILES O=C(NCCCCCCNC(=O)c1ccn(Cc2c(Cl)cccc2Cl)c1)c1ccc(-c2c3nc(c(-c4c(F)c(F)c(F)c(F)c4F)c4ccc([nH]4)c(-c4c(F)c(F)c(F)c(F)c4F)c4nc(c(-c5c(F)c(F)c(F)c(F)c5F)c5ccc2[nH]5)C=C4)C=C3)cc1
REMARK SMILES IDX 6 1 5 2 4 3 3 4 1 5 2 6 27 8 28 9 89 10 29 11 88 12 30 13
REMARK SMILES IDX 31 14 32 15 82 16 33 17 87 18 81 19 83 20 34 21 86 22 80 23
REMARK SMILES IDX 79 24 35 26 67 27 47 28 66 29 48 30 51 31 65 32 84 33 49 34
REMARK SMILES IDX 50 35 64 37 85 38 52 39 36 40 37 41 45 42 38 43 39 44 43 45
REMARK SMILES IDX 46 46 40 47 41 48 44 49 42 50 68 51 69 52 77 53 70 54 71 55
REMARK SMILES IDX 75 56 78 57 72 58 73 59 76 60 74 61 53 62 54 63 62 64 55 65
REMARK SMILES IDX 56 66 60 67 63 68 57 69 58 70 61 71 59 72 7 73 8 74 9 75
REMARK SMILES IDX 10 76 11 77 12 79 13 80 14 81 26 82 15 83 16 84 17 85 18 86
REMARK SMILES IDX 19 87 24 88 20 89 21 90 23 91 25 92 22 93
REMARK H PARENT 3 7 83 25 51 36 10 78
REMARK Flexibility Score: inf
ROOT
ATOM      1  C   UNL A   1      32.279  27.810  25.696  1.00  0.00     0.002 C 
ENDROOT
BRANCH   1   2
ATOM      2  C   UNL A   1      33.666  28.447  25.575  1.00  0.00     0.021 C 
BRANCH   2   3
ATOM      3  C   UNL A   1      34.387  28.633  26.910  1.00  0.00     0.116 C 
BRANCH   3   4
ATOM      4  N   UNL A   1      34.709  30.012  27.233  1.00  0.00    -0.352 N 
ATOM      5  O   UNL A   1      35.873  31.815  27.880  1.00  0.00    -0.269 OA
ATOM      6  C   UNL A   1      35.870  30.606  27.658  1.00  0.00     0.251 C 
ATOM      7  H   UNL A   1      33.955  30.635  27.127  1.00  0.00     0.163 HD
BRANCH   6   8
ATOM      8  C   UNL A   1      37.107  29.829  27.905  1.00  0.00     0.039 A 
ATOM      9  C   UNL A   1      38.197  29.856  27.034  1.00  0.00     0.014 A 
ATOM     10  C   UNL A   1      37.192  29.093  29.098  1.00  0.00     0.014 A 
ATOM     11  C   UNL A   1      39.328  29.099  27.305  1.00  0.00     0.010 A 
ATOM     12  C   UNL A   1      38.347  28.371  29.403  1.00  0.00     0.010 A 
ATOM     13  C   UNL A   1      39.419  28.381  28.503  1.00  0.00    -0.014 A 
BRANCH  13  14
ATOM     14  C   UNL A   1      40.753  27.839  28.849  1.00  0.00     0.031 A 
ATOM     15  C   UNL A   1      40.960  26.413  28.346  1.00  0.00     0.074 A 
ATOM     16  C   UNL A   1      41.565  28.601  29.632  1.00  0.00     0.049 A 
ATOM     17  N   UNL A   1      41.691  25.455  28.829  1.00  0.00    -0.248 NA
ATOM     18  C   UNL A   1      40.165  25.965  27.172  1.00  0.00     0.031 C 
ATOM     19  C   UNL A   1      41.246  29.973  30.045  1.00  0.00     0.029 A 
ATOM     20  N   UNL A   1      42.785  28.389  30.246  1.00  0.00    -0.354 N 
ATOM     21  C   UNL A   1      41.577  24.368  27.943  1.00  0.00     0.074 A 
ATOM     22  C   UNL A   1      40.533  24.694  27.017  1.00  0.00     0.031 C 
ATOM     23  C   UNL A   1      42.194  30.448  30.876  1.00  0.00     0.029 A 
ATOM     24  C   UNL A   1      43.222  29.444  31.084  1.00  0.00     0.049 A 
ATOM     25  H   UNL A   1      43.311  27.567  30.111  1.00  0.00     0.167 HD
ATOM     26  C   UNL A   1      42.429  23.305  27.930  1.00  0.00     0.037 A 
ATOM     27  C   UNL A   1      44.307  29.503  31.917  1.00  0.00     0.037 A 
ATOM     28  C   UNL A   1      43.410  23.399  28.957  1.00  0.00     0.049 A 
ATOM     29  C   UNL A   1      45.056  28.248  31.708  1.00  0.00     0.074 A 
ATOM     30  C   UNL A   1      43.417  23.127  30.298  1.00  0.00     0.029 A 
ATOM     31  N   UNL A   1      44.580  24.040  28.641  1.00  0.00    -0.354 N 
ATOM     32  N   UNL A   1      45.784  27.983  30.664  1.00  0.00    -0.248 NA
ATOM     33  C   UNL A   1      44.957  27.182  32.714  1.00  0.00     0.031 C 
ATOM     34  C   UNL A   1      44.482  23.892  30.827  1.00  0.00     0.029 A 
ATOM     35  C   UNL A   1      45.069  24.619  29.788  1.00  0.00     0.049 A 
ATOM     36  H   UNL A   1      44.997  24.080  27.750  1.00  0.00     0.167 HD
ATOM     37  C   UNL A   1      45.967  26.620  30.755  1.00  0.00     0.074 A 
ATOM     38  C   UNL A   1      45.713  26.259  32.128  1.00  0.00     0.031 C 
ATOM     39  C   UNL A   1      45.819  25.849  29.649  1.00  0.00     0.037 A 
BRANCH  26  40
ATOM     40  C   UNL A   1      42.603  22.228  26.897  1.00  0.00     0.064 A 
ATOM     41  C   UNL A   1      41.999  20.968  27.118  1.00  0.00     0.173 A 
ATOM     42  C   UNL A   1      43.570  22.282  25.882  1.00  0.00     0.173 A 
ATOM     43  F   UNL A   1      41.050  20.820  28.055  1.00  0.00    -0.203 F 
ATOM     44  C   UNL A   1      42.401  19.825  26.432  1.00  0.00     0.198 A 
ATOM     45  C   UNL A   1      43.937  21.142  25.163  1.00  0.00     0.198 A 
ATOM     46  F   UNL A   1      44.248  23.411  25.632  1.00  0.00    -0.203 F 
ATOM     47  F   UNL A   1      41.879  18.633  26.754  1.00  0.00    -0.200 F 
ATOM     48  C   UNL A   1      43.378  19.910  25.459  1.00  0.00     0.200 A 
ATOM     49  F   UNL A   1      44.888  21.230  24.222  1.00  0.00    -0.200 F 
ATOM     50  F   UNL A   1      43.805  18.806  24.832  1.00  0.00    -0.200 F 
ENDBRANCH  26  40
BRANCH  27  51
ATOM     51  C   UNL A   1      44.848  30.451  32.973  1.00  0.00     0.064 A 
ATOM     52  C   UNL A   1      44.214  30.802  34.174  1.00  0.00     0.173 A 
ATOM     53  C   UNL A   1      46.136  31.042  32.818  1.00  0.00     0.173 A 
ATOM     54  F   UNL A   1      42.955  30.449  34.432  1.00  0.00    -0.203 F 
ATOM     55  C   UNL A   1      44.846  31.568  35.169  1.00  0.00     0.198 A 
ATOM     56  C   UNL A   1      46.776  31.782  33.815  1.00  0.00     0.198 A 
ATOM     57  F   UNL A   1      46.834  30.922  31.681  1.00  0.00    -0.203 F 
ATOM     58  F   UNL A   1      44.190  31.847  36.304  1.00  0.00    -0.200 F 
ATOM     59  C   UNL A   1      46.136  32.031  35.003  1.00  0.00     0.200 A 
ATOM     60  F   UNL A   1      48.023  32.233  33.611  1.00  0.00    -0.200 F 
ATOM     61  F   UNL A   1      46.749  32.725  35.972  1.00  0.00    -0.200 F 
ENDBRANCH  27  51
BRANCH  39  62
ATOM     62  C   UNL A   1      46.014  26.628  28.366  1.00  0.00     0.064 A 
ATOM     63  C   UNL A   1      47.301  26.980  27.938  1.00  0.00     0.173 A 
ATOM     64  C   UNL A   1      44.943  27.176  27.639  1.00  0.00     0.173 A 
ATOM     65  F   UNL A   1      48.375  26.503  28.584  1.00  0.00    -0.203 F 
ATOM     66  C   UNL A   1      47.497  27.836  26.851  1.00  0.00     0.198 A 
ATOM     67  C   UNL A   1      45.134  28.018  26.547  1.00  0.00     0.198 A 
ATOM     68  F   UNL A   1      43.687  26.904  27.984  1.00  0.00    -0.203 F 
ATOM     69  F   UNL A   1      48.741  28.164  26.475  1.00  0.00    -0.200 F 
ATOM     70  C   UNL A   1      46.415  28.356  26.157  1.00  0.00     0.200 A 
ATOM     71  F   UNL A   1      44.074  28.498  25.879  1.00  0.00    -0.200 F 
ATOM     72  F   UNL A   1      46.604  29.173  25.112  1.00  0.00    -0.200 F 
ENDBRANCH  39  62
ENDBRANCH  13  14
ENDBRANCH   6   8
ENDBRANCH   3   4
ENDBRANCH   2   3
ENDBRANCH   1   2
BRANCH   1  73
ATOM     73  C   UNL A   1      31.169  28.515  24.907  1.00  0.00     0.002 C 
BRANCH  73  74
ATOM     74  C   UNL A   1      31.392  28.592  23.390  1.00  0.00     0.021 C 
BRANCH  74  75
ATOM     75  C   UNL A   1      30.654  27.518  22.590  1.00  0.00     0.116 C 
BRANCH  75  76
ATOM     76  N   UNL A   1      31.544  26.896  21.627  1.00  0.00    -0.352 N 
ATOM     77  C   UNL A   1      32.430  25.872  21.835  1.00  0.00     0.252 C 
ATOM     78  H   UNL A   1      31.507  27.255  20.710  1.00  0.00     0.163 HD
ATOM     79  O   UNL A   1      33.358  25.709  21.039  1.00  0.00    -0.269 OA
BRANCH  77  80
ATOM     80  C   UNL A   1      32.224  25.002  22.979  1.00  0.00     0.057 A 
ATOM     81  C   UNL A   1      31.093  24.183  23.265  1.00  0.00     0.033 A 
ATOM     82  C   UNL A   1      33.151  24.742  23.976  1.00  0.00     0.099 A 
ATOM     83  C   UNL A   1      31.367  23.472  24.410  1.00  0.00     0.087 A 
ATOM     84  N   UNL A   1      32.607  23.844  24.862  1.00  0.00    -0.349 N 
BRANCH  84  85
ATOM     85  C   UNL A   1      33.295  23.267  26.017  1.00  0.00     0.160 C 
BRANCH  85  86
ATOM     86  C   UNL A   1      34.362  22.273  25.616  1.00  0.00     0.009 A 
ATOM     87  C   UNL A   1      35.721  22.639  25.533  1.00  0.00     0.047 A 
ATOM     88  C   UNL A   1      34.040  20.937  25.302  1.00  0.00     0.047 A 
ATOM     89  Cl  UNL A   1      36.297  24.207  25.985  1.00  0.00    -0.084 Cl
ATOM     90  C   UNL A   1      36.700  21.726  25.117  1.00  0.00     0.021 A 
ATOM     91  C   UNL A   1      35.025  20.020  24.909  1.00  0.00     0.021 A 
ATOM     92  Cl  UNL A   1      32.425  20.323  25.411  1.00  0.00    -0.084 Cl
ATOM     93  C   UNL A   1      36.354  20.417  24.806  1.00  0.00     0.003 A 
ENDBRANCH  85  86
ENDBRANCH  84  85
ENDBRANCH  77  80
ENDBRANCH  75  76
ENDBRANCH  74  75
ENDBRANCH  73  74
ENDBRANCH   1  73
TORSDOF 15
ENDMDL
MODEL 3
REMARK VINA RESULT:     -11.7      2.165      8.251
REMARK SMILES O=C(NCCCCCCNC(=O)c1ccn(Cc2c(Cl)cccc2Cl)c1)c1ccc(-c2c3nc(c(-c4c(F)c(F)c(F)c(F)c4F)c4ccc([nH]4)c(-c4c(F)c(F)c(F)c(F)c4F)c4nc(c(-c5c(F)c(F)c(F)c(F)c5F)c5ccc2[nH]5)C=C4)C=C3)cc1
REMARK SMILES IDX 6 1 5 2 4 3 3 4 1 5 2 6 27 8 28 9 89 10 29 11 88 12 30 13
REMARK SMILES IDX 31 14 32 15 82 16 33 17 87 18 81 19 83 20 34 21 86 22 80 23
REMARK SMILES IDX 79 24 35 26 67 27 47 28 66 29 48 30 51 31 65 32 84 33 49 34
REMARK SMILES IDX 50 35 64 37 85 38 52 39 36 40 37 41 45 42 38 43 39 44 43 45
REMARK SMILES IDX 46 46 40 47 41 48 44 49 42 50 68 51 69 52 77 53 70 54 71 55
REMARK SMILES IDX 75 56 78 57 72 58 73 59 76 60 74 61 53 62 54 63 62 64 55 65
REMARK SMILES IDX 56 66 60 67 63 68 57 69 58 70 61 71 59 72 7 73 8 74 9 75
REMARK SMILES IDX 10 76 11 77 12 79 13 80 14 81 26 82 15 83 16 84 17 85 18 86
REMARK SMILES IDX 19 87 24 88 20 89 21 90 23 91 25 92 22 93
REMARK H PARENT 3 7 83 25 51 36 10 78
REMARK Flexibility Score: inf
ROOT
ATOM      1  C   UNL A   1      31.218  28.007  25.515  1.00  0.00     0.002 C 
ENDROOT
BRANCH   1   2
ATOM      2  C   UNL A   1      32.155  28.175  26.714  1.00  0.00     0.021 C 
BRANCH   2   3
ATOM      3  C   UNL A   1      33.344  29.101  26.455  1.00  0.00     0.116 C 
BRANCH   3   4
ATOM      4  N   UNL A   1      33.285  30.369  27.159  1.00  0.00    -0.352 N 
ATOM      5  O   UNL A   1      33.892  32.106  28.440  1.00  0.00    -0.269 OA
ATOM      6  C   UNL A   1      34.204  31.030  27.935  1.00  0.00     0.251 C 
ATOM      7  H   UNL A   1      32.428  30.842  27.063  1.00  0.00     0.163 HD
BRANCH   6   8
ATOM      8  C   UNL A   1      35.543  30.464  28.222  1.00  0.00     0.039 A 
ATOM      9  C   UNL A   1      36.598  30.534  27.312  1.00  0.00     0.014 A 
ATOM     10  C   UNL A   1      35.757  29.896  29.489  1.00  0.00     0.014 A 
ATOM     11  C   UNL A   1      37.830  29.977  27.626  1.00  0.00     0.010 A 
ATOM     12  C   UNL A   1      37.008  29.381  29.831  1.00  0.00     0.010 A 
ATOM     13  C   UNL A   1      38.048  29.428  28.894  1.00  0.00    -0.014 A 
BRANCH  13  14
ATOM     14  C   UNL A   1      39.452  29.120  29.249  1.00  0.00     0.031 A 
ATOM     15  C   UNL A   1      40.188  30.321  29.839  1.00  0.00     0.074 A 
ATOM     16  C   UNL A   1      39.935  27.890  28.927  1.00  0.00     0.049 A 
ATOM     17  N   UNL A   1      41.449  30.629  29.799  1.00  0.00    -0.248 NA
ATOM     18  C   UNL A   1      39.381  31.379  30.502  1.00  0.00     0.031 C 
ATOM     19  C   UNL A   1      39.110  26.813  28.364  1.00  0.00     0.029 A 
ATOM     20  N   UNL A   1      41.184  27.301  28.981  1.00  0.00    -0.354 N 
ATOM     21  C   UNL A   1      41.607  31.803  30.557  1.00  0.00     0.074 A 
ATOM     22  C   UNL A   1      40.291  32.284  30.858  1.00  0.00     0.031 C 
ATOM     23  C   UNL A   1      39.870  25.740  28.074  1.00  0.00     0.029 A 
ATOM     24  C   UNL A   1      41.256  26.002  28.419  1.00  0.00     0.049 A 
ATOM     25  H   UNL A   1      41.965  27.750  29.379  1.00  0.00     0.167 HD
ATOM     26  C   UNL A   1      42.808  32.257  31.014  1.00  0.00     0.037 A 
ATOM     27  C   UNL A   1      42.348  25.204  28.207  1.00  0.00     0.037 A 
ATOM     28  C   UNL A   1      43.885  31.436  30.581  1.00  0.00     0.049 A 
ATOM     29  C   UNL A   1      43.500  25.918  28.792  1.00  0.00     0.074 A 
ATOM     30  C   UNL A   1      44.599  31.331  29.418  1.00  0.00     0.029 A 
ATOM     31  N   UNL A   1      44.237  30.391  31.397  1.00  0.00    -0.354 N 
ATOM     32  N   UNL A   1      43.738  26.024  30.066  1.00  0.00    -0.248 NA
ATOM     33  C   UNL A   1      44.442  26.606  27.899  1.00  0.00     0.031 C 
ATOM     34  C   UNL A   1      45.156  30.031  29.438  1.00  0.00     0.029 A 
ATOM     35  C   UNL A   1      44.741  29.386  30.607  1.00  0.00     0.049 A 
ATOM     36  H   UNL A   1      44.144  30.365  32.377  1.00  0.00     0.167 HD
ATOM     37  C   UNL A   1      44.668  27.040  30.121  1.00  0.00     0.074 A 
ATOM     38  C   UNL A   1      45.258  27.132  28.808  1.00  0.00     0.031 C 
ATOM     39  C   UNL A   1      44.535  28.022  31.046  1.00  0.00     0.037 A 
BRANCH  26  40
ATOM     40  C   UNL A   1      43.106  33.314  32.041  1.00  0.00     0.064 A 
ATOM     41  C   UNL A   1      42.821  33.043  33.399  1.00  0.00     0.173 A 
ATOM     42  C   UNL A   1      43.357  34.654  31.715  1.00  0.00     0.173 A 
ATOM     43  F   UNL A   1      42.584  31.787  33.811  1.00  0.00    -0.203 F 
ATOM     44  C   UNL A   1      42.707  34.057  34.347  1.00  0.00     0.198 A 
ATOM     45  C   UNL A   1      43.290  35.664  32.679  1.00  0.00     0.198 A 
ATOM     46  F   UNL A   1      43.577  35.030  30.447  1.00  0.00    -0.203 F 
ATOM     47  F   UNL A   1      42.325  33.763  35.598  1.00  0.00    -0.200 F 
ATOM     48  C   UNL A   1      42.933  35.370  33.985  1.00  0.00     0.200 A 
ATOM     49  F   UNL A   1      43.507  36.938  32.321  1.00  0.00    -0.200 F 
ATOM     50  F   UNL A   1      42.776  36.354  34.880  1.00  0.00    -0.200 F 
ENDBRANCH  26  40
BRANCH  27  51
ATOM     51  C   UNL A   1      42.645  23.889  27.509  1.00  0.00     0.064 A 
ATOM     52  C   UNL A   1      42.519  22.608  28.066  1.00  0.00     0.173 A 
ATOM     53  C   UNL A   1      43.050  23.875  26.142  1.00  0.00     0.173 A 
ATOM     54  F   UNL A   1      42.275  22.428  29.364  1.00  0.00    -0.203 F 
ATOM     55  C   UNL A   1      42.668  21.433  27.307  1.00  0.00     0.198 A 
ATOM     56  C   UNL A   1      43.175  22.711  25.380  1.00  0.00     0.198 A 
ATOM     57  F   UNL A   1      43.343  25.004  25.483  1.00  0.00    -0.203 F 
ATOM     58  F   UNL A   1      42.511  20.241  27.899  1.00  0.00    -0.200 F 
ATOM     59  C   UNL A   1      42.965  21.485  25.960  1.00  0.00     0.200 A 
ATOM     60  F   UNL A   1      43.482  22.799  24.077  1.00  0.00    -0.200 F 
ATOM     61  F   UNL A   1      43.065  20.364  25.233  1.00  0.00    -0.200 F 
ENDBRANCH  27  51
BRANCH  39  62
ATOM     62  C   UNL A   1      43.707  27.591  32.238  1.00  0.00     0.064 A 
ATOM     63  C   UNL A   1      42.380  28.019  32.371  1.00  0.00     0.173 A 
ATOM     64  C   UNL A   1      44.252  26.898  33.331  1.00  0.00     0.173 A 
ATOM     65  F   UNL A   1      41.790  28.693  31.373  1.00  0.00    -0.203 F 
ATOM     66  C   UNL A   1      41.650  27.772  33.538  1.00  0.00     0.198 A 
ATOM     67  C   UNL A   1      43.524  26.636  34.490  1.00  0.00     0.198 A 
ATOM     68  F   UNL A   1      45.510  26.464  33.295  1.00  0.00    -0.203 F 
ATOM     69  F   UNL A   1      40.386  28.206  33.639  1.00  0.00    -0.200 F 
ATOM     70  C   UNL A   1      42.222  27.082  34.596  1.00  0.00     0.200 A 
ATOM     71  F   UNL A   1      44.091  25.954  35.496  1.00  0.00    -0.200 F 
ATOM     72  F   UNL A   1      41.520  26.842  35.711  1.00  0.00    -0.200 F 
ENDBRANCH  39  62
ENDBRANCH  13  14
ENDBRANCH   6   8
ENDBRANCH   3   4
ENDBRANCH   2   3
ENDBRANCH   1   2
BRANCH   1  73
ATOM     73  C   UNL A   1      31.218  29.174  24.522  1.00  0.00     0.002 C 
BRANCH  73  74
ATOM     74  C   UNL A   1      31.443  28.786  23.055  1.00  0.00     0.021 C 
BRANCH  74  75
ATOM     75  C   UNL A   1      32.853  28.281  22.746  1.00  0.00     0.116 C 
BRANCH  75  76
ATOM     76  N   UNL A   1      32.827  27.328  21.651  1.00  0.00    -0.352 N 
ATOM     77  C   UNL A   1      32.918  25.962  21.719  1.00  0.00     0.252 C 
ATOM     78  H   UNL A   1      32.733  27.710  20.749  1.00  0.00     0.163 HD
ATOM     79  O   UNL A   1      33.249  25.331  20.713  1.00  0.00    -0.269 OA
BRANCH  77  80
ATOM     80  C   UNL A   1      32.594  25.309  22.976  1.00  0.00     0.057 A 
ATOM     81  C   UNL A   1      31.307  24.958  23.474  1.00  0.00     0.033 A 
ATOM     82  C   UNL A   1      33.510  24.823  23.895  1.00  0.00     0.099 A 
ATOM     83  C   UNL A   1      31.483  24.289  24.662  1.00  0.00     0.087 A 
ATOM     84  N   UNL A   1      32.827  24.242  24.934  1.00  0.00    -0.349 N 
BRANCH  84  85
ATOM     85  C   UNL A   1      33.436  23.554  26.073  1.00  0.00     0.160 C 
BRANCH  85  86
ATOM     86  C   UNL A   1      34.322  22.404  25.646  1.00  0.00     0.009 A 
ATOM     87  C   UNL A   1      33.785  21.155  25.274  1.00  0.00     0.047 A 
ATOM     88  C   UNL A   1      35.725  22.534  25.609  1.00  0.00     0.047 A 
ATOM     89  Cl  UNL A   1      32.083  20.862  25.165  1.00  0.00    -0.084 Cl
ATOM     90  C   UNL A   1      34.613  20.079  24.923  1.00  0.00     0.021 A 
ATOM     91  C   UNL A   1      36.548  21.463  25.234  1.00  0.00     0.021 A 
ATOM     92  Cl  UNL A   1      36.528  24.021  25.983  1.00  0.00    -0.084 Cl
ATOM     93  C   UNL A   1      35.994  20.231  24.902  1.00  0.00     0.003 A 
ENDBRANCH  85  86
ENDBRANCH  84  85
ENDBRANCH  77  80
ENDBRANCH  75  76
ENDBRANCH  74  75
ENDBRANCH  73  74
ENDBRANCH   1  73
TORSDOF 15
ENDMDL
