MODEL 1
REMARK VINA RESULT:     -11.5      0.000      0.000
REMARK SMILES CC(C)[C@H](Nc1cc(C#N)ccn1)C(=O)NCCCCCCNC(=O)c1ccc(-c2c3nc(c(-c4c(F)c(F)c(F)c(F)c4F)c4ccc([nH]4)c(-c4c(F)c(F)c(F)c(F)c4F)c4nc(c(-c5c(F)c(F)c(F)c(F)c5F)c5ccc2[nH]5)C=C4)C=C3)cc1
REMARK SMILES IDX 19 1 18 2 17 3 16 4 14 5 15 6 4 8 2 9 1 10 3 11 5 12 6 14
REMARK SMILES IDX 7 15 13 16 8 17 12 18 11 19 9 20 10 21 20 22 21 23 22 24
REMARK SMILES IDX 23 25 24 26 25 28 26 29 27 30 88 31 28 32 87 33 29 34 30 35
REMARK SMILES IDX 31 36 81 37 32 38 86 39 80 40 82 41 33 42 85 43 79 44 78 45
REMARK SMILES IDX 34 47 66 48 46 49 65 50 47 51 50 52 64 53 83 54 48 55 49 56
REMARK SMILES IDX 63 58 84 59 51 60 35 61 36 62 44 63 37 64 38 65 42 66 45 67
REMARK SMILES IDX 39 68 40 69 43 70 41 71 67 72 68 73 76 74 69 75 70 76 74 77
REMARK SMILES IDX 77 78 71 79 72 80 75 81 73 82 52 83 53 84 61 85 54 86 55 87
REMARK SMILES IDX 59 88 62 89 56 90 57 91 60 92 58 93
REMARK H PARENT 16 7 5 13 23 27 82 46 50 57
REMARK Flexibility Score: inf
ROOT
ATOM      1  C   UNL A   1      37.497  22.402  24.970  1.00  0.00     0.002 C 
ENDROOT
BRANCH   1   2
ATOM      2  C   UNL A   1      36.742  23.322  25.936  1.00  0.00     0.021 C 
BRANCH   2   3
ATOM      3  C   UNL A   1      35.395  23.774  25.391  1.00  0.00     0.116 C 
BRANCH   3   4
ATOM      4  N   UNL A   1      34.325  23.506  26.332  1.00  0.00    -0.354 N 
ATOM      5  C   UNL A   1      33.295  22.610  26.274  1.00  0.00     0.242 C 
ATOM      6  O   UNL A   1      32.602  22.472  27.286  1.00  0.00    -0.273 OA
ATOM      7  H   UNL A   1      34.342  24.059  27.145  1.00  0.00     0.163 HD
BRANCH   5   8
ATOM      8  C   UNL A   1      33.021  21.784  24.998  1.00  0.00     0.172 C 
BRANCH   8   9
ATOM      9  C   UNL A   1      32.171  22.525  23.910  1.00  0.00     0.015 C 
ATOM     10  C   UNL A   1      31.605  23.907  24.261  1.00  0.00     0.010 C 
ATOM     11  C   UNL A   1      33.007  22.685  22.632  1.00  0.00     0.010 C 
ENDBRANCH   8   9
BRANCH   8  12
ATOM     12  N   UNL A   1      32.489  20.460  25.373  1.00  0.00    -0.358 N 
ATOM     13  H   UNL A   1      31.906  20.397  26.163  1.00  0.00     0.162 HD
BRANCH  12  14
ATOM     14  C   UNL A   1      32.765  19.315  24.677  1.00  0.00     0.127 A 
ATOM     15  C   UNL A   1      33.581  18.314  25.170  1.00  0.00     0.066 A 
ATOM     16  N   UNL A   1      32.221  19.253  23.446  1.00  0.00    -0.239 NA
ATOM     17  C   UNL A   1      33.873  17.222  24.355  1.00  0.00     0.057 A 
ATOM     18  C   UNL A   1      32.537  18.201  22.662  1.00  0.00     0.115 A 
ATOM     19  C   UNL A   1      33.358  17.169  23.065  1.00  0.00     0.040 A 
BRANCH  17  20
ATOM     20  C   UNL A   1      34.702  16.166  24.852  1.00  0.00     0.099 C 
ATOM     21  N   UNL A   1      35.373  15.310  25.250  1.00  0.00    -0.192 NA
ENDBRANCH  17  20
ENDBRANCH  12  14
ENDBRANCH   8  12
ENDBRANCH   5   8
ENDBRANCH   3   4
ENDBRANCH   2   3
ENDBRANCH   1   2
BRANCH   1  22
ATOM     22  C   UNL A   1      36.945  20.972  24.880  1.00  0.00     0.002 C 
BRANCH  22  23
ATOM     23  C   UNL A   1      38.006  19.874  24.964  1.00  0.00     0.021 C 
BRANCH  23  24
ATOM     24  C   UNL A   1      39.248  20.280  25.743  1.00  0.00     0.116 C 
BRANCH  24  25
ATOM     25  N   UNL A   1      40.174  19.169  25.905  1.00  0.00    -0.352 N 
ATOM     26  C   UNL A   1      41.529  19.205  26.107  1.00  0.00     0.251 C 
ATOM     27  H   UNL A   1      39.773  18.270  25.864  1.00  0.00     0.163 HD
ATOM     28  O   UNL A   1      42.206  18.187  26.018  1.00  0.00    -0.269 OA
BRANCH  26  29
ATOM     29  C   UNL A   1      42.165  20.500  26.413  1.00  0.00     0.039 A 
ATOM     30  C   UNL A   1      42.608  21.308  25.365  1.00  0.00     0.014 A 
ATOM     31  C   UNL A   1      42.280  20.926  27.738  1.00  0.00     0.014 A 
ATOM     32  C   UNL A   1      43.111  22.579  25.645  1.00  0.00     0.010 A 
ATOM     33  C   UNL A   1      42.695  22.222  28.007  1.00  0.00     0.010 A 
ATOM     34  C   UNL A   1      43.123  23.059  26.964  1.00  0.00    -0.014 A 
BRANCH  34  35
ATOM     35  C   UNL A   1      43.598  24.425  27.297  1.00  0.00     0.031 A 
ATOM     36  C   UNL A   1      42.622  25.440  27.821  1.00  0.00     0.074 A 
ATOM     37  C   UNL A   1      44.875  24.773  27.051  1.00  0.00     0.049 A 
ATOM     38  N   UNL A   1      42.794  26.717  28.045  1.00  0.00    -0.248 NA
ATOM     39  C   UNL A   1      41.260  24.958  28.100  1.00  0.00     0.031 C 
ATOM     40  C   UNL A   1      45.909  23.883  26.524  1.00  0.00     0.029 A 
ATOM     41  N   UNL A   1      45.516  25.978  27.196  1.00  0.00    -0.354 N 
ATOM     42  C   UNL A   1      41.562  27.191  28.476  1.00  0.00     0.074 A 
ATOM     43  C   UNL A   1      40.636  26.082  28.418  1.00  0.00     0.031 C 
ATOM     44  C   UNL A   1      47.059  24.566  26.407  1.00  0.00     0.029 A 
ATOM     45  C   UNL A   1      46.830  25.955  26.797  1.00  0.00     0.049 A 
ATOM     46  H   UNL A   1      45.075  26.783  27.552  1.00  0.00     0.167 HD
ATOM     47  C   UNL A   1      41.239  28.434  28.903  1.00  0.00     0.037 A 
ATOM     48  C   UNL A   1      47.739  26.947  26.733  1.00  0.00     0.037 A 
ATOM     49  C   UNL A   1      42.169  29.530  28.964  1.00  0.00     0.049 A 
ATOM     50  C   UNL A   1      47.339  28.336  27.156  1.00  0.00     0.074 A 
ATOM     51  C   UNL A   1      41.954  30.820  29.415  1.00  0.00     0.029 A 
ATOM     52  N   UNL A   1      43.492  29.466  28.549  1.00  0.00    -0.354 N 
ATOM     53  N   UNL A   1      46.186  28.765  27.609  1.00  0.00    -0.248 NA
ATOM     54  C   UNL A   1      48.369  29.381  27.061  1.00  0.00     0.031 C 
ATOM     55  C   UNL A   1      43.123  31.556  29.207  1.00  0.00     0.029 A 
ATOM     56  C   UNL A   1      44.095  30.704  28.706  1.00  0.00     0.049 A 
ATOM     57  H   UNL A   1      43.936  28.663  28.196  1.00  0.00     0.167 HD
ATOM     58  C   UNL A   1      46.363  30.112  27.897  1.00  0.00     0.074 A 
ATOM     59  C   UNL A   1      47.737  30.431  27.567  1.00  0.00     0.031 C 
ATOM     60  C   UNL A   1      45.471  31.001  28.396  1.00  0.00     0.037 A 
BRANCH  47  61
ATOM     61  C   UNL A   1      39.818  28.677  29.325  1.00  0.00     0.064 A 
ATOM     62  C   UNL A   1      39.386  28.447  30.641  1.00  0.00     0.173 A 
ATOM     63  C   UNL A   1      38.877  29.170  28.407  1.00  0.00     0.173 A 
ATOM     64  F   UNL A   1      40.240  27.967  31.558  1.00  0.00    -0.203 F 
ATOM     65  C   UNL A   1      38.060  28.659  31.010  1.00  0.00     0.198 A 
ATOM     66  C   UNL A   1      37.562  29.420  28.790  1.00  0.00     0.198 A 
ATOM     67  F   UNL A   1      39.234  29.415  27.137  1.00  0.00    -0.203 F 
ATOM     68  F   UNL A   1      37.658  28.368  32.255  1.00  0.00    -0.200 F 
ATOM     69  C   UNL A   1      37.151  29.153  30.087  1.00  0.00     0.200 A 
ATOM     70  F   UNL A   1      36.691  29.916  27.901  1.00  0.00    -0.200 F 
ATOM     71  F   UNL A   1      35.878  29.365  30.445  1.00  0.00    -0.200 F 
ENDBRANCH  47  61
BRANCH  48  72
ATOM     72  C   UNL A   1      49.121  26.663  26.259  1.00  0.00     0.064 A 
ATOM     73  C   UNL A   1      49.486  26.897  24.925  1.00  0.00     0.173 A 
ATOM     74  C   UNL A   1      50.099  26.140  27.118  1.00  0.00     0.173 A 
ATOM     75  F   UNL A   1      48.582  27.378  24.058  1.00  0.00    -0.203 F 
ATOM     76  C   UNL A   1      50.765  26.593  24.464  1.00  0.00     0.198 A 
ATOM     77  C   UNL A   1      51.388  25.870  26.664  1.00  0.00     0.198 A 
ATOM     78  F   UNL A   1      49.806  25.903  28.405  1.00  0.00    -0.203 F 
ATOM     79  F   UNL A   1      51.068  26.773  23.171  1.00  0.00    -0.200 F 
ATOM     80  C   UNL A   1      51.716  26.086  25.334  1.00  0.00     0.200 A 
ATOM     81  F   UNL A   1      52.310  25.397  27.514  1.00  0.00    -0.200 F 
ATOM     82  F   UNL A   1      52.947  25.795  24.891  1.00  0.00    -0.200 F 
ENDBRANCH  48  72
BRANCH  60  83
ATOM     83  C   UNL A   1      45.957  32.394  28.690  1.00  0.00     0.064 A 
ATOM     84  C   UNL A   1      45.855  33.432  27.755  1.00  0.00     0.173 A 
ATOM     85  C   UNL A   1      46.462  32.704  29.963  1.00  0.00     0.173 A 
ATOM     86  F   UNL A   1      45.392  33.187  26.520  1.00  0.00    -0.203 F 
ATOM     87  C   UNL A   1      46.255  34.727  28.077  1.00  0.00     0.198 A 
ATOM     88  C   UNL A   1      46.826  34.006  30.294  1.00  0.00     0.198 A 
ATOM     89  F   UNL A   1      46.574  31.748  30.898  1.00  0.00    -0.203 F 
ATOM     90  F   UNL A   1      46.188  35.696  27.155  1.00  0.00    -0.200 F 
ATOM     91  C   UNL A   1      46.728  35.015  29.350  1.00  0.00     0.200 A 
ATOM     92  F   UNL A   1      47.262  34.284  31.531  1.00  0.00    -0.200 F 
ATOM     93  F   UNL A   1      47.091  36.266  29.665  1.00  0.00    -0.200 F 
ENDBRANCH  60  83
ENDBRANCH  34  35
ENDBRANCH  26  29
ENDBRANCH  24  25
ENDBRANCH  23  24
ENDBRANCH  22  23
ENDBRANCH   1  22
TORSDOF 17
ENDMDL
MODEL 2
REMARK VINA RESULT:     -11.4      0.891      1.973
REMARK SMILES CC(C)[C@H](Nc1cc(C#N)ccn1)C(=O)NCCCCCCNC(=O)c1ccc(-c2c3nc(c(-c4c(F)c(F)c(F)c(F)c4F)c4ccc([nH]4)c(-c4c(F)c(F)c(F)c(F)c4F)c4nc(c(-c5c(F)c(F)c(F)c(F)c5F)c5ccc2[nH]5)C=C4)C=C3)cc1
REMARK SMILES IDX 19 1 18 2 17 3 16 4 14 5 15 6 4 8 2 9 1 10 3 11 5 12 6 14
REMARK SMILES IDX 7 15 13 16 8 17 12 18 11 19 9 20 10 21 20 22 21 23 22 24
REMARK SMILES IDX 23 25 24 26 25 28 26 29 27 30 88 31 28 32 87 33 29 34 30 35
REMARK SMILES IDX 31 36 81 37 32 38 86 39 80 40 82 41 33 42 85 43 79 44 78 45
REMARK SMILES IDX 34 47 66 48 46 49 65 50 47 51 50 52 64 53 83 54 48 55 49 56
REMARK SMILES IDX 63 58 84 59 51 60 35 61 36 62 44 63 37 64 38 65 42 66 45 67
REMARK SMILES IDX 39 68 40 69 43 70 41 71 67 72 68 73 76 74 69 75 70 76 74 77
REMARK SMILES IDX 77 78 71 79 72 80 75 81 73 82 52 83 53 84 61 85 54 86 55 87
REMARK SMILES IDX 59 88 62 89 56 90 57 91 60 92 58 93
REMARK H PARENT 16 7 5 13 23 27 82 46 50 57
REMARK Flexibility Score: inf
ROOT
ATOM      1  C   UNL A   1      38.275  22.277  25.748  1.00  0.00     0.002 C 
ENDROOT
BRANCH   1   2
ATOM      2  C   UNL A   1      37.429  23.553  25.817  1.00  0.00     0.021 C 
BRANCH   2   3
ATOM      3  C   UNL A   1      35.951  23.297  25.561  1.00  0.00     0.116 C 
BRANCH   3   4
ATOM      4  N   UNL A   1      35.325  22.631  26.686  1.00  0.00    -0.354 N 
ATOM      5  C   UNL A   1      34.144  21.950  26.771  1.00  0.00     0.242 C 
ATOM      6  O   UNL A   1      33.911  21.339  27.817  1.00  0.00    -0.273 OA
ATOM      7  H   UNL A   1      35.833  22.677  27.528  1.00  0.00     0.163 HD
BRANCH   5   8
ATOM      8  C   UNL A   1      33.145  21.927  25.592  1.00  0.00     0.172 C 
BRANCH   8   9
ATOM      9  C   UNL A   1      32.326  23.250  25.404  1.00  0.00     0.015 C 
ATOM     10  C   UNL A   1      31.143  23.227  24.427  1.00  0.00     0.010 C 
ATOM     11  C   UNL A   1      31.785  23.712  26.765  1.00  0.00     0.010 C 
ENDBRANCH   8   9
BRANCH   8  12
ATOM     12  N   UNL A   1      32.310  20.714  25.677  1.00  0.00    -0.358 N 
ATOM     13  H   UNL A   1      31.578  20.696  26.335  1.00  0.00     0.162 HD
BRANCH  12  14
ATOM     14  C   UNL A   1      32.501  19.613  24.889  1.00  0.00     0.127 A 
ATOM     15  C   UNL A   1      32.959  18.405  25.382  1.00  0.00     0.066 A 
ATOM     16  N   UNL A   1      32.257  19.804  23.578  1.00  0.00    -0.239 NA
ATOM     17  C   UNL A   1      33.204  17.364  24.490  1.00  0.00     0.057 A 
ATOM     18  C   UNL A   1      32.526  18.792  22.726  1.00  0.00     0.115 A 
ATOM     19  C   UNL A   1      33.004  17.562  23.129  1.00  0.00     0.040 A 
BRANCH  17  20
ATOM     20  C   UNL A   1      33.663  16.100  24.981  1.00  0.00     0.099 C 
ATOM     21  N   UNL A   1      34.037  15.077  25.376  1.00  0.00    -0.192 NA
ENDBRANCH  17  20
ENDBRANCH  12  14
ENDBRANCH   8  12
ENDBRANCH   5   8
ENDBRANCH   3   4
ENDBRANCH   2   3
ENDBRANCH   1   2
BRANCH   1  22
ATOM     22  C   UNL A   1      37.698  21.170  24.855  1.00  0.00     0.002 C 
BRANCH  22  23
ATOM     23  C   UNL A   1      38.475  19.853  24.888  1.00  0.00     0.021 C 
BRANCH  23  24
ATOM     24  C   UNL A   1      39.323  19.675  26.139  1.00  0.00     0.116 C 
BRANCH  24  25
ATOM     25  N   UNL A   1      40.532  18.913  25.868  1.00  0.00    -0.352 N 
ATOM     26  C   UNL A   1      41.830  19.353  25.822  1.00  0.00     0.251 C 
ATOM     27  H   UNL A   1      40.402  17.952  25.696  1.00  0.00     0.163 HD
ATOM     28  O   UNL A   1      42.722  18.638  25.379  1.00  0.00    -0.269 OA
BRANCH  26  29
ATOM     29  C   UNL A   1      42.133  20.716  26.296  1.00  0.00     0.039 A 
ATOM     30  C   UNL A   1      42.293  20.945  27.663  1.00  0.00     0.014 A 
ATOM     31  C   UNL A   1      42.299  21.754  25.376  1.00  0.00     0.014 A 
ATOM     32  C   UNL A   1      42.684  22.208  28.105  1.00  0.00     0.010 A 
ATOM     33  C   UNL A   1      42.775  22.983  25.809  1.00  0.00     0.010 A 
ATOM     34  C   UNL A   1      42.965  23.225  27.178  1.00  0.00    -0.014 A 
BRANCH  34  35
ATOM     35  C   UNL A   1      43.437  24.566  27.605  1.00  0.00     0.031 A 
ATOM     36  C   UNL A   1      42.433  25.622  27.971  1.00  0.00     0.074 A 
ATOM     37  C   UNL A   1      44.752  24.857  27.583  1.00  0.00     0.049 A 
ATOM     38  N   UNL A   1      42.621  26.889  28.239  1.00  0.00    -0.248 NA
ATOM     39  C   UNL A   1      41.023  25.202  28.010  1.00  0.00     0.031 C 
ATOM     40  C   UNL A   1      45.820  23.923  27.226  1.00  0.00     0.029 A 
ATOM     41  N   UNL A   1      45.412  26.030  27.851  1.00  0.00    -0.354 N 
ATOM     42  C   UNL A   1      41.356  27.416  28.461  1.00  0.00     0.074 A 
ATOM     43  C   UNL A   1      40.405  26.351  28.233  1.00  0.00     0.031 C 
ATOM     44  C   UNL A   1      47.002  24.553  27.315  1.00  0.00     0.029 A 
ATOM     45  C   UNL A   1      46.772  25.948  27.679  1.00  0.00     0.049 A 
ATOM     46  H   UNL A   1      44.953  26.852  28.139  1.00  0.00     0.167 HD
ATOM     47  C   UNL A   1      41.021  28.670  28.845  1.00  0.00     0.037 A 
ATOM     48  C   UNL A   1      47.722  26.897  27.784  1.00  0.00     0.037 A 
ATOM     49  C   UNL A   1      41.975  29.722  29.077  1.00  0.00     0.049 A 
ATOM     50  C   UNL A   1      47.318  28.301  28.153  1.00  0.00     0.074 A 
ATOM     51  C   UNL A   1      41.745  31.017  29.503  1.00  0.00     0.029 A 
ATOM     52  N   UNL A   1      43.345  29.600  28.891  1.00  0.00    -0.354 N 
ATOM     53  N   UNL A   1      46.126  28.780  28.410  1.00  0.00    -0.248 NA
ATOM     54  C   UNL A   1      48.395  29.298  28.248  1.00  0.00     0.031 C 
ATOM     55  C   UNL A   1      42.963  31.700  29.506  1.00  0.00     0.029 A 
ATOM     56  C   UNL A   1      43.967  30.807  29.165  1.00  0.00     0.049 A 
ATOM     57  H   UNL A   1      43.807  28.778  28.607  1.00  0.00     0.167 HD
ATOM     58  C   UNL A   1      46.311  30.116  28.742  1.00  0.00     0.074 A 
ATOM     59  C   UNL A   1      47.734  30.373  28.653  1.00  0.00     0.031 C 
ATOM     60  C   UNL A   1      45.388  31.042  29.096  1.00  0.00     0.037 A 
BRANCH  47  61
ATOM     61  C   UNL A   1      39.561  28.976  29.024  1.00  0.00     0.064 A 
ATOM     62  C   UNL A   1      38.749  29.371  27.949  1.00  0.00     0.173 A 
ATOM     63  C   UNL A   1      38.957  28.849  30.285  1.00  0.00     0.173 A 
ATOM     64  F   UNL A   1      39.275  29.517  26.723  1.00  0.00    -0.203 F 
ATOM     65  C   UNL A   1      37.402  29.668  28.137  1.00  0.00     0.198 A 
ATOM     66  C   UNL A   1      37.601  29.107  30.462  1.00  0.00     0.198 A 
ATOM     67  F   UNL A   1      39.683  28.468  31.348  1.00  0.00    -0.203 F 
ATOM     68  F   UNL A   1      36.664  30.108  27.108  1.00  0.00    -0.200 F 
ATOM     69  C   UNL A   1      36.827  29.529  29.391  1.00  0.00     0.200 A 
ATOM     70  F   UNL A   1      37.043  28.953  31.670  1.00  0.00    -0.200 F 
ATOM     71  F   UNL A   1      35.529  29.807  29.569  1.00  0.00    -0.200 F 
ENDBRANCH  47  61
BRANCH  48  72
ATOM     72  C   UNL A   1      49.150  26.553  27.546  1.00  0.00     0.064 A 
ATOM     73  C   UNL A   1      49.659  26.451  26.243  1.00  0.00     0.173 A 
ATOM     74  C   UNL A   1      50.032  26.304  28.609  1.00  0.00     0.173 A 
ATOM     75  F   UNL A   1      48.852  26.661  25.192  1.00  0.00    -0.203 F 
ATOM     76  C   UNL A   1      50.983  26.087  26.012  1.00  0.00     0.198 A 
ATOM     77  C   UNL A   1      51.366  25.974  28.377  1.00  0.00     0.198 A 
ATOM     78  F   UNL A   1      49.601  26.393  29.875  1.00  0.00    -0.203 F 
ATOM     79  F   UNL A   1      51.425  25.941  24.755  1.00  0.00    -0.200 F 
ATOM     80  C   UNL A   1      51.837  25.854  27.078  1.00  0.00     0.200 A 
ATOM     81  F   UNL A   1      52.192  25.769  29.412  1.00  0.00    -0.200 F 
ATOM     82  F   UNL A   1      53.112  25.505  26.857  1.00  0.00    -0.200 F 
ENDBRANCH  48  72
BRANCH  60  83
ATOM     83  C   UNL A   1      45.878  32.409  29.487  1.00  0.00     0.064 A 
ATOM     84  C   UNL A   1      46.320  32.701  30.784  1.00  0.00     0.173 A 
ATOM     85  C   UNL A   1      45.978  33.420  28.516  1.00  0.00     0.173 A 
ATOM     86  F   UNL A   1      46.233  31.775  31.752  1.00  0.00    -0.203 F 
ATOM     87  C   UNL A   1      46.827  33.958  31.101  1.00  0.00     0.198 A 
ATOM     88  C   UNL A   1      46.520  34.663  28.827  1.00  0.00     0.198 A 
ATOM     89  F   UNL A   1      45.576  33.191  27.257  1.00  0.00    -0.203 F 
ATOM     90  F   UNL A   1      47.205  34.229  32.357  1.00  0.00    -0.200 F 
ATOM     91  C   UNL A   1      46.940  34.933  30.120  1.00  0.00     0.200 A 
ATOM     92  F   UNL A   1      46.647  35.594  27.872  1.00  0.00    -0.200 F 
ATOM     93  F   UNL A   1      47.450  36.135  30.422  1.00  0.00    -0.200 F 
ENDBRANCH  60  83
ENDBRANCH  34  35
ENDBRANCH  26  29
ENDBRANCH  24  25
ENDBRANCH  23  24
ENDBRANCH  22  23
ENDBRANCH   1  22
TORSDOF 17
ENDMDL
MODEL 3
REMARK VINA RESULT:     -11.4      6.387     11.831
REMARK SMILES CC(C)[C@H](Nc1cc(C#N)ccn1)C(=O)NCCCCCCNC(=O)c1ccc(-c2c3nc(c(-c4c(F)c(F)c(F)c(F)c4F)c4ccc([nH]4)c(-c4c(F)c(F)c(F)c(F)c4F)c4nc(c(-c5c(F)c(F)c(F)c(F)c5F)c5ccc2[nH]5)C=C4)C=C3)cc1
REMARK SMILES IDX 19 1 18 2 17 3 16 4 14 5 15 6 4 8 2 9 1 10 3 11 5 12 6 14
REMARK SMILES IDX 7 15 13 16 8 17 12 18 11 19 9 20 10 21 20 22 21 23 22 24
REMARK SMILES IDX 23 25 24 26 25 28 26 29 27 30 88 31 28 32 87 33 29 34 30 35
REMARK SMILES IDX 31 36 81 37 32 38 86 39 80 40 82 41 33 42 85 43 79 44 78 45
REMARK SMILES IDX 34 47 66 48 46 49 65 50 47 51 50 52 64 53 83 54 48 55 49 56
REMARK SMILES IDX 63 58 84 59 51 60 35 61 36 62 44 63 37 64 38 65 42 66 45 67
REMARK SMILES IDX 39 68 40 69 43 70 41 71 67 72 68 73 76 74 69 75 70 76 74 77
REMARK SMILES IDX 77 78 71 79 72 80 75 81 73 82 52 83 53 84 61 85 54 86 55 87
REMARK SMILES IDX 59 88 62 89 56 90 57 91 60 92 58 93
REMARK H PARENT 16 7 5 13 23 27 82 46 50 57
REMARK Flexibility Score: inf
ROOT
ATOM      1  C   UNL A   1      33.204  30.077  26.268  1.00  0.00     0.002 C 
ENDROOT
BRANCH   1   2
ATOM      2  C   UNL A   1      33.274  29.375  24.907  1.00  0.00     0.021 C 
BRANCH   2   3
ATOM      3  C   UNL A   1      33.618  27.897  25.021  1.00  0.00     0.116 C 
BRANCH   3   4
ATOM      4  N   UNL A   1      33.600  27.246  23.726  1.00  0.00    -0.354 N 
ATOM      5  C   UNL A   1      32.563  26.992  22.874  1.00  0.00     0.242 C 
ATOM      6  O   UNL A   1      32.839  26.558  21.752  1.00  0.00    -0.273 OA
ATOM      7  H   UNL A   1      34.477  26.937  23.408  1.00  0.00     0.163 HD
BRANCH   5   8
ATOM      8  C   UNL A   1      31.099  27.259  23.289  1.00  0.00     0.172 C 
BRANCH   8   9
ATOM      9  C   UNL A   1      30.291  25.978  23.695  1.00  0.00     0.015 C 
ATOM     10  C   UNL A   1      30.897  24.611  23.352  1.00  0.00     0.010 C 
ATOM     11  C   UNL A   1      30.034  25.997  25.209  1.00  0.00     0.010 C 
ENDBRANCH   8   9
BRANCH   8  12
ATOM     12  N   UNL A   1      30.436  28.082  22.260  1.00  0.00    -0.358 N 
ATOM     13  H   UNL A   1      30.734  27.992  21.327  1.00  0.00     0.162 HD
BRANCH  12  14
ATOM     14  C   UNL A   1      29.427  28.963  22.538  1.00  0.00     0.127 A 
ATOM     15  C   UNL A   1      29.616  30.332  22.583  1.00  0.00     0.066 A 
ATOM     16  N   UNL A   1      28.237  28.396  22.815  1.00  0.00    -0.239 NA
ATOM     17  C   UNL A   1      28.549  31.146  22.957  1.00  0.00     0.057 A 
ATOM     18  C   UNL A   1      27.223  29.198  23.202  1.00  0.00     0.115 A 
ATOM     19  C   UNL A   1      27.330  30.571  23.293  1.00  0.00     0.040 A 
BRANCH  17  20
ATOM     20  C   UNL A   1      28.718  32.567  22.994  1.00  0.00     0.099 C 
ATOM     21  N   UNL A   1      28.856  33.717  23.020  1.00  0.00    -0.192 NA
ENDBRANCH  17  20
ENDBRANCH  12  14
ENDBRANCH   8  12
ENDBRANCH   5   8
ENDBRANCH   3   4
ENDBRANCH   2   3
ENDBRANCH   1   2
BRANCH   1  22
ATOM     22  C   UNL A   1      31.790  30.469  26.718  1.00  0.00     0.002 C 
BRANCH  22  23
ATOM     23  C   UNL A   1      31.561  31.974  26.860  1.00  0.00     0.021 C 
BRANCH  23  24
ATOM     24  C   UNL A   1      32.789  32.740  27.326  1.00  0.00     0.116 C 
BRANCH  24  25
ATOM     25  N   UNL A   1      32.485  34.134  27.607  1.00  0.00    -0.352 N 
ATOM     26  C   UNL A   1      33.009  34.948  28.579  1.00  0.00     0.251 C 
ATOM     27  H   UNL A   1      31.811  34.551  27.021  1.00  0.00     0.163 HD
ATOM     28  O   UNL A   1      32.505  36.037  28.827  1.00  0.00    -0.269 OA
BRANCH  26  29
ATOM     29  C   UNL A   1      34.180  34.476  29.340  1.00  0.00     0.039 A 
ATOM     30  C   UNL A   1      33.988  33.861  30.577  1.00  0.00     0.014 A 
ATOM     31  C   UNL A   1      35.462  34.610  28.802  1.00  0.00     0.014 A 
ATOM     32  C   UNL A   1      35.083  33.318  31.250  1.00  0.00     0.010 A 
ATOM     33  C   UNL A   1      36.535  33.991  29.428  1.00  0.00     0.010 A 
ATOM     34  C   UNL A   1      36.358  33.346  30.662  1.00  0.00    -0.014 A 
BRANCH  34  35
ATOM     35  C   UNL A   1      37.538  32.731  31.319  1.00  0.00     0.031 A 
ATOM     36  C   UNL A   1      38.248  31.591  30.647  1.00  0.00     0.074 A 
ATOM     37  C   UNL A   1      37.914  33.137  32.547  1.00  0.00     0.049 A 
ATOM     38  N   UNL A   1      39.208  30.827  31.102  1.00  0.00    -0.248 NA
ATOM     39  C   UNL A   1      37.796  31.243  29.290  1.00  0.00     0.031 C 
ATOM     40  C   UNL A   1      37.291  34.219  33.309  1.00  0.00     0.029 A 
ATOM     41  N   UNL A   1      38.905  32.674  33.376  1.00  0.00    -0.354 N 
ATOM     42  C   UNL A   1      39.461  29.904  30.096  1.00  0.00     0.074 A 
ATOM     43  C   UNL A   1      38.511  30.160  29.036  1.00  0.00     0.031 C 
ATOM     44  C   UNL A   1      37.924  34.349  34.486  1.00  0.00     0.029 A 
ATOM     45  C   UNL A   1      38.960  33.324  34.585  1.00  0.00     0.049 A 
ATOM     46  H   UNL A   1      39.518  31.945  33.128  1.00  0.00     0.167 HD
ATOM     47  C   UNL A   1      40.415  28.944  30.052  1.00  0.00     0.037 A 
ATOM     48  C   UNL A   1      39.744  33.104  35.658  1.00  0.00     0.037 A 
ATOM     49  C   UNL A   1      41.360  28.702  31.109  1.00  0.00     0.049 A 
ATOM     50  C   UNL A   1      40.758  31.990  35.609  1.00  0.00     0.074 A 
ATOM     51  C   UNL A   1      42.390  27.780  31.151  1.00  0.00     0.029 A 
ATOM     52  N   UNL A   1      41.383  29.382  32.319  1.00  0.00    -0.354 N 
ATOM     53  N   UNL A   1      41.024  31.155  34.636  1.00  0.00    -0.248 NA
ATOM     54  C   UNL A   1      41.583  31.791  36.809  1.00  0.00     0.031 C 
ATOM     55  C   UNL A   1      42.989  27.850  32.411  1.00  0.00     0.029 A 
ATOM     56  C   UNL A   1      42.390  28.876  33.125  1.00  0.00     0.049 A 
ATOM     57  H   UNL A   1      40.774  30.113  32.569  1.00  0.00     0.167 HD
ATOM     58  C   UNL A   1      42.074  30.364  35.084  1.00  0.00     0.074 A 
ATOM     59  C   UNL A   1      42.397  30.820  36.420  1.00  0.00     0.031 C 
ATOM     60  C   UNL A   1      42.716  29.357  34.444  1.00  0.00     0.037 A 
BRANCH  47  61
ATOM     61  C   UNL A   1      40.474  28.078  28.826  1.00  0.00     0.064 A 
ATOM     62  C   UNL A   1      39.764  26.870  28.738  1.00  0.00     0.173 A 
ATOM     63  C   UNL A   1      41.231  28.472  27.712  1.00  0.00     0.173 A 
ATOM     64  F   UNL A   1      39.031  26.439  29.776  1.00  0.00    -0.203 F 
ATOM     65  C   UNL A   1      39.845  26.070  27.601  1.00  0.00     0.198 A 
ATOM     66  C   UNL A   1      41.277  27.690  26.562  1.00  0.00     0.198 A 
ATOM     67  F   UNL A   1      41.924  29.621  27.737  1.00  0.00    -0.203 F 
ATOM     68  F   UNL A   1      39.213  24.889  27.568  1.00  0.00    -0.200 F 
ATOM     69  C   UNL A   1      40.595  26.485  26.511  1.00  0.00     0.200 A 
ATOM     70  F   UNL A   1      41.987  28.103  25.502  1.00  0.00    -0.200 F 
ATOM     71  F   UNL A   1      40.666  25.718  25.414  1.00  0.00    -0.200 F 
ENDBRANCH  47  61
BRANCH  48  72
ATOM     72  C   UNL A   1      39.610  33.960  36.868  1.00  0.00     0.064 A 
ATOM     73  C   UNL A   1      38.830  33.548  37.958  1.00  0.00     0.173 A 
ATOM     74  C   UNL A   1      40.243  35.209  36.957  1.00  0.00     0.173 A 
ATOM     75  F   UNL A   1      38.189  32.370  37.915  1.00  0.00    -0.203 F 
ATOM     76  C   UNL A   1      38.665  34.363  39.076  1.00  0.00     0.198 A 
ATOM     77  C   UNL A   1      40.105  36.007  38.090  1.00  0.00     0.198 A 
ATOM     78  F   UNL A   1      41.006  35.650  35.946  1.00  0.00    -0.203 F 
ATOM     79  F   UNL A   1      37.867  33.968  40.077  1.00  0.00    -0.200 F 
ATOM     80  C   UNL A   1      39.307  35.589  39.144  1.00  0.00     0.200 A 
ATOM     81  F   UNL A   1      40.744  37.184  38.159  1.00  0.00    -0.200 F 
ATOM     82  F   UNL A   1      39.150  36.372  40.220  1.00  0.00    -0.200 F 
ENDBRANCH  48  72
BRANCH  60  83
ATOM     83  C   UNL A   1      43.885  28.715  35.140  1.00  0.00     0.064 A 
ATOM     84  C   UNL A   1      45.194  29.191  34.994  1.00  0.00     0.173 A 
ATOM     85  C   UNL A   1      43.670  27.650  36.031  1.00  0.00     0.173 A 
ATOM     86  F   UNL A   1      45.457  30.197  34.144  1.00  0.00    -0.203 F 
ATOM     87  C   UNL A   1      46.248  28.617  35.699  1.00  0.00     0.198 A 
ATOM     88  C   UNL A   1      44.719  27.103  36.763  1.00  0.00     0.198 A 
ATOM     89  F   UNL A   1      42.434  27.161  36.214  1.00  0.00    -0.203 F 
ATOM     90  F   UNL A   1      47.498  29.060  35.513  1.00  0.00    -0.200 F 
ATOM     91  C   UNL A   1      46.008  27.582  36.593  1.00  0.00     0.200 A 
ATOM     92  F   UNL A   1      44.479  26.119  37.640  1.00  0.00    -0.200 F 
ATOM     93  F   UNL A   1      47.020  27.046  37.288  1.00  0.00    -0.200 F 
ENDBRANCH  60  83
ENDBRANCH  34  35
ENDBRANCH  26  29
ENDBRANCH  24  25
ENDBRANCH  23  24
ENDBRANCH  22  23
ENDBRANCH   1  22
TORSDOF 17
ENDMDL
