MODEL 1
REMARK VINA RESULT:     -12.5      0.000      0.000
REMARK SMILES COc1ccc(Cl)cc1C(=O)Nc1ccc(OCC(=O)NCCCCCCNC(=O)c2ccc(-c3c4nc(c(-c5c(F)c(F)c(F)c(F)c5F)c5ccc([nH]5)c(-c5c(F)c(F)c(F)c(F)c5F)c5nc(c(-c6c(F)c(F)c(F)c(F)c6F)c6ccc3[nH]6)C=C5)C=C4)cc2)cc1
REMARK SMILES IDX 23 1 22 2 21 3 19 4 20 5 18 7 17 8 16 9 13 10 14 11 95 12
REMARK SMILES IDX 15 13 94 14 12 15 10 16 11 17 9 19 3 20 4 21 5 22 8 23 6 24
REMARK SMILES IDX 7 25 2 26 1 27 24 28 25 29 26 30 27 31 28 32 29 33 30 35
REMARK SMILES IDX 31 36 32 37 93 38 33 39 92 40 34 41 35 42 36 43 86 44 37 45
REMARK SMILES IDX 91 46 85 47 87 48 38 49 90 50 84 51 83 52 39 54 71 55 51 56
REMARK SMILES IDX 70 57 52 58 55 59 69 60 88 61 53 62 54 63 68 65 89 66 56 67
REMARK SMILES IDX 40 68 41 69 49 70 42 71 43 72 47 73 50 74 44 75 45 76 48 77
REMARK SMILES IDX 46 78 72 79 73 80 81 81 74 82 75 83 79 84 82 85 76 86 77 87
REMARK SMILES IDX 80 88 78 89 57 90 58 91 66 92 59 93 60 94 64 95 67 96 61 97
REMARK SMILES IDX 62 98 65 99 63 100
REMARK H PARENT 21 6 12 18 28 34 87 53 55 64
REMARK Flexibility Score: inf
ROOT
ATOM      1  C   UNL A   1      32.852  29.335  24.655  1.00  0.00     0.021 C 
ENDROOT
BRANCH   1   2
ATOM      2  C   UNL A   1      32.804  28.895  23.186  1.00  0.00     0.116 C 
BRANCH   2   3
ATOM      3  N   UNL A   1      31.774  29.576  22.421  1.00  0.00    -0.353 N 
ATOM      4  C   UNL A   1      30.488  29.205  22.153  1.00  0.00     0.257 C 
ATOM      5  O   UNL A   1      29.800  29.977  21.476  1.00  0.00    -0.271 OA
ATOM      6  H   UNL A   1      32.048  30.439  22.035  1.00  0.00     0.163 HD
BRANCH   4   7
ATOM      7  C   UNL A   1      29.893  27.899  22.712  1.00  0.00     0.329 C 
BRANCH   7   8
ATOM      8  O   UNL A   1      30.604  26.680  22.578  1.00  0.00    -0.484 OA
BRANCH   8   9
ATOM      9  C   UNL A   1      30.628  25.822  23.641  1.00  0.00     0.120 A 
ATOM     10  C   UNL A   1      31.166  24.351  25.967  1.00  0.00     0.041 A 
ATOM     11  C   UNL A   1      30.890  25.718  26.048  1.00  0.00     0.030 A 
ATOM     12  C   UNL A   1      30.992  23.692  24.751  1.00  0.00     0.030 A 
ATOM     13  C   UNL A   1      30.645  26.453  24.885  1.00  0.00     0.048 A 
ATOM     14  C   UNL A   1      30.702  24.428  23.587  1.00  0.00     0.048 A 
BRANCH  10  15
ATOM     15  N   UNL A   1      31.632  23.731  27.134  1.00  0.00    -0.322 N 
ATOM     16  C   UNL A   1      32.566  22.747  27.376  1.00  0.00     0.259 C 
ATOM     17  O   UNL A   1      32.570  22.257  28.512  1.00  0.00    -0.269 OA
ATOM     18  H   UNL A   1      31.202  24.071  27.953  1.00  0.00     0.170 HD
BRANCH  16  19
ATOM     19  C   UNL A   1      33.641  22.296  26.435  1.00  0.00     0.083 A 
ATOM     20  C   UNL A   1      33.541  21.247  25.510  1.00  0.00     0.131 A 
ATOM     21  C   UNL A   1      34.602  20.972  24.623  1.00  0.00     0.049 A 
ATOM     22  C   UNL A   1      35.737  21.771  24.600  1.00  0.00     0.024 A 
ATOM     23  C   UNL A   1      34.785  23.118  26.368  1.00  0.00     0.038 A 
ATOM     24  C   UNL A   1      35.809  22.862  25.454  1.00  0.00     0.042 A 
ATOM     25  Cl  UNL A   1      37.153  23.928  25.339  1.00  0.00    -0.084 Cl
BRANCH  20  26
ATOM     26  O   UNL A   1      32.359  20.576  25.374  1.00  0.00    -0.496 OA
ATOM     27  C   UNL A   1      32.487  19.393  24.602  1.00  0.00     0.278 C 
ENDBRANCH  20  26
ENDBRANCH  16  19
ENDBRANCH  10  15
ENDBRANCH   8   9
ENDBRANCH   7   8
ENDBRANCH   4   7
ENDBRANCH   2   3
ENDBRANCH   1   2
BRANCH   1  28
ATOM     28  C   UNL A   1      31.607  30.073  25.175  1.00  0.00     0.002 C 
BRANCH  28  29
ATOM     29  C   UNL A   1      31.685  30.587  26.611  1.00  0.00     0.002 C 
BRANCH  29  30
ATOM     30  C   UNL A   1      31.488  32.092  26.773  1.00  0.00     0.021 C 
BRANCH  30  31
ATOM     31  C   UNL A   1      32.752  32.872  27.116  1.00  0.00     0.116 C 
BRANCH  31  32
ATOM     32  N   UNL A   1      32.468  34.224  27.570  1.00  0.00    -0.352 N 
ATOM     33  C   UNL A   1      33.007  34.921  28.625  1.00  0.00     0.251 C 
ATOM     34  H   UNL A   1      31.792  34.710  27.045  1.00  0.00     0.163 HD
ATOM     35  O   UNL A   1      32.518  35.990  28.970  1.00  0.00    -0.269 OA
BRANCH  33  36
ATOM     36  C   UNL A   1      34.166  34.369  29.364  1.00  0.00     0.039 A 
ATOM     37  C   UNL A   1      33.932  33.625  30.523  1.00  0.00     0.014 A 
ATOM     38  C   UNL A   1      35.476  34.593  28.929  1.00  0.00     0.014 A 
ATOM     39  C   UNL A   1      35.007  33.055  31.210  1.00  0.00     0.010 A 
ATOM     40  C   UNL A   1      36.538  33.957  29.568  1.00  0.00     0.010 A 
ATOM     41  C   UNL A   1      36.316  33.188  30.720  1.00  0.00    -0.014 A 
BRANCH  41  42
ATOM     42  C   UNL A   1      37.462  32.537  31.409  1.00  0.00     0.031 A 
ATOM     43  C   UNL A   1      38.180  31.384  30.764  1.00  0.00     0.074 A 
ATOM     44  C   UNL A   1      37.826  32.953  32.638  1.00  0.00     0.049 A 
ATOM     45  N   UNL A   1      39.173  30.664  31.225  1.00  0.00    -0.248 NA
ATOM     46  C   UNL A   1      37.703  30.964  29.437  1.00  0.00     0.031 C 
ATOM     47  C   UNL A   1      37.181  34.030  33.392  1.00  0.00     0.029 A 
ATOM     48  N   UNL A   1      38.826  32.518  33.474  1.00  0.00    -0.354 N 
ATOM     49  C   UNL A   1      39.430  29.708  30.251  1.00  0.00     0.074 A 
ATOM     50  C   UNL A   1      38.451  29.897  29.203  1.00  0.00     0.031 C 
ATOM     51  C   UNL A   1      37.817  34.190  34.562  1.00  0.00     0.029 A 
ATOM     52  C   UNL A   1      38.887  33.203  34.663  1.00  0.00     0.049 A 
ATOM     53  H   UNL A   1      39.440  31.784  33.242  1.00  0.00     0.167 HD
ATOM     54  C   UNL A   1      40.411  28.773  30.219  1.00  0.00     0.037 A 
ATOM     55  C   UNL A   1      39.711  33.047  35.717  1.00  0.00     0.037 A 
ATOM     56  C   UNL A   1      41.397  28.600  31.255  1.00  0.00     0.049 A 
ATOM     57  C   UNL A   1      40.781  31.990  35.666  1.00  0.00     0.074 A 
ATOM     58  C   UNL A   1      42.465  27.720  31.290  1.00  0.00     0.029 A 
ATOM     59  N   UNL A   1      41.431  29.316  32.442  1.00  0.00    -0.354 N 
ATOM     60  N   UNL A   1      41.061  31.142  34.706  1.00  0.00    -0.248 NA
ATOM     61  C   UNL A   1      41.655  31.873  36.841  1.00  0.00     0.031 C 
ATOM     62  C   UNL A   1      43.110  27.864  32.522  1.00  0.00     0.029 A 
ATOM     63  C   UNL A   1      42.485  28.879  33.228  1.00  0.00     0.049 A 
ATOM     64  H   UNL A   1      40.801  30.031  32.689  1.00  0.00     0.167 HD
ATOM     65  C   UNL A   1      42.160  30.416  35.146  1.00  0.00     0.074 A 
ATOM     66  C   UNL A   1      42.506  30.934  36.454  1.00  0.00     0.031 C 
ATOM     67  C   UNL A   1      42.824  29.410  34.525  1.00  0.00     0.037 A 
BRANCH  54  68
ATOM     68  C   UNL A   1      40.469  27.864  29.024  1.00  0.00     0.064 A 
ATOM     69  C   UNL A   1      39.711  26.684  28.957  1.00  0.00     0.173 A 
ATOM     70  C   UNL A   1      41.261  28.196  27.914  1.00  0.00     0.173 A 
ATOM     71  F   UNL A   1      38.944  26.315  29.993  1.00  0.00    -0.203 F 
ATOM     72  C   UNL A   1      39.770  25.856  27.839  1.00  0.00     0.198 A 
ATOM     73  C   UNL A   1      41.290  27.382  26.783  1.00  0.00     0.198 A 
ATOM     74  F   UNL A   1      42.001  29.315  27.920  1.00  0.00    -0.203 F 
ATOM     75  F   UNL A   1      39.079  24.708  27.822  1.00  0.00    -0.200 F 
ATOM     76  C   UNL A   1      40.552  26.209  26.751  1.00  0.00     0.200 A 
ATOM     77  F   UNL A   1      42.035  27.734  25.727  1.00  0.00    -0.200 F 
ATOM     78  F   UNL A   1      40.601  25.415  25.672  1.00  0.00    -0.200 F 
ENDBRANCH  54  68
BRANCH  55  79
ATOM     79  C   UNL A   1      39.571  33.929  36.908  1.00  0.00     0.064 A 
ATOM     80  C   UNL A   1      38.813  33.528  38.017  1.00  0.00     0.173 A 
ATOM     81  C   UNL A   1      40.177  35.193  36.957  1.00  0.00     0.173 A 
ATOM     82  F   UNL A   1      38.197  32.336  38.012  1.00  0.00    -0.203 F 
ATOM     83  C   UNL A   1      38.645  34.367  39.117  1.00  0.00     0.198 A 
ATOM     84  C   UNL A   1      40.035  36.018  38.070  1.00  0.00     0.198 A 
ATOM     85  F   UNL A   1      40.917  35.624  35.924  1.00  0.00    -0.203 F 
ATOM     86  F   UNL A   1      37.872  33.981  40.140  1.00  0.00    -0.200 F 
ATOM     87  C   UNL A   1      39.261  35.610  39.145  1.00  0.00     0.200 A 
ATOM     88  F   UNL A   1      40.645  37.211  38.099  1.00  0.00    -0.200 F 
ATOM     89  F   UNL A   1      39.102  36.415  40.204  1.00  0.00    -0.200 F 
ENDBRANCH  55  79
BRANCH  67  90
ATOM     90  C   UNL A   1      44.016  28.828  35.230  1.00  0.00     0.064 A 
ATOM     91  C   UNL A   1      45.310  29.334  35.037  1.00  0.00     0.173 A 
ATOM     92  C   UNL A   1      43.854  27.774  36.142  1.00  0.00     0.173 A 
ATOM     93  F   UNL A   1      45.522  30.332  34.166  1.00  0.00    -0.203 F 
ATOM     94  C   UNL A   1      46.400  28.787  35.709  1.00  0.00     0.198 A 
ATOM     95  C   UNL A   1      44.940  27.252  36.839  1.00  0.00     0.198 A 
ATOM     96  F   UNL A   1      42.637  27.257  36.369  1.00  0.00    -0.203 F 
ATOM     97  F   UNL A   1      47.634  29.252  35.470  1.00  0.00    -0.200 F 
ATOM     98  C   UNL A   1      46.214  27.753  36.615  1.00  0.00     0.200 A 
ATOM     99  F   UNL A   1      44.756  26.266  37.726  1.00  0.00    -0.200 F 
ATOM    100  F   UNL A   1      47.263  27.235  37.268  1.00  0.00    -0.200 F 
ENDBRANCH  67  90
ENDBRANCH  41  42
ENDBRANCH  33  36
ENDBRANCH  31  32
ENDBRANCH  30  31
ENDBRANCH  29  30
ENDBRANCH  28  29
ENDBRANCH   1  28
TORSDOF 18
ENDMDL
MODEL 2
REMARK VINA RESULT:     -12.4      0.700      7.105
REMARK SMILES COc1ccc(Cl)cc1C(=O)Nc1ccc(OCC(=O)NCCCCCCNC(=O)c2ccc(-c3c4nc(c(-c5c(F)c(F)c(F)c(F)c5F)c5ccc([nH]5)c(-c5c(F)c(F)c(F)c(F)c5F)c5nc(c(-c6c(F)c(F)c(F)c(F)c6F)c6ccc3[nH]6)C=C5)C=C4)cc2)cc1
REMARK SMILES IDX 23 1 22 2 21 3 19 4 20 5 18 7 17 8 16 9 13 10 14 11 95 12
REMARK SMILES IDX 15 13 94 14 12 15 10 16 11 17 9 19 3 20 4 21 5 22 8 23 6 24
REMARK SMILES IDX 7 25 2 26 1 27 24 28 25 29 26 30 27 31 28 32 29 33 30 35
REMARK SMILES IDX 31 36 32 37 93 38 33 39 92 40 34 41 35 42 36 43 86 44 37 45
REMARK SMILES IDX 91 46 85 47 87 48 38 49 90 50 84 51 83 52 39 54 71 55 51 56
REMARK SMILES IDX 70 57 52 58 55 59 69 60 88 61 53 62 54 63 68 65 89 66 56 67
REMARK SMILES IDX 40 68 41 69 49 70 42 71 43 72 47 73 50 74 44 75 45 76 48 77
REMARK SMILES IDX 46 78 72 79 73 80 81 81 74 82 75 83 79 84 82 85 76 86 77 87
REMARK SMILES IDX 80 88 78 89 57 90 58 91 66 92 59 93 60 94 64 95 67 96 61 97
REMARK SMILES IDX 62 98 65 99 63 100
REMARK H PARENT 21 6 12 18 28 34 87 53 55 64
REMARK Flexibility Score: inf
ROOT
ATOM      1  C   UNL A   1      32.912  29.418  24.746  1.00  0.00     0.021 C 
ENDROOT
BRANCH   1   2
ATOM      2  C   UNL A   1      32.802  28.837  23.330  1.00  0.00     0.116 C 
BRANCH   2   3
ATOM      3  N   UNL A   1      31.835  29.536  22.502  1.00  0.00    -0.353 N 
ATOM      4  C   UNL A   1      30.552  29.202  22.175  1.00  0.00     0.257 C 
ATOM      5  O   UNL A   1      29.926  29.983  21.451  1.00  0.00    -0.271 OA
ATOM      6  H   UNL A   1      32.156  30.383  22.115  1.00  0.00     0.163 HD
BRANCH   4   7
ATOM      7  C   UNL A   1      29.887  27.926  22.725  1.00  0.00     0.329 C 
BRANCH   7   8
ATOM      8  O   UNL A   1      30.492  26.662  22.513  1.00  0.00    -0.484 OA
BRANCH   8   9
ATOM      9  C   UNL A   1      30.563  25.792  23.565  1.00  0.00     0.120 A 
ATOM     10  C   UNL A   1      31.149  24.352  25.899  1.00  0.00     0.041 A 
ATOM     11  C   UNL A   1      30.702  25.674  25.982  1.00  0.00     0.030 A 
ATOM     12  C   UNL A   1      31.126  23.702  24.667  1.00  0.00     0.030 A 
ATOM     13  C   UNL A   1      30.432  26.396  24.816  1.00  0.00     0.048 A 
ATOM     14  C   UNL A   1      30.812  24.419  23.498  1.00  0.00     0.048 A 
BRANCH  10  15
ATOM     15  N   UNL A   1      31.622  23.772  27.083  1.00  0.00    -0.322 N 
ATOM     16  C   UNL A   1      32.564  22.802  27.351  1.00  0.00     0.259 C 
ATOM     17  O   UNL A   1      32.575  22.346  28.501  1.00  0.00    -0.269 OA
ATOM     18  H   UNL A   1      31.193  24.132  27.892  1.00  0.00     0.170 HD
BRANCH  16  19
ATOM     19  C   UNL A   1      33.639  22.330  26.421  1.00  0.00     0.083 A 
ATOM     20  C   UNL A   1      33.542  21.257  25.523  1.00  0.00     0.131 A 
ATOM     21  C   UNL A   1      34.603  20.963  24.642  1.00  0.00     0.049 A 
ATOM     22  C   UNL A   1      35.736  21.764  24.599  1.00  0.00     0.024 A 
ATOM     23  C   UNL A   1      34.781  23.152  26.333  1.00  0.00     0.038 A 
ATOM     24  C   UNL A   1      35.806  22.876  25.424  1.00  0.00     0.042 A 
ATOM     25  Cl  UNL A   1      37.147  23.942  25.282  1.00  0.00    -0.084 Cl
BRANCH  20  26
ATOM     26  O   UNL A   1      32.361  20.581  25.404  1.00  0.00    -0.496 OA
ATOM     27  C   UNL A   1      32.544  19.218  25.053  1.00  0.00     0.278 C 
ENDBRANCH  20  26
ENDBRANCH  16  19
ENDBRANCH  10  15
ENDBRANCH   8   9
ENDBRANCH   7   8
ENDBRANCH   4   7
ENDBRANCH   2   3
ENDBRANCH   1   2
BRANCH   1  28
ATOM     28  C   UNL A   1      31.603  29.938  25.361  1.00  0.00     0.002 C 
BRANCH  28  29
ATOM     29  C   UNL A   1      31.717  30.553  26.755  1.00  0.00     0.002 C 
BRANCH  29  30
ATOM     30  C   UNL A   1      31.496  32.063  26.817  1.00  0.00     0.021 C 
BRANCH  30  31
ATOM     31  C   UNL A   1      32.765  32.890  26.991  1.00  0.00     0.116 C 
BRANCH  31  32
ATOM     32  N   UNL A   1      32.505  34.194  27.578  1.00  0.00    -0.352 N 
ATOM     33  C   UNL A   1      33.078  34.785  28.680  1.00  0.00     0.251 C 
ATOM     34  H   UNL A   1      31.820  34.732  27.121  1.00  0.00     0.163 HD
ATOM     35  O   UNL A   1      32.608  35.819  29.137  1.00  0.00    -0.269 OA
BRANCH  33  36
ATOM     36  C   UNL A   1      34.251  34.158  29.332  1.00  0.00     0.039 A 
ATOM     37  C   UNL A   1      34.036  33.204  30.330  1.00  0.00     0.014 A 
ATOM     38  C   UNL A   1      35.555  34.515  28.975  1.00  0.00     0.014 A 
ATOM     39  C   UNL A   1      35.127  32.566  30.926  1.00  0.00     0.010 A 
ATOM     40  C   UNL A   1      36.637  33.819  29.510  1.00  0.00     0.010 A 
ATOM     41  C   UNL A   1      36.435  32.844  30.498  1.00  0.00    -0.014 A 
BRANCH  41  42
ATOM     42  C   UNL A   1      37.600  32.128  31.083  1.00  0.00     0.031 A 
ATOM     43  C   UNL A   1      38.098  32.483  32.457  1.00  0.00     0.074 A 
ATOM     44  C   UNL A   1      38.242  31.191  30.356  1.00  0.00     0.049 A 
ATOM     45  N   UNL A   1      39.120  31.999  33.119  1.00  0.00    -0.248 NA
ATOM     46  C   UNL A   1      37.367  33.539  33.174  1.00  0.00     0.031 C 
ATOM     47  C   UNL A   1      37.888  30.789  28.994  1.00  0.00     0.029 A 
ATOM     48  N   UNL A   1      39.329  30.410  30.660  1.00  0.00    -0.354 N 
ATOM     49  C   UNL A   1      39.157  32.696  34.320  1.00  0.00     0.074 A 
ATOM     50  C   UNL A   1      38.096  33.678  34.271  1.00  0.00     0.031 C 
ATOM     51  C   UNL A   1      38.722  29.819  28.591  1.00  0.00     0.029 A 
ATOM     52  C   UNL A   1      39.695  29.556  29.647  1.00  0.00     0.049 A 
ATOM     53  H   UNL A   1      39.802  30.456  31.523  1.00  0.00     0.167 HD
ATOM     54  C   UNL A   1      39.982  32.517  35.379  1.00  0.00     0.037 A 
ATOM     55  C   UNL A   1      40.705  28.668  29.577  1.00  0.00     0.037 A 
ATOM     56  C   UNL A   1      41.025  31.525  35.432  1.00  0.00     0.049 A 
ATOM     57  C   UNL A   1      41.621  28.500  30.760  1.00  0.00     0.074 A 
ATOM     58  C   UNL A   1      41.878  31.226  36.480  1.00  0.00     0.029 A 
ATOM     59  N   UNL A   1      41.362  30.675  34.388  1.00  0.00    -0.354 N 
ATOM     60  N   UNL A   1      41.598  29.113  31.919  1.00  0.00    -0.248 NA
ATOM     61  C   UNL A   1      42.699  27.509  30.628  1.00  0.00     0.031 C 
ATOM     62  C   UNL A   1      42.768  30.235  36.051  1.00  0.00     0.029 A 
ATOM     63  C   UNL A   1      42.429  29.871  34.758  1.00  0.00     0.049 A 
ATOM     64  H   UNL A   1      40.910  30.646  33.514  1.00  0.00     0.167 HD
ATOM     65  C   UNL A   1      42.632  28.561  32.663  1.00  0.00     0.074 A 
ATOM     66  C   UNL A   1      43.254  27.553  31.831  1.00  0.00     0.031 C 
ATOM     67  C   UNL A   1      43.032  28.864  33.923  1.00  0.00     0.037 A 
BRANCH  54  68
ATOM     68  C   UNL A   1      39.792  33.412  36.570  1.00  0.00     0.064 A 
ATOM     69  C   UNL A   1      40.483  34.628  36.698  1.00  0.00     0.173 A 
ATOM     70  C   UNL A   1      38.878  33.070  37.579  1.00  0.00     0.173 A 
ATOM     71  F   UNL A   1      41.375  34.998  35.768  1.00  0.00    -0.203 F 
ATOM     72  C   UNL A   1      40.289  35.450  37.805  1.00  0.00     0.198 A 
ATOM     73  C   UNL A   1      38.663  33.912  38.668  1.00  0.00     0.198 A 
ATOM     74  F   UNL A   1      38.186  31.923  37.506  1.00  0.00    -0.203 F 
ATOM     75  F   UNL A   1      41.001  36.579  37.930  1.00  0.00    -0.200 F 
ATOM     76  C   UNL A   1      39.375  35.095  38.784  1.00  0.00     0.200 A 
ATOM     77  F   UNL A   1      37.766  33.575  39.606  1.00  0.00    -0.200 F 
ATOM     78  F   UNL A   1      39.184  35.892  39.845  1.00  0.00    -0.200 F 
ENDBRANCH  54  68
BRANCH  55  79
ATOM     79  C   UNL A   1      40.894  27.851  28.348  1.00  0.00     0.064 A 
ATOM     80  C   UNL A   1      40.286  26.595  28.216  1.00  0.00     0.173 A 
ATOM     81  C   UNL A   1      41.695  28.301  27.287  1.00  0.00     0.173 A 
ATOM     82  F   UNL A   1      39.527  26.111  29.210  1.00  0.00    -0.203 F 
ATOM     83  C   UNL A   1      40.494  25.809  27.084  1.00  0.00     0.198 A 
ATOM     84  C   UNL A   1      41.875  27.529  26.142  1.00  0.00     0.198 A 
ATOM     85  F   UNL A   1      42.295  29.499  27.360  1.00  0.00    -0.203 F 
ATOM     86  F   UNL A   1      39.945  24.589  27.008  1.00  0.00    -0.200 F 
ATOM     87  C   UNL A   1      41.284  26.279  26.045  1.00  0.00     0.200 A 
ATOM     88  F   UNL A   1      42.626  27.994  25.135  1.00  0.00    -0.200 F 
ATOM     89  F   UNL A   1      41.481  25.525  24.956  1.00  0.00    -0.200 F 
ENDBRANCH  55  79
BRANCH  67  90
ATOM     90  C   UNL A   1      44.171  28.068  34.497  1.00  0.00     0.064 A 
ATOM     91  C   UNL A   1      45.503  28.490  34.377  1.00  0.00     0.173 A 
ATOM     92  C   UNL A   1      43.919  26.887  35.212  1.00  0.00     0.173 A 
ATOM     93  F   UNL A   1      45.799  29.605  33.692  1.00  0.00    -0.203 F 
ATOM     94  C   UNL A   1      46.543  27.744  34.926  1.00  0.00     0.198 A 
ATOM     95  C   UNL A   1      44.957  26.162  35.790  1.00  0.00     0.198 A 
ATOM     96  F   UNL A   1      42.662  26.442  35.363  1.00  0.00    -0.203 F 
ATOM     97  F   UNL A   1      47.812  28.138  34.754  1.00  0.00    -0.200 F 
ATOM     98  C   UNL A   1      46.269  26.586  35.640  1.00  0.00     0.200 A 
ATOM     99  F   UNL A   1      44.689  25.054  36.493  1.00  0.00    -0.200 F 
ATOM    100  F   UNL A   1      47.270  25.874  36.175  1.00  0.00    -0.200 F 
ENDBRANCH  67  90
ENDBRANCH  41  42
ENDBRANCH  33  36
ENDBRANCH  31  32
ENDBRANCH  30  31
ENDBRANCH  29  30
ENDBRANCH  28  29
ENDBRANCH   1  28
TORSDOF 18
ENDMDL
MODEL 3
REMARK VINA RESULT:     -12.0      5.198      9.899
REMARK SMILES COc1ccc(Cl)cc1C(=O)Nc1ccc(OCC(=O)NCCCCCCNC(=O)c2ccc(-c3c4nc(c(-c5c(F)c(F)c(F)c(F)c5F)c5ccc([nH]5)c(-c5c(F)c(F)c(F)c(F)c5F)c5nc(c(-c6c(F)c(F)c(F)c(F)c6F)c6ccc3[nH]6)C=C5)C=C4)cc2)cc1
REMARK SMILES IDX 23 1 22 2 21 3 19 4 20 5 18 7 17 8 16 9 13 10 14 11 95 12
REMARK SMILES IDX 15 13 94 14 12 15 10 16 11 17 9 19 3 20 4 21 5 22 8 23 6 24
REMARK SMILES IDX 7 25 2 26 1 27 24 28 25 29 26 30 27 31 28 32 29 33 30 35
REMARK SMILES IDX 31 36 32 37 93 38 33 39 92 40 34 41 35 42 36 43 86 44 37 45
REMARK SMILES IDX 91 46 85 47 87 48 38 49 90 50 84 51 83 52 39 54 71 55 51 56
REMARK SMILES IDX 70 57 52 58 55 59 69 60 88 61 53 62 54 63 68 65 89 66 56 67
REMARK SMILES IDX 40 68 41 69 49 70 42 71 43 72 47 73 50 74 44 75 45 76 48 77
REMARK SMILES IDX 46 78 72 79 73 80 81 81 74 82 75 83 79 84 82 85 76 86 77 87
REMARK SMILES IDX 80 88 78 89 57 90 58 91 66 92 59 93 60 94 64 95 67 96 61 97
REMARK SMILES IDX 62 98 65 99 63 100
REMARK H PARENT 21 6 12 18 28 34 87 53 55 64
REMARK Flexibility Score: inf
ROOT
ATOM      1  C   UNL A   1      36.723  21.670  24.618  1.00  0.00     0.021 C 
ENDROOT
BRANCH   1   2
ATOM      2  C   UNL A   1      35.420  21.216  25.289  1.00  0.00     0.116 C 
BRANCH   2   3
ATOM      3  N   UNL A   1      35.143  19.804  25.094  1.00  0.00    -0.353 N 
ATOM      4  C   UNL A   1      34.024  19.184  24.617  1.00  0.00     0.257 C 
ATOM      5  O   UNL A   1      34.043  17.951  24.539  1.00  0.00    -0.271 OA
ATOM      6  H   UNL A   1      35.877  19.199  25.348  1.00  0.00     0.163 HD
BRANCH   4   7
ATOM      7  C   UNL A   1      32.798  19.988  24.144  1.00  0.00     0.329 C 
BRANCH   7   8
ATOM      8  O   UNL A   1      31.862  20.477  25.090  1.00  0.00    -0.484 OA
BRANCH   8   9
ATOM      9  C   UNL A   1      31.797  21.825  25.302  1.00  0.00     0.120 A 
ATOM     10  C   UNL A   1      31.356  24.441  26.213  1.00  0.00     0.041 A 
ATOM     11  C   UNL A   1      32.102  23.545  26.982  1.00  0.00     0.030 A 
ATOM     12  C   UNL A   1      30.991  24.084  24.915  1.00  0.00     0.030 A 
ATOM     13  C   UNL A   1      32.301  22.235  26.537  1.00  0.00     0.048 A 
ATOM     14  C   UNL A   1      31.231  22.777  24.451  1.00  0.00     0.048 A 
BRANCH  10  15
ATOM     15  N   UNL A   1      30.998  25.650  26.822  1.00  0.00    -0.322 N 
ATOM     16  C   UNL A   1      31.356  26.963  26.603  1.00  0.00     0.259 C 
ATOM     17  O   UNL A   1      31.039  27.776  27.480  1.00  0.00    -0.269 OA
ATOM     18  H   UNL A   1      30.358  25.539  27.561  1.00  0.00     0.170 HD
BRANCH  16  19
ATOM     19  C   UNL A   1      31.990  27.513  25.362  1.00  0.00     0.083 A 
ATOM     20  C   UNL A   1      33.290  27.242  24.909  1.00  0.00     0.131 A 
ATOM     21  C   UNL A   1      33.741  27.762  23.679  1.00  0.00     0.049 A 
ATOM     22  C   UNL A   1      32.894  28.496  22.861  1.00  0.00     0.024 A 
ATOM     23  C   UNL A   1      31.135  28.226  24.498  1.00  0.00     0.038 A 
ATOM     24  C   UNL A   1      31.581  28.697  23.261  1.00  0.00     0.042 A 
ATOM     25  Cl  UNL A   1      30.493  29.492  22.193  1.00  0.00    -0.084 Cl
BRANCH  20  26
ATOM     26  O   UNL A   1      34.074  26.359  25.596  1.00  0.00    -0.496 OA
ATOM     27  C   UNL A   1      34.514  25.277  24.790  1.00  0.00     0.278 C 
ENDBRANCH  20  26
ENDBRANCH  16  19
ENDBRANCH  10  15
ENDBRANCH   8   9
ENDBRANCH   7   8
ENDBRANCH   4   7
ENDBRANCH   2   3
ENDBRANCH   1   2
BRANCH   1  28
ATOM     28  C   UNL A   1      37.588  22.650  25.427  1.00  0.00     0.002 C 
BRANCH  28  29
ATOM     29  C   UNL A   1      38.901  22.090  25.972  1.00  0.00     0.002 C 
BRANCH  29  30
ATOM     30  C   UNL A   1      39.306  20.727  25.415  1.00  0.00     0.021 C 
BRANCH  30  31
ATOM     31  C   UNL A   1      39.800  19.730  26.457  1.00  0.00     0.116 C 
BRANCH  31  32
ATOM     32  N   UNL A   1      40.972  18.993  26.011  1.00  0.00    -0.352 N 
ATOM     33  C   UNL A   1      42.263  19.432  25.834  1.00  0.00     0.251 C 
ATOM     34  H   UNL A   1      40.819  18.042  25.808  1.00  0.00     0.163 HD
ATOM     35  O   UNL A   1      43.085  18.713  25.279  1.00  0.00    -0.269 OA
BRANCH  33  36
ATOM     36  C   UNL A   1      42.656  20.785  26.290  1.00  0.00     0.039 A 
ATOM     37  C   UNL A   1      43.045  21.729  25.336  1.00  0.00     0.014 A 
ATOM     38  C   UNL A   1      42.656  21.120  27.647  1.00  0.00     0.014 A 
ATOM     39  C   UNL A   1      43.375  23.026  25.740  1.00  0.00     0.010 A 
ATOM     40  C   UNL A   1      42.906  22.434  28.038  1.00  0.00     0.010 A 
ATOM     41  C   UNL A   1      43.276  23.399  27.090  1.00  0.00    -0.014 A 
BRANCH  41  42
ATOM     42  C   UNL A   1      43.567  24.792  27.523  1.00  0.00     0.031 A 
ATOM     43  C   UNL A   1      44.989  25.263  27.658  1.00  0.00     0.074 A 
ATOM     44  C   UNL A   1      42.551  25.618  27.842  1.00  0.00     0.049 A 
ATOM     45  N   UNL A   1      45.442  26.426  28.058  1.00  0.00    -0.248 NA
ATOM     46  C   UNL A   1      46.043  24.293  27.324  1.00  0.00     0.031 C 
ATOM     47  C   UNL A   1      41.131  25.267  27.799  1.00  0.00     0.029 A 
ATOM     48  N   UNL A   1      42.557  26.923  28.270  1.00  0.00    -0.354 N 
ATOM     49  C   UNL A   1      46.827  26.321  28.031  1.00  0.00     0.074 A 
ATOM     50  C   UNL A   1      47.141  24.965  27.638  1.00  0.00     0.031 C 
ATOM     51  C   UNL A   1      40.403  26.335  28.157  1.00  0.00     0.029 A 
ATOM     52  C   UNL A   1      41.302  27.435  28.494  1.00  0.00     0.049 A 
ATOM     53  H   UNL A   1      43.383  27.442  28.404  1.00  0.00     0.167 HD
ATOM     54  C   UNL A   1      47.754  27.276  28.286  1.00  0.00     0.037 A 
ATOM     55  C   UNL A   1      40.921  28.651  28.928  1.00  0.00     0.037 A 
ATOM     56  C   UNL A   1      47.437  28.631  28.659  1.00  0.00     0.049 A 
ATOM     57  C   UNL A   1      41.970  29.690  29.222  1.00  0.00     0.074 A 
ATOM     58  C   UNL A   1      48.303  29.688  28.883  1.00  0.00     0.029 A 
ATOM     59  N   UNL A   1      46.154  29.114  28.870  1.00  0.00    -0.354 N 
ATOM     60  N   UNL A   1      43.274  29.601  29.120  1.00  0.00    -0.248 NA
ATOM     61  C   UNL A   1      41.494  31.001  29.684  1.00  0.00     0.031 C 
ATOM     62  C   UNL A   1      47.547  30.794  29.286  1.00  0.00     0.029 A 
ATOM     63  C   UNL A   1      46.207  30.446  29.250  1.00  0.00     0.049 A 
ATOM     64  H   UNL A   1      45.328  28.589  28.765  1.00  0.00     0.167 HD
ATOM     65  C   UNL A   1      43.771  30.849  29.472  1.00  0.00     0.074 A 
ATOM     66  C   UNL A   1      42.627  31.683  29.776  1.00  0.00     0.031 C 
ATOM     67  C   UNL A   1      45.059  31.268  29.539  1.00  0.00     0.037 A 
BRANCH  54  68
ATOM     68  C   UNL A   1      49.201  26.891  28.169  1.00  0.00     0.064 A 
ATOM     69  C   UNL A   1      49.951  26.489  29.286  1.00  0.00     0.173 A 
ATOM     70  C   UNL A   1      49.838  26.885  26.918  1.00  0.00     0.173 A 
ATOM     71  F   UNL A   1      49.395  26.485  30.506  1.00  0.00    -0.203 F 
ATOM     72  C   UNL A   1      51.289  26.128  29.159  1.00  0.00     0.198 A 
ATOM     73  C   UNL A   1      51.168  26.490  26.791  1.00  0.00     0.198 A 
ATOM     74  F   UNL A   1      49.168  27.253  25.815  1.00  0.00    -0.203 F 
ATOM     75  F   UNL A   1      51.998  25.800  30.249  1.00  0.00    -0.200 F 
ATOM     76  C   UNL A   1      51.894  26.121  27.912  1.00  0.00     0.200 A 
ATOM     77  F   UNL A   1      51.745  26.469  25.582  1.00  0.00    -0.200 F 
ATOM     78  F   UNL A   1      53.181  25.764  27.791  1.00  0.00    -0.200 F 
ENDBRANCH  54  68
BRANCH  55  79
ATOM     79  C   UNL A   1      39.475  28.964  29.093  1.00  0.00     0.064 A 
ATOM     80  C   UNL A   1      38.704  29.407  28.009  1.00  0.00     0.173 A 
ATOM     81  C   UNL A   1      38.838  28.841  30.337  1.00  0.00     0.173 A 
ATOM     82  F   UNL A   1      39.271  29.560  26.803  1.00  0.00    -0.203 F 
ATOM     83  C   UNL A   1      37.360  29.740  28.168  1.00  0.00     0.198 A 
ATOM     84  C   UNL A   1      37.486  29.143  30.488  1.00  0.00     0.198 A 
ATOM     85  F   UNL A   1      39.528  28.416  31.406  1.00  0.00    -0.203 F 
ATOM     86  F   UNL A   1      36.662  30.212  27.127  1.00  0.00    -0.200 F 
ATOM     87  C   UNL A   1      36.751  29.602  29.407  1.00  0.00     0.200 A 
ATOM     88  F   UNL A   1      36.899  28.992  31.682  1.00  0.00    -0.200 F 
ATOM     89  F   UNL A   1      35.459  29.919  29.558  1.00  0.00    -0.200 F 
ENDBRANCH  55  79
BRANCH  67  90
ATOM     90  C   UNL A   1      45.302  32.702  29.916  1.00  0.00     0.064 A 
ATOM     91  C   UNL A   1      45.526  33.090  31.246  1.00  0.00     0.173 A 
ATOM     92  C   UNL A   1      45.351  33.695  28.927  1.00  0.00     0.173 A 
ATOM     93  F   UNL A   1      45.477  32.182  32.232  1.00  0.00    -0.203 F 
ATOM     94  C   UNL A   1      45.761  34.423  31.573  1.00  0.00     0.198 A 
ATOM     95  C   UNL A   1      45.620  35.021  29.252  1.00  0.00     0.198 A 
ATOM     96  F   UNL A   1      45.150  33.377  27.638  1.00  0.00    -0.203 F 
ATOM     97  F   UNL A   1      45.920  34.779  32.855  1.00  0.00    -0.200 F 
ATOM     98  C   UNL A   1      45.816  35.386  30.575  1.00  0.00     0.200 A 
ATOM     99  F   UNL A   1      45.691  35.947  28.286  1.00  0.00    -0.200 F 
ATOM    100  F   UNL A   1      46.052  36.667  30.891  1.00  0.00    -0.200 F 
ENDBRANCH  67  90
ENDBRANCH  41  42
ENDBRANCH  33  36
ENDBRANCH  31  32
ENDBRANCH  30  31
ENDBRANCH  29  30
ENDBRANCH  28  29
ENDBRANCH   1  28
TORSDOF 18
ENDMDL
