MODEL 1
REMARK VINA RESULT:     -12.1      0.000      0.000
REMARK SMILES CC[C@H](Nc1cccc(C(F)(F)F)c1)C(=O)NCCCCCCNC(=O)c1ccc(-c2c3nc(c(-c4c(F)c(F)c(F)c(F)c4F)c4ccc([nH]4)c(-c4c(F)c(F)c(F)c(F)c4F)c4nc(c(-c5c(F)c(F)c(F)c(F)c5F)c5ccc2[nH]5)C=C4)C=C3)cc1
REMARK SMILES IDX 20 1 19 2 18 3 17 4 15 5 16 6 3 8 2 9 1 10 4 11 5 13 6 14
REMARK SMILES IDX 14 15 7 16 9 17 8 18 10 19 11 20 12 21 13 22 21 23 22 24
REMARK SMILES IDX 23 25 24 26 25 27 26 29 27 30 28 31 89 32 29 33 88 34 30 35
REMARK SMILES IDX 31 36 32 37 82 38 33 39 87 40 81 41 83 42 34 43 86 44 80 45
REMARK SMILES IDX 79 46 35 48 67 49 47 50 66 51 48 52 51 53 65 54 84 55 49 56
REMARK SMILES IDX 50 57 64 59 85 60 52 61 36 62 37 63 45 64 38 65 39 66 43 67
REMARK SMILES IDX 46 68 40 69 41 70 44 71 42 72 68 73 69 74 77 75 70 76 71 77
REMARK SMILES IDX 75 78 78 79 72 80 73 81 76 82 74 83 53 84 54 85 62 86 55 87
REMARK SMILES IDX 56 88 60 89 63 90 57 91 58 92 61 93 59 94
REMARK H PARENT 17 7 4 12 24 28 83 47 51 58
REMARK Flexibility Score: inf
ROOT
ATOM      1  C   UNL A   1      32.296  29.679  27.202  1.00  0.00     0.002 C 
ENDROOT
BRANCH   1   2
ATOM      2  C   UNL A   1      33.692  29.110  26.925  1.00  0.00     0.021 C 
BRANCH   2   3
ATOM      3  C   UNL A   1      33.709  27.982  25.892  1.00  0.00     0.116 C 
BRANCH   3   4
ATOM      4  N   UNL A   1      34.153  28.465  24.596  1.00  0.00    -0.354 N 
ATOM      5  C   UNL A   1      33.712  28.168  23.335  1.00  0.00     0.242 C 
ATOM      6  O   UNL A   1      34.273  28.727  22.387  1.00  0.00    -0.273 OA
ATOM      7  H   UNL A   1      34.892  29.114  24.630  1.00  0.00     0.163 HD
BRANCH   5   8
ATOM      8  C   UNL A   1      32.528  27.195  23.106  1.00  0.00     0.168 C 
BRANCH   8   9
ATOM      9  C   UNL A   1      33.079  25.872  22.546  1.00  0.00     0.031 C 
ATOM     10  C   UNL A   1      32.770  25.674  21.070  1.00  0.00     0.006 C 
ENDBRANCH   8   9
BRANCH   8  11
ATOM     11  N   UNL A   1      31.554  27.802  22.187  1.00  0.00    -0.374 N 
ATOM     12  H   UNL A   1      31.774  27.816  21.228  1.00  0.00     0.161 HD
BRANCH  11  13
ATOM     13  C   UNL A   1      30.347  28.355  22.580  1.00  0.00     0.035 A 
ATOM     14  C   UNL A   1      29.382  27.501  23.123  1.00  0.00     0.026 A 
ATOM     15  C   UNL A   1      29.964  29.651  22.229  1.00  0.00     0.038 A 
ATOM     16  C   UNL A   1      28.079  27.934  23.362  1.00  0.00     0.003 A 
ATOM     17  C   UNL A   1      28.649  30.102  22.442  1.00  0.00     0.058 A 
ATOM     18  C   UNL A   1      27.712  29.232  23.020  1.00  0.00     0.013 A 
BRANCH  17  19
ATOM     19  C   UNL A   1      28.218  31.481  22.012  1.00  0.00     0.416 C 
ATOM     20  F   UNL A   1      27.626  31.477  20.785  1.00  0.00    -0.166 F 
ATOM     21  F   UNL A   1      27.307  32.032  22.861  1.00  0.00    -0.166 F 
ATOM     22  F   UNL A   1      29.240  32.376  21.927  1.00  0.00    -0.166 F 
ENDBRANCH  17  19
ENDBRANCH  11  13
ENDBRANCH   8  11
ENDBRANCH   5   8
ENDBRANCH   3   4
ENDBRANCH   2   3
ENDBRANCH   1   2
BRANCH   1  23
ATOM     23  C   UNL A   1      31.771  30.652  26.141  1.00  0.00     0.002 C 
BRANCH  23  24
ATOM     24  C   UNL A   1      31.464  32.061  26.650  1.00  0.00     0.021 C 
BRANCH  24  25
ATOM     25  C   UNL A   1      32.635  32.751  27.340  1.00  0.00     0.116 C 
BRANCH  25  26
ATOM     26  N   UNL A   1      32.363  34.154  27.611  1.00  0.00    -0.352 N 
ATOM     27  C   UNL A   1      32.946  34.973  28.545  1.00  0.00     0.251 C 
ATOM     28  H   UNL A   1      31.669  34.570  27.051  1.00  0.00     0.163 HD
ATOM     29  O   UNL A   1      32.489  36.087  28.780  1.00  0.00    -0.269 OA
BRANCH  27  30
ATOM     30  C   UNL A   1      34.128  34.489  29.286  1.00  0.00     0.039 A 
ATOM     31  C   UNL A   1      33.951  33.846  30.514  1.00  0.00     0.014 A 
ATOM     32  C   UNL A   1      35.407  34.654  28.748  1.00  0.00     0.014 A 
ATOM     33  C   UNL A   1      35.056  33.312  31.178  1.00  0.00     0.010 A 
ATOM     34  C   UNL A   1      36.495  34.060  29.375  1.00  0.00     0.010 A 
ATOM     35  C   UNL A   1      36.332  33.390  30.598  1.00  0.00    -0.014 A 
BRANCH  35  36
ATOM     36  C   UNL A   1      37.531  32.809  31.250  1.00  0.00     0.031 A 
ATOM     37  C   UNL A   1      38.238  31.659  30.594  1.00  0.00     0.074 A 
ATOM     38  C   UNL A   1      37.906  33.229  32.472  1.00  0.00     0.049 A 
ATOM     39  N   UNL A   1      39.173  30.877  31.070  1.00  0.00    -0.248 NA
ATOM     40  C   UNL A   1      37.802  31.318  29.231  1.00  0.00     0.031 C 
ATOM     41  C   UNL A   1      37.277  34.315  33.224  1.00  0.00     0.029 A 
ATOM     42  N   UNL A   1      38.889  32.766  33.311  1.00  0.00    -0.354 N 
ATOM     43  C   UNL A   1      39.410  29.933  30.079  1.00  0.00     0.074 A 
ATOM     44  C   UNL A   1      38.490  30.212  28.998  1.00  0.00     0.031 C 
ATOM     45  C   UNL A   1      37.887  34.433  34.413  1.00  0.00     0.029 A 
ATOM     46  C   UNL A   1      38.917  33.403  34.526  1.00  0.00     0.049 A 
ATOM     47  H   UNL A   1      39.514  32.047  33.065  1.00  0.00     0.167 HD
ATOM     48  C   UNL A   1      40.322  28.932  30.069  1.00  0.00     0.037 A 
ATOM     49  C   UNL A   1      39.671  33.167  35.617  1.00  0.00     0.037 A 
ATOM     50  C   UNL A   1      41.254  28.684  31.137  1.00  0.00     0.049 A 
ATOM     51  C   UNL A   1      40.685  32.056  35.586  1.00  0.00     0.074 A 
ATOM     52  C   UNL A   1      42.264  27.741  31.200  1.00  0.00     0.029 A 
ATOM     53  N   UNL A   1      41.287  29.386  32.334  1.00  0.00    -0.354 N 
ATOM     54  N   UNL A   1      40.940  31.199  34.627  1.00  0.00    -0.248 NA
ATOM     55  C   UNL A   1      41.518  31.880  36.783  1.00  0.00     0.031 C 
ATOM     56  C   UNL A   1      42.877  27.841  32.453  1.00  0.00     0.029 A 
ATOM     57  C   UNL A   1      42.286  28.884  33.150  1.00  0.00     0.049 A 
ATOM     58  H   UNL A   1      40.688  30.132  32.568  1.00  0.00     0.167 HD
ATOM     59  C   UNL A   1      41.982  30.407  35.088  1.00  0.00     0.074 A 
ATOM     60  C   UNL A   1      42.311  30.883  36.415  1.00  0.00     0.031 C 
ATOM     61  C   UNL A   1      42.612  29.383  34.462  1.00  0.00     0.037 A 
BRANCH  48  62
ATOM     62  C   UNL A   1      40.339  28.027  28.872  1.00  0.00     0.064 A 
ATOM     63  C   UNL A   1      39.634  26.813  28.850  1.00  0.00     0.173 A 
ATOM     64  C   UNL A   1      41.074  28.377  27.728  1.00  0.00     0.173 A 
ATOM     65  F   UNL A   1      38.924  26.426  29.921  1.00  0.00    -0.203 F 
ATOM     66  C   UNL A   1      39.703  25.963  27.749  1.00  0.00     0.198 A 
ATOM     67  C   UNL A   1      41.111  27.540  26.616  1.00  0.00     0.198 A 
ATOM     68  F   UNL A   1      41.761  29.529  27.692  1.00  0.00    -0.203 F 
ATOM     69  F   UNL A   1      39.079  24.777  27.782  1.00  0.00    -0.200 F 
ATOM     70  C   UNL A   1      40.438  26.329  26.632  1.00  0.00     0.200 A 
ATOM     71  F   UNL A   1      41.811  27.903  25.532  1.00  0.00    -0.200 F 
ATOM     72  F   UNL A   1      40.507  25.508  25.576  1.00  0.00    -0.200 F 
ENDBRANCH  48  62
BRANCH  49  73
ATOM     73  C   UNL A   1      39.498  34.019  36.822  1.00  0.00     0.064 A 
ATOM     74  C   UNL A   1      38.727  33.582  37.906  1.00  0.00     0.173 A 
ATOM     75  C   UNL A   1      40.132  35.266  36.932  1.00  0.00     0.173 A 
ATOM     76  F   UNL A   1      38.087  32.405  37.840  1.00  0.00    -0.203 F 
ATOM     77  C   UNL A   1      38.590  34.361  39.054  1.00  0.00     0.198 A 
ATOM     78  C   UNL A   1      40.015  36.033  38.089  1.00  0.00     0.198 A 
ATOM     79  F   UNL A   1      40.888  35.726  35.924  1.00  0.00    -0.203 F 
ATOM     80  F   UNL A   1      37.823  33.931  40.065  1.00  0.00    -0.200 F 
ATOM     81  C   UNL A   1      39.240  35.582  39.147  1.00  0.00     0.200 A 
ATOM     82  F   UNL A   1      40.659  37.204  38.182  1.00  0.00    -0.200 F 
ATOM     83  F   UNL A   1      39.122  36.324  40.257  1.00  0.00    -0.200 F 
ENDBRANCH  49  73
BRANCH  61  84
ATOM     84  C   UNL A   1      43.761  28.733  35.175  1.00  0.00     0.064 A 
ATOM     85  C   UNL A   1      45.081  29.177  35.011  1.00  0.00     0.173 A 
ATOM     86  C   UNL A   1      43.522  27.707  36.105  1.00  0.00     0.173 A 
ATOM     87  F   UNL A   1      45.361  30.145  34.125  1.00  0.00    -0.203 F 
ATOM     88  C   UNL A   1      46.120  28.614  35.746  1.00  0.00     0.198 A 
ATOM     89  C   UNL A   1      44.560  27.165  36.856  1.00  0.00     0.198 A 
ATOM     90  F   UNL A   1      42.276  27.253  36.302  1.00  0.00    -0.203 F 
ATOM     91  F   UNL A   1      47.379  29.034  35.556  1.00  0.00    -0.200 F 
ATOM     92  C   UNL A   1      45.858  27.617  36.676  1.00  0.00     0.200 A 
ATOM     93  F   UNL A   1      44.301  26.214  37.764  1.00  0.00    -0.200 F 
ATOM     94  F   UNL A   1      46.858  27.091  37.397  1.00  0.00    -0.200 F 
ENDBRANCH  61  84
ENDBRANCH  35  36
ENDBRANCH  27  30
ENDBRANCH  25  26
ENDBRANCH  24  25
ENDBRANCH  23  24
ENDBRANCH   1  23
TORSDOF 17
ENDMDL
MODEL 2
REMARK VINA RESULT:     -12.0      0.369      1.755
REMARK SMILES CC[C@H](Nc1cccc(C(F)(F)F)c1)C(=O)NCCCCCCNC(=O)c1ccc(-c2c3nc(c(-c4c(F)c(F)c(F)c(F)c4F)c4ccc([nH]4)c(-c4c(F)c(F)c(F)c(F)c4F)c4nc(c(-c5c(F)c(F)c(F)c(F)c5F)c5ccc2[nH]5)C=C4)C=C3)cc1
REMARK SMILES IDX 20 1 19 2 18 3 17 4 15 5 16 6 3 8 2 9 1 10 4 11 5 13 6 14
REMARK SMILES IDX 14 15 7 16 9 17 8 18 10 19 11 20 12 21 13 22 21 23 22 24
REMARK SMILES IDX 23 25 24 26 25 27 26 29 27 30 28 31 89 32 29 33 88 34 30 35
REMARK SMILES IDX 31 36 32 37 82 38 33 39 87 40 81 41 83 42 34 43 86 44 80 45
REMARK SMILES IDX 79 46 35 48 67 49 47 50 66 51 48 52 51 53 65 54 84 55 49 56
REMARK SMILES IDX 50 57 64 59 85 60 52 61 36 62 37 63 45 64 38 65 39 66 43 67
REMARK SMILES IDX 46 68 40 69 41 70 44 71 42 72 68 73 69 74 77 75 70 76 71 77
REMARK SMILES IDX 75 78 78 79 72 80 73 81 76 82 74 83 53 84 54 85 62 86 55 87
REMARK SMILES IDX 56 88 60 89 63 90 57 91 58 92 61 93 59 94
REMARK H PARENT 17 7 4 12 24 28 83 47 51 58
REMARK Flexibility Score: inf
ROOT
ATOM      1  C   UNL A   1      32.489  30.054  26.805  1.00  0.00     0.002 C 
ENDROOT
BRANCH   1   2
ATOM      2  C   UNL A   1      32.333  28.535  26.672  1.00  0.00     0.021 C 
BRANCH   2   3
ATOM      3  C   UNL A   1      33.574  27.828  26.124  1.00  0.00     0.116 C 
BRANCH   3   4
ATOM      4  N   UNL A   1      34.078  28.501  24.940  1.00  0.00    -0.354 N 
ATOM      5  C   UNL A   1      33.777  28.324  23.616  1.00  0.00     0.242 C 
ATOM      6  O   UNL A   1      34.362  29.039  22.797  1.00  0.00    -0.273 OA
ATOM      7  H   UNL A   1      34.747  29.201  25.118  1.00  0.00     0.163 HD
BRANCH   5   8
ATOM      8  C   UNL A   1      32.716  27.289  23.167  1.00  0.00     0.168 C 
BRANCH   8   9
ATOM      9  C   UNL A   1      33.428  26.135  22.439  1.00  0.00     0.031 C 
ATOM     10  C   UNL A   1      32.661  25.627  21.229  1.00  0.00     0.006 C 
ENDBRANCH   8   9
BRANCH   8  11
ATOM     11  N   UNL A   1      31.723  27.938  22.297  1.00  0.00    -0.374 N 
ATOM     12  H   UNL A   1      31.961  28.075  21.352  1.00  0.00     0.161 HD
BRANCH  11  13
ATOM     13  C   UNL A   1      30.477  28.369  22.718  1.00  0.00     0.035 A 
ATOM     14  C   UNL A   1      29.551  27.400  23.119  1.00  0.00     0.026 A 
ATOM     15  C   UNL A   1      30.028  29.677  22.522  1.00  0.00     0.038 A 
ATOM     16  C   UNL A   1      28.219  27.728  23.369  1.00  0.00     0.003 A 
ATOM     17  C   UNL A   1      28.684  30.023  22.749  1.00  0.00     0.058 A 
ATOM     18  C   UNL A   1      27.786  29.036  23.182  1.00  0.00     0.013 A 
BRANCH  17  19
ATOM     19  C   UNL A   1      28.183  31.420  22.483  1.00  0.00     0.416 C 
ATOM     20  F   UNL A   1      27.194  31.787  23.346  1.00  0.00    -0.166 F 
ATOM     21  F   UNL A   1      29.159  32.360  22.618  1.00  0.00    -0.166 F 
ATOM     22  F   UNL A   1      27.667  31.592  21.235  1.00  0.00    -0.166 F 
ENDBRANCH  17  19
ENDBRANCH  11  13
ENDBRANCH   8  11
ENDBRANCH   5   8
ENDBRANCH   3   4
ENDBRANCH   2   3
ENDBRANCH   1   2
BRANCH   1  23
ATOM     23  C   UNL A   1      31.415  30.881  26.091  1.00  0.00     0.002 C 
BRANCH  23  24
ATOM     24  C   UNL A   1      31.248  32.310  26.608  1.00  0.00     0.021 C 
BRANCH  24  25
ATOM     25  C   UNL A   1      32.543  32.973  27.059  1.00  0.00     0.116 C 
BRANCH  25  26
ATOM     26  N   UNL A   1      32.317  34.296  27.620  1.00  0.00    -0.352 N 
ATOM     27  C   UNL A   1      32.972  34.908  28.659  1.00  0.00     0.251 C 
ATOM     28  H   UNL A   1      31.599  34.821  27.198  1.00  0.00     0.163 HD
ATOM     29  O   UNL A   1      32.552  35.956  29.138  1.00  0.00    -0.269 OA
BRANCH  27  30
ATOM     30  C   UNL A   1      34.186  34.276  29.214  1.00  0.00     0.039 A 
ATOM     31  C   UNL A   1      35.435  34.617  28.690  1.00  0.00     0.014 A 
ATOM     32  C   UNL A   1      34.081  33.366  30.268  1.00  0.00     0.014 A 
ATOM     33  C   UNL A   1      36.592  34.088  29.265  1.00  0.00     0.010 A 
ATOM     34  C   UNL A   1      35.234  32.896  30.884  1.00  0.00     0.010 A 
ATOM     35  C   UNL A   1      36.499  33.247  30.385  1.00  0.00    -0.014 A 
BRANCH  35  36
ATOM     36  C   UNL A   1      37.700  32.686  31.050  1.00  0.00     0.031 A 
ATOM     37  C   UNL A   1      38.431  31.545  30.402  1.00  0.00     0.074 A 
ATOM     38  C   UNL A   1      38.058  33.113  32.275  1.00  0.00     0.049 A 
ATOM     39  N   UNL A   1      39.373  30.778  30.888  1.00  0.00    -0.248 NA
ATOM     40  C   UNL A   1      38.013  31.196  29.036  1.00  0.00     0.031 C 
ATOM     41  C   UNL A   1      37.406  34.191  33.019  1.00  0.00     0.029 A 
ATOM     42  N   UNL A   1      39.040  32.666  33.123  1.00  0.00    -0.354 N 
ATOM     43  C   UNL A   1      39.633  29.836  29.901  1.00  0.00     0.074 A 
ATOM     44  C   UNL A   1      38.719  30.099  28.811  1.00  0.00     0.031 C 
ATOM     45  C   UNL A   1      38.003  34.320  34.214  1.00  0.00     0.029 A 
ATOM     46  C   UNL A   1      39.048  33.306  34.338  1.00  0.00     0.049 A 
ATOM     47  H   UNL A   1      39.678  31.955  32.884  1.00  0.00     0.167 HD
ATOM     48  C   UNL A   1      40.560  28.848  29.902  1.00  0.00     0.037 A 
ATOM     49  C   UNL A   1      39.794  33.082  35.436  1.00  0.00     0.037 A 
ATOM     50  C   UNL A   1      41.486  28.616  30.979  1.00  0.00     0.049 A 
ATOM     51  C   UNL A   1      40.825  31.986  35.416  1.00  0.00     0.074 A 
ATOM     52  C   UNL A   1      42.509  27.688  31.052  1.00  0.00     0.029 A 
ATOM     53  N   UNL A   1      41.496  29.320  32.175  1.00  0.00    -0.354 N 
ATOM     54  N   UNL A   1      41.101  31.132  34.461  1.00  0.00    -0.248 NA
ATOM     55  C   UNL A   1      41.650  31.824  36.622  1.00  0.00     0.031 C 
ATOM     56  C   UNL A   1      43.108  27.799  32.311  1.00  0.00     0.029 A 
ATOM     57  C   UNL A   1      42.496  28.835  33.001  1.00  0.00     0.049 A 
ATOM     58  H   UNL A   1      40.885  30.058  32.402  1.00  0.00     0.167 HD
ATOM     59  C   UNL A   1      42.151  30.356  34.933  1.00  0.00     0.074 A 
ATOM     60  C   UNL A   1      42.461  30.839  36.263  1.00  0.00     0.031 C 
ATOM     61  C   UNL A   1      42.802  29.340  34.315  1.00  0.00     0.037 A 
BRANCH  48  62
ATOM     62  C   UNL A   1      40.601  27.941  28.706  1.00  0.00     0.064 A 
ATOM     63  C   UNL A   1      41.336  28.264  27.555  1.00  0.00     0.173 A 
ATOM     64  C   UNL A   1      39.889  26.731  28.710  1.00  0.00     0.173 A 
ATOM     65  F   UNL A   1      42.025  29.415  27.495  1.00  0.00    -0.203 F 
ATOM     66  C   UNL A   1      41.320  27.435  26.437  1.00  0.00     0.198 A 
ATOM     67  C   UNL A   1      39.905  25.887  27.602  1.00  0.00     0.198 A 
ATOM     68  F   UNL A   1      39.175  26.369  29.786  1.00  0.00    -0.203 F 
ATOM     69  F   UNL A   1      41.973  27.801  25.325  1.00  0.00    -0.200 F 
ATOM     70  C   UNL A   1      40.608  26.245  26.463  1.00  0.00     0.200 A 
ATOM     71  F   UNL A   1      39.227  24.731  27.635  1.00  0.00    -0.200 F 
ATOM     72  F   UNL A   1      40.590  25.451  25.384  1.00  0.00    -0.200 F 
ENDBRANCH  48  62
BRANCH  49  73
ATOM     73  C   UNL A   1      39.597  33.933  36.638  1.00  0.00     0.064 A 
ATOM     74  C   UNL A   1      38.788  33.504  37.697  1.00  0.00     0.173 A 
ATOM     75  C   UNL A   1      40.246  35.170  36.770  1.00  0.00     0.173 A 
ATOM     76  F   UNL A   1      38.133  32.337  37.608  1.00  0.00    -0.203 F 
ATOM     77  C   UNL A   1      38.627  34.282  38.842  1.00  0.00     0.198 A 
ATOM     78  C   UNL A   1      40.105  35.936  37.926  1.00  0.00     0.198 A 
ATOM     79  F   UNL A   1      41.039  35.622  35.788  1.00  0.00    -0.203 F 
ATOM     80  F   UNL A   1      37.824  33.861  39.829  1.00  0.00    -0.200 F 
ATOM     81  C   UNL A   1      39.293  35.493  38.959  1.00  0.00     0.200 A 
ATOM     82  F   UNL A   1      40.763  37.097  38.042  1.00  0.00    -0.200 F 
ATOM     83  F   UNL A   1      39.151  36.234  40.067  1.00  0.00    -0.200 F 
ENDBRANCH  49  73
BRANCH  61  84
ATOM     84  C   UNL A   1      43.954  28.708  35.040  1.00  0.00     0.064 A 
ATOM     85  C   UNL A   1      43.776  27.625  35.911  1.00  0.00     0.173 A 
ATOM     86  C   UNL A   1      45.266  29.141  34.786  1.00  0.00     0.173 A 
ATOM     87  F   UNL A   1      42.541  27.184  36.195  1.00  0.00    -0.203 F 
ATOM     88  C   UNL A   1      44.868  27.002  36.509  1.00  0.00     0.198 A 
ATOM     89  C   UNL A   1      46.356  28.499  35.365  1.00  0.00     0.198 A 
ATOM     90  F   UNL A   1      45.488  30.170  33.956  1.00  0.00    -0.203 F 
ATOM     91  F   UNL A   1      44.675  25.984  37.359  1.00  0.00    -0.200 F 
ATOM     92  C   UNL A   1      46.157  27.431  36.227  1.00  0.00     0.200 A 
ATOM     93  F   UNL A   1      47.601  28.906  35.079  1.00  0.00    -0.200 F 
ATOM     94  F   UNL A   1      47.208  26.816  36.786  1.00  0.00    -0.200 F 
ENDBRANCH  61  84
ENDBRANCH  35  36
ENDBRANCH  27  30
ENDBRANCH  25  26
ENDBRANCH  24  25
ENDBRANCH  23  24
ENDBRANCH   1  23
TORSDOF 17
ENDMDL
MODEL 3
REMARK VINA RESULT:     -11.7      6.580     11.833
REMARK SMILES CC[C@H](Nc1cccc(C(F)(F)F)c1)C(=O)NCCCCCCNC(=O)c1ccc(-c2c3nc(c(-c4c(F)c(F)c(F)c(F)c4F)c4ccc([nH]4)c(-c4c(F)c(F)c(F)c(F)c4F)c4nc(c(-c5c(F)c(F)c(F)c(F)c5F)c5ccc2[nH]5)C=C4)C=C3)cc1
REMARK SMILES IDX 20 1 19 2 18 3 17 4 15 5 16 6 3 8 2 9 1 10 4 11 5 13 6 14
REMARK SMILES IDX 14 15 7 16 9 17 8 18 10 19 11 20 12 21 13 22 21 23 22 24
REMARK SMILES IDX 23 25 24 26 25 27 26 29 27 30 28 31 89 32 29 33 88 34 30 35
REMARK SMILES IDX 31 36 32 37 82 38 33 39 87 40 81 41 83 42 34 43 86 44 80 45
REMARK SMILES IDX 79 46 35 48 67 49 47 50 66 51 48 52 51 53 65 54 84 55 49 56
REMARK SMILES IDX 50 57 64 59 85 60 52 61 36 62 37 63 45 64 38 65 39 66 43 67
REMARK SMILES IDX 46 68 40 69 41 70 44 71 42 72 68 73 69 74 77 75 70 76 71 77
REMARK SMILES IDX 75 78 78 79 72 80 73 81 76 82 74 83 53 84 54 85 62 86 55 87
REMARK SMILES IDX 56 88 60 89 63 90 57 91 58 92 61 93 59 94
REMARK H PARENT 17 7 4 12 24 28 83 47 51 58
REMARK Flexibility Score: inf
ROOT
ATOM      1  C   UNL A   1      37.077  21.998  24.351  1.00  0.00     0.002 C 
ENDROOT
BRANCH   1   2
ATOM      2  C   UNL A   1      37.246  23.116  25.386  1.00  0.00     0.021 C 
BRANCH   2   3
ATOM      3  C   UNL A   1      35.930  23.762  25.822  1.00  0.00     0.116 C 
BRANCH   3   4
ATOM      4  N   UNL A   1      35.317  23.017  26.908  1.00  0.00    -0.354 N 
ATOM      5  C   UNL A   1      34.059  22.491  27.030  1.00  0.00     0.242 C 
ATOM      6  O   UNL A   1      33.788  21.895  28.076  1.00  0.00    -0.273 OA
ATOM      7  H   UNL A   1      35.902  22.865  27.684  1.00  0.00     0.163 HD
BRANCH   5   8
ATOM      8  C   UNL A   1      33.026  22.609  25.881  1.00  0.00     0.168 C 
BRANCH   8   9
ATOM      9  C   UNL A   1      32.131  23.832  26.146  1.00  0.00     0.031 C 
ATOM     10  C   UNL A   1      30.701  23.460  26.507  1.00  0.00     0.006 C 
ENDBRANCH   8   9
BRANCH   8  11
ATOM     11  N   UNL A   1      32.232  21.373  25.796  1.00  0.00    -0.374 N 
ATOM     12  H   UNL A   1      31.448  21.290  26.384  1.00  0.00     0.161 HD
BRANCH  11  13
ATOM     13  C   UNL A   1      32.514  20.320  24.944  1.00  0.00     0.035 A 
ATOM     14  C   UNL A   1      32.284  20.505  23.576  1.00  0.00     0.026 A 
ATOM     15  C   UNL A   1      32.768  19.027  25.404  1.00  0.00     0.038 A 
ATOM     16  C   UNL A   1      32.354  19.443  22.677  1.00  0.00     0.003 A 
ATOM     17  C   UNL A   1      32.822  17.938  24.516  1.00  0.00     0.058 A 
ATOM     18  C   UNL A   1      32.620  18.161  23.146  1.00  0.00     0.013 A 
BRANCH  17  19
ATOM     19  C   UNL A   1      33.039  16.532  25.017  1.00  0.00     0.416 C 
ATOM     20  F   UNL A   1      33.950  16.480  26.030  1.00  0.00    -0.166 F 
ATOM     21  F   UNL A   1      31.901  15.973  25.513  1.00  0.00    -0.166 F 
ATOM     22  F   UNL A   1      33.495  15.673  24.065  1.00  0.00    -0.166 F 
ENDBRANCH  17  19
ENDBRANCH  11  13
ENDBRANCH   8  11
ENDBRANCH   5   8
ENDBRANCH   3   4
ENDBRANCH   2   3
ENDBRANCH   1   2
BRANCH   1  23
ATOM     23  C   UNL A   1      36.800  20.609  24.938  1.00  0.00     0.002 C 
BRANCH  23  24
ATOM     24  C   UNL A   1      37.995  19.655  24.936  1.00  0.00     0.021 C 
BRANCH  24  25
ATOM     25  C   UNL A   1      39.084  20.008  25.941  1.00  0.00     0.116 C 
BRANCH  25  26
ATOM     26  N   UNL A   1      40.219  19.101  25.861  1.00  0.00    -0.352 N 
ATOM     27  C   UNL A   1      41.556  19.393  25.972  1.00  0.00     0.251 C 
ATOM     28  H   UNL A   1      40.000  18.155  25.707  1.00  0.00     0.163 HD
ATOM     29  O   UNL A   1      42.408  18.552  25.705  1.00  0.00    -0.269 OA
BRANCH  27  30
ATOM     30  C   UNL A   1      41.963  20.746  26.400  1.00  0.00     0.039 A 
ATOM     31  C   UNL A   1      42.161  21.003  27.759  1.00  0.00     0.014 A 
ATOM     32  C   UNL A   1      42.168  21.749  25.449  1.00  0.00     0.014 A 
ATOM     33  C   UNL A   1      42.627  22.256  28.162  1.00  0.00     0.010 A 
ATOM     34  C   UNL A   1      42.698  22.970  25.845  1.00  0.00     0.010 A 
ATOM     35  C   UNL A   1      42.927  23.237  27.205  1.00  0.00    -0.014 A 
BRANCH  35  36
ATOM     36  C   UNL A   1      43.453  24.571  27.582  1.00  0.00     0.031 A 
ATOM     37  C   UNL A   1      42.506  25.610  28.113  1.00  0.00     0.074 A 
ATOM     38  C   UNL A   1      44.739  24.886  27.339  1.00  0.00     0.049 A 
ATOM     39  N   UNL A   1      42.703  26.887  28.319  1.00  0.00    -0.248 NA
ATOM     40  C   UNL A   1      41.140  25.153  28.413  1.00  0.00     0.031 C 
ATOM     41  C   UNL A   1      45.744  23.973  26.796  1.00  0.00     0.029 A 
ATOM     42  N   UNL A   1      45.409  26.075  27.487  1.00  0.00    -0.354 N 
ATOM     43  C   UNL A   1      41.478  27.390  28.736  1.00  0.00     0.074 A 
ATOM     44  C   UNL A   1      40.536  26.292  28.710  1.00  0.00     0.031 C 
ATOM     45  C   UNL A   1      46.903  24.635  26.654  1.00  0.00     0.029 A 
ATOM     46  C   UNL A   1      46.709  26.028  27.051  1.00  0.00     0.049 A 
ATOM     47  H   UNL A   1      44.997  26.883  27.870  1.00  0.00     0.167 HD
ATOM     48  C   UNL A   1      41.172  28.653  29.119  1.00  0.00     0.037 A 
ATOM     49  C   UNL A   1      47.633  27.003  26.957  1.00  0.00     0.037 A 
ATOM     50  C   UNL A   1      42.125  29.729  29.172  1.00  0.00     0.049 A 
ATOM     51  C   UNL A   1      47.278  28.399  27.394  1.00  0.00     0.074 A 
ATOM     52  C   UNL A   1      41.936  31.029  29.609  1.00  0.00     0.029 A 
ATOM     53  N   UNL A   1      43.450  29.630  28.770  1.00  0.00    -0.354 N 
ATOM     54  N   UNL A   1      46.133  28.858  27.837  1.00  0.00    -0.248 NA
ATOM     55  C   UNL A   1      48.341  29.410  27.323  1.00  0.00     0.031 C 
ATOM     56  C   UNL A   1      43.134  31.728  29.427  1.00  0.00     0.029 A 
ATOM     57  C   UNL A   1      44.085  30.850  28.930  1.00  0.00     0.049 A 
ATOM     58  H   UNL A   1      43.875  28.813  28.423  1.00  0.00     0.167 HD
ATOM     59  C   UNL A   1      46.344  30.198  28.130  1.00  0.00     0.074 A 
ATOM     60  C   UNL A   1      47.728  30.480  27.812  1.00  0.00     0.031 C 
ATOM     61  C   UNL A   1      45.470  31.108  28.625  1.00  0.00     0.037 A 
BRANCH  48  62
ATOM     62  C   UNL A   1      39.745  28.932  29.493  1.00  0.00     0.064 A 
ATOM     63  C   UNL A   1      38.809  29.393  28.554  1.00  0.00     0.173 A 
ATOM     64  C   UNL A   1      39.307  28.740  30.813  1.00  0.00     0.173 A 
ATOM     65  F   UNL A   1      39.178  29.604  27.281  1.00  0.00    -0.203 F 
ATOM     66  C   UNL A   1      37.503  29.696  28.931  1.00  0.00     0.198 A 
ATOM     67  C   UNL A   1      37.991  29.009  31.178  1.00  0.00     0.198 A 
ATOM     68  F   UNL A   1      40.157  28.294  31.750  1.00  0.00    -0.203 F 
ATOM     69  F   UNL A   1      36.649  30.202  28.031  1.00  0.00    -0.200 F 
ATOM     70  C   UNL A   1      37.094  29.500  30.242  1.00  0.00     0.200 A 
ATOM     71  F   UNL A   1      37.594  28.806  32.442  1.00  0.00    -0.200 F 
ATOM     72  F   UNL A   1      35.839  29.796  30.604  1.00  0.00    -0.200 F 
ENDBRANCH  48  62
BRANCH  49  73
ATOM     73  C   UNL A   1      48.988  26.679  26.441  1.00  0.00     0.064 A 
ATOM     74  C   UNL A   1      49.312  26.884  25.094  1.00  0.00     0.173 A 
ATOM     75  C   UNL A   1      49.996  26.197  27.290  1.00  0.00     0.173 A 
ATOM     76  F   UNL A   1      48.375  27.326  24.241  1.00  0.00    -0.203 F 
ATOM     77  C   UNL A   1      50.591  26.615  24.612  1.00  0.00     0.198 A 
ATOM     78  C   UNL A   1      51.282  25.952  26.812  1.00  0.00     0.198 A 
ATOM     79  F   UNL A   1      49.738  25.992  28.589  1.00  0.00    -0.203 F 
ATOM     80  F   UNL A   1      50.866  26.794  23.312  1.00  0.00    -0.200 F 
ATOM     81  C   UNL A   1      51.577  26.157  25.473  1.00  0.00     0.200 A 
ATOM     82  F   UNL A   1      52.236  25.526  27.651  1.00  0.00    -0.200 F 
ATOM     83  F   UNL A   1      52.812  25.913  25.012  1.00  0.00    -0.200 F 
ENDBRANCH  49  73
BRANCH  61  84
ATOM     84  C   UNL A   1      45.988  32.487  28.909  1.00  0.00     0.064 A 
ATOM     85  C   UNL A   1      46.594  32.814  30.129  1.00  0.00     0.173 A 
ATOM     86  C   UNL A   1      45.954  33.470  27.906  1.00  0.00     0.173 A 
ATOM     87  F   UNL A   1      46.638  31.913  31.122  1.00  0.00    -0.203 F 
ATOM     88  C   UNL A   1      47.142  34.077  30.339  1.00  0.00     0.198 A 
ATOM     89  C   UNL A   1      46.525  34.723  28.111  1.00  0.00     0.198 A 
ATOM     90  F   UNL A   1      45.390  33.204  26.718  1.00  0.00    -0.203 F 
ATOM     91  F   UNL A   1      47.694  34.378  31.523  1.00  0.00    -0.200 F 
ATOM     92  C   UNL A   1      47.117  35.025  29.327  1.00  0.00     0.200 A 
ATOM     93  F   UNL A   1      46.514  35.632  27.126  1.00  0.00    -0.200 F 
ATOM     94  F   UNL A   1      47.664  36.233  29.524  1.00  0.00    -0.200 F 
ENDBRANCH  61  84
ENDBRANCH  35  36
ENDBRANCH  27  30
ENDBRANCH  25  26
ENDBRANCH  24  25
ENDBRANCH  23  24
ENDBRANCH   1  23
TORSDOF 17
ENDMDL
