MODEL 1
REMARK VINA RESULT:     -11.7      0.000      0.000
REMARK SMILES O=C(NCCCCCCNC(=O)[C@@H]1C[C@@H]2CC[C@H]1N2C(=O)C[C@H]1CCCCO1)c1ccc(-c2c3nc(c(-c4c(F)c(F)c(F)c(F)c4F)c4ccc([nH]4)c(-c4c(F)c(F)c(F)c(F)c4F)c4nc(c(-c5c(F)c(F)c(F)c(F)c5F)c5ccc2[nH]5)C=C4)C=C3)cc1
REMARK SMILES IDX 7 1 6 2 5 3 4 4 3 5 1 6 2 7 29 9 30 10 91 11 31 12 90 13
REMARK SMILES IDX 32 14 33 15 34 16 84 17 35 18 89 19 83 20 85 21 36 22 88 23
REMARK SMILES IDX 82 24 81 25 37 27 69 28 49 29 68 30 50 31 53 32 67 33 86 34
REMARK SMILES IDX 51 35 52 36 66 38 87 39 54 40 38 41 39 42 47 43 40 44 41 45
REMARK SMILES IDX 45 46 48 47 42 48 43 49 46 50 44 51 70 52 71 53 79 54 72 55
REMARK SMILES IDX 73 56 77 57 80 58 74 59 75 60 78 61 76 62 55 63 56 64 64 65
REMARK SMILES IDX 57 66 58 67 62 68 65 69 59 70 60 71 63 72 61 73 8 74 9 75
REMARK SMILES IDX 10 76 11 77 12 79 13 80 14 81 18 82 15 83 17 84 19 85 16 86
REMARK SMILES IDX 20 87 21 88 22 89 23 90 24 91 28 92 25 93 27 94 26 95
REMARK H PARENT 3 8 85 26 53 37 10 78
REMARK Flexibility Score: inf
ROOT
ATOM      1  C   UNL A   1      32.183  29.805  27.174  1.00  0.00     0.002 C 
ENDROOT
BRANCH   1   2
ATOM      2  C   UNL A   1      31.514  30.773  26.193  1.00  0.00     0.002 C 
BRANCH   2   3
ATOM      3  C   UNL A   1      31.367  32.228  26.640  1.00  0.00     0.021 C 
BRANCH   3   4
ATOM      4  C   UNL A   1      32.658  32.954  26.989  1.00  0.00     0.116 C 
BRANCH   4   5
ATOM      5  N   UNL A   1      32.436  34.234  27.633  1.00  0.00    -0.352 N 
ATOM      6  O   UNL A   1      32.659  35.831  29.206  1.00  0.00    -0.269 OA
ATOM      7  C   UNL A   1      33.066  34.784  28.723  1.00  0.00     0.251 C 
ATOM      8  H   UNL A   1      31.731  34.789  27.230  1.00  0.00     0.163 HD
BRANCH   7   9
ATOM      9  C   UNL A   1      34.225  34.092  29.330  1.00  0.00     0.039 A 
ATOM     10  C   UNL A   1      34.045  33.042  30.233  1.00  0.00     0.014 A 
ATOM     11  C   UNL A   1      35.513  34.498  28.972  1.00  0.00     0.014 A 
ATOM     12  C   UNL A   1      35.145  32.491  30.879  1.00  0.00     0.010 A 
ATOM     13  C   UNL A   1      36.622  33.881  29.556  1.00  0.00     0.010 A 
ATOM     14  C   UNL A   1      36.446  32.889  30.532  1.00  0.00    -0.014 A 
BRANCH  14  15
ATOM     15  C   UNL A   1      37.610  32.205  31.149  1.00  0.00     0.031 A 
ATOM     16  C   UNL A   1      38.081  32.564  32.530  1.00  0.00     0.074 A 
ATOM     17  C   UNL A   1      38.243  31.247  30.445  1.00  0.00     0.049 A 
ATOM     18  N   UNL A   1      39.091  32.081  33.210  1.00  0.00    -0.248 NA
ATOM     19  C   UNL A   1      37.324  33.606  33.241  1.00  0.00     0.031 C 
ATOM     20  C   UNL A   1      37.881  30.825  29.090  1.00  0.00     0.029 A 
ATOM     21  N   UNL A   1      39.313  30.453  30.765  1.00  0.00    -0.354 N 
ATOM     22  C   UNL A   1      39.103  32.769  34.416  1.00  0.00     0.074 A 
ATOM     23  C   UNL A   1      38.016  33.724  34.366  1.00  0.00     0.031 C 
ATOM     24  C   UNL A   1      38.689  29.827  28.710  1.00  0.00     0.029 A 
ATOM     25  C   UNL A   1      39.669  29.585  29.763  1.00  0.00     0.049 A 
ATOM     26  H   UNL A   1      39.781  30.500  31.629  1.00  0.00     0.167 HD
ATOM     27  C   UNL A   1      39.941  32.609  35.468  1.00  0.00     0.037 A 
ATOM     28  C   UNL A   1      40.687  28.709  29.687  1.00  0.00     0.037 A 
ATOM     29  C   UNL A   1      41.017  31.649  35.508  1.00  0.00     0.049 A 
ATOM     30  C   UNL A   1      41.623  28.582  30.854  1.00  0.00     0.074 A 
ATOM     31  C   UNL A   1      41.901  31.385  36.541  1.00  0.00     0.029 A 
ATOM     32  N   UNL A   1      41.363  30.804  34.463  1.00  0.00    -0.354 N 
ATOM     33  N   UNL A   1      41.601  29.209  32.004  1.00  0.00    -0.248 NA
ATOM     34  C   UNL A   1      42.728  27.625  30.709  1.00  0.00     0.031 C 
ATOM     35  C   UNL A   1      42.814  30.422  36.101  1.00  0.00     0.029 A 
ATOM     36  C   UNL A   1      42.463  30.038  34.817  1.00  0.00     0.049 A 
ATOM     37  H   UNL A   1      40.895  30.755  33.598  1.00  0.00     0.167 HD
ATOM     38  C   UNL A   1      42.672  28.709  32.731  1.00  0.00     0.074 A 
ATOM     39  C   UNL A   1      43.312  27.712  31.896  1.00  0.00     0.031 C 
ATOM     40  C   UNL A   1      43.087  29.046  33.976  1.00  0.00     0.037 A 
BRANCH  27  41
ATOM     41  C   UNL A   1      39.748  33.505  36.659  1.00  0.00     0.064 A 
ATOM     42  C   UNL A   1      40.403  34.741  36.772  1.00  0.00     0.173 A 
ATOM     43  C   UNL A   1      38.861  33.141  37.685  1.00  0.00     0.173 A 
ATOM     44  F   UNL A   1      41.268  35.134  35.826  1.00  0.00    -0.203 F 
ATOM     45  C   UNL A   1      40.199  35.564  37.878  1.00  0.00     0.198 A 
ATOM     46  C   UNL A   1      38.636  33.979  38.774  1.00  0.00     0.198 A 
ATOM     47  F   UNL A   1      38.202  31.973  37.626  1.00  0.00    -0.203 F 
ATOM     48  F   UNL A   1      40.874  36.716  37.986  1.00  0.00    -0.200 F 
ATOM     49  C   UNL A   1      39.311  35.186  38.874  1.00  0.00     0.200 A 
ATOM     50  F   UNL A   1      37.766  33.619  39.728  1.00  0.00    -0.200 F 
ATOM     51  F   UNL A   1      39.111  35.982  39.934  1.00  0.00    -0.200 F 
ENDBRANCH  27  41
BRANCH  28  52
ATOM     52  C   UNL A   1      40.867  27.894  28.458  1.00  0.00     0.064 A 
ATOM     53  C   UNL A   1      40.271  26.633  28.334  1.00  0.00     0.173 A 
ATOM     54  C   UNL A   1      41.625  28.368  27.376  1.00  0.00     0.173 A 
ATOM     55  F   UNL A   1      39.549  26.130  29.346  1.00  0.00    -0.203 F 
ATOM     56  C   UNL A   1      40.440  25.869  27.181  1.00  0.00     0.198 A 
ATOM     57  C   UNL A   1      41.766  27.617  26.212  1.00  0.00     0.198 A 
ATOM     58  F   UNL A   1      42.210  29.573  27.442  1.00  0.00    -0.203 F 
ATOM     59  F   UNL A   1      39.893  24.647  27.104  1.00  0.00    -0.200 F 
ATOM     60  C   UNL A   1      41.179  26.364  26.118  1.00  0.00     0.200 A 
ATOM     61  F   UNL A   1      42.465  28.109  25.180  1.00  0.00    -0.200 F 
ATOM     62  F   UNL A   1      41.333  25.633  25.006  1.00  0.00    -0.200 F 
ENDBRANCH  28  52
BRANCH  40  63
ATOM     63  C   UNL A   1      44.269  28.301  34.527  1.00  0.00     0.064 A 
ATOM     64  C   UNL A   1      44.123  27.087  35.214  1.00  0.00     0.173 A 
ATOM     65  C   UNL A   1      45.568  28.797  34.339  1.00  0.00     0.173 A 
ATOM     66  F   UNL A   1      42.901  26.579  35.435  1.00  0.00    -0.203 F 
ATOM     67  C   UNL A   1      45.232  26.412  35.717  1.00  0.00     0.198 A 
ATOM     68  C   UNL A   1      46.677  28.102  34.813  1.00  0.00     0.198 A 
ATOM     69  F   UNL A   1      45.763  29.952  33.684  1.00  0.00    -0.203 F 
ATOM     70  F   UNL A   1      45.064  25.282  36.416  1.00  0.00    -0.200 F 
ATOM     71  C   UNL A   1      46.507  26.915  35.509  1.00  0.00     0.200 A 
ATOM     72  F   UNL A   1      47.909  28.583  34.600  1.00  0.00    -0.200 F 
ATOM     73  F   UNL A   1      47.573  26.260  35.988  1.00  0.00    -0.200 F 
ENDBRANCH  40  63
ENDBRANCH  14  15
ENDBRANCH   7   9
ENDBRANCH   4   5
ENDBRANCH   3   4
ENDBRANCH   2   3
ENDBRANCH   1   2
BRANCH   1  74
ATOM     74  C   UNL A   1      33.710  29.822  27.244  1.00  0.00     0.021 C 
BRANCH  74  75
ATOM     75  C   UNL A   1      34.431  28.706  26.504  1.00  0.00     0.116 C 
BRANCH  75  76
ATOM     76  N   UNL A   1      34.296  28.729  25.068  1.00  0.00    -0.356 N 
ATOM     77  C   UNL A   1      33.538  27.951  24.248  1.00  0.00     0.225 C 
ATOM     78  H   UNL A   1      34.836  29.413  24.611  1.00  0.00     0.163 HD
ATOM     79  O   UNL A   1      33.363  28.380  23.102  1.00  0.00    -0.275 OA
BRANCH  77  80
ATOM     80  C   UNL A   1      33.058  26.548  24.609  1.00  0.00     0.103 C 
ATOM     81  C   UNL A   1      32.472  25.767  23.386  1.00  0.00     0.040 C 
ATOM     82  C   UNL A   1      31.996  26.268  25.672  1.00  0.00     0.098 C 
ATOM     83  C   UNL A   1      31.254  25.028  23.989  1.00  0.00     0.086 C 
ATOM     84  C   UNL A   1      30.646  26.923  25.307  1.00  0.00     0.028 C 
ATOM     85  N   UNL A   1      31.679  24.888  25.359  1.00  0.00    -0.336 N 
ATOM     86  C   UNL A   1      30.112  26.031  24.166  1.00  0.00     0.027 C 
BRANCH  85  87
ATOM     87  C   UNL A   1      31.460  23.809  26.172  1.00  0.00     0.225 C 
ATOM     88  O   UNL A   1      31.419  23.918  27.396  1.00  0.00    -0.275 OA
BRANCH  87  89
ATOM     89  C   UNL A   1      31.245  22.471  25.486  1.00  0.00     0.132 C 
BRANCH  89  90
ATOM     90  C   UNL A   1      32.486  21.595  25.670  1.00  0.00     0.127 C 
ATOM     91  C   UNL A   1      32.568  20.475  24.629  1.00  0.00     0.033 C 
ATOM     92  O   UNL A   1      33.650  22.423  25.551  1.00  0.00    -0.378 OA
ATOM     93  C   UNL A   1      33.845  19.660  24.841  1.00  0.00     0.005 C 
ATOM     94  C   UNL A   1      34.847  21.719  25.881  1.00  0.00     0.160 C 
ATOM     95  C   UNL A   1      35.069  20.569  24.908  1.00  0.00     0.029 C 
ENDBRANCH  89  90
ENDBRANCH  87  89
ENDBRANCH  85  87
ENDBRANCH  77  80
ENDBRANCH  75  76
ENDBRANCH  74  75
ENDBRANCH   1  74
TORSDOF 16
ENDMDL
MODEL 2
REMARK VINA RESULT:     -11.7      1.863      2.846
REMARK SMILES O=C(NCCCCCCNC(=O)[C@@H]1C[C@@H]2CC[C@H]1N2C(=O)C[C@H]1CCCCO1)c1ccc(-c2c3nc(c(-c4c(F)c(F)c(F)c(F)c4F)c4ccc([nH]4)c(-c4c(F)c(F)c(F)c(F)c4F)c4nc(c(-c5c(F)c(F)c(F)c(F)c5F)c5ccc2[nH]5)C=C4)C=C3)cc1
REMARK SMILES IDX 7 1 6 2 5 3 4 4 3 5 1 6 2 7 29 9 30 10 91 11 31 12 90 13
REMARK SMILES IDX 32 14 33 15 34 16 84 17 35 18 89 19 83 20 85 21 36 22 88 23
REMARK SMILES IDX 82 24 81 25 37 27 69 28 49 29 68 30 50 31 53 32 67 33 86 34
REMARK SMILES IDX 51 35 52 36 66 38 87 39 54 40 38 41 39 42 47 43 40 44 41 45
REMARK SMILES IDX 45 46 48 47 42 48 43 49 46 50 44 51 70 52 71 53 79 54 72 55
REMARK SMILES IDX 73 56 77 57 80 58 74 59 75 60 78 61 76 62 55 63 56 64 64 65
REMARK SMILES IDX 57 66 58 67 62 68 65 69 59 70 60 71 63 72 61 73 8 74 9 75
REMARK SMILES IDX 10 76 11 77 12 79 13 80 14 81 18 82 15 83 17 84 19 85 16 86
REMARK SMILES IDX 20 87 21 88 22 89 23 90 24 91 28 92 25 93 27 94 26 95
REMARK H PARENT 3 8 85 26 53 37 10 78
REMARK Flexibility Score: inf
ROOT
ATOM      1  C   UNL A   1      34.389  32.301  29.287  1.00  0.00     0.002 C 
ENDROOT
BRANCH   1   2
ATOM      2  C   UNL A   1      34.530  33.773  28.885  1.00  0.00     0.002 C 
BRANCH   2   3
ATOM      3  C   UNL A   1      33.257  34.620  28.884  1.00  0.00     0.021 C 
BRANCH   3   4
ATOM      4  C   UNL A   1      33.365  35.991  29.533  1.00  0.00     0.116 C 
BRANCH   4   5
ATOM      5  N   UNL A   1      32.486  36.154  30.674  1.00  0.00    -0.352 N 
ATOM      6  O   UNL A   1      31.707  35.808  32.759  1.00  0.00    -0.269 OA
ATOM      7  C   UNL A   1      32.617  35.673  31.954  1.00  0.00     0.251 C 
ATOM      8  H   UNL A   1      31.676  36.688  30.506  1.00  0.00     0.163 HD
BRANCH   7   9
ATOM      9  C   UNL A   1      33.855  34.965  32.350  1.00  0.00     0.039 A 
ATOM     10  C   UNL A   1      35.096  35.604  32.303  1.00  0.00     0.014 A 
ATOM     11  C   UNL A   1      33.762  33.642  32.789  1.00  0.00     0.014 A 
ATOM     12  C   UNL A   1      36.255  34.882  32.565  1.00  0.00     0.010 A 
ATOM     13  C   UNL A   1      34.920  32.944  33.138  1.00  0.00     0.010 A 
ATOM     14  C   UNL A   1      36.178  33.552  33.006  1.00  0.00    -0.014 A 
BRANCH  14  15
ATOM     15  C   UNL A   1      37.420  32.835  33.391  1.00  0.00     0.031 A 
ATOM     16  C   UNL A   1      38.122  33.136  34.685  1.00  0.00     0.074 A 
ATOM     17  C   UNL A   1      37.910  31.901  32.555  1.00  0.00     0.049 A 
ATOM     18  N   UNL A   1      39.225  32.618  35.165  1.00  0.00    -0.248 NA
ATOM     19  C   UNL A   1      37.512  34.155  35.551  1.00  0.00     0.031 C 
ATOM     20  C   UNL A   1      37.318  31.534  31.265  1.00  0.00     0.029 A 
ATOM     21  N   UNL A   1      39.007  31.085  32.659  1.00  0.00    -0.354 N 
ATOM     22  C   UNL A   1      39.451  33.257  36.377  1.00  0.00     0.074 A 
ATOM     23  C   UNL A   1      38.386  34.223  36.547  1.00  0.00     0.031 C 
ATOM     24  C   UNL A   1      38.036  30.546  30.717  1.00  0.00     0.029 A 
ATOM     25  C   UNL A   1      39.175  30.254  31.579  1.00  0.00     0.049 A 
ATOM     26  H   UNL A   1      39.615  31.095  33.432  1.00  0.00     0.167 HD
ATOM     27  C   UNL A   1      40.453  33.049  37.264  1.00  0.00     0.037 A 
ATOM     28  C   UNL A   1      40.153  29.374  31.299  1.00  0.00     0.037 A 
ATOM     29  C   UNL A   1      41.506  32.080  37.086  1.00  0.00     0.049 A 
ATOM     30  C   UNL A   1      41.271  29.193  32.284  1.00  0.00     0.074 A 
ATOM     31  C   UNL A   1      42.547  31.768  37.943  1.00  0.00     0.029 A 
ATOM     32  N   UNL A   1      41.657  31.274  35.966  1.00  0.00    -0.354 N 
ATOM     33  N   UNL A   1      41.453  29.775  33.444  1.00  0.00    -0.248 NA
ATOM     34  C   UNL A   1      42.321  28.234  31.919  1.00  0.00     0.031 C 
ATOM     35  C   UNL A   1      43.359  30.816  37.320  1.00  0.00     0.029 A 
ATOM     36  C   UNL A   1      42.790  30.485  36.100  1.00  0.00     0.049 A 
ATOM     37  H   UNL A   1      41.050  31.262  35.192  1.00  0.00     0.167 HD
ATOM     38  C   UNL A   1      42.624  29.238  33.960  1.00  0.00     0.074 A 
ATOM     39  C   UNL A   1      43.098  28.269  32.992  1.00  0.00     0.031 C 
ATOM     40  C   UNL A   1      43.248  29.523  35.129  1.00  0.00     0.037 A 
BRANCH  27  41
ATOM     41  C   UNL A   1      40.477  33.899  38.504  1.00  0.00     0.064 A 
ATOM     42  C   UNL A   1      41.211  35.094  38.570  1.00  0.00     0.173 A 
ATOM     43  C   UNL A   1      39.720  33.535  39.629  1.00  0.00     0.173 A 
ATOM     44  F   UNL A   1      41.958  35.484  37.528  1.00  0.00    -0.203 F 
ATOM     45  C   UNL A   1      41.208  35.875  39.724  1.00  0.00     0.198 A 
ATOM     46  C   UNL A   1      39.696  34.334  40.770  1.00  0.00     0.198 A 
ATOM     47  F   UNL A   1      38.994  32.407  39.619  1.00  0.00    -0.203 F 
ATOM     48  F   UNL A   1      41.956  36.985  39.780  1.00  0.00    -0.200 F 
ATOM     49  C   UNL A   1      40.446  35.498  40.820  1.00  0.00     0.200 A 
ATOM     50  F   UNL A   1      38.946  33.976  41.821  1.00  0.00    -0.200 F 
ATOM     51  F   UNL A   1      40.440  36.255  41.926  1.00  0.00    -0.200 F 
ENDBRANCH  27  41
BRANCH  28  52
ATOM     52  C   UNL A   1      40.111  28.607  30.027  1.00  0.00     0.064 A 
ATOM     53  C   UNL A   1      40.716  29.101  28.865  1.00  0.00     0.173 A 
ATOM     54  C   UNL A   1      39.479  27.356  29.954  1.00  0.00     0.173 A 
ATOM     55  F   UNL A   1      41.320  30.299  28.882  1.00  0.00    -0.203 F 
ATOM     56  C   UNL A   1      40.677  28.382  27.673  1.00  0.00     0.198 A 
ATOM     57  C   UNL A   1      39.469  26.624  28.769  1.00  0.00     0.198 A 
ATOM     58  F   UNL A   1      38.891  26.835  31.040  1.00  0.00    -0.203 F 
ATOM     59  F   UNL A   1      41.229  28.896  26.564  1.00  0.00    -0.200 F 
ATOM     60  C   UNL A   1      40.061  27.140  27.628  1.00  0.00     0.200 A 
ATOM     61  F   UNL A   1      38.890  25.415  28.736  1.00  0.00    -0.200 F 
ATOM     62  F   UNL A   1      40.033  26.445  26.483  1.00  0.00    -0.200 F 
ENDBRANCH  28  52
BRANCH  40  63
ATOM     63  C   UNL A   1      44.496  28.747  35.443  1.00  0.00     0.064 A 
ATOM     64  C   UNL A   1      44.452  27.522  36.126  1.00  0.00     0.173 A 
ATOM     65  C   UNL A   1      45.748  29.223  35.028  1.00  0.00     0.173 A 
ATOM     66  F   UNL A   1      43.280  27.032  36.559  1.00  0.00    -0.203 F 
ATOM     67  C   UNL A   1      45.620  26.819  36.408  1.00  0.00     0.198 A 
ATOM     68  C   UNL A   1      46.911  28.500  35.282  1.00  0.00     0.198 A 
ATOM     69  F   UNL A   1      45.845  30.387  34.367  1.00  0.00    -0.203 F 
ATOM     70  F   UNL A   1      45.559  25.678  37.109  1.00  0.00    -0.200 F 
ATOM     71  C   UNL A   1      46.846  27.304  35.979  1.00  0.00     0.200 A 
ATOM     72  F   UNL A   1      48.093  28.964  34.855  1.00  0.00    -0.200 F 
ATOM     73  F   UNL A   1      47.968  26.621  36.245  1.00  0.00    -0.200 F 
ENDBRANCH  40  63
ENDBRANCH  14  15
ENDBRANCH   7   9
ENDBRANCH   4   5
ENDBRANCH   3   4
ENDBRANCH   2   3
ENDBRANCH   1   2
BRANCH   1  74
ATOM     74  C   UNL A   1      34.963  31.256  28.330  1.00  0.00     0.021 C 
BRANCH  74  75
ATOM     75  C   UNL A   1      34.037  30.776  27.223  1.00  0.00     0.116 C 
BRANCH  75  76
ATOM     76  N   UNL A   1      32.935  29.951  27.655  1.00  0.00    -0.356 N 
ATOM     77  C   UNL A   1      32.522  28.736  27.203  1.00  0.00     0.225 C 
ATOM     78  H   UNL A   1      32.399  30.326  28.390  1.00  0.00     0.163 HD
ATOM     79  O   UNL A   1      31.756  28.111  27.946  1.00  0.00    -0.275 OA
BRANCH  77  80
ATOM     80  C   UNL A   1      32.810  28.206  25.801  1.00  0.00     0.103 C 
ATOM     81  C   UNL A   1      32.040  28.983  24.682  1.00  0.00     0.040 C 
ATOM     82  C   UNL A   1      32.558  26.759  25.379  1.00  0.00     0.098 C 
ATOM     83  C   UNL A   1      31.610  27.863  23.705  1.00  0.00     0.086 C 
ATOM     84  C   UNL A   1      31.064  26.387  25.500  1.00  0.00     0.028 C 
ATOM     85  N   UNL A   1      32.650  26.893  23.938  1.00  0.00    -0.336 N 
ATOM     86  C   UNL A   1      30.415  27.121  24.307  1.00  0.00     0.027 C 
BRANCH  85  87
ATOM     87  C   UNL A   1      33.245  26.097  22.997  1.00  0.00     0.225 C 
ATOM     88  O   UNL A   1      33.670  26.554  21.937  1.00  0.00    -0.275 OA
BRANCH  87  89
ATOM     89  C   UNL A   1      33.379  24.623  23.337  1.00  0.00     0.132 C 
BRANCH  89  90
ATOM     90  C   UNL A   1      34.837  24.307  23.679  1.00  0.00     0.127 C 
ATOM     91  C   UNL A   1      35.031  23.992  25.165  1.00  0.00     0.033 C 
ATOM     92  O   UNL A   1      35.251  23.172  22.908  1.00  0.00    -0.378 OA
ATOM     93  C   UNL A   1      36.497  23.649  25.437  1.00  0.00     0.005 C 
ATOM     94  C   UNL A   1      36.648  22.915  23.036  1.00  0.00     0.160 C 
ATOM     95  C   UNL A   1      36.993  22.569  24.478  1.00  0.00     0.029 C 
ENDBRANCH  89  90
ENDBRANCH  87  89
ENDBRANCH  85  87
ENDBRANCH  77  80
ENDBRANCH  75  76
ENDBRANCH  74  75
ENDBRANCH   1  74
TORSDOF 16
ENDMDL
MODEL 3
REMARK VINA RESULT:     -11.6      5.125     10.846
REMARK SMILES O=C(NCCCCCCNC(=O)[C@@H]1C[C@@H]2CC[C@H]1N2C(=O)C[C@H]1CCCCO1)c1ccc(-c2c3nc(c(-c4c(F)c(F)c(F)c(F)c4F)c4ccc([nH]4)c(-c4c(F)c(F)c(F)c(F)c4F)c4nc(c(-c5c(F)c(F)c(F)c(F)c5F)c5ccc2[nH]5)C=C4)C=C3)cc1
REMARK SMILES IDX 7 1 6 2 5 3 4 4 3 5 1 6 2 7 29 9 30 10 91 11 31 12 90 13
REMARK SMILES IDX 32 14 33 15 34 16 84 17 35 18 89 19 83 20 85 21 36 22 88 23
REMARK SMILES IDX 82 24 81 25 37 27 69 28 49 29 68 30 50 31 53 32 67 33 86 34
REMARK SMILES IDX 51 35 52 36 66 38 87 39 54 40 38 41 39 42 47 43 40 44 41 45
REMARK SMILES IDX 45 46 48 47 42 48 43 49 46 50 44 51 70 52 71 53 79 54 72 55
REMARK SMILES IDX 73 56 77 57 80 58 74 59 75 60 78 61 76 62 55 63 56 64 64 65
REMARK SMILES IDX 57 66 58 67 62 68 65 69 59 70 60 71 63 72 61 73 8 74 9 75
REMARK SMILES IDX 10 76 11 77 12 79 13 80 14 81 18 82 15 83 17 84 19 85 16 86
REMARK SMILES IDX 20 87 21 88 22 89 23 90 24 91 28 92 25 93 27 94 26 95
REMARK H PARENT 3 8 85 26 53 37 10 78
REMARK Flexibility Score: inf
ROOT
ATOM      1  C   UNL A   1      37.327  22.035  24.473  1.00  0.00     0.002 C 
ENDROOT
BRANCH   1   2
ATOM      2  C   UNL A   1      36.963  20.578  24.777  1.00  0.00     0.002 C 
BRANCH   2   3
ATOM      3  C   UNL A   1      38.119  19.592  24.947  1.00  0.00     0.021 C 
BRANCH   3   4
ATOM      4  C   UNL A   1      39.160  19.957  25.994  1.00  0.00     0.116 C 
BRANCH   4   5
ATOM      5  N   UNL A   1      40.332  19.104  25.956  1.00  0.00    -0.352 N 
ATOM      6  O   UNL A   1      42.525  18.592  25.887  1.00  0.00    -0.269 OA
ATOM      7  C   UNL A   1      41.660  19.437  26.069  1.00  0.00     0.251 C 
ATOM      8  H   UNL A   1      40.148  18.145  25.829  1.00  0.00     0.163 HD
BRANCH   7   9
ATOM      9  C   UNL A   1      42.044  20.830  26.387  1.00  0.00     0.039 A 
ATOM     10  C   UNL A   1      42.135  21.799  25.385  1.00  0.00     0.014 A 
ATOM     11  C   UNL A   1      42.302  21.169  27.718  1.00  0.00     0.014 A 
ATOM     12  C   UNL A   1      42.613  23.068  25.692  1.00  0.00     0.010 A 
ATOM     13  C   UNL A   1      42.697  22.470  28.038  1.00  0.00     0.010 A 
ATOM     14  C   UNL A   1      42.879  23.424  27.024  1.00  0.00    -0.014 A 
BRANCH  14  15
ATOM     15  C   UNL A   1      43.278  24.817  27.344  1.00  0.00     0.031 A 
ATOM     16  C   UNL A   1      44.681  25.299  27.106  1.00  0.00     0.074 A 
ATOM     17  C   UNL A   1      42.351  25.651  27.853  1.00  0.00     0.049 A 
ATOM     18  N   UNL A   1      45.201  26.477  27.348  1.00  0.00    -0.248 NA
ATOM     19  C   UNL A   1      45.627  24.333  26.529  1.00  0.00     0.031 C 
ATOM     20  C   UNL A   1      40.960  25.288  28.137  1.00  0.00     0.029 A 
ATOM     21  N   UNL A   1      42.430  26.970  28.218  1.00  0.00    -0.354 N 
ATOM     22  C   UNL A   1      46.534  26.389  26.970  1.00  0.00     0.074 A 
ATOM     23  C   UNL A   1      46.752  25.034  26.509  1.00  0.00     0.031 C 
ATOM     24  C   UNL A   1      40.310  26.365  28.597  1.00  0.00     0.029 A 
ATOM     25  C   UNL A   1      41.250  27.475  28.705  1.00  0.00     0.049 A 
ATOM     26  H   UNL A   1      43.253  27.504  28.138  1.00  0.00     0.167 HD
ATOM     27  C   UNL A   1      47.483  27.356  27.001  1.00  0.00     0.037 A 
ATOM     28  C   UNL A   1      40.961  28.688  29.209  1.00  0.00     0.037 A 
ATOM     29  C   UNL A   1      47.252  28.704  27.457  1.00  0.00     0.049 A 
ATOM     30  C   UNL A   1      42.043  29.727  29.266  1.00  0.00     0.074 A 
ATOM     31  C   UNL A   1      48.138  29.768  27.494  1.00  0.00     0.029 A 
ATOM     32  N   UNL A   1      46.049  29.171  27.967  1.00  0.00    -0.354 N 
ATOM     33  N   UNL A   1      43.290  29.645  28.869  1.00  0.00    -0.248 NA
ATOM     34  C   UNL A   1      41.678  31.026  29.843  1.00  0.00     0.031 C 
ATOM     35  C   UNL A   1      47.489  30.860  28.078  1.00  0.00     0.029 A 
ATOM     36  C   UNL A   1      46.178  30.499  28.347  1.00  0.00     0.049 A 
ATOM     37  H   UNL A   1      45.224  28.639  28.047  1.00  0.00     0.167 HD
ATOM     38  C   UNL A   1      43.854  30.886  29.127  1.00  0.00     0.074 A 
ATOM     39  C   UNL A   1      42.805  31.709  29.696  1.00  0.00     0.031 C 
ATOM     40  C   UNL A   1      45.124  31.306  28.910  1.00  0.00     0.037 A 
BRANCH  27  41
ATOM     41  C   UNL A   1      48.869  26.990  26.548  1.00  0.00     0.064 A 
ATOM     42  C   UNL A   1      49.837  26.508  27.442  1.00  0.00     0.173 A 
ATOM     43  C   UNL A   1      49.221  27.084  25.193  1.00  0.00     0.173 A 
ATOM     44  F   UNL A   1      49.558  26.406  28.749  1.00  0.00    -0.203 F 
ATOM     45  C   UNL A   1      51.113  26.160  27.000  1.00  0.00     0.198 A 
ATOM     46  C   UNL A   1      50.487  26.708  24.750  1.00  0.00     0.198 A 
ATOM     47  F   UNL A   1      48.333  27.533  24.292  1.00  0.00    -0.203 F 
ATOM     48  F   UNL A   1      52.035  25.749  27.881  1.00  0.00    -0.200 F 
ATOM     49  C   UNL A   1      51.434  26.254  25.654  1.00  0.00     0.200 A 
ATOM     50  F   UNL A   1      50.790  26.784  23.446  1.00  0.00    -0.200 F 
ATOM     51  F   UNL A   1      52.659  25.913  25.231  1.00  0.00    -0.200 F 
ENDBRANCH  27  41
BRANCH  28  52
ATOM     52  C   UNL A   1      39.588  28.973  29.700  1.00  0.00     0.064 A 
ATOM     53  C   UNL A   1      39.232  28.724  31.032  1.00  0.00     0.173 A 
ATOM     54  C   UNL A   1      38.611  29.517  28.853  1.00  0.00     0.173 A 
ATOM     55  F   UNL A   1      40.127  28.191  31.877  1.00  0.00    -0.203 F 
ATOM     56  C   UNL A   1      37.945  28.991  31.493  1.00  0.00     0.198 A 
ATOM     57  C   UNL A   1      37.335  29.814  29.324  1.00  0.00     0.198 A 
ATOM     58  F   UNL A   1      38.905  29.781  27.572  1.00  0.00    -0.203 F 
ATOM     59  F   UNL A   1      37.617  28.705  32.761  1.00  0.00    -0.200 F 
ATOM     60  C   UNL A   1      37.000  29.544  30.642  1.00  0.00     0.200 A 
ATOM     61  F   UNL A   1      36.432  30.366  28.502  1.00  0.00    -0.200 F 
ATOM     62  F   UNL A   1      35.766  29.810  31.088  1.00  0.00    -0.200 F 
ENDBRANCH  28  52
BRANCH  40  63
ATOM     63  C   UNL A   1      45.441  32.733  29.257  1.00  0.00     0.064 A 
ATOM     64  C   UNL A   1      45.932  33.095  30.520  1.00  0.00     0.173 A 
ATOM     65  C   UNL A   1      45.277  33.746  28.300  1.00  0.00     0.173 A 
ATOM     66  F   UNL A   1      46.090  32.166  31.475  1.00  0.00    -0.203 F 
ATOM     67  C   UNL A   1      46.219  34.423  30.821  1.00  0.00     0.198 A 
ATOM     68  C   UNL A   1      45.598  35.068  28.594  1.00  0.00     0.198 A 
ATOM     69  F   UNL A   1      44.815  33.452  27.075  1.00  0.00    -0.203 F 
ATOM     70  F   UNL A   1      46.636  34.754  32.051  1.00  0.00    -0.200 F 
ATOM     71  C   UNL A   1      46.060  35.407  29.856  1.00  0.00     0.200 A 
ATOM     72  F   UNL A   1      45.456  36.014  27.656  1.00  0.00    -0.200 F 
ATOM     73  F   UNL A   1      46.344  36.683  30.146  1.00  0.00    -0.200 F 
ENDBRANCH  40  63
ENDBRANCH  14  15
ENDBRANCH   7   9
ENDBRANCH   4   5
ENDBRANCH   3   4
ENDBRANCH   2   3
ENDBRANCH   1   2
BRANCH   1  74
ATOM     74  C   UNL A   1      36.500  22.756  23.408  1.00  0.00     0.021 C 
BRANCH  74  75
ATOM     75  C   UNL A   1      35.014  22.905  23.696  1.00  0.00     0.116 C 
BRANCH  75  76
ATOM     76  N   UNL A   1      34.684  23.328  25.035  1.00  0.00    -0.356 N 
ATOM     77  C   UNL A   1      33.783  24.254  25.464  1.00  0.00     0.225 C 
ATOM     78  H   UNL A   1      35.190  22.878  25.749  1.00  0.00     0.163 HD
ATOM     79  O   UNL A   1      33.474  24.198  26.659  1.00  0.00    -0.275 OA
BRANCH  77  80
ATOM     80  C   UNL A   1      33.289  25.419  24.611  1.00  0.00     0.103 C 
ATOM     81  C   UNL A   1      33.483  26.810  25.302  1.00  0.00     0.040 C 
ATOM     82  C   UNL A   1      31.852  25.542  24.104  1.00  0.00     0.098 C 
ATOM     83  C   UNL A   1      32.186  27.570  24.936  1.00  0.00     0.086 C 
ATOM     84  C   UNL A   1      30.846  25.624  25.272  1.00  0.00     0.028 C 
ATOM     85  N   UNL A   1      31.845  26.932  23.690  1.00  0.00    -0.336 N 
ATOM     86  C   UNL A   1      31.050  27.052  25.821  1.00  0.00     0.027 C 
BRANCH  85  87
ATOM     87  C   UNL A   1      31.314  27.538  22.585  1.00  0.00     0.225 C 
ATOM     88  O   UNL A   1      30.870  26.888  21.640  1.00  0.00    -0.275 OA
BRANCH  87  89
ATOM     89  C   UNL A   1      31.275  29.057  22.593  1.00  0.00     0.132 C 
BRANCH  89  90
ATOM     90  C   UNL A   1      29.821  29.532  22.572  1.00  0.00     0.127 C 
ATOM     91  C   UNL A   1      29.523  30.540  23.685  1.00  0.00     0.033 C 
ATOM     92  O   UNL A   1      29.560  30.151  21.306  1.00  0.00    -0.378 OA
ATOM     93  C   UNL A   1      28.069  31.006  23.591  1.00  0.00     0.005 C 
ATOM     94  C   UNL A   1      28.180  30.469  21.136  1.00  0.00     0.160 C 
ATOM     95  C   UNL A   1      27.739  31.486  22.179  1.00  0.00     0.029 C 
ENDBRANCH  89  90
ENDBRANCH  87  89
ENDBRANCH  85  87
ENDBRANCH  77  80
ENDBRANCH  75  76
ENDBRANCH  74  75
ENDBRANCH   1  74
TORSDOF 16
ENDMDL
