MODEL 1
REMARK VINA RESULT:     -11.9      0.000      0.000
REMARK SMILES COC(=O)c1c(-c2ccccc2Cl)csc1NC(=O)[C@@H]1[C@@H]2CC[C@@H](C2)[C@@H]1C(=O)NCCCCCCNC(=O)c1ccc(-c2c3nc(c(-c4c(F)c(F)c(F)c(F)c4F)c4ccc([nH]4)c(-c4c(F)c(F)c(F)c(F)c4F)c4nc(c(-c5c(F)c(F)c(F)c(F)c5F)c5ccc2[nH]5)C=C4)C=C3)cc1
REMARK SMILES IDX 31 1 30 2 29 3 27 4 28 5 26 7 20 8 21 9 22 10 25 11 24 12
REMARK SMILES IDX 23 13 18 14 17 15 19 17 16 18 5 19 6 20 14 21 15 22 3 23
REMARK SMILES IDX 4 24 2 25 1 26 7 27 8 28 12 29 9 30 11 31 13 32 10 33 32 34
REMARK SMILES IDX 33 35 34 36 35 37 36 38 37 39 38 41 39 42 40 43 101 44 41 45
REMARK SMILES IDX 100 46 42 47 43 48 44 49 94 50 45 51 99 52 93 53 95 54 46 55
REMARK SMILES IDX 98 56 92 57 91 58 47 60 79 61 59 62 78 63 60 64 63 65 77 66
REMARK SMILES IDX 96 67 61 68 62 69 76 71 97 72 64 73 48 74 49 75 57 76 50 77
REMARK SMILES IDX 51 78 55 79 58 80 52 81 53 82 56 83 54 84 80 85 81 86 89 87
REMARK SMILES IDX 82 88 83 89 87 90 90 91 84 92 85 93 88 94 86 95 65 96 66 97
REMARK SMILES IDX 74 98 67 99 68 100 72 101 75 102 69 103 70 104 73 105 71 106
REMARK H PARENT 29 6 17 16 36 40 95 59 63 70
REMARK Flexibility Score: inf
ROOT
ATOM      1  C   UNL A   1      36.835  23.975  26.121  1.00  0.00     0.021 C 
ENDROOT
BRANCH   1   2
ATOM      2  C   UNL A   1      35.352  23.902  25.760  1.00  0.00     0.116 C 
BRANCH   2   3
ATOM      3  N   UNL A   1      35.044  24.878  24.730  1.00  0.00    -0.356 N 
ATOM      4  C   UNL A   1      34.051  25.810  24.657  1.00  0.00     0.224 C 
ATOM      5  O   UNL A   1      33.796  26.262  23.543  1.00  0.00    -0.275 OA
ATOM      6  H   UNL A   1      35.654  24.865  23.958  1.00  0.00     0.163 HD
BRANCH   4   7
ATOM      7  C   UNL A   1      33.362  26.300  25.925  1.00  0.00     0.094 C 
ATOM      8  C   UNL A   1      31.815  26.273  25.985  1.00  0.00     0.094 C 
ATOM      9  C   UNL A   1      31.462  27.740  26.376  1.00  0.00     0.002 C 
ATOM     10  C   UNL A   1      31.726  28.762  25.265  1.00  0.00     0.005 C 
ATOM     11  C   UNL A   1      32.628  28.073  27.326  1.00  0.00     0.009 C 
ATOM     12  C   UNL A   1      33.691  27.786  26.258  1.00  0.00     0.002 C 
ATOM     13  C   UNL A   1      33.251  28.768  25.153  1.00  0.00     0.005 C 
BRANCH   8  14
ATOM     14  C   UNL A   1      31.083  25.669  24.792  1.00  0.00     0.229 C 
ATOM     15  N   UNL A   1      31.225  24.370  24.394  1.00  0.00    -0.317 N 
ATOM     16  H   UNL A   1      30.865  24.217  23.490  1.00  0.00     0.170 HD
ATOM     17  O   UNL A   1      30.309  26.351  24.112  1.00  0.00    -0.274 OA
BRANCH  15  18
ATOM     18  C   UNL A   1      31.754  23.217  24.950  1.00  0.00     0.110 A 
ATOM     19  C   UNL A   1      32.436  22.213  24.260  1.00  0.00     0.102 A 
ATOM     20  C   UNL A   1      32.981  21.218  25.170  1.00  0.00     0.011 A 
ATOM     21  C   UNL A   1      32.560  21.455  26.464  1.00  0.00     0.076 A 
ATOM     22  S   UNL A   1      31.540  22.808  26.579  1.00  0.00    -0.125 S 
BRANCH  19  23
ATOM     23  C   UNL A   1      32.583  22.235  22.807  1.00  0.00     0.341 C 
ATOM     24  O   UNL A   1      32.028  21.426  22.068  1.00  0.00    -0.246 OA
BRANCH  23  25
ATOM     25  O   UNL A   1      33.454  23.192  22.382  1.00  0.00    -0.465 OA
ATOM     26  C   UNL A   1      33.022  23.928  21.236  1.00  0.00     0.282 C 
ENDBRANCH  23  25
ENDBRANCH  19  23
BRANCH  20  27
ATOM     27  C   UNL A   1      33.971  20.164  24.894  1.00  0.00     0.002 A 
ATOM     28  C   UNL A   1      35.331  20.467  25.100  1.00  0.00     0.010 A 
ATOM     29  C   UNL A   1      33.636  18.858  24.494  1.00  0.00     0.048 A 
ATOM     30  C   UNL A   1      36.323  19.497  24.930  1.00  0.00     0.001 A 
ATOM     31  C   UNL A   1      34.635  17.887  24.336  1.00  0.00     0.021 A 
ATOM     32  Cl  UNL A   1      32.013  18.365  24.150  1.00  0.00    -0.084 Cl
ATOM     33  C   UNL A   1      35.974  18.204  24.556  1.00  0.00     0.002 A 
ENDBRANCH  20  27
ENDBRANCH  15  18
ENDBRANCH   8  14
ENDBRANCH   4   7
ENDBRANCH   2   3
ENDBRANCH   1   2
BRANCH   1  34
ATOM     34  C   UNL A   1      37.754  23.065  25.306  1.00  0.00     0.002 C 
BRANCH  34  35
ATOM     35  C   UNL A   1      38.816  22.328  26.119  1.00  0.00     0.002 C 
BRANCH  35  36
ATOM     36  C   UNL A   1      39.361  21.049  25.478  1.00  0.00     0.021 C 
BRANCH  36  37
ATOM     37  C   UNL A   1      39.724  19.934  26.454  1.00  0.00     0.116 C 
BRANCH  37  38
ATOM     38  N   UNL A   1      40.900  19.191  26.033  1.00  0.00    -0.352 N 
ATOM     39  C   UNL A   1      42.193  19.616  25.862  1.00  0.00     0.251 C 
ATOM     40  H   UNL A   1      40.746  18.237  25.842  1.00  0.00     0.163 HD
ATOM     41  O   UNL A   1      43.018  18.886  25.323  1.00  0.00    -0.269 OA
BRANCH  39  42
ATOM     42  C   UNL A   1      42.594  20.967  26.312  1.00  0.00     0.039 A 
ATOM     43  C   UNL A   1      42.944  21.921  25.353  1.00  0.00     0.014 A 
ATOM     44  C   UNL A   1      42.643  21.287  27.670  1.00  0.00     0.014 A 
ATOM     45  C   UNL A   1      43.284  23.215  25.755  1.00  0.00     0.010 A 
ATOM     46  C   UNL A   1      42.913  22.595  28.066  1.00  0.00     0.010 A 
ATOM     47  C   UNL A   1      43.236  23.573  27.113  1.00  0.00    -0.014 A 
BRANCH  47  48
ATOM     48  C   UNL A   1      43.505  24.971  27.545  1.00  0.00     0.031 A 
ATOM     49  C   UNL A   1      44.919  25.448  27.741  1.00  0.00     0.074 A 
ATOM     50  C   UNL A   1      42.472  25.792  27.821  1.00  0.00     0.049 A 
ATOM     51  N   UNL A   1      45.347  26.611  28.164  1.00  0.00    -0.248 NA
ATOM     52  C   UNL A   1      45.993  24.487  27.445  1.00  0.00     0.031 C 
ATOM     53  C   UNL A   1      41.057  25.431  27.718  1.00  0.00     0.029 A 
ATOM     54  N   UNL A   1      42.451  27.094  28.257  1.00  0.00    -0.354 N 
ATOM     55  C   UNL A   1      46.733  26.514  28.202  1.00  0.00     0.074 A 
ATOM     56  C   UNL A   1      47.074  25.168  27.801  1.00  0.00     0.031 C 
ATOM     57  C   UNL A   1      40.306  26.490  28.063  1.00  0.00     0.029 A 
ATOM     58  C   UNL A   1      41.184  27.589  28.454  1.00  0.00     0.049 A 
ATOM     59  H   UNL A   1      43.266  27.622  28.414  1.00  0.00     0.167 HD
ATOM     60  C   UNL A   1      47.636  27.469  28.528  1.00  0.00     0.037 A 
ATOM     61  C   UNL A   1      40.775  28.787  28.914  1.00  0.00     0.037 A 
ATOM     62  C   UNL A   1      47.293  28.819  28.897  1.00  0.00     0.049 A 
ATOM     63  C   UNL A   1      41.806  29.825  29.273  1.00  0.00     0.074 A 
ATOM     64  C   UNL A   1      48.141  29.881  29.159  1.00  0.00     0.029 A 
ATOM     65  N   UNL A   1      46.000  29.289  29.069  1.00  0.00    -0.354 N 
ATOM     66  N   UNL A   1      43.113  29.751  29.212  1.00  0.00    -0.248 NA
ATOM     67  C   UNL A   1      41.303  31.118  29.759  1.00  0.00     0.031 C 
ATOM     68  C   UNL A   1      47.365  30.973  29.558  1.00  0.00     0.029 A 
ATOM     69  C   UNL A   1      46.030  30.614  29.473  1.00  0.00     0.049 A 
ATOM     70  H   UNL A   1      45.182  28.759  28.925  1.00  0.00     0.167 HD
ATOM     71  C   UNL A   1      43.586  30.993  29.617  1.00  0.00     0.074 A 
ATOM     72  C   UNL A   1      42.425  31.809  29.901  1.00  0.00     0.031 C 
ATOM     73  C   UNL A   1      44.867  31.420  29.742  1.00  0.00     0.037 A 
BRANCH  60  74
ATOM     74  C   UNL A   1      49.093  27.101  28.512  1.00  0.00     0.064 A 
ATOM     75  C   UNL A   1      49.744  26.597  29.647  1.00  0.00     0.173 A 
ATOM     76  C   UNL A   1      49.827  27.182  27.317  1.00  0.00     0.173 A 
ATOM     77  F   UNL A   1      49.092  26.508  30.816  1.00  0.00    -0.203 F 
ATOM     78  C   UNL A   1      51.079  26.204  29.592  1.00  0.00     0.198 A 
ATOM     79  C   UNL A   1      51.151  26.757  27.258  1.00  0.00     0.198 A 
ATOM     80  F   UNL A   1      49.252  27.652  26.200  1.00  0.00    -0.203 F 
ATOM     81  F   UNL A   1      51.691  25.760  30.699  1.00  0.00    -0.200 F 
ATOM     82  C   UNL A   1      51.778  26.274  28.396  1.00  0.00     0.200 A 
ATOM     83  F   UNL A   1      51.820  26.811  26.098  1.00  0.00    -0.200 F 
ATOM     84  F   UNL A   1      53.056  25.876  28.341  1.00  0.00    -0.200 F 
ENDBRANCH  60  74
BRANCH  61  85
ATOM     85  C   UNL A   1      39.323  29.079  29.069  1.00  0.00     0.064 A 
ATOM     86  C   UNL A   1      38.545  29.486  27.976  1.00  0.00     0.173 A 
ATOM     87  C   UNL A   1      38.695  29.001  30.321  1.00  0.00     0.173 A 
ATOM     88  F   UNL A   1      39.101  29.596  26.762  1.00  0.00    -0.203 F 
ATOM     89  C   UNL A   1      37.206  29.841  28.137  1.00  0.00     0.198 A 
ATOM     90  C   UNL A   1      37.347  29.320  30.473  1.00  0.00     0.198 A 
ATOM     91  F   UNL A   1      39.390  28.610  31.399  1.00  0.00    -0.203 F 
ATOM     92  F   UNL A   1      36.507  30.295  27.088  1.00  0.00    -0.200 F 
ATOM     93  C   UNL A   1      36.608  29.755  29.384  1.00  0.00     0.200 A 
ATOM     94  F   UNL A   1      36.768  29.217  31.678  1.00  0.00    -0.200 F 
ATOM     95  F   UNL A   1      35.323  30.103  29.540  1.00  0.00    -0.200 F 
ENDBRANCH  61  85
BRANCH  73  96
ATOM     96  C   UNL A   1      45.083  32.846  30.163  1.00  0.00     0.064 A 
ATOM     97  C   UNL A   1      45.133  33.894  29.232  1.00  0.00     0.173 A 
ATOM     98  C   UNL A   1      45.206  33.172  31.523  1.00  0.00     0.173 A 
ATOM     99  F   UNL A   1      45.036  33.637  27.918  1.00  0.00    -0.203 F 
ATOM    100  C   UNL A   1      45.331  35.210  29.644  1.00  0.00     0.198 A 
ATOM    101  C   UNL A   1      45.365  34.492  31.933  1.00  0.00     0.198 A 
ATOM    102  F   UNL A   1      45.157  32.210  32.456  1.00  0.00    -0.203 F 
ATOM    103  F   UNL A   1      45.434  36.187  28.732  1.00  0.00    -0.200 F 
ATOM    104  C   UNL A   1      45.438  35.508  30.994  1.00  0.00     0.200 A 
ATOM    105  F   UNL A   1      45.448  34.779  33.240  1.00  0.00    -0.200 F 
ATOM    106  F   UNL A   1      45.618  36.777  31.389  1.00  0.00    -0.200 F 
ENDBRANCH  73  96
ENDBRANCH  47  48
ENDBRANCH  39  42
ENDBRANCH  37  38
ENDBRANCH  36  37
ENDBRANCH  35  36
ENDBRANCH  34  35
ENDBRANCH   1  34
TORSDOF 18
ENDMDL
MODEL 2
REMARK VINA RESULT:     -11.9      5.006      9.753
REMARK SMILES COC(=O)c1c(-c2ccccc2Cl)csc1NC(=O)[C@@H]1[C@@H]2CC[C@@H](C2)[C@@H]1C(=O)NCCCCCCNC(=O)c1ccc(-c2c3nc(c(-c4c(F)c(F)c(F)c(F)c4F)c4ccc([nH]4)c(-c4c(F)c(F)c(F)c(F)c4F)c4nc(c(-c5c(F)c(F)c(F)c(F)c5F)c5ccc2[nH]5)C=C4)C=C3)cc1
REMARK SMILES IDX 31 1 30 2 29 3 27 4 28 5 26 7 20 8 21 9 22 10 25 11 24 12
REMARK SMILES IDX 23 13 18 14 17 15 19 17 16 18 5 19 6 20 14 21 15 22 3 23
REMARK SMILES IDX 4 24 2 25 1 26 7 27 8 28 12 29 9 30 11 31 13 32 10 33 32 34
REMARK SMILES IDX 33 35 34 36 35 37 36 38 37 39 38 41 39 42 40 43 101 44 41 45
REMARK SMILES IDX 100 46 42 47 43 48 44 49 94 50 45 51 99 52 93 53 95 54 46 55
REMARK SMILES IDX 98 56 92 57 91 58 47 60 79 61 59 62 78 63 60 64 63 65 77 66
REMARK SMILES IDX 96 67 61 68 62 69 76 71 97 72 64 73 48 74 49 75 57 76 50 77
REMARK SMILES IDX 51 78 55 79 58 80 52 81 53 82 56 83 54 84 80 85 81 86 89 87
REMARK SMILES IDX 82 88 83 89 87 90 90 91 84 92 85 93 88 94 86 95 65 96 66 97
REMARK SMILES IDX 74 98 67 99 68 100 72 101 75 102 69 103 70 104 73 105 71 106
REMARK H PARENT 29 6 17 16 36 40 95 59 63 70
REMARK Flexibility Score: inf
ROOT
ATOM      1  C   UNL A   1      33.673  28.534  27.185  1.00  0.00     0.021 C 
ENDROOT
BRANCH   1   2
ATOM      2  C   UNL A   1      33.700  27.537  26.027  1.00  0.00     0.116 C 
BRANCH   2   3
ATOM      3  N   UNL A   1      33.301  26.222  26.498  1.00  0.00    -0.356 N 
ATOM      4  C   UNL A   1      33.539  24.983  25.979  1.00  0.00     0.224 C 
ATOM      5  O   UNL A   1      32.805  24.073  26.359  1.00  0.00    -0.275 OA
ATOM      6  H   UNL A   1      32.772  26.226  27.327  1.00  0.00     0.163 HD
BRANCH   4   7
ATOM      7  C   UNL A   1      34.715  24.757  25.036  1.00  0.00     0.094 C 
ATOM      8  C   UNL A   1      34.462  24.005  23.705  1.00  0.00     0.094 C 
ATOM      9  C   UNL A   1      35.521  22.863  23.752  1.00  0.00     0.002 C 
ATOM     10  C   UNL A   1      35.224  21.781  24.797  1.00  0.00     0.005 C 
ATOM     11  C   UNL A   1      36.693  23.585  24.441  1.00  0.00     0.009 C 
ATOM     12  C   UNL A   1      35.862  23.927  25.684  1.00  0.00     0.002 C 
ATOM     13  C   UNL A   1      35.419  22.518  26.124  1.00  0.00     0.005 C 
BRANCH   8  14
ATOM     14  C   UNL A   1      33.023  23.617  23.389  1.00  0.00     0.229 C 
ATOM     15  N   UNL A   1      32.016  24.521  23.203  1.00  0.00    -0.317 N 
ATOM     16  H   UNL A   1      31.127  24.099  23.234  1.00  0.00     0.170 HD
ATOM     17  O   UNL A   1      32.694  22.429  23.287  1.00  0.00    -0.274 OA
BRANCH  15  18
ATOM     18  C   UNL A   1      31.941  25.887  22.982  1.00  0.00     0.110 A 
ATOM     19  C   UNL A   1      30.979  26.749  23.510  1.00  0.00     0.102 A 
ATOM     20  C   UNL A   1      31.280  28.138  23.196  1.00  0.00     0.011 A 
ATOM     21  C   UNL A   1      32.361  28.223  22.341  1.00  0.00     0.076 A 
ATOM     22  S   UNL A   1      32.980  26.698  21.920  1.00  0.00    -0.125 S 
BRANCH  19  23
ATOM     23  C   UNL A   1      29.853  26.262  24.303  1.00  0.00     0.341 C 
ATOM     24  O   UNL A   1      28.723  26.126  23.843  1.00  0.00    -0.246 OA
BRANCH  23  25
ATOM     25  O   UNL A   1      30.181  26.056  25.608  1.00  0.00    -0.465 OA
ATOM     26  C   UNL A   1      29.542  24.931  26.215  1.00  0.00     0.282 C 
ENDBRANCH  23  25
ENDBRANCH  19  23
BRANCH  20  27
ATOM     27  C   UNL A   1      30.690  29.358  23.768  1.00  0.00     0.002 A 
ATOM     28  C   UNL A   1      31.348  29.959  24.859  1.00  0.00     0.010 A 
ATOM     29  C   UNL A   1      29.544  29.992  23.255  1.00  0.00     0.048 A 
ATOM     30  C   UNL A   1      30.890  31.160  25.410  1.00  0.00     0.001 A 
ATOM     31  C   UNL A   1      29.095  31.201  23.805  1.00  0.00     0.021 A 
ATOM     32  Cl  UNL A   1      28.605  29.334  21.958  1.00  0.00    -0.084 Cl
ATOM     33  C   UNL A   1      29.768  31.785  24.878  1.00  0.00     0.002 A 
ENDBRANCH  20  27
ENDBRANCH  15  18
ENDBRANCH   8  14
ENDBRANCH   4   7
ENDBRANCH   2   3
ENDBRANCH   1   2
BRANCH   1  34
ATOM     34  C   UNL A   1      34.444  29.833  26.950  1.00  0.00     0.002 C 
BRANCH  34  35
ATOM     35  C   UNL A   1      34.148  30.948  27.950  1.00  0.00     0.002 C 
BRANCH  35  36
ATOM     36  C   UNL A   1      33.793  32.304  27.335  1.00  0.00     0.021 C 
BRANCH  36  37
ATOM     37  C   UNL A   1      32.408  32.838  27.688  1.00  0.00     0.116 C 
BRANCH  37  38
ATOM     38  N   UNL A   1      32.395  34.283  27.843  1.00  0.00    -0.352 N 
ATOM     39  C   UNL A   1      33.173  35.088  28.636  1.00  0.00     0.251 C 
ATOM     40  H   UNL A   1      31.728  34.757  27.295  1.00  0.00     0.163 HD
ATOM     41  O   UNL A   1      32.895  36.275  28.772  1.00  0.00    -0.269 OA
BRANCH  39  42
ATOM     42  C   UNL A   1      34.342  34.524  29.345  1.00  0.00     0.039 A 
ATOM     43  C   UNL A   1      34.146  33.904  30.581  1.00  0.00     0.014 A 
ATOM     44  C   UNL A   1      35.626  34.620  28.804  1.00  0.00     0.014 A 
ATOM     45  C   UNL A   1      35.230  33.325  31.246  1.00  0.00     0.010 A 
ATOM     46  C   UNL A   1      36.694  33.983  29.433  1.00  0.00     0.010 A 
ATOM     47  C   UNL A   1      36.507  33.328  30.660  1.00  0.00    -0.014 A 
BRANCH  47  48
ATOM     48  C   UNL A   1      37.650  32.636  31.313  1.00  0.00     0.031 A 
ATOM     49  C   UNL A   1      38.296  31.447  30.657  1.00  0.00     0.074 A 
ATOM     50  C   UNL A   1      38.066  33.043  32.529  1.00  0.00     0.049 A 
ATOM     51  N   UNL A   1      39.265  30.684  31.097  1.00  0.00    -0.248 NA
ATOM     52  C   UNL A   1      37.770  31.045  29.342  1.00  0.00     0.031 C 
ATOM     53  C   UNL A   1      37.489  34.152  33.291  1.00  0.00     0.029 A 
ATOM     54  N   UNL A   1      39.063  32.564  33.345  1.00  0.00    -0.354 N 
ATOM     55  C   UNL A   1      39.450  29.707  30.127  1.00  0.00     0.074 A 
ATOM     56  C   UNL A   1      38.467  29.945  29.094  1.00  0.00     0.031 C 
ATOM     57  C   UNL A   1      38.151  34.280  34.453  1.00  0.00     0.029 A 
ATOM     58  C   UNL A   1      39.168  33.237  34.539  1.00  0.00     0.049 A 
ATOM     59  H   UNL A   1      39.645  31.812  33.097  1.00  0.00     0.167 HD
ATOM     60  C   UNL A   1      40.369  28.712  30.097  1.00  0.00     0.037 A 
ATOM     61  C   UNL A   1      39.982  33.026  35.592  1.00  0.00     0.037 A 
ATOM     62  C   UNL A   1      41.366  28.498  31.113  1.00  0.00     0.049 A 
ATOM     63  C   UNL A   1      40.988  31.907  35.529  1.00  0.00     0.074 A 
ATOM     64  C   UNL A   1      42.395  27.571  31.127  1.00  0.00     0.029 A 
ATOM     65  N   UNL A   1      41.454  29.210  32.300  1.00  0.00    -0.354 N 
ATOM     66  N   UNL A   1      41.216  31.051  34.562  1.00  0.00    -0.248 NA
ATOM     67  C   UNL A   1      41.857  31.729  36.701  1.00  0.00     0.031 C 
ATOM     68  C   UNL A   1      43.060  27.674  32.352  1.00  0.00     0.029 A 
ATOM     69  C   UNL A   1      42.494  28.714  33.071  1.00  0.00     0.049 A 
ATOM     70  H   UNL A   1      40.865  29.956  32.556  1.00  0.00     0.167 HD
ATOM     71  C   UNL A   1      42.272  30.260  34.994  1.00  0.00     0.074 A 
ATOM     72  C   UNL A   1      42.654  30.750  36.301  1.00  0.00     0.031 C 
ATOM     73  C   UNL A   1      42.873  29.219  34.365  1.00  0.00     0.037 A 
BRANCH  60  74
ATOM     74  C   UNL A   1      40.347  27.763  28.932  1.00  0.00     0.064 A 
ATOM     75  C   UNL A   1      41.099  27.995  27.771  1.00  0.00     0.173 A 
ATOM     76  C   UNL A   1      39.622  26.563  29.014  1.00  0.00     0.173 A 
ATOM     77  F   UNL A   1      41.802  29.130  27.636  1.00  0.00    -0.203 F 
ATOM     78  C   UNL A   1      41.112  27.070  26.729  1.00  0.00     0.198 A 
ATOM     79  C   UNL A   1      39.664  25.627  27.985  1.00  0.00     0.198 A 
ATOM     80  F   UNL A   1      38.890  26.288  30.104  1.00  0.00    -0.203 F 
ATOM     81  F   UNL A   1      41.808  27.332  25.613  1.00  0.00    -0.200 F 
ATOM     82  C   UNL A   1      40.404  25.884  26.841  1.00  0.00     0.200 A 
ATOM     83  F   UNL A   1      38.992  24.473  28.102  1.00  0.00    -0.200 F 
ATOM     84  F   UNL A   1      40.434  24.987  25.846  1.00  0.00    -0.200 F 
ENDBRANCH  60  74
BRANCH  61  85
ATOM     85  C   UNL A   1      39.883  33.885  36.804  1.00  0.00     0.064 A 
ATOM     86  C   UNL A   1      39.036  33.542  37.868  1.00  0.00     0.173 A 
ATOM     87  C   UNL A   1      40.598  35.088  36.905  1.00  0.00     0.173 A 
ATOM     88  F   UNL A   1      38.315  32.413  37.814  1.00  0.00    -0.203 F 
ATOM     89  C   UNL A   1      38.878  34.388  38.965  1.00  0.00     0.198 A 
ATOM     90  C   UNL A   1      40.467  35.914  38.019  1.00  0.00     0.198 A 
ATOM     91  F   UNL A   1      41.428  35.461  35.920  1.00  0.00    -0.203 F 
ATOM     92  F   UNL A   1      38.007  34.068  39.933  1.00  0.00    -0.200 F 
ATOM     93  C   UNL A   1      39.596  35.571  39.042  1.00  0.00     0.200 A 
ATOM     94  F   UNL A   1      41.178  37.048  38.097  1.00  0.00    -0.200 F 
ATOM     95  F   UNL A   1      39.439  36.387  40.093  1.00  0.00    -0.200 F 
ENDBRANCH  61  85
BRANCH  73  96
ATOM     96  C   UNL A   1      44.036  28.567  35.060  1.00  0.00     0.064 A 
ATOM     97  C   UNL A   1      45.355  29.000  34.860  1.00  0.00     0.173 A 
ATOM     98  C   UNL A   1      43.821  27.518  35.967  1.00  0.00     0.173 A 
ATOM     99  F   UNL A   1      45.618  29.990  33.992  1.00  0.00    -0.203 F 
ATOM    100  C   UNL A   1      46.418  28.384  35.517  1.00  0.00     0.198 A 
ATOM    101  C   UNL A   1      44.881  26.931  36.651  1.00  0.00     0.198 A 
ATOM    102  F   UNL A   1      42.578  27.071  36.203  1.00  0.00    -0.203 F 
ATOM    103  F   UNL A   1      47.675  28.775  35.266  1.00  0.00    -0.200 F 
ATOM    104  C   UNL A   1      46.179  27.358  36.418  1.00  0.00     0.200 A 
ATOM    105  F   UNL A   1      44.645  25.952  37.535  1.00  0.00    -0.200 F 
ATOM    106  F   UNL A   1      47.202  26.773  37.057  1.00  0.00    -0.200 F 
ENDBRANCH  73  96
ENDBRANCH  47  48
ENDBRANCH  39  42
ENDBRANCH  37  38
ENDBRANCH  36  37
ENDBRANCH  35  36
ENDBRANCH  34  35
ENDBRANCH   1  34
TORSDOF 18
ENDMDL
MODEL 3
REMARK VINA RESULT:     -11.9      2.361      4.522
REMARK SMILES COC(=O)c1c(-c2ccccc2Cl)csc1NC(=O)[C@@H]1[C@@H]2CC[C@@H](C2)[C@@H]1C(=O)NCCCCCCNC(=O)c1ccc(-c2c3nc(c(-c4c(F)c(F)c(F)c(F)c4F)c4ccc([nH]4)c(-c4c(F)c(F)c(F)c(F)c4F)c4nc(c(-c5c(F)c(F)c(F)c(F)c5F)c5ccc2[nH]5)C=C4)C=C3)cc1
REMARK SMILES IDX 31 1 30 2 29 3 27 4 28 5 26 7 20 8 21 9 22 10 25 11 24 12
REMARK SMILES IDX 23 13 18 14 17 15 19 17 16 18 5 19 6 20 14 21 15 22 3 23
REMARK SMILES IDX 4 24 2 25 1 26 7 27 8 28 12 29 9 30 11 31 13 32 10 33 32 34
REMARK SMILES IDX 33 35 34 36 35 37 36 38 37 39 38 41 39 42 40 43 101 44 41 45
REMARK SMILES IDX 100 46 42 47 43 48 44 49 94 50 45 51 99 52 93 53 95 54 46 55
REMARK SMILES IDX 98 56 92 57 91 58 47 60 79 61 59 62 78 63 60 64 63 65 77 66
REMARK SMILES IDX 96 67 61 68 62 69 76 71 97 72 64 73 48 74 49 75 57 76 50 77
REMARK SMILES IDX 51 78 55 79 58 80 52 81 53 82 56 83 54 84 80 85 81 86 89 87
REMARK SMILES IDX 82 88 83 89 87 90 90 91 84 92 85 93 88 94 86 95 65 96 66 97
REMARK SMILES IDX 74 98 67 99 68 100 72 101 75 102 69 103 70 104 73 105 71 106
REMARK H PARENT 29 6 17 16 36 40 95 59 63 70
REMARK Flexibility Score: inf
ROOT
ATOM      1  C   UNL A   1      38.770  21.148  25.589  1.00  0.00     0.021 C 
ENDROOT
BRANCH   1   2
ATOM      2  C   UNL A   1      37.531  21.931  25.158  1.00  0.00     0.116 C 
BRANCH   2   3
ATOM      3  N   UNL A   1      36.483  21.786  26.154  1.00  0.00    -0.356 N 
ATOM      4  C   UNL A   1      35.131  21.934  26.049  1.00  0.00     0.224 C 
ATOM      5  O   UNL A   1      34.509  22.105  27.095  1.00  0.00    -0.275 OA
ATOM      6  H   UNL A   1      36.801  21.540  27.051  1.00  0.00     0.163 HD
BRANCH   4   7
ATOM      7  C   UNL A   1      34.447  21.810  24.692  1.00  0.00     0.094 C 
ATOM      8  C   UNL A   1      34.070  23.107  23.933  1.00  0.00     0.094 C 
ATOM      9  C   UNL A   1      32.553  22.902  23.641  1.00  0.00     0.002 C 
ATOM     10  C   UNL A   1      31.662  22.985  24.886  1.00  0.00     0.005 C 
ATOM     11  C   UNL A   1      32.511  21.385  23.384  1.00  0.00     0.009 C 
ATOM     12  C   UNL A   1      33.090  21.050  24.764  1.00  0.00     0.002 C 
ATOM     13  C   UNL A   1      32.056  21.737  25.678  1.00  0.00     0.005 C 
BRANCH   8  14
ATOM     14  C   UNL A   1      34.493  24.429  24.562  1.00  0.00     0.229 C 
ATOM     15  N   UNL A   1      34.009  25.645  24.170  1.00  0.00    -0.317 N 
ATOM     16  H   UNL A   1      34.549  26.390  24.520  1.00  0.00     0.170 HD
ATOM     17  O   UNL A   1      35.319  24.458  25.480  1.00  0.00    -0.274 OA
BRANCH  15  18
ATOM     18  C   UNL A   1      32.944  26.085  23.400  1.00  0.00     0.110 A 
ATOM     19  C   UNL A   1      31.829  26.782  23.867  1.00  0.00     0.102 A 
ATOM     20  C   UNL A   1      30.976  27.216  22.772  1.00  0.00     0.011 A 
ATOM     21  C   UNL A   1      31.422  26.703  21.570  1.00  0.00     0.076 A 
ATOM     22  S   UNL A   1      32.801  25.727  21.752  1.00  0.00    -0.125 S 
BRANCH  19  23
ATOM     23  C   UNL A   1      31.620  27.045  25.289  1.00  0.00     0.341 C 
ATOM     24  O   UNL A   1      30.663  26.598  25.916  1.00  0.00    -0.246 OA
BRANCH  23  25
ATOM     25  O   UNL A   1      32.551  27.891  25.809  1.00  0.00    -0.465 OA
ATOM     26  C   UNL A   1      32.341  29.271  25.506  1.00  0.00     0.282 C 
ENDBRANCH  23  25
ENDBRANCH  19  23
BRANCH  20  27
ATOM     27  C   UNL A   1      29.869  28.185  22.799  1.00  0.00     0.002 A 
ATOM     28  C   UNL A   1      30.120  29.487  22.322  1.00  0.00     0.010 A 
ATOM     29  C   UNL A   1      28.562  27.873  23.215  1.00  0.00     0.048 A 
ATOM     30  C   UNL A   1      29.100  30.440  22.246  1.00  0.00     0.001 A 
ATOM     31  C   UNL A   1      27.541  28.831  23.127  1.00  0.00     0.021 A 
ATOM     32  Cl  UNL A   1      28.126  26.334  23.877  1.00  0.00    -0.084 Cl
ATOM     33  C   UNL A   1      27.809  30.110  22.642  1.00  0.00     0.002 A 
ENDBRANCH  20  27
ENDBRANCH  15  18
ENDBRANCH   8  14
ENDBRANCH   4   7
ENDBRANCH   2   3
ENDBRANCH   1   2
BRANCH   1  34
ATOM     34  C   UNL A   1      39.883  21.980  26.227  1.00  0.00     0.002 C 
BRANCH  34  35
ATOM     35  C   UNL A   1      41.038  21.171  26.812  1.00  0.00     0.002 C 
BRANCH  35  36
ATOM     36  C   UNL A   1      41.313  19.831  26.127  1.00  0.00     0.021 C 
BRANCH  36  37
ATOM     37  C   UNL A   1      42.581  19.114  26.583  1.00  0.00     0.116 C 
BRANCH  37  38
ATOM     38  N   UNL A   1      43.415  18.700  25.466  1.00  0.00    -0.352 N 
ATOM     39  C   UNL A   1      44.233  19.447  24.657  1.00  0.00     0.251 C 
ATOM     40  H   UNL A   1      43.389  17.738  25.259  1.00  0.00     0.163 HD
ATOM     41  O   UNL A   1      44.720  18.953  23.646  1.00  0.00    -0.269 OA
BRANCH  39  42
ATOM     42  C   UNL A   1      44.517  20.860  24.992  1.00  0.00     0.039 A 
ATOM     43  C   UNL A   1      43.978  21.866  24.185  1.00  0.00     0.014 A 
ATOM     44  C   UNL A   1      45.323  21.192  26.083  1.00  0.00     0.014 A 
ATOM     45  C   UNL A   1      44.198  23.206  24.510  1.00  0.00     0.010 A 
ATOM     46  C   UNL A   1      45.485  22.527  26.446  1.00  0.00     0.010 A 
ATOM     47  C   UNL A   1      44.924  23.548  25.664  1.00  0.00    -0.014 A 
BRANCH  47  48
ATOM     48  C   UNL A   1      45.087  24.970  26.072  1.00  0.00     0.031 A 
ATOM     49  C   UNL A   1      46.436  25.632  26.000  1.00  0.00     0.074 A 
ATOM     50  C   UNL A   1      44.030  25.645  26.566  1.00  0.00     0.049 A 
ATOM     51  N   UNL A   1      46.783  26.842  26.361  1.00  0.00    -0.248 NA
ATOM     52  C   UNL A   1      47.548  24.823  25.475  1.00  0.00     0.031 C 
ATOM     53  C   UNL A   1      42.682  25.098  26.731  1.00  0.00     0.029 A 
ATOM     54  N   UNL A   1      43.925  26.933  27.031  1.00  0.00    -0.354 N 
ATOM     55  C   UNL A   1      48.150  26.931  26.125  1.00  0.00     0.074 A 
ATOM     56  C   UNL A   1      48.579  25.642  25.630  1.00  0.00     0.031 C 
ATOM     57  C   UNL A   1      41.882  26.048  27.244  1.00  0.00     0.029 A 
ATOM     58  C   UNL A   1      42.667  27.254  27.484  1.00  0.00     0.049 A 
ATOM     59  H   UNL A   1      44.678  27.566  27.039  1.00  0.00     0.167 HD
ATOM     60  C   UNL A   1      48.966  27.998  26.293  1.00  0.00     0.037 A 
ATOM     61  C   UNL A   1      42.203  28.387  28.046  1.00  0.00     0.037 A 
ATOM     62  C   UNL A   1      48.529  29.290  26.757  1.00  0.00     0.049 A 
ATOM     63  C   UNL A   1      43.139  29.554  28.224  1.00  0.00     0.074 A 
ATOM     64  C   UNL A   1      49.265  30.456  26.875  1.00  0.00     0.029 A 
ATOM     65  N   UNL A   1      47.244  29.583  27.189  1.00  0.00    -0.354 N 
ATOM     66  N   UNL A   1      44.408  29.655  27.906  1.00  0.00    -0.248 NA
ATOM     67  C   UNL A   1      42.578  30.769  28.832  1.00  0.00     0.031 C 
ATOM     68  C   UNL A   1      48.446  31.435  27.446  1.00  0.00     0.029 A 
ATOM     69  C   UNL A   1      47.179  30.900  27.614  1.00  0.00     0.049 A 
ATOM     70  H   UNL A   1      46.491  28.949  27.195  1.00  0.00     0.167 HD
ATOM     71  C   UNL A   1      44.783  30.949  28.242  1.00  0.00     0.074 A 
ATOM     72  C   UNL A   1      43.605  31.603  28.770  1.00  0.00     0.031 C 
ATOM     73  C   UNL A   1      45.997  31.544  28.126  1.00  0.00     0.037 A 
BRANCH  60  74
ATOM     74  C   UNL A   1      50.427  27.829  25.982  1.00  0.00     0.064 A 
ATOM     75  C   UNL A   1      51.368  27.537  26.980  1.00  0.00     0.173 A 
ATOM     76  C   UNL A   1      50.875  27.881  24.653  1.00  0.00     0.173 A 
ATOM     77  F   UNL A   1      50.995  27.485  28.268  1.00  0.00    -0.203 F 
ATOM     78  C   UNL A   1      52.708  27.323  26.660  1.00  0.00     0.198 A 
ATOM     79  C   UNL A   1      52.208  27.633  24.334  1.00  0.00     0.198 A 
ATOM     80  F   UNL A   1      50.016  28.150  23.659  1.00  0.00    -0.203 F 
ATOM     81  F   UNL A   1      53.596  27.083  27.635  1.00  0.00    -0.200 F 
ATOM     82  C   UNL A   1      53.123  27.359  25.338  1.00  0.00     0.200 A 
ATOM     83  F   UNL A   1      52.604  27.653  23.054  1.00  0.00    -0.200 F 
ATOM     84  F   UNL A   1      54.408  27.133  25.032  1.00  0.00    -0.200 F 
ENDBRANCH  60  74
BRANCH  61  85
ATOM     85  C   UNL A   1      40.785  28.482  28.490  1.00  0.00     0.064 A 
ATOM     86  C   UNL A   1      39.788  28.965  27.630  1.00  0.00     0.173 A 
ATOM     87  C   UNL A   1      40.406  28.136  29.795  1.00  0.00     0.173 A 
ATOM     88  F   UNL A   1      40.101  29.328  26.378  1.00  0.00    -0.203 F 
ATOM     89  C   UNL A   1      38.476  29.134  28.071  1.00  0.00     0.198 A 
ATOM     90  C   UNL A   1      39.087  28.271  30.223  1.00  0.00     0.198 A 
ATOM     91  F   UNL A   1      41.317  27.662  30.657  1.00  0.00    -0.203 F 
ATOM     92  F   UNL A   1      37.560  29.665  27.249  1.00  0.00    -0.200 F 
ATOM     93  C   UNL A   1      38.126  28.784  29.366  1.00  0.00     0.200 A 
ATOM     94  F   UNL A   1      38.749  27.913  31.470  1.00  0.00    -0.200 F 
ATOM     95  F   UNL A   1      36.867  28.953  29.791  1.00  0.00    -0.200 F 
ENDBRANCH  61  85
BRANCH  73  96
ATOM     96  C   UNL A   1      46.103  32.987  28.533  1.00  0.00     0.064 A 
ATOM     97  C   UNL A   1      45.862  34.031  27.629  1.00  0.00     0.173 A 
ATOM     98  C   UNL A   1      46.415  33.327  29.859  1.00  0.00     0.173 A 
ATOM     99  F   UNL A   1      45.574  33.762  26.346  1.00  0.00    -0.203 F 
ATOM    100  C   UNL A   1      45.962  35.362  28.029  1.00  0.00     0.198 A 
ATOM    101  C   UNL A   1      46.476  34.657  30.264  1.00  0.00     0.198 A 
ATOM    102  F   UNL A   1      46.646  32.367  30.767  1.00  0.00    -0.203 F 
ATOM    103  F   UNL A   1      45.786  36.344  27.133  1.00  0.00    -0.200 F 
ATOM    104  C   UNL A   1      46.260  35.673  29.346  1.00  0.00     0.200 A 
ATOM    105  F   UNL A   1      46.745  34.953  31.543  1.00  0.00    -0.200 F 
ATOM    106  F   UNL A   1      46.346  36.954  29.732  1.00  0.00    -0.200 F 
ENDBRANCH  73  96
ENDBRANCH  47  48
ENDBRANCH  39  42
ENDBRANCH  37  38
ENDBRANCH  36  37
ENDBRANCH  35  36
ENDBRANCH  34  35
ENDBRANCH   1  34
TORSDOF 18
ENDMDL
