MODEL 1
REMARK VINA RESULT:     -12.4      0.000      0.000
REMARK SMILES CCc1cccc2c3c([nH]c12)[C@](CC)(CC(=O)NCCCCCCNC(=O)c1ccc(-c2c4nc(c(-c5c(F)c(F)c(F)c(F)c5F)c5ccc([nH]5)c(-c5c(F)c(F)c(F)c(F)c5F)c5nc(c(-c6c(F)c(F)c(F)c(F)c6F)c6ccc2[nH]6)C=C5)C=C4)cc1)OCC3
REMARK SMILES IDX 21 1 20 2 19 3 18 4 16 5 17 6 15 8 12 9 3 10 4 11 11 12 5 13
REMARK SMILES IDX 7 14 10 15 6 16 8 17 9 18 93 20 92 21 91 22 2 23 1 24 13 25
REMARK SMILES IDX 14 26 22 27 23 28 24 29 25 30 26 31 27 33 28 34 29 35 90 36
REMARK SMILES IDX 30 37 89 38 31 39 32 40 33 41 83 42 34 43 88 44 82 45 84 46
REMARK SMILES IDX 35 47 87 48 81 49 80 50 36 52 68 53 48 54 67 55 49 56 52 57
REMARK SMILES IDX 66 58 85 59 50 60 51 61 65 63 86 64 53 65 37 66 38 67 46 68
REMARK SMILES IDX 39 69 40 70 44 71 47 72 41 73 42 74 45 75 43 76 69 77 70 78
REMARK SMILES IDX 78 79 71 80 72 81 76 82 79 83 73 84 74 85 77 86 75 87 54 88
REMARK SMILES IDX 55 89 63 90 56 91 57 92 61 93 64 94 58 95 59 96 62 97 60 98
REMARK H PARENT 18 7 10 19 25 32 84 51 52 62
REMARK Flexibility Score: inf
ROOT
ATOM      1  C   UNL A   1      40.079  22.410  27.057  1.00  0.00     0.002 C 
ENDROOT
BRANCH   1   2
ATOM      2  C   UNL A   1      38.951  22.075  26.063  1.00  0.00     0.021 C 
BRANCH   2   3
ATOM      3  C   UNL A   1      37.889  23.167  25.864  1.00  0.00     0.116 C 
BRANCH   3   4
ATOM      4  N   UNL A   1      37.465  23.358  24.484  1.00  0.00    -0.356 N 
ATOM      5  C   UNL A   1      36.394  22.884  23.779  1.00  0.00     0.223 C 
ATOM      6  O   UNL A   1      36.347  23.133  22.573  1.00  0.00    -0.275 OA
ATOM      7  H   UNL A   1      38.063  23.938  23.959  1.00  0.00     0.163 HD
BRANCH   5   8
ATOM      8  C   UNL A   1      35.279  22.146  24.475  1.00  0.00     0.142 C 
BRANCH   8   9
ATOM      9  C   UNL A   1      33.878  22.798  24.560  1.00  0.00     0.117 C 
ATOM     10  C   UNL A   1      33.851  27.837  25.138  1.00  0.00    -0.024 A 
ATOM     11  C   UNL A   1      33.586  28.888  24.232  1.00  0.00     0.006 A 
ATOM     12  C   UNL A   1      33.856  26.536  24.592  1.00  0.00     0.049 A 
ATOM     13  C   UNL A   1      33.338  28.662  22.880  1.00  0.00     0.001 A 
ATOM     14  C   UNL A   1      33.560  26.290  23.253  1.00  0.00     0.003 A 
ATOM     15  N   UNL A   1      34.086  25.303  25.182  1.00  0.00    -0.356 N 
ATOM     16  C   UNL A   1      33.310  27.364  22.381  1.00  0.00     0.010 A 
ATOM     17  C   UNL A   1      33.490  24.888  23.103  1.00  0.00    -0.014 A 
ATOM     18  C   UNL A   1      33.870  24.287  24.283  1.00  0.00     0.052 A 
ATOM     19  H   UNL A   1      34.366  25.172  26.118  1.00  0.00     0.166 HD
ATOM     20  C   UNL A   1      32.968  24.125  21.964  1.00  0.00     0.066 C 
ATOM     21  C   UNL A   1      32.976  22.634  22.270  1.00  0.00     0.166 C 
ATOM     22  O   UNL A   1      32.907  22.229  23.651  1.00  0.00    -0.368 OA
BRANCH  10  23
ATOM     23  C   UNL A   1      34.023  28.145  26.602  1.00  0.00     0.034 C 
ATOM     24  C   UNL A   1      32.794  28.777  27.233  1.00  0.00     0.009 C 
ENDBRANCH  10  23
BRANCH   9  25
ATOM     25  C   UNL A   1      33.302  22.537  25.992  1.00  0.00     0.039 C 
ATOM     26  C   UNL A   1      34.317  22.581  27.136  1.00  0.00     0.007 C 
ENDBRANCH   9  25
ENDBRANCH   8   9
ENDBRANCH   5   8
ENDBRANCH   3   4
ENDBRANCH   2   3
ENDBRANCH   1   2
BRANCH   1  27
ATOM     27  C   UNL A   1      40.941  21.224  27.468  1.00  0.00     0.002 C 
BRANCH  27  28
ATOM     28  C   UNL A   1      41.152  20.183  26.369  1.00  0.00     0.021 C 
BRANCH  28  29
ATOM     29  C   UNL A   1      42.517  19.487  26.396  1.00  0.00     0.116 C 
BRANCH  29  30
ATOM     30  N   UNL A   1      43.308  19.685  25.200  1.00  0.00    -0.352 N 
ATOM     31  C   UNL A   1      44.042  20.745  24.731  1.00  0.00     0.251 C 
ATOM     32  H   UNL A   1      43.321  18.903  24.602  1.00  0.00     0.163 HD
ATOM     33  O   UNL A   1      44.688  20.570  23.694  1.00  0.00    -0.269 OA
BRANCH  31  34
ATOM     34  C   UNL A   1      44.032  22.097  25.350  1.00  0.00     0.039 A 
ATOM     35  C   UNL A   1      44.787  22.472  26.461  1.00  0.00     0.014 A 
ATOM     36  C   UNL A   1      43.153  23.038  24.790  1.00  0.00     0.014 A 
ATOM     37  C   UNL A   1      44.546  23.673  27.107  1.00  0.00     0.010 A 
ATOM     38  C   UNL A   1      42.961  24.279  25.388  1.00  0.00     0.010 A 
ATOM     39  C   UNL A   1      43.610  24.564  26.588  1.00  0.00    -0.014 A 
BRANCH  39  40
ATOM     40  C   UNL A   1      43.412  25.808  27.325  1.00  0.00     0.031 A 
ATOM     41  C   UNL A   1      44.389  26.904  27.040  1.00  0.00     0.074 A 
ATOM     42  C   UNL A   1      42.370  26.009  28.151  1.00  0.00     0.049 A 
ATOM     43  N   UNL A   1      45.130  27.566  27.874  1.00  0.00    -0.248 NA
ATOM     44  C   UNL A   1      44.616  27.258  25.631  1.00  0.00     0.031 C 
ATOM     45  C   UNL A   1      41.187  25.170  28.351  1.00  0.00     0.029 A 
ATOM     46  N   UNL A   1      42.105  27.106  28.912  1.00  0.00    -0.354 N 
ATOM     47  C   UNL A   1      45.821  28.511  27.116  1.00  0.00     0.074 A 
ATOM     48  C   UNL A   1      45.534  28.218  25.735  1.00  0.00     0.031 C 
ATOM     49  C   UNL A   1      40.232  25.899  28.968  1.00  0.00     0.029 A 
ATOM     50  C   UNL A   1      40.785  27.196  29.317  1.00  0.00     0.049 A 
ATOM     51  H   UNL A   1      42.788  27.773  29.151  1.00  0.00     0.167 HD
ATOM     52  C   UNL A   1      46.471  29.570  27.675  1.00  0.00     0.037 A 
ATOM     53  C   UNL A   1      40.174  28.304  29.798  1.00  0.00     0.037 A 
ATOM     54  C   UNL A   1      46.759  29.356  29.064  1.00  0.00     0.049 A 
ATOM     55  C   UNL A   1      41.230  29.216  30.310  1.00  0.00     0.074 A 
ATOM     56  C   UNL A   1      47.511  28.429  29.761  1.00  0.00     0.029 A 
ATOM     57  N   UNL A   1      45.994  29.985  30.013  1.00  0.00    -0.354 N 
ATOM     58  N   UNL A   1      41.971  28.964  31.355  1.00  0.00    -0.248 NA
ATOM     59  C   UNL A   1      41.759  30.220  29.397  1.00  0.00     0.031 C 
ATOM     60  C   UNL A   1      46.785  28.197  30.964  1.00  0.00     0.029 A 
ATOM     61  C   UNL A   1      45.661  29.023  30.930  1.00  0.00     0.049 A 
ATOM     62  H   UNL A   1      45.735  30.935  30.031  1.00  0.00     0.167 HD
ATOM     63  C   UNL A   1      43.226  29.457  31.027  1.00  0.00     0.074 A 
ATOM     64  C   UNL A   1      43.012  30.295  29.850  1.00  0.00     0.031 C 
ATOM     65  C   UNL A   1      44.366  28.927  31.558  1.00  0.00     0.037 A 
BRANCH  52  66
ATOM     66  C   UNL A   1      46.605  30.923  27.029  1.00  0.00     0.064 A 
ATOM     67  C   UNL A   1      47.864  31.553  26.970  1.00  0.00     0.173 A 
ATOM     68  C   UNL A   1      45.496  31.743  26.731  1.00  0.00     0.173 A 
ATOM     69  F   UNL A   1      48.984  30.874  27.261  1.00  0.00    -0.203 F 
ATOM     70  C   UNL A   1      47.994  32.918  26.697  1.00  0.00     0.198 A 
ATOM     71  C   UNL A   1      45.634  33.092  26.408  1.00  0.00     0.198 A 
ATOM     72  F   UNL A   1      44.238  31.299  26.851  1.00  0.00    -0.203 F 
ATOM     73  F   UNL A   1      49.198  33.500  26.769  1.00  0.00    -0.200 F 
ATOM     74  C   UNL A   1      46.878  33.687  26.421  1.00  0.00     0.200 A 
ATOM     75  F   UNL A   1      44.539  33.825  26.164  1.00  0.00    -0.200 F 
ATOM     76  F   UNL A   1      46.993  35.006  26.217  1.00  0.00    -0.200 F 
ENDBRANCH  52  66
BRANCH  53  77
ATOM     77  C   UNL A   1      38.789  28.739  29.492  1.00  0.00     0.064 A 
ATOM     78  C   UNL A   1      37.869  29.012  30.513  1.00  0.00     0.173 A 
ATOM     79  C   UNL A   1      38.408  29.124  28.188  1.00  0.00     0.173 A 
ATOM     80  F   UNL A   1      38.177  28.736  31.789  1.00  0.00    -0.203 F 
ATOM     81  C   UNL A   1      36.641  29.628  30.247  1.00  0.00     0.198 A 
ATOM     82  C   UNL A   1      37.178  29.723  27.921  1.00  0.00     0.198 A 
ATOM     83  F   UNL A   1      39.255  29.011  27.156  1.00  0.00    -0.203 F 
ATOM     84  F   UNL A   1      35.808  29.921  31.255  1.00  0.00    -0.200 F 
ATOM     85  C   UNL A   1      36.297  29.984  28.952  1.00  0.00     0.200 A 
ATOM     86  F   UNL A   1      36.878  30.095  26.669  1.00  0.00    -0.200 F 
ATOM     87  F   UNL A   1      35.140  30.614  28.703  1.00  0.00    -0.200 F 
ENDBRANCH  53  77
BRANCH  65  88
ATOM     88  C   UNL A   1      44.249  27.935  32.680  1.00  0.00     0.064 A 
ATOM     89  C   UNL A   1      44.099  26.552  32.471  1.00  0.00     0.173 A 
ATOM     90  C   UNL A   1      44.522  28.363  33.986  1.00  0.00     0.173 A 
ATOM     91  F   UNL A   1      43.946  26.054  31.239  1.00  0.00    -0.203 F 
ATOM     92  C   UNL A   1      44.192  25.648  33.526  1.00  0.00     0.198 A 
ATOM     93  C   UNL A   1      44.649  27.453  35.033  1.00  0.00     0.198 A 
ATOM     94  F   UNL A   1      44.740  29.665  34.235  1.00  0.00    -0.203 F 
ATOM     95  F   UNL A   1      44.057  24.333  33.297  1.00  0.00    -0.200 F 
ATOM     96  C   UNL A   1      44.479  26.098  34.804  1.00  0.00     0.200 A 
ATOM     97  F   UNL A   1      44.983  27.887  36.257  1.00  0.00    -0.200 F 
ATOM     98  F   UNL A   1      44.631  25.221  35.807  1.00  0.00    -0.200 F 
ENDBRANCH  65  88
ENDBRANCH  39  40
ENDBRANCH  31  34
ENDBRANCH  29  30
ENDBRANCH  28  29
ENDBRANCH  27  28
ENDBRANCH   1  27
TORSDOF 16
ENDMDL
MODEL 2
REMARK VINA RESULT:     -11.8      1.740      2.162
REMARK SMILES CCc1cccc2c3c([nH]c12)[C@](CC)(CC(=O)NCCCCCCNC(=O)c1ccc(-c2c4nc(c(-c5c(F)c(F)c(F)c(F)c5F)c5ccc([nH]5)c(-c5c(F)c(F)c(F)c(F)c5F)c5nc(c(-c6c(F)c(F)c(F)c(F)c6F)c6ccc2[nH]6)C=C5)C=C4)cc1)OCC3
REMARK SMILES IDX 21 1 20 2 19 3 18 4 16 5 17 6 15 8 12 9 3 10 4 11 11 12 5 13
REMARK SMILES IDX 7 14 10 15 6 16 8 17 9 18 93 20 92 21 91 22 2 23 1 24 13 25
REMARK SMILES IDX 14 26 22 27 23 28 24 29 25 30 26 31 27 33 28 34 29 35 90 36
REMARK SMILES IDX 30 37 89 38 31 39 32 40 33 41 83 42 34 43 88 44 82 45 84 46
REMARK SMILES IDX 35 47 87 48 81 49 80 50 36 52 68 53 48 54 67 55 49 56 52 57
REMARK SMILES IDX 66 58 85 59 50 60 51 61 65 63 86 64 53 65 37 66 38 67 46 68
REMARK SMILES IDX 39 69 40 70 44 71 47 72 41 73 42 74 45 75 43 76 69 77 70 78
REMARK SMILES IDX 78 79 71 80 72 81 76 82 79 83 73 84 74 85 77 86 75 87 54 88
REMARK SMILES IDX 55 89 63 90 56 91 57 92 61 93 64 94 58 95 59 96 62 97 60 98
REMARK H PARENT 18 7 10 19 25 32 84 51 52 62
REMARK Flexibility Score: inf
ROOT
ATOM      1  C   UNL A   1      39.553  22.825  27.106  1.00  0.00     0.002 C 
ENDROOT
BRANCH   1   2
ATOM      2  C   UNL A   1      38.791  24.056  26.581  1.00  0.00     0.021 C 
BRANCH   2   3
ATOM      3  C   UNL A   1      37.354  23.800  26.103  1.00  0.00     0.116 C 
BRANCH   3   4
ATOM      4  N   UNL A   1      37.210  23.659  24.660  1.00  0.00    -0.356 N 
ATOM      5  C   UNL A   1      36.365  22.909  23.891  1.00  0.00     0.223 C 
ATOM      6  O   UNL A   1      36.545  22.912  22.673  1.00  0.00    -0.275 OA
ATOM      7  H   UNL A   1      37.842  24.208  24.140  1.00  0.00     0.163 HD
BRANCH   5   8
ATOM      8  C   UNL A   1      35.211  22.166  24.516  1.00  0.00     0.142 C 
BRANCH   8   9
ATOM      9  C   UNL A   1      33.817  22.835  24.562  1.00  0.00     0.117 C 
ATOM     10  C   UNL A   1      33.836  27.870  25.172  1.00  0.00    -0.024 A 
ATOM     11  C   UNL A   1      33.612  28.930  24.265  1.00  0.00     0.006 A 
ATOM     12  C   UNL A   1      33.841  26.573  24.618  1.00  0.00     0.049 A 
ATOM     13  C   UNL A   1      33.403  28.716  22.905  1.00  0.00     0.001 A 
ATOM     14  C   UNL A   1      33.583  26.339  23.269  1.00  0.00     0.003 A 
ATOM     15  N   UNL A   1      34.037  25.333  25.207  1.00  0.00    -0.356 N 
ATOM     16  C   UNL A   1      33.374  27.421  22.397  1.00  0.00     0.010 A 
ATOM     17  C   UNL A   1      33.500  24.939  23.108  1.00  0.00    -0.014 A 
ATOM     18  C   UNL A   1      33.836  24.326  24.295  1.00  0.00     0.052 A 
ATOM     19  H   UNL A   1      34.287  25.193  26.149  1.00  0.00     0.166 HD
ATOM     20  C   UNL A   1      33.003  24.190  21.948  1.00  0.00     0.066 C 
ATOM     21  C   UNL A   1      32.983  22.697  22.245  1.00  0.00     0.166 C 
ATOM     22  O   UNL A   1      32.867  22.285  23.620  1.00  0.00    -0.368 OA
BRANCH  10  23
ATOM     23  C   UNL A   1      33.967  28.168  26.643  1.00  0.00     0.034 C 
ATOM     24  C   UNL A   1      33.081  29.311  27.107  1.00  0.00     0.009 C 
ENDBRANCH  10  23
BRANCH   9  25
ATOM     25  C   UNL A   1      33.194  22.573  25.974  1.00  0.00     0.039 C 
ATOM     26  C   UNL A   1      33.942  21.571  26.856  1.00  0.00     0.007 C 
ENDBRANCH   9  25
ENDBRANCH   8   9
ENDBRANCH   5   8
ENDBRANCH   3   4
ENDBRANCH   2   3
ENDBRANCH   1   2
BRANCH   1  27
ATOM     27  C   UNL A   1      39.692  21.685  26.106  1.00  0.00     0.002 C 
BRANCH  27  28
ATOM     28  C   UNL A   1      40.649  20.576  26.539  1.00  0.00     0.021 C 
BRANCH  28  29
ATOM     29  C   UNL A   1      42.105  21.019  26.724  1.00  0.00     0.116 C 
BRANCH  29  30
ATOM     30  N   UNL A   1      42.695  21.625  25.548  1.00  0.00    -0.352 N 
ATOM     31  C   UNL A   1      43.008  22.919  25.222  1.00  0.00     0.251 C 
ATOM     32  H   UNL A   1      42.915  20.977  24.840  1.00  0.00     0.163 HD
ATOM     33  O   UNL A   1      43.595  23.107  24.153  1.00  0.00    -0.269 OA
BRANCH  31  34
ATOM     34  C   UNL A   1      42.608  24.098  26.037  1.00  0.00     0.039 A 
ATOM     35  C   UNL A   1      41.907  25.202  25.551  1.00  0.00     0.014 A 
ATOM     36  C   UNL A   1      43.018  24.103  27.379  1.00  0.00     0.014 A 
ATOM     37  C   UNL A   1      41.778  26.349  26.316  1.00  0.00     0.010 A 
ATOM     38  C   UNL A   1      42.823  25.223  28.180  1.00  0.00     0.010 A 
ATOM     39  C   UNL A   1      42.264  26.371  27.621  1.00  0.00    -0.014 A 
BRANCH  39  40
ATOM     40  C   UNL A   1      42.090  27.615  28.363  1.00  0.00     0.031 A 
ATOM     41  C   UNL A   1      43.121  28.673  28.127  1.00  0.00     0.074 A 
ATOM     42  C   UNL A   1      41.028  27.852  29.153  1.00  0.00     0.049 A 
ATOM     43  N   UNL A   1      43.857  29.295  28.993  1.00  0.00    -0.248 NA
ATOM     44  C   UNL A   1      43.414  29.030  26.730  1.00  0.00     0.031 C 
ATOM     45  C   UNL A   1      39.805  27.060  29.301  1.00  0.00     0.029 A 
ATOM     46  N   UNL A   1      40.780  28.952  29.916  1.00  0.00    -0.354 N 
ATOM     47  C   UNL A   1      44.614  30.218  28.272  1.00  0.00     0.074 A 
ATOM     48  C   UNL A   1      44.366  29.951  26.878  1.00  0.00     0.031 C 
ATOM     49  C   UNL A   1      38.859  27.823  29.892  1.00  0.00     0.029 A 
ATOM     50  C   UNL A   1      39.452  29.092  30.274  1.00  0.00     0.049 A 
ATOM     51  H   UNL A   1      41.481  29.588  30.187  1.00  0.00     0.167 HD
ATOM     52  C   UNL A   1      45.286  31.244  28.865  1.00  0.00     0.037 A 
ATOM     53  C   UNL A   1      38.869  30.221  30.744  1.00  0.00     0.037 A 
ATOM     54  C   UNL A   1      45.514  31.005  30.261  1.00  0.00     0.049 A 
ATOM     55  C   UNL A   1      39.942  31.083  31.304  1.00  0.00     0.074 A 
ATOM     56  C   UNL A   1      46.202  30.042  30.975  1.00  0.00     0.029 A 
ATOM     57  N   UNL A   1      44.741  31.658  31.188  1.00  0.00    -0.354 N 
ATOM     58  N   UNL A   1      40.633  30.791  32.372  1.00  0.00    -0.248 NA
ATOM     59  C   UNL A   1      40.545  32.072  30.421  1.00  0.00     0.031 C 
ATOM     60  C   UNL A   1      45.423  29.829  32.148  1.00  0.00     0.029 A 
ATOM     61  C   UNL A   1      44.336  30.701  32.082  1.00  0.00     0.049 A 
ATOM     62  H   UNL A   1      44.520  32.617  31.206  1.00  0.00     0.167 HD
ATOM     63  C   UNL A   1      41.918  31.235  32.095  1.00  0.00     0.074 A 
ATOM     64  C   UNL A   1      41.783  32.092  30.921  1.00  0.00     0.031 C 
ATOM     65  C   UNL A   1      43.016  30.653  32.662  1.00  0.00     0.037 A 
BRANCH  52  66
ATOM     66  C   UNL A   1      45.499  32.597  28.238  1.00  0.00     0.064 A 
ATOM     67  C   UNL A   1      46.807  33.079  28.032  1.00  0.00     0.173 A 
ATOM     68  C   UNL A   1      44.468  33.550  28.106  1.00  0.00     0.173 A 
ATOM     69  F   UNL A   1      47.865  32.263  28.160  1.00  0.00    -0.203 F 
ATOM     70  C   UNL A   1      47.064  34.428  27.776  1.00  0.00     0.198 A 
ATOM     71  C   UNL A   1      44.724  34.885  27.799  1.00  0.00     0.198 A 
ATOM     72  F   UNL A   1      43.191  33.250  28.377  1.00  0.00    -0.203 F 
ATOM     73  F   UNL A   1      48.329  34.864  27.706  1.00  0.00    -0.200 F 
ATOM     74  C   UNL A   1      46.023  35.332  27.665  1.00  0.00     0.200 A 
ATOM     75  F   UNL A   1      43.703  35.749  27.715  1.00  0.00    -0.200 F 
ATOM     76  F   UNL A   1      46.269  36.635  27.479  1.00  0.00    -0.200 F 
ENDBRANCH  52  66
BRANCH  53  77
ATOM     77  C   UNL A   1      37.516  30.715  30.393  1.00  0.00     0.064 A 
ATOM     78  C   UNL A   1      36.630  31.176  31.377  1.00  0.00     0.173 A 
ATOM     79  C   UNL A   1      37.146  30.965  29.054  1.00  0.00     0.173 A 
ATOM     80  F   UNL A   1      36.934  31.035  32.675  1.00  0.00    -0.203 F 
ATOM     81  C   UNL A   1      35.447  31.844  31.042  1.00  0.00     0.198 A 
ATOM     82  C   UNL A   1      35.959  31.616  28.720  1.00  0.00     0.198 A 
ATOM     83  F   UNL A   1      37.969  30.667  28.040  1.00  0.00    -0.203 F 
ATOM     84  F   UNL A   1      34.650  32.317  32.010  1.00  0.00    -0.200 F 
ATOM     85  C   UNL A   1      35.113  32.064  29.715  1.00  0.00     0.200 A 
ATOM     86  F   UNL A   1      35.671  31.855  27.433  1.00  0.00    -0.200 F 
ATOM     87  F   UNL A   1      34.001  32.742  29.396  1.00  0.00    -0.200 F 
ENDBRANCH  53  77
BRANCH  65  88
ATOM     88  C   UNL A   1      42.817  29.657  33.768  1.00  0.00     0.064 A 
ATOM     89  C   UNL A   1      42.576  28.290  33.538  1.00  0.00     0.173 A 
ATOM     90  C   UNL A   1      43.101  30.048  35.083  1.00  0.00     0.173 A 
ATOM     91  F   UNL A   1      42.406  27.820  32.297  1.00  0.00    -0.203 F 
ATOM     92  C   UNL A   1      42.594  27.367  34.581  1.00  0.00     0.198 A 
ATOM     93  C   UNL A   1      43.153  29.118  36.118  1.00  0.00     0.198 A 
ATOM     94  F   UNL A   1      43.404  31.328  35.354  1.00  0.00    -0.203 F 
ATOM     95  F   UNL A   1      42.373  26.069  34.332  1.00  0.00    -0.200 F 
ATOM     96  C   UNL A   1      42.894  27.780  35.869  1.00  0.00     0.200 A 
ATOM     97  F   UNL A   1      43.500  29.511  37.352  1.00  0.00    -0.200 F 
ATOM     98  F   UNL A   1      42.974  26.882  36.861  1.00  0.00    -0.200 F 
ENDBRANCH  65  88
ENDBRANCH  39  40
ENDBRANCH  31  34
ENDBRANCH  29  30
ENDBRANCH  28  29
ENDBRANCH  27  28
ENDBRANCH   1  27
TORSDOF 16
ENDMDL
MODEL 3
REMARK VINA RESULT:     -11.8      2.997      8.695
REMARK SMILES CCc1cccc2c3c([nH]c12)[C@](CC)(CC(=O)NCCCCCCNC(=O)c1ccc(-c2c4nc(c(-c5c(F)c(F)c(F)c(F)c5F)c5ccc([nH]5)c(-c5c(F)c(F)c(F)c(F)c5F)c5nc(c(-c6c(F)c(F)c(F)c(F)c6F)c6ccc2[nH]6)C=C5)C=C4)cc1)OCC3
REMARK SMILES IDX 21 1 20 2 19 3 18 4 16 5 17 6 15 8 12 9 3 10 4 11 11 12 5 13
REMARK SMILES IDX 7 14 10 15 6 16 8 17 9 18 93 20 92 21 91 22 2 23 1 24 13 25
REMARK SMILES IDX 14 26 22 27 23 28 24 29 25 30 26 31 27 33 28 34 29 35 90 36
REMARK SMILES IDX 30 37 89 38 31 39 32 40 33 41 83 42 34 43 88 44 82 45 84 46
REMARK SMILES IDX 35 47 87 48 81 49 80 50 36 52 68 53 48 54 67 55 49 56 52 57
REMARK SMILES IDX 66 58 85 59 50 60 51 61 65 63 86 64 53 65 37 66 38 67 46 68
REMARK SMILES IDX 39 69 40 70 44 71 47 72 41 73 42 74 45 75 43 76 69 77 70 78
REMARK SMILES IDX 78 79 71 80 72 81 76 82 79 83 73 84 74 85 77 86 75 87 54 88
REMARK SMILES IDX 55 89 63 90 56 91 57 92 61 93 64 94 58 95 59 96 62 97 60 98
REMARK H PARENT 18 7 10 19 25 32 84 51 52 62
REMARK Flexibility Score: inf
ROOT
ATOM      1  C   UNL A   1      31.839  29.048  24.230  1.00  0.00     0.002 C 
ENDROOT
BRANCH   1   2
ATOM      2  C   UNL A   1      30.502  28.399  23.827  1.00  0.00     0.021 C 
BRANCH   2   3
ATOM      3  C   UNL A   1      30.437  27.830  22.402  1.00  0.00     0.116 C 
BRANCH   3   4
ATOM      4  N   UNL A   1      31.724  27.430  21.847  1.00  0.00    -0.356 N 
ATOM      5  C   UNL A   1      32.414  26.251  21.887  1.00  0.00     0.223 C 
ATOM      6  O   UNL A   1      33.549  26.235  21.408  1.00  0.00    -0.275 OA
ATOM      7  H   UNL A   1      32.184  28.145  21.350  1.00  0.00     0.163 HD
BRANCH   5   8
ATOM      8  C   UNL A   1      31.772  25.002  22.435  1.00  0.00     0.142 C 
BRANCH   8   9
ATOM      9  C   UNL A   1      32.032  24.601  23.907  1.00  0.00     0.117 C 
ATOM     10  C   UNL A   1      33.811  19.904  24.607  1.00  0.00    -0.024 A 
ATOM     11  C   UNL A   1      35.103  19.421  24.913  1.00  0.00     0.006 A 
ATOM     12  C   UNL A   1      33.705  21.293  24.391  1.00  0.00     0.049 A 
ATOM     13  C   UNL A   1      36.210  20.261  25.004  1.00  0.00     0.001 A 
ATOM     14  C   UNL A   1      34.793  22.152  24.528  1.00  0.00     0.003 A 
ATOM     15  N   UNL A   1      32.612  22.083  24.067  1.00  0.00    -0.356 N 
ATOM     16  C   UNL A   1      36.064  21.633  24.825  1.00  0.00     0.010 A 
ATOM     17  C   UNL A   1      34.291  23.466  24.411  1.00  0.00    -0.014 A 
ATOM     18  C   UNL A   1      32.956  23.412  24.073  1.00  0.00     0.052 A 
ATOM     19  H   UNL A   1      31.713  21.738  23.862  1.00  0.00     0.166 HD
ATOM     20  C   UNL A   1      34.972  24.728  24.727  1.00  0.00     0.066 C 
ATOM     21  C   UNL A   1      34.020  25.905  24.565  1.00  0.00     0.166 C 
ATOM     22  O   UNL A   1      32.609  25.656  24.712  1.00  0.00    -0.368 OA
BRANCH  10  23
ATOM     23  C   UNL A   1      32.643  18.952  24.611  1.00  0.00     0.034 C 
ATOM     24  C   UNL A   1      32.539  18.122  23.342  1.00  0.00     0.009 C 
ENDBRANCH  10  23
BRANCH   9  25
ATOM     25  C   UNL A   1      30.655  24.280  24.578  1.00  0.00     0.039 C 
ATOM     26  C   UNL A   1      30.201  25.254  25.668  1.00  0.00     0.007 C 
ENDBRANCH   9  25
ENDBRANCH   8   9
ENDBRANCH   5   8
ENDBRANCH   3   4
ENDBRANCH   2   3
ENDBRANCH   1   2
BRANCH   1  27
ATOM     27  C   UNL A   1      31.935  29.458  25.693  1.00  0.00     0.002 C 
BRANCH  27  28
ATOM     28  C   UNL A   1      33.361  29.516  26.242  1.00  0.00     0.021 C 
BRANCH  28  29
ATOM     29  C   UNL A   1      33.490  30.158  27.629  1.00  0.00     0.116 C 
BRANCH  29  30
ATOM     30  N   UNL A   1      33.972  31.523  27.608  1.00  0.00    -0.352 N 
ATOM     31  C   UNL A   1      35.211  32.078  27.802  1.00  0.00     0.251 C 
ATOM     32  H   UNL A   1      33.270  32.186  27.417  1.00  0.00     0.163 HD
ATOM     33  O   UNL A   1      35.319  33.296  27.629  1.00  0.00    -0.269 OA
BRANCH  31  34
ATOM     34  C   UNL A   1      36.393  31.316  28.285  1.00  0.00     0.039 A 
ATOM     35  C   UNL A   1      37.355  31.810  29.167  1.00  0.00     0.014 A 
ATOM     36  C   UNL A   1      36.563  30.023  27.766  1.00  0.00     0.014 A 
ATOM     37  C   UNL A   1      38.536  31.121  29.383  1.00  0.00     0.010 A 
ATOM     38  C   UNL A   1      37.713  29.290  28.040  1.00  0.00     0.010 A 
ATOM     39  C   UNL A   1      38.730  29.874  28.794  1.00  0.00    -0.014 A 
BRANCH  39  40
ATOM     40  C   UNL A   1      39.999  29.210  29.068  1.00  0.00     0.031 A 
ATOM     41  C   UNL A   1      40.300  28.933  30.507  1.00  0.00     0.074 A 
ATOM     42  C   UNL A   1      40.826  28.784  28.097  1.00  0.00     0.049 A 
ATOM     43  N   UNL A   1      41.345  29.273  31.196  1.00  0.00    -0.248 NA
ATOM     44  C   UNL A   1      39.265  28.246  31.294  1.00  0.00     0.031 C 
ATOM     45  C   UNL A   1      40.586  28.726  26.653  1.00  0.00     0.029 A 
ATOM     46  N   UNL A   1      42.043  28.191  28.233  1.00  0.00    -0.354 N 
ATOM     47  C   UNL A   1      41.166  28.732  32.469  1.00  0.00     0.074 A 
ATOM     48  C   UNL A   1      39.832  28.188  32.499  1.00  0.00     0.031 C 
ATOM     49  C   UNL A   1      41.502  27.908  26.090  1.00  0.00     0.029 A 
ATOM     50  C   UNL A   1      42.455  27.501  27.107  1.00  0.00     0.049 A 
ATOM     51  H   UNL A   1      42.580  28.246  29.057  1.00  0.00     0.167 HD
ATOM     52  C   UNL A   1      42.177  28.632  33.376  1.00  0.00     0.037 A 
ATOM     53  C   UNL A   1      43.441  26.574  27.058  1.00  0.00     0.037 A 
ATOM     54  C   UNL A   1      43.260  29.526  33.079  1.00  0.00     0.049 A 
ATOM     55  C   UNL A   1      44.332  26.800  28.225  1.00  0.00     0.074 A 
ATOM     56  C   UNL A   1      43.378  30.900  32.986  1.00  0.00     0.029 A 
ATOM     57  N   UNL A   1      44.406  29.026  32.516  1.00  0.00    -0.354 N 
ATOM     58  N   UNL A   1      45.094  27.851  28.372  1.00  0.00    -0.248 NA
ATOM     59  C   UNL A   1      44.051  26.058  29.446  1.00  0.00     0.031 C 
ATOM     60  C   UNL A   1      44.304  31.117  31.925  1.00  0.00     0.029 A 
ATOM     61  C   UNL A   1      44.710  29.861  31.473  1.00  0.00     0.049 A 
ATOM     62  H   UNL A   1      44.909  28.229  32.802  1.00  0.00     0.167 HD
ATOM     63  C   UNL A   1      45.046  28.136  29.729  1.00  0.00     0.074 A 
ATOM     64  C   UNL A   1      44.463  26.949  30.350  1.00  0.00     0.031 C 
ATOM     65  C   UNL A   1      45.218  29.405  30.202  1.00  0.00     0.037 A 
BRANCH  52  66
ATOM     66  C   UNL A   1      42.309  27.522  34.386  1.00  0.00     0.064 A 
ATOM     67  C   UNL A   1      42.854  26.282  34.001  1.00  0.00     0.173 A 
ATOM     68  C   UNL A   1      41.650  27.541  35.633  1.00  0.00     0.173 A 
ATOM     69  F   UNL A   1      43.479  26.144  32.821  1.00  0.00    -0.203 F 
ATOM     70  C   UNL A   1      42.694  25.132  34.780  1.00  0.00     0.198 A 
ATOM     71  C   UNL A   1      41.537  26.404  36.431  1.00  0.00     0.198 A 
ATOM     72  F   UNL A   1      40.998  28.626  36.070  1.00  0.00    -0.203 F 
ATOM     73  F   UNL A   1      43.125  23.950  34.319  1.00  0.00    -0.200 F 
ATOM     74  C   UNL A   1      42.032  25.193  35.992  1.00  0.00     0.200 A 
ATOM     75  F   UNL A   1      40.874  26.479  37.594  1.00  0.00    -0.200 F 
ATOM     76  F   UNL A   1      41.825  24.083  36.712  1.00  0.00    -0.200 F 
ENDBRANCH  52  66
BRANCH  53  77
ATOM     77  C   UNL A   1      43.417  25.316  26.272  1.00  0.00     0.064 A 
ATOM     78  C   UNL A   1      44.425  25.016  25.346  1.00  0.00     0.173 A 
ATOM     79  C   UNL A   1      42.525  24.268  26.585  1.00  0.00     0.173 A 
ATOM     80  F   UNL A   1      45.352  25.935  25.039  1.00  0.00    -0.203 F 
ATOM     81  C   UNL A   1      44.532  23.748  24.765  1.00  0.00     0.198 A 
ATOM     82  C   UNL A   1      42.622  23.009  25.995  1.00  0.00     0.198 A 
ATOM     83  F   UNL A   1      41.594  24.411  27.538  1.00  0.00    -0.203 F 
ATOM     84  F   UNL A   1      45.540  23.481  23.923  1.00  0.00    -0.200 F 
ATOM     85  C   UNL A   1      43.632  22.745  25.091  1.00  0.00     0.200 A 
ATOM     86  F   UNL A   1      41.766  22.040  26.351  1.00  0.00    -0.200 F 
ATOM     87  F   UNL A   1      43.761  21.517  24.569  1.00  0.00    -0.200 F 
ENDBRANCH  53  77
BRANCH  65  88
ATOM     88  C   UNL A   1      45.680  30.474  29.254  1.00  0.00     0.064 A 
ATOM     89  C   UNL A   1      47.036  30.720  28.973  1.00  0.00     0.173 A 
ATOM     90  C   UNL A   1      44.729  31.109  28.443  1.00  0.00     0.173 A 
ATOM     91  F   UNL A   1      48.004  30.070  29.628  1.00  0.00    -0.203 F 
ATOM     92  C   UNL A   1      47.417  31.581  27.947  1.00  0.00     0.198 A 
ATOM     93  C   UNL A   1      45.114  31.941  27.395  1.00  0.00     0.198 A 
ATOM     94  F   UNL A   1      43.421  30.862  28.621  1.00  0.00    -0.203 F 
ATOM     95  F   UNL A   1      48.717  31.788  27.693  1.00  0.00    -0.200 F 
ATOM     96  C   UNL A   1      46.456  32.182  27.151  1.00  0.00     0.200 A 
ATOM     97  F   UNL A   1      44.183  32.476  26.591  1.00  0.00    -0.200 F 
ATOM     98  F   UNL A   1      46.824  32.959  26.123  1.00  0.00    -0.200 F 
ENDBRANCH  65  88
ENDBRANCH  39  40
ENDBRANCH  31  34
ENDBRANCH  29  30
ENDBRANCH  28  29
ENDBRANCH  27  28
ENDBRANCH   1  27
TORSDOF 16
ENDMDL
