MODEL 1
REMARK VINA RESULT:     -12.5      0.000      0.000
REMARK SMILES C[C@@H](C(=O)NCCCCCCNC(=O)c1ccc(-c2c3nc(c(-c4c(F)c(F)c(F)c(F)c4F)c4ccc([nH]4)c(-c4c(F)c(F)c(F)c(F)c4F)c4nc(c(-c5c(F)c(F)c(F)c(F)c5F)c5ccc2[nH]5)C=C4)C=C3)cc1)c1cccc(C(=O)c2ccccc2)c1
REMARK SMILES IDX 8 1 7 2 6 3 5 4 3 5 4 6 2 8 1 9 78 10 79 11 91 12 80 13
REMARK SMILES IDX 82 14 81 15 83 16 84 17 85 18 86 19 90 20 87 21 89 22 88 23
REMARK SMILES IDX 9 24 10 25 11 26 12 27 13 28 14 30 15 31 16 32 77 33 17 34
REMARK SMILES IDX 76 35 18 36 19 37 20 38 70 39 21 40 75 41 69 42 71 43 22 44
REMARK SMILES IDX 74 45 68 46 67 47 23 49 55 50 35 51 54 52 36 53 39 54 53 55
REMARK SMILES IDX 72 56 37 57 38 58 52 60 73 61 40 62 24 63 25 64 33 65 26 66
REMARK SMILES IDX 27 67 31 68 34 69 28 70 29 71 32 72 30 73 56 74 57 75 65 76
REMARK SMILES IDX 58 77 59 78 63 79 66 80 60 81 61 82 64 83 62 84 41 85 42 86
REMARK SMILES IDX 50 87 43 88 44 89 48 90 51 91 45 92 46 93 49 94 47 95
REMARK H PARENT 5 7 12 29 71 48 39 59
REMARK Flexibility Score: inf
ROOT
ATOM      1  C   UNL A   1      32.384  29.988  26.817  1.00  0.00     0.002 C 
ENDROOT
BRANCH   1   2
ATOM      2  C   UNL A   1      31.810  28.682  27.385  1.00  0.00     0.021 C 
BRANCH   2   3
ATOM      3  C   UNL A   1      32.614  27.429  27.031  1.00  0.00     0.116 C 
BRANCH   3   4
ATOM      4  N   UNL A   1      31.797  26.242  27.168  1.00  0.00    -0.356 N 
ATOM      5  C   UNL A   1      31.387  25.325  26.244  1.00  0.00     0.227 C 
ATOM      6  O   UNL A   1      30.571  24.497  26.651  1.00  0.00    -0.274 OA
ATOM      7  H   UNL A   1      31.486  26.064  28.085  1.00  0.00     0.163 HD
BRANCH   5   8
ATOM      8  C   UNL A   1      31.972  25.351  24.821  1.00  0.00     0.105 C 
ATOM      9  C   UNL A   1      33.455  24.978  24.785  1.00  0.00     0.023 C 
BRANCH   8  10
ATOM     10  C   UNL A   1      31.781  26.652  24.035  1.00  0.00    -0.035 A 
ATOM     11  C   UNL A   1      32.820  27.308  23.361  1.00  0.00     0.004 A 
ATOM     12  C   UNL A   1      30.477  27.170  23.899  1.00  0.00     0.016 A 
ATOM     13  C   UNL A   1      32.585  28.479  22.639  1.00  0.00     0.001 A 
ATOM     14  C   UNL A   1      30.228  28.340  23.166  1.00  0.00     0.023 A 
ATOM     15  C   UNL A   1      31.295  28.995  22.546  1.00  0.00     0.012 A 
BRANCH  14  16
ATOM     16  C   UNL A   1      28.853  28.879  22.948  1.00  0.00     0.193 C 
ATOM     17  O   UNL A   1      27.871  28.179  23.176  1.00  0.00    -0.289 OA
BRANCH  16  18
ATOM     18  C   UNL A   1      28.623  30.278  22.528  1.00  0.00     0.022 A 
ATOM     19  C   UNL A   1      28.257  30.514  21.198  1.00  0.00     0.012 A 
ATOM     20  C   UNL A   1      28.785  31.346  23.416  1.00  0.00     0.012 A 
ATOM     21  C   UNL A   1      28.007  31.817  20.769  1.00  0.00     0.001 A 
ATOM     22  C   UNL A   1      28.529  32.647  22.983  1.00  0.00     0.001 A 
ATOM     23  C   UNL A   1      28.135  32.881  21.664  1.00  0.00     0.000 A 
ENDBRANCH  16  18
ENDBRANCH  14  16
ENDBRANCH   8  10
ENDBRANCH   5   8
ENDBRANCH   3   4
ENDBRANCH   2   3
ENDBRANCH   1   2
BRANCH   1  24
ATOM     24  C   UNL A   1      31.407  30.824  25.984  1.00  0.00     0.002 C 
BRANCH  24  25
ATOM     25  C   UNL A   1      31.282  32.286  26.414  1.00  0.00     0.021 C 
BRANCH  25  26
ATOM     26  C   UNL A   1      32.457  32.810  27.233  1.00  0.00     0.116 C 
BRANCH  26  27
ATOM     27  N   UNL A   1      32.296  34.209  27.594  1.00  0.00    -0.352 N 
ATOM     28  C   UNL A   1      32.941  34.936  28.561  1.00  0.00     0.251 C 
ATOM     29  H   UNL A   1      31.628  34.706  27.068  1.00  0.00     0.163 HD
ATOM     30  O   UNL A   1      32.547  36.063  28.857  1.00  0.00    -0.269 OA
BRANCH  28  31
ATOM     31  C   UNL A   1      34.101  34.355  29.269  1.00  0.00     0.039 A 
ATOM     32  C   UNL A   1      33.884  33.653  30.457  1.00  0.00     0.014 A 
ATOM     33  C   UNL A   1      35.397  34.502  28.766  1.00  0.00     0.014 A 
ATOM     34  C   UNL A   1      34.958  33.041  31.105  1.00  0.00     0.010 A 
ATOM     35  C   UNL A   1      36.456  33.832  29.374  1.00  0.00     0.010 A 
ATOM     36  C   UNL A   1      36.247  33.093  30.548  1.00  0.00    -0.014 A 
BRANCH  36  37
ATOM     37  C   UNL A   1      37.381  32.364  31.172  1.00  0.00     0.031 A 
ATOM     38  C   UNL A   1      37.880  32.757  32.535  1.00  0.00     0.074 A 
ATOM     39  C   UNL A   1      38.001  31.387  30.481  1.00  0.00     0.049 A 
ATOM     40  N   UNL A   1      38.896  32.283  33.211  1.00  0.00    -0.248 NA
ATOM     41  C   UNL A   1      37.159  33.842  33.218  1.00  0.00     0.031 C 
ATOM     42  C   UNL A   1      37.641  30.947  29.131  1.00  0.00     0.029 A 
ATOM     43  N   UNL A   1      39.073  30.595  30.811  1.00  0.00    -0.354 N 
ATOM     44  C   UNL A   1      38.942  33.018  34.389  1.00  0.00     0.074 A 
ATOM     45  C   UNL A   1      37.883  34.001  34.317  1.00  0.00     0.031 C 
ATOM     46  C   UNL A   1      38.463  29.953  28.758  1.00  0.00     0.029 A 
ATOM     47  C   UNL A   1      39.433  29.713  29.821  1.00  0.00     0.049 A 
ATOM     48  H   UNL A   1      39.540  30.653  31.676  1.00  0.00     0.167 HD
ATOM     49  C   UNL A   1      39.779  32.869  35.444  1.00  0.00     0.037 A 
ATOM     50  C   UNL A   1      40.440  28.820  29.771  1.00  0.00     0.037 A 
ATOM     51  C   UNL A   1      40.813  31.870  35.525  1.00  0.00     0.049 A 
ATOM     52  C   UNL A   1      41.360  28.685  30.958  1.00  0.00     0.074 A 
ATOM     53  C   UNL A   1      41.666  31.597  36.580  1.00  0.00     0.029 A 
ATOM     54  N   UNL A   1      41.136  30.982  34.510  1.00  0.00    -0.354 N 
ATOM     55  N   UNL A   1      41.342  29.333  32.096  1.00  0.00    -0.248 NA
ATOM     56  C   UNL A   1      42.435  27.688  30.851  1.00  0.00     0.031 C 
ATOM     57  C   UNL A   1      42.540  30.580  36.184  1.00  0.00     0.029 A 
ATOM     58  C   UNL A   1      42.194  30.179  34.904  1.00  0.00     0.049 A 
ATOM     59  H   UNL A   1      40.680  30.930  33.638  1.00  0.00     0.167 HD
ATOM     60  C   UNL A   1      42.379  28.802  32.852  1.00  0.00     0.074 A 
ATOM     61  C   UNL A   1      42.994  27.766  32.050  1.00  0.00     0.031 C 
ATOM     62  C   UNL A   1      42.787  29.144  34.099  1.00  0.00     0.037 A 
BRANCH  49  63
ATOM     63  C   UNL A   1      39.616  33.803  36.608  1.00  0.00     0.064 A 
ATOM     64  C   UNL A   1      38.833  33.461  37.721  1.00  0.00     0.173 A 
ATOM     65  C   UNL A   1      40.309  35.022  36.644  1.00  0.00     0.173 A 
ATOM     66  F   UNL A   1      38.141  32.311  37.732  1.00  0.00    -0.203 F 
ATOM     67  C   UNL A   1      38.738  34.311  38.820  1.00  0.00     0.198 A 
ATOM     68  C   UNL A   1      40.236  35.856  37.756  1.00  0.00     0.198 A 
ATOM     69  F   UNL A   1      41.076  35.395  35.608  1.00  0.00    -0.203 F 
ATOM     70  F   UNL A   1      37.957  33.980  39.857  1.00  0.00    -0.200 F 
ATOM     71  C   UNL A   1      39.448  35.503  38.841  1.00  0.00     0.200 A 
ATOM     72  F   UNL A   1      40.934  37.000  37.781  1.00  0.00    -0.200 F 
ATOM     73  F   UNL A   1      39.370  36.312  39.906  1.00  0.00    -0.200 F 
ENDBRANCH  49  63
BRANCH  50  74
ATOM     74  C   UNL A   1      40.637  27.976  28.563  1.00  0.00     0.064 A 
ATOM     75  C   UNL A   1      41.413  28.427  27.485  1.00  0.00     0.173 A 
ATOM     76  C   UNL A   1      40.027  26.719  28.445  1.00  0.00     0.173 A 
ATOM     77  F   UNL A   1      42.000  29.631  27.541  1.00  0.00    -0.203 F 
ATOM     78  C   UNL A   1      41.544  27.668  26.324  1.00  0.00     0.198 A 
ATOM     79  C   UNL A   1      40.186  25.945  27.296  1.00  0.00     0.198 A 
ATOM     80  F   UNL A   1      39.279  26.236  29.447  1.00  0.00    -0.203 F 
ATOM     81  F   UNL A   1      42.240  28.151  25.285  1.00  0.00    -0.200 F 
ATOM     82  C   UNL A   1      40.934  26.426  26.232  1.00  0.00     0.200 A 
ATOM     83  F   UNL A   1      39.608  24.739  27.218  1.00  0.00    -0.200 F 
ATOM     84  F   UNL A   1      41.057  25.698  25.114  1.00  0.00    -0.200 F 
ENDBRANCH  50  74
BRANCH  62  85
ATOM     85  C   UNL A   1      43.928  28.365  34.688  1.00  0.00     0.064 A 
ATOM     86  C   UNL A   1      45.257  28.797  34.567  1.00  0.00     0.173 A 
ATOM     87  C   UNL A   1      43.683  27.190  35.415  1.00  0.00     0.173 A 
ATOM     88  F   UNL A   1      45.546  29.907  33.869  1.00  0.00    -0.203 F 
ATOM     89  C   UNL A   1      46.301  28.066  35.128  1.00  0.00     0.198 A 
ATOM     90  C   UNL A   1      44.726  26.479  36.002  1.00  0.00     0.198 A 
ATOM     91  F   UNL A   1      42.430  26.737  35.567  1.00  0.00    -0.203 F 
ATOM     92  F   UNL A   1      47.567  28.471  34.954  1.00  0.00    -0.200 F 
ATOM     93  C   UNL A   1      46.034  26.913  35.850  1.00  0.00     0.200 A 
ATOM     94  F   UNL A   1      44.465  25.374  36.713  1.00  0.00    -0.200 F 
ATOM     95  F   UNL A   1      47.040  26.215  36.395  1.00  0.00    -0.200 F 
ENDBRANCH  62  85
ENDBRANCH  36  37
ENDBRANCH  28  31
ENDBRANCH  26  27
ENDBRANCH  25  26
ENDBRANCH  24  25
ENDBRANCH   1  24
TORSDOF 16
ENDMDL
MODEL 2
REMARK VINA RESULT:     -12.5      1.571      7.881
REMARK SMILES C[C@@H](C(=O)NCCCCCCNC(=O)c1ccc(-c2c3nc(c(-c4c(F)c(F)c(F)c(F)c4F)c4ccc([nH]4)c(-c4c(F)c(F)c(F)c(F)c4F)c4nc(c(-c5c(F)c(F)c(F)c(F)c5F)c5ccc2[nH]5)C=C4)C=C3)cc1)c1cccc(C(=O)c2ccccc2)c1
REMARK SMILES IDX 8 1 7 2 6 3 5 4 3 5 4 6 2 8 1 9 78 10 79 11 91 12 80 13
REMARK SMILES IDX 82 14 81 15 83 16 84 17 85 18 86 19 90 20 87 21 89 22 88 23
REMARK SMILES IDX 9 24 10 25 11 26 12 27 13 28 14 30 15 31 16 32 77 33 17 34
REMARK SMILES IDX 76 35 18 36 19 37 20 38 70 39 21 40 75 41 69 42 71 43 22 44
REMARK SMILES IDX 74 45 68 46 67 47 23 49 55 50 35 51 54 52 36 53 39 54 53 55
REMARK SMILES IDX 72 56 37 57 38 58 52 60 73 61 40 62 24 63 25 64 33 65 26 66
REMARK SMILES IDX 27 67 31 68 34 69 28 70 29 71 32 72 30 73 56 74 57 75 65 76
REMARK SMILES IDX 58 77 59 78 63 79 66 80 60 81 61 82 64 83 62 84 41 85 42 86
REMARK SMILES IDX 50 87 43 88 44 89 48 90 51 91 45 92 46 93 49 94 47 95
REMARK H PARENT 5 7 12 29 71 48 39 59
REMARK Flexibility Score: inf
ROOT
ATOM      1  C   UNL A   1      32.535  29.801  26.890  1.00  0.00     0.002 C 
ENDROOT
BRANCH   1   2
ATOM      2  C   UNL A   1      31.802  28.564  27.432  1.00  0.00     0.021 C 
BRANCH   2   3
ATOM      3  C   UNL A   1      32.321  27.231  26.887  1.00  0.00     0.116 C 
BRANCH   3   4
ATOM      4  N   UNL A   1      31.278  26.229  26.913  1.00  0.00    -0.356 N 
ATOM      5  C   UNL A   1      30.223  26.010  26.076  1.00  0.00     0.227 C 
ATOM      6  O   UNL A   1      29.421  25.154  26.451  1.00  0.00    -0.274 OA
ATOM      7  H   UNL A   1      31.341  25.593  27.663  1.00  0.00     0.163 HD
BRANCH   5   8
ATOM      8  C   UNL A   1      30.122  26.781  24.747  1.00  0.00     0.105 C 
ATOM      9  C   UNL A   1      28.895  26.384  23.925  1.00  0.00     0.023 C 
BRANCH   8  10
ATOM     10  C   UNL A   1      31.353  26.723  23.836  1.00  0.00    -0.035 A 
ATOM     11  C   UNL A   1      31.906  27.848  23.212  1.00  0.00     0.004 A 
ATOM     12  C   UNL A   1      32.025  25.492  23.693  1.00  0.00     0.016 A 
ATOM     13  C   UNL A   1      33.044  27.742  22.411  1.00  0.00     0.001 A 
ATOM     14  C   UNL A   1      33.177  25.376  22.901  1.00  0.00     0.023 A 
ATOM     15  C   UNL A   1      33.674  26.510  22.253  1.00  0.00     0.012 A 
BRANCH  14  16
ATOM     16  C   UNL A   1      33.949  24.105  22.779  1.00  0.00     0.193 C 
ATOM     17  O   UNL A   1      33.725  23.331  21.852  1.00  0.00    -0.289 OA
BRANCH  16  18
ATOM     18  C   UNL A   1      35.045  23.767  23.712  1.00  0.00     0.022 A 
ATOM     19  C   UNL A   1      36.045  22.895  23.265  1.00  0.00     0.012 A 
ATOM     20  C   UNL A   1      35.083  24.277  25.013  1.00  0.00     0.012 A 
ATOM     21  C   UNL A   1      37.109  22.571  24.107  1.00  0.00     0.001 A 
ATOM     22  C   UNL A   1      36.153  23.954  25.849  1.00  0.00     0.001 A 
ATOM     23  C   UNL A   1      37.166  23.108  25.394  1.00  0.00     0.000 A 
ENDBRANCH  16  18
ENDBRANCH  14  16
ENDBRANCH   8  10
ENDBRANCH   5   8
ENDBRANCH   3   4
ENDBRANCH   2   3
ENDBRANCH   1   2
BRANCH   1  24
ATOM     24  C   UNL A   1      31.669  30.770  26.080  1.00  0.00     0.002 C 
BRANCH  24  25
ATOM     25  C   UNL A   1      31.412  32.119  26.752  1.00  0.00     0.021 C 
BRANCH  25  26
ATOM     26  C   UNL A   1      32.664  32.823  27.265  1.00  0.00     0.116 C 
BRANCH  26  27
ATOM     27  N   UNL A   1      32.414  34.215  27.603  1.00  0.00    -0.352 N 
ATOM     28  C   UNL A   1      32.988  34.987  28.579  1.00  0.00     0.251 C 
ATOM     29  H   UNL A   1      31.736  34.668  27.050  1.00  0.00     0.163 HD
ATOM     30  O   UNL A   1      32.522  36.094  28.849  1.00  0.00    -0.269 OA
BRANCH  28  31
ATOM     31  C   UNL A   1      34.155  34.480  29.330  1.00  0.00     0.039 A 
ATOM     32  C   UNL A   1      33.951  33.896  30.582  1.00  0.00     0.014 A 
ATOM     33  C   UNL A   1      35.446  34.580  28.804  1.00  0.00     0.014 A 
ATOM     34  C   UNL A   1      35.032  33.352  31.277  1.00  0.00     0.010 A 
ATOM     35  C   UNL A   1      36.513  33.975  29.464  1.00  0.00     0.010 A 
ATOM     36  C   UNL A   1      36.316  33.352  30.706  1.00  0.00    -0.014 A 
BRANCH  36  37
ATOM     37  C   UNL A   1      37.458  32.690  31.387  1.00  0.00     0.031 A 
ATOM     38  C   UNL A   1      38.139  31.508  30.754  1.00  0.00     0.074 A 
ATOM     39  C   UNL A   1      37.840  33.117  32.606  1.00  0.00     0.049 A 
ATOM     40  N   UNL A   1      39.105  30.761  31.225  1.00  0.00    -0.248 NA
ATOM     41  C   UNL A   1      37.653  31.094  29.428  1.00  0.00     0.031 C 
ATOM     42  C   UNL A   1      37.228  34.223  33.346  1.00  0.00     0.029 A 
ATOM     43  N   UNL A   1      38.828  32.666  33.447  1.00  0.00    -0.354 N 
ATOM     44  C   UNL A   1      39.334  29.787  30.262  1.00  0.00     0.074 A 
ATOM     45  C   UNL A   1      38.375  30.005  29.201  1.00  0.00     0.031 C 
ATOM     46  C   UNL A   1      37.865  34.375  34.518  1.00  0.00     0.029 A 
ATOM     47  C   UNL A   1      38.902  33.355  34.633  1.00  0.00     0.049 A 
ATOM     48  H   UNL A   1      39.428  31.918  33.221  1.00  0.00     0.167 HD
ATOM     49  C   UNL A   1      40.275  28.811  30.255  1.00  0.00     0.037 A 
ATOM     50  C   UNL A   1      39.705  33.177  35.698  1.00  0.00     0.037 A 
ATOM     51  C   UNL A   1      41.247  28.614  31.299  1.00  0.00     0.049 A 
ATOM     52  C   UNL A   1      40.736  32.078  35.664  1.00  0.00     0.074 A 
ATOM     53  C   UNL A   1      42.283  27.698  31.349  1.00  0.00     0.029 A 
ATOM     54  N   UNL A   1      41.301  29.345  32.476  1.00  0.00    -0.354 N 
ATOM     55  N   UNL A   1      40.992  31.213  34.713  1.00  0.00    -0.248 NA
ATOM     56  C   UNL A   1      41.591  31.935  36.850  1.00  0.00     0.031 C 
ATOM     57  C   UNL A   1      42.930  27.838  32.580  1.00  0.00     0.029 A 
ATOM     58  C   UNL A   1      42.336  28.880  33.273  1.00  0.00     0.049 A 
ATOM     59  H   UNL A   1      40.695  30.084  32.712  1.00  0.00     0.167 HD
ATOM     60  C   UNL A   1      42.056  30.448  35.171  1.00  0.00     0.074 A 
ATOM     61  C   UNL A   1      42.410  30.961  36.477  1.00  0.00     0.031 C 
ATOM     62  C   UNL A   1      42.683  29.410  34.565  1.00  0.00     0.037 A 
BRANCH  49  63
ATOM     63  C   UNL A   1      40.311  27.877  29.080  1.00  0.00     0.064 A 
ATOM     64  C   UNL A   1      39.552  26.697  29.056  1.00  0.00     0.173 A 
ATOM     65  C   UNL A   1      41.054  28.203  27.937  1.00  0.00     0.173 A 
ATOM     66  F   UNL A   1      38.832  26.335  30.128  1.00  0.00    -0.203 F 
ATOM     67  C   UNL A   1      39.549  25.870  27.935  1.00  0.00     0.198 A 
ATOM     68  C   UNL A   1      41.025  27.390  26.807  1.00  0.00     0.198 A 
ATOM     69  F   UNL A   1      41.792  29.323  27.905  1.00  0.00    -0.203 F 
ATOM     70  F   UNL A   1      38.845  24.731  27.947  1.00  0.00    -0.200 F 
ATOM     71  C   UNL A   1      40.278  26.222  26.808  1.00  0.00     0.200 A 
ATOM     72  F   UNL A   1      41.718  27.739  25.714  1.00  0.00    -0.200 F 
ATOM     73  F   UNL A   1      40.259  25.435  25.724  1.00  0.00    -0.200 F 
ENDBRANCH  49  63
BRANCH  50  74
ATOM     74  C   UNL A   1      39.580  34.058  36.890  1.00  0.00     0.064 A 
ATOM     75  C   UNL A   1      40.267  35.279  36.961  1.00  0.00     0.173 A 
ATOM     76  C   UNL A   1      38.800  33.685  37.994  1.00  0.00     0.173 A 
ATOM     77  F   UNL A   1      41.042  35.670  35.940  1.00  0.00    -0.203 F 
ATOM     78  C   UNL A   1      40.206  36.074  38.103  1.00  0.00     0.198 A 
ATOM     79  C   UNL A   1      38.713  34.498  39.123  1.00  0.00     0.198 A 
ATOM     80  F   UNL A   1      38.117  32.531  37.977  1.00  0.00    -0.203 F 
ATOM     81  F   UNL A   1      40.923  37.205  38.168  1.00  0.00    -0.200 F 
ATOM     82  C   UNL A   1      39.426  35.686  39.181  1.00  0.00     0.200 A 
ATOM     83  F   UNL A   1      37.945  34.126  40.156  1.00  0.00    -0.200 F 
ATOM     84  F   UNL A   1      39.370  36.449  40.281  1.00  0.00    -0.200 F 
ENDBRANCH  50  74
BRANCH  62  85
ATOM     85  C   UNL A   1      43.841  28.787  35.290  1.00  0.00     0.064 A 
ATOM     86  C   UNL A   1      45.156  29.245  35.114  1.00  0.00     0.173 A 
ATOM     87  C   UNL A   1      43.627  27.741  36.200  1.00  0.00     0.173 A 
ATOM     88  F   UNL A   1      45.415  30.233  34.244  1.00  0.00    -0.203 F 
ATOM     89  C   UNL A   1      46.215  28.660  35.802  1.00  0.00     0.198 A 
ATOM     90  C   UNL A   1      44.685  27.180  36.910  1.00  0.00     0.198 A 
ATOM     91  F   UNL A   1      42.389  27.270  36.411  1.00  0.00    -0.203 F 
ATOM     92  F   UNL A   1      47.468  29.079  35.578  1.00  0.00    -0.200 F 
ATOM     93  C   UNL A   1      45.978  27.633  36.703  1.00  0.00     0.200 A 
ATOM     94  F   UNL A   1      44.451  26.200  37.794  1.00  0.00    -0.200 F 
ATOM     95  F   UNL A   1      46.999  27.077  37.370  1.00  0.00    -0.200 F 
ENDBRANCH  62  85
ENDBRANCH  36  37
ENDBRANCH  28  31
ENDBRANCH  26  27
ENDBRANCH  25  26
ENDBRANCH  24  25
ENDBRANCH   1  24
TORSDOF 16
ENDMDL
MODEL 3
REMARK VINA RESULT:     -12.4      2.076      8.410
REMARK SMILES C[C@@H](C(=O)NCCCCCCNC(=O)c1ccc(-c2c3nc(c(-c4c(F)c(F)c(F)c(F)c4F)c4ccc([nH]4)c(-c4c(F)c(F)c(F)c(F)c4F)c4nc(c(-c5c(F)c(F)c(F)c(F)c5F)c5ccc2[nH]5)C=C4)C=C3)cc1)c1cccc(C(=O)c2ccccc2)c1
REMARK SMILES IDX 8 1 7 2 6 3 5 4 3 5 4 6 2 8 1 9 78 10 79 11 91 12 80 13
REMARK SMILES IDX 82 14 81 15 83 16 84 17 85 18 86 19 90 20 87 21 89 22 88 23
REMARK SMILES IDX 9 24 10 25 11 26 12 27 13 28 14 30 15 31 16 32 77 33 17 34
REMARK SMILES IDX 76 35 18 36 19 37 20 38 70 39 21 40 75 41 69 42 71 43 22 44
REMARK SMILES IDX 74 45 68 46 67 47 23 49 55 50 35 51 54 52 36 53 39 54 53 55
REMARK SMILES IDX 72 56 37 57 38 58 52 60 73 61 40 62 24 63 25 64 33 65 26 66
REMARK SMILES IDX 27 67 31 68 34 69 28 70 29 71 32 72 30 73 56 74 57 75 65 76
REMARK SMILES IDX 58 77 59 78 63 79 66 80 60 81 61 82 64 83 62 84 41 85 42 86
REMARK SMILES IDX 50 87 43 88 44 89 48 90 51 91 45 92 46 93 49 94 47 95
REMARK H PARENT 5 7 12 29 71 48 39 59
REMARK Flexibility Score: inf
ROOT
ATOM      1  C   UNL A   1      32.471  29.839  26.995  1.00  0.00     0.002 C 
ENDROOT
BRANCH   1   2
ATOM      2  C   UNL A   1      31.779  28.523  27.380  1.00  0.00     0.021 C 
BRANCH   2   3
ATOM      3  C   UNL A   1      32.226  27.309  26.562  1.00  0.00     0.116 C 
BRANCH   3   4
ATOM      4  N   UNL A   1      31.371  26.172  26.828  1.00  0.00    -0.356 N 
ATOM      5  C   UNL A   1      30.875  25.210  25.998  1.00  0.00     0.227 C 
ATOM      6  O   UNL A   1      30.050  24.449  26.506  1.00  0.00    -0.274 OA
ATOM      7  H   UNL A   1      31.103  26.074  27.770  1.00  0.00     0.163 HD
BRANCH   5   8
ATOM      8  C   UNL A   1      31.383  25.107  24.548  1.00  0.00     0.105 C 
ATOM      9  C   UNL A   1      30.281  24.713  23.562  1.00  0.00     0.023 C 
BRANCH   8  10
ATOM     10  C   UNL A   1      32.588  24.188  24.318  1.00  0.00    -0.035 A 
ATOM     11  C   UNL A   1      33.775  24.610  23.706  1.00  0.00     0.004 A 
ATOM     12  C   UNL A   1      32.540  22.876  24.832  1.00  0.00     0.016 A 
ATOM     13  C   UNL A   1      34.852  23.737  23.543  1.00  0.00     0.001 A 
ATOM     14  C   UNL A   1      33.621  21.994  24.685  1.00  0.00     0.023 A 
ATOM     15  C   UNL A   1      34.773  22.433  24.026  1.00  0.00     0.012 A 
BRANCH  14  16
ATOM     16  C   UNL A   1      33.630  20.622  25.272  1.00  0.00     0.193 C 
ATOM     17  O   UNL A   1      33.657  20.472  26.491  1.00  0.00    -0.289 OA
BRANCH  16  18
ATOM     18  C   UNL A   1      33.534  19.413  24.428  1.00  0.00     0.022 A 
ATOM     19  C   UNL A   1      34.501  18.415  24.594  1.00  0.00     0.012 A 
ATOM     20  C   UNL A   1      32.525  19.266  23.470  1.00  0.00     0.012 A 
ATOM     21  C   UNL A   1      34.430  17.248  23.833  1.00  0.00     0.001 A 
ATOM     22  C   UNL A   1      32.457  18.095  22.715  1.00  0.00     0.001 A 
ATOM     23  C   UNL A   1      33.403  17.086  22.901  1.00  0.00     0.000 A 
ENDBRANCH  16  18
ENDBRANCH  14  16
ENDBRANCH   8  10
ENDBRANCH   5   8
ENDBRANCH   3   4
ENDBRANCH   2   3
ENDBRANCH   1   2
BRANCH   1  24
ATOM     24  C   UNL A   1      31.655  30.765  26.088  1.00  0.00     0.002 C 
BRANCH  24  25
ATOM     25  C   UNL A   1      31.404  32.163  26.654  1.00  0.00     0.021 C 
BRANCH  25  26
ATOM     26  C   UNL A   1      32.620  32.811  27.307  1.00  0.00     0.116 C 
BRANCH  26  27
ATOM     27  N   UNL A   1      32.395  34.214  27.619  1.00  0.00    -0.352 N 
ATOM     28  C   UNL A   1      32.992  34.997  28.573  1.00  0.00     0.251 C 
ATOM     29  H   UNL A   1      31.716  34.665  27.066  1.00  0.00     0.163 HD
ATOM     30  O   UNL A   1      32.546  36.115  28.826  1.00  0.00    -0.269 OA
BRANCH  28  31
ATOM     31  C   UNL A   1      34.162  34.488  29.318  1.00  0.00     0.039 A 
ATOM     32  C   UNL A   1      33.958  33.876  30.557  1.00  0.00     0.014 A 
ATOM     33  C   UNL A   1      35.454  34.614  28.801  1.00  0.00     0.014 A 
ATOM     34  C   UNL A   1      35.043  33.330  31.246  1.00  0.00     0.010 A 
ATOM     35  C   UNL A   1      36.524  34.007  29.454  1.00  0.00     0.010 A 
ATOM     36  C   UNL A   1      36.330  33.357  30.682  1.00  0.00    -0.014 A 
BRANCH  36  37
ATOM     37  C   UNL A   1      37.476  32.694  31.354  1.00  0.00     0.031 A 
ATOM     38  C   UNL A   1      38.177  31.537  30.697  1.00  0.00     0.074 A 
ATOM     39  C   UNL A   1      37.844  33.096  32.586  1.00  0.00     0.049 A 
ATOM     40  N   UNL A   1      39.151  30.793  31.156  1.00  0.00    -0.248 NA
ATOM     41  C   UNL A   1      37.706  31.149  29.358  1.00  0.00     0.031 C 
ATOM     42  C   UNL A   1      37.211  34.175  33.348  1.00  0.00     0.029 A 
ATOM     43  N   UNL A   1      38.832  32.638  33.423  1.00  0.00    -0.354 N 
ATOM     44  C   UNL A   1      39.400  29.845  30.172  1.00  0.00     0.074 A 
ATOM     45  C   UNL A   1      38.445  30.076  29.110  1.00  0.00     0.031 C 
ATOM     46  C   UNL A   1      37.838  34.307  34.528  1.00  0.00     0.029 A 
ATOM     47  C   UNL A   1      38.888  33.299  34.626  1.00  0.00     0.049 A 
ATOM     48  H   UNL A   1      39.444  31.904  33.182  1.00  0.00     0.167 HD
ATOM     49  C   UNL A   1      40.354  28.883  30.148  1.00  0.00     0.037 A 
ATOM     50  C   UNL A   1      39.687  33.106  35.692  1.00  0.00     0.037 A 
ATOM     51  C   UNL A   1      41.321  28.674  31.194  1.00  0.00     0.049 A 
ATOM     52  C   UNL A   1      40.733  32.022  35.638  1.00  0.00     0.074 A 
ATOM     53  C   UNL A   1      42.370  27.771  31.229  1.00  0.00     0.029 A 
ATOM     54  N   UNL A   1      41.358  29.376  32.389  1.00  0.00    -0.354 N 
ATOM     55  N   UNL A   1      41.008  31.185  34.668  1.00  0.00    -0.248 NA
ATOM     56  C   UNL A   1      41.582  31.863  36.827  1.00  0.00     0.031 C 
ATOM     57  C   UNL A   1      43.007  27.889  32.468  1.00  0.00     0.029 A 
ATOM     58  C   UNL A   1      42.394  28.906  33.181  1.00  0.00     0.049 A 
ATOM     59  H   UNL A   1      40.739  30.101  32.638  1.00  0.00     0.167 HD
ATOM     60  C   UNL A   1      42.079  30.423  35.115  1.00  0.00     0.074 A 
ATOM     61  C   UNL A   1      42.416  30.909  36.436  1.00  0.00     0.031 C 
ATOM     62  C   UNL A   1      42.725  29.409  34.488  1.00  0.00     0.037 A 
BRANCH  49  63
ATOM     63  C   UNL A   1      40.411  27.979  28.951  1.00  0.00     0.064 A 
ATOM     64  C   UNL A   1      39.671  26.788  28.893  1.00  0.00     0.173 A 
ATOM     65  C   UNL A   1      41.155  28.344  27.820  1.00  0.00     0.173 A 
ATOM     66  F   UNL A   1      38.951  26.388  29.953  1.00  0.00    -0.203 F 
ATOM     67  C   UNL A   1      39.687  25.989  27.753  1.00  0.00     0.198 A 
ATOM     68  C   UNL A   1      41.145  27.558  26.671  1.00  0.00     0.198 A 
ATOM     69  F   UNL A   1      41.876  29.475  27.820  1.00  0.00    -0.203 F 
ATOM     70  F   UNL A   1      39.001  24.838  27.733  1.00  0.00    -0.200 F 
ATOM     71  C   UNL A   1      40.416  26.380  26.639  1.00  0.00     0.200 A 
ATOM     72  F   UNL A   1      41.838  27.944  25.590  1.00  0.00    -0.200 F 
ATOM     73  F   UNL A   1      40.416  25.619  25.536  1.00  0.00    -0.200 F 
ENDBRANCH  49  63
BRANCH  50  74
ATOM     74  C   UNL A   1      39.541  33.956  36.904  1.00  0.00     0.064 A 
ATOM     75  C   UNL A   1      38.784  33.523  38.003  1.00  0.00     0.173 A 
ATOM     76  C   UNL A   1      40.126  35.228  36.977  1.00  0.00     0.173 A 
ATOM     77  F   UNL A   1      38.189  32.323  37.974  1.00  0.00    -0.203 F 
ATOM     78  C   UNL A   1      38.591  34.344  39.112  1.00  0.00     0.198 A 
ATOM     79  C   UNL A   1      39.959  36.035  38.101  1.00  0.00     0.198 A 
ATOM     80  F   UNL A   1      40.865  35.689  35.957  1.00  0.00    -0.203 F 
ATOM     81  F   UNL A   1      37.810  33.930  40.120  1.00  0.00    -0.200 F 
ATOM     82  C   UNL A   1      39.180  35.598  39.161  1.00  0.00     0.200 A 
ATOM     83  F   UNL A   1      40.544  37.240  38.151  1.00  0.00    -0.200 F 
ATOM     84  F   UNL A   1      38.991  36.388  40.226  1.00  0.00    -0.200 F 
ENDBRANCH  50  74
BRANCH  62  85
ATOM     85  C   UNL A   1      43.886  28.784  35.206  1.00  0.00     0.064 A 
ATOM     86  C   UNL A   1      45.192  29.278  35.067  1.00  0.00     0.173 A 
ATOM     87  C   UNL A   1      43.683  27.700  36.073  1.00  0.00     0.173 A 
ATOM     88  F   UNL A   1      45.442  30.303  34.238  1.00  0.00    -0.203 F 
ATOM     89  C   UNL A   1      46.255  28.690  35.747  1.00  0.00     0.198 A 
ATOM     90  C   UNL A   1      44.743  27.136  36.777  1.00  0.00     0.198 A 
ATOM     91  F   UNL A   1      42.453  27.195  36.248  1.00  0.00    -0.203 F 
ATOM     92  F   UNL A   1      47.501  29.145  35.557  1.00  0.00    -0.200 F 
ATOM     93  C   UNL A   1      46.029  27.625  36.606  1.00  0.00     0.200 A 
ATOM     94  F   UNL A   1      44.520  26.118  37.619  1.00  0.00    -0.200 F 
ATOM     95  F   UNL A   1      47.053  27.066  37.266  1.00  0.00    -0.200 F 
ENDBRANCH  62  85
ENDBRANCH  36  37
ENDBRANCH  28  31
ENDBRANCH  26  27
ENDBRANCH  25  26
ENDBRANCH  24  25
ENDBRANCH   1  24
TORSDOF 16
ENDMDL
