MODEL 1
REMARK VINA RESULT:     -11.8      0.000      0.000
REMARK SMILES Cn1cc(Cl)cc1C(=O)N[C@H]1C=C[C@H](C(=O)NCCCCCCNC(=O)c2ccc(-c3c4nc(c(-c5c(F)c(F)c(F)c(F)c5F)c5ccc([nH]5)c(-c5c(F)c(F)c(F)c(F)c5F)c5nc(c(-c6c(F)c(F)c(F)c(F)c6F)c6ccc3[nH]6)C=C5)C=C4)cc2)C1
REMARK SMILES IDX 20 1 19 2 18 3 17 4 15 5 16 6 14 8 11 9 12 10 90 11 13 12
REMARK SMILES IDX 10 13 8 14 9 15 7 17 1 18 2 19 3 20 4 21 6 22 5 23 21 24
REMARK SMILES IDX 22 25 23 26 24 27 25 28 26 30 27 31 28 32 89 33 29 34 88 35
REMARK SMILES IDX 30 36 31 37 32 38 82 39 33 40 87 41 81 42 83 43 34 44 86 45
REMARK SMILES IDX 80 46 79 47 35 49 67 50 47 51 66 52 48 53 51 54 65 55 84 56
REMARK SMILES IDX 49 57 50 58 64 60 85 61 52 62 36 63 37 64 45 65 38 66 39 67
REMARK SMILES IDX 43 68 46 69 40 70 41 71 44 72 42 73 68 74 69 75 77 76 70 77
REMARK SMILES IDX 71 78 75 79 78 80 72 81 73 82 76 83 74 84 53 85 54 86 62 87
REMARK SMILES IDX 55 88 56 89 60 90 63 91 57 92 58 93 61 94 59 95
REMARK H PARENT 17 7 10 16 24 29 83 48 51 59
REMARK Flexibility Score: inf
ROOT
ATOM      1  C   UNL A   1      34.540  32.062  28.293  1.00  0.00     0.002 C 
ENDROOT
BRANCH   1   2
ATOM      2  C   UNL A   1      34.961  30.894  27.397  1.00  0.00     0.021 C 
BRANCH   2   3
ATOM      3  C   UNL A   1      33.910  29.784  27.356  1.00  0.00     0.116 C 
BRANCH   3   4
ATOM      4  N   UNL A   1      32.634  30.351  26.965  1.00  0.00    -0.356 N 
ATOM      5  C   UNL A   1      31.935  30.160  25.801  1.00  0.00     0.227 C 
ATOM      6  O   UNL A   1      31.055  30.968  25.508  1.00  0.00    -0.274 OA
ATOM      7  H   UNL A   1      32.215  30.954  27.621  1.00  0.00     0.163 HD
BRANCH   5   8
ATOM      8  C   UNL A   1      32.124  28.834  25.066  1.00  0.00     0.103 C 
ATOM      9  C   UNL A   1      31.414  27.539  23.109  1.00  0.00     0.106 C 
ATOM     10  C   UNL A   1      30.886  26.950  24.359  1.00  0.00    -0.006 C 
ATOM     11  C   UNL A   1      32.130  28.814  23.530  1.00  0.00     0.047 C 
ATOM     12  C   UNL A   1      31.178  27.720  25.418  1.00  0.00    -0.016 C 
BRANCH   9  13
ATOM     13  N   UNL A   1      32.095  26.644  22.184  1.00  0.00    -0.345 N 
ATOM     14  C   UNL A   1      32.948  25.604  21.974  1.00  0.00     0.268 C 
ATOM     15  O   UNL A   1      33.194  25.516  20.760  1.00  0.00    -0.268 OA
ATOM     16  H   UNL A   1      31.798  26.922  21.288  1.00  0.00     0.164 HD
BRANCH  14  17
ATOM     17  C   UNL A   1      33.582  24.643  22.873  1.00  0.00     0.108 A 
ATOM     18  C   UNL A   1      32.668  22.333  22.427  1.00  0.00     0.150 C 
ATOM     19  N   UNL A   1      33.532  23.278  23.057  1.00  0.00    -0.345 N 
ATOM     20  C   UNL A   1      34.401  22.859  24.037  1.00  0.00     0.106 A 
ATOM     21  C   UNL A   1      35.032  23.959  24.537  1.00  0.00     0.059 A 
ATOM     22  C   UNL A   1      34.526  25.063  23.828  1.00  0.00     0.054 A 
ATOM     23  Cl  UNL A   1      36.192  23.999  25.768  1.00  0.00    -0.083 Cl
ENDBRANCH  14  17
ENDBRANCH   9  13
ENDBRANCH   5   8
ENDBRANCH   3   4
ENDBRANCH   2   3
ENDBRANCH   1   2
BRANCH   1  24
ATOM     24  C   UNL A   1      35.302  33.366  28.036  1.00  0.00     0.002 C 
BRANCH  24  25
ATOM     25  C   UNL A   1      34.685  34.621  28.669  1.00  0.00     0.021 C 
BRANCH  25  26
ATOM     26  C   UNL A   1      33.326  34.364  29.301  1.00  0.00     0.116 C 
BRANCH  26  27
ATOM     27  N   UNL A   1      33.133  35.167  30.508  1.00  0.00    -0.352 N 
ATOM     28  C   UNL A   1      33.659  34.972  31.762  1.00  0.00     0.251 C 
ATOM     29  H   UNL A   1      32.547  35.953  30.408  1.00  0.00     0.163 HD
ATOM     30  O   UNL A   1      33.142  35.489  32.753  1.00  0.00    -0.269 OA
BRANCH  28  31
ATOM     31  C   UNL A   1      34.858  34.141  31.906  1.00  0.00     0.039 A 
ATOM     32  C   UNL A   1      34.786  32.747  31.844  1.00  0.00     0.014 A 
ATOM     33  C   UNL A   1      36.079  34.787  32.090  1.00  0.00     0.014 A 
ATOM     34  C   UNL A   1      35.965  32.013  31.895  1.00  0.00     0.010 A 
ATOM     35  C   UNL A   1      37.245  34.078  31.982  1.00  0.00     0.010 A 
ATOM     36  C   UNL A   1      37.194  32.690  31.946  1.00  0.00    -0.014 A 
BRANCH  36  37
ATOM     37  C   UNL A   1      38.452  31.964  31.802  1.00  0.00     0.031 A 
ATOM     38  C   UNL A   1      39.116  31.687  33.105  1.00  0.00     0.074 A 
ATOM     39  C   UNL A   1      38.824  31.396  30.632  1.00  0.00     0.049 A 
ATOM     40  N   UNL A   1      40.246  32.146  33.526  1.00  0.00    -0.248 NA
ATOM     41  C   UNL A   1      38.365  30.944  34.135  1.00  0.00     0.031 C 
ATOM     42  C   UNL A   1      38.045  31.355  29.385  1.00  0.00     0.029 A 
ATOM     43  N   UNL A   1      39.907  30.620  30.328  1.00  0.00    -0.354 N 
ATOM     44  C   UNL A   1      40.465  31.537  34.761  1.00  0.00     0.074 A 
ATOM     45  C   UNL A   1      39.198  31.009  35.177  1.00  0.00     0.031 C 
ATOM     46  C   UNL A   1      38.538  30.401  28.569  1.00  0.00     0.029 A 
ATOM     47  C   UNL A   1      39.768  29.896  29.144  1.00  0.00     0.049 A 
ATOM     48  H   UNL A   1      40.712  30.576  30.894  1.00  0.00     0.167 HD
ATOM     49  C   UNL A   1      41.735  31.221  35.139  1.00  0.00     0.037 A 
ATOM     50  C   UNL A   1      40.598  28.934  28.674  1.00  0.00     0.037 A 
ATOM     51  C   UNL A   1      42.683  31.906  34.296  1.00  0.00     0.049 A 
ATOM     52  C   UNL A   1      41.906  29.117  29.339  1.00  0.00     0.074 A 
ATOM     53  C   UNL A   1      43.190  33.179  34.170  1.00  0.00     0.029 A 
ATOM     54  N   UNL A   1      42.925  31.249  33.120  1.00  0.00    -0.354 N 
ATOM     55  N   UNL A   1      42.668  30.157  29.140  1.00  0.00    -0.248 NA
ATOM     56  C   UNL A   1      42.220  28.326  30.524  1.00  0.00     0.031 C 
ATOM     57  C   UNL A   1      43.647  33.295  32.822  1.00  0.00     0.029 A 
ATOM     58  C   UNL A   1      43.456  32.077  32.174  1.00  0.00     0.049 A 
ATOM     59  H   UNL A   1      42.737  30.293  32.974  1.00  0.00     0.167 HD
ATOM     60  C   UNL A   1      43.246  30.392  30.371  1.00  0.00     0.074 A 
ATOM     61  C   UNL A   1      43.082  29.154  31.122  1.00  0.00     0.031 C 
ATOM     62  C   UNL A   1      43.484  31.667  30.790  1.00  0.00     0.037 A 
BRANCH  49  63
ATOM     63  C   UNL A   1      42.151  29.927  35.828  1.00  0.00     0.064 A 
ATOM     64  C   UNL A   1      43.174  29.987  36.803  1.00  0.00     0.173 A 
ATOM     65  C   UNL A   1      41.866  28.632  35.344  1.00  0.00     0.173 A 
ATOM     66  F   UNL A   1      43.535  31.162  37.344  1.00  0.00    -0.203 F 
ATOM     67  C   UNL A   1      43.917  28.862  37.175  1.00  0.00     0.198 A 
ATOM     68  C   UNL A   1      42.582  27.505  35.751  1.00  0.00     0.198 A 
ATOM     69  F   UNL A   1      40.965  28.403  34.384  1.00  0.00    -0.203 F 
ATOM     70  F   UNL A   1      44.963  28.997  38.001  1.00  0.00    -0.200 F 
ATOM     71  C   UNL A   1      43.629  27.623  36.637  1.00  0.00     0.200 A 
ATOM     72  F   UNL A   1      42.296  26.314  35.203  1.00  0.00    -0.200 F 
ATOM     73  F   UNL A   1      44.382  26.557  36.934  1.00  0.00    -0.200 F 
ENDBRANCH  49  63
BRANCH  50  74
ATOM     74  C   UNL A   1      40.273  27.729  27.874  1.00  0.00     0.064 A 
ATOM     75  C   UNL A   1      40.951  27.440  26.678  1.00  0.00     0.173 A 
ATOM     76  C   UNL A   1      39.491  26.692  28.417  1.00  0.00     0.173 A 
ATOM     77  F   UNL A   1      41.748  28.360  26.116  1.00  0.00    -0.203 F 
ATOM     78  C   UNL A   1      40.876  26.177  26.079  1.00  0.00     0.198 A 
ATOM     79  C   UNL A   1      39.415  25.433  27.818  1.00  0.00     0.198 A 
ATOM     80  F   UNL A   1      38.863  26.852  29.592  1.00  0.00    -0.203 F 
ATOM     81  F   UNL A   1      41.587  25.917  24.972  1.00  0.00    -0.200 F 
ATOM     82  C   UNL A   1      40.119  25.171  26.658  1.00  0.00     0.200 A 
ATOM     83  F   UNL A   1      38.710  24.458  28.409  1.00  0.00    -0.200 F 
ATOM     84  F   UNL A   1      40.102  23.942  26.123  1.00  0.00    -0.200 F 
ENDBRANCH  50  74
BRANCH  62  85
ATOM     85  C   UNL A   1      43.631  32.727  29.747  1.00  0.00     0.064 A 
ATOM     86  C   UNL A   1      42.626  33.635  29.381  1.00  0.00     0.173 A 
ATOM     87  C   UNL A   1      44.893  32.878  29.159  1.00  0.00     0.173 A 
ATOM     88  F   UNL A   1      41.418  33.596  29.957  1.00  0.00    -0.203 F 
ATOM     89  C   UNL A   1      42.874  34.634  28.441  1.00  0.00     0.198 A 
ATOM     90  C   UNL A   1      45.147  33.895  28.249  1.00  0.00     0.198 A 
ATOM     91  F   UNL A   1      45.897  32.056  29.504  1.00  0.00    -0.203 F 
ATOM     92  F   UNL A   1      41.898  35.486  28.092  1.00  0.00    -0.200 F 
ATOM     93  C   UNL A   1      44.136  34.768  27.882  1.00  0.00     0.200 A 
ATOM     94  F   UNL A   1      46.380  34.043  27.746  1.00  0.00    -0.200 F 
ATOM     95  F   UNL A   1      44.385  35.751  27.006  1.00  0.00    -0.200 F 
ENDBRANCH  62  85
ENDBRANCH  36  37
ENDBRANCH  28  31
ENDBRANCH  26  27
ENDBRANCH  25  26
ENDBRANCH  24  25
ENDBRANCH   1  24
TORSDOF 15
ENDMDL
MODEL 2
REMARK VINA RESULT:     -11.7      1.488      2.114
REMARK SMILES Cn1cc(Cl)cc1C(=O)N[C@H]1C=C[C@H](C(=O)NCCCCCCNC(=O)c2ccc(-c3c4nc(c(-c5c(F)c(F)c(F)c(F)c5F)c5ccc([nH]5)c(-c5c(F)c(F)c(F)c(F)c5F)c5nc(c(-c6c(F)c(F)c(F)c(F)c6F)c6ccc3[nH]6)C=C5)C=C4)cc2)C1
REMARK SMILES IDX 20 1 19 2 18 3 17 4 15 5 16 6 14 8 11 9 12 10 90 11 13 12
REMARK SMILES IDX 10 13 8 14 9 15 7 17 1 18 2 19 3 20 4 21 6 22 5 23 21 24
REMARK SMILES IDX 22 25 23 26 24 27 25 28 26 30 27 31 28 32 89 33 29 34 88 35
REMARK SMILES IDX 30 36 31 37 32 38 82 39 33 40 87 41 81 42 83 43 34 44 86 45
REMARK SMILES IDX 80 46 79 47 35 49 67 50 47 51 66 52 48 53 51 54 65 55 84 56
REMARK SMILES IDX 49 57 50 58 64 60 85 61 52 62 36 63 37 64 45 65 38 66 39 67
REMARK SMILES IDX 43 68 46 69 40 70 41 71 44 72 42 73 68 74 69 75 77 76 70 77
REMARK SMILES IDX 71 78 75 79 78 80 72 81 73 82 76 83 74 84 53 85 54 86 62 87
REMARK SMILES IDX 55 88 56 89 60 90 63 91 57 92 58 93 61 94 59 95
REMARK H PARENT 17 7 10 16 24 29 83 48 51 59
REMARK Flexibility Score: inf
ROOT
ATOM      1  C   UNL A   1      34.889  32.732  27.628  1.00  0.00     0.002 C 
ENDROOT
BRANCH   1   2
ATOM      2  C   UNL A   1      34.629  31.472  28.458  1.00  0.00     0.021 C 
BRANCH   2   3
ATOM      3  C   UNL A   1      34.744  30.193  27.627  1.00  0.00     0.116 C 
BRANCH   3   4
ATOM      4  N   UNL A   1      33.838  30.277  26.498  1.00  0.00    -0.356 N 
ATOM      5  C   UNL A   1      33.350  29.262  25.716  1.00  0.00     0.227 C 
ATOM      6  O   UNL A   1      32.873  29.547  24.619  1.00  0.00    -0.274 OA
ATOM      7  H   UNL A   1      33.533  31.183  26.261  1.00  0.00     0.163 HD
BRANCH   5   8
ATOM      8  C   UNL A   1      33.212  27.879  26.350  1.00  0.00     0.103 C 
ATOM      9  C   UNL A   1      33.075  25.481  25.855  1.00  0.00     0.106 C 
ATOM     10  C   UNL A   1      31.776  26.003  26.333  1.00  0.00    -0.006 C 
ATOM     11  C   UNL A   1      33.990  26.693  25.758  1.00  0.00     0.047 C 
ATOM     12  C   UNL A   1      31.818  27.334  26.495  1.00  0.00    -0.016 C 
BRANCH   9  13
ATOM     13  N   UNL A   1      33.591  24.282  26.498  1.00  0.00    -0.345 N 
ATOM     14  C   UNL A   1      33.711  22.926  26.526  1.00  0.00     0.268 C 
ATOM     15  O   UNL A   1      34.215  22.582  27.608  1.00  0.00    -0.268 OA
ATOM     16  H   UNL A   1      34.090  24.603  27.284  1.00  0.00     0.164 HD
BRANCH  14  17
ATOM     17  C   UNL A   1      33.366  21.879  25.567  1.00  0.00     0.108 A 
ATOM     18  C   UNL A   1      31.583  22.725  23.993  1.00  0.00     0.150 C 
ATOM     19  N   UNL A   1      32.532  21.773  24.476  1.00  0.00    -0.345 N 
ATOM     20  C   UNL A   1      32.629  20.542  23.871  1.00  0.00     0.106 A 
ATOM     21  C   UNL A   1      33.527  19.798  24.577  1.00  0.00     0.059 A 
ATOM     22  C   UNL A   1      33.980  20.615  25.628  1.00  0.00     0.054 A 
ATOM     23  Cl  UNL A   1      34.006  18.206  24.261  1.00  0.00    -0.083 Cl
ENDBRANCH  14  17
ENDBRANCH   9  13
ENDBRANCH   5   8
ENDBRANCH   3   4
ENDBRANCH   2   3
ENDBRANCH   1   2
BRANCH   1  24
ATOM     24  C   UNL A   1      35.499  33.896  28.415  1.00  0.00     0.002 C 
BRANCH  24  25
ATOM     25  C   UNL A   1      34.537  35.051  28.726  1.00  0.00     0.021 C 
BRANCH  25  26
ATOM     26  C   UNL A   1      33.214  34.585  29.313  1.00  0.00     0.116 C 
BRANCH  26  27
ATOM     27  N   UNL A   1      32.912  35.267  30.571  1.00  0.00    -0.352 N 
ATOM     28  C   UNL A   1      33.372  34.981  31.833  1.00  0.00     0.251 C 
ATOM     29  H   UNL A   1      32.297  36.033  30.503  1.00  0.00     0.163 HD
ATOM     30  O   UNL A   1      32.774  35.385  32.831  1.00  0.00    -0.269 OA
BRANCH  28  31
ATOM     31  C   UNL A   1      34.598  34.191  31.979  1.00  0.00     0.039 A 
ATOM     32  C   UNL A   1      34.568  32.794  31.953  1.00  0.00     0.014 A 
ATOM     33  C   UNL A   1      35.801  34.879  32.127  1.00  0.00     0.014 A 
ATOM     34  C   UNL A   1      35.770  32.098  32.004  1.00  0.00     0.010 A 
ATOM     35  C   UNL A   1      36.986  34.203  32.018  1.00  0.00     0.010 A 
ATOM     36  C   UNL A   1      36.978  32.813  32.018  1.00  0.00    -0.014 A 
BRANCH  36  37
ATOM     37  C   UNL A   1      38.255  32.123  31.872  1.00  0.00     0.031 A 
ATOM     38  C   UNL A   1      38.933  31.872  33.173  1.00  0.00     0.074 A 
ATOM     39  C   UNL A   1      38.638  31.559  30.704  1.00  0.00     0.049 A 
ATOM     40  N   UNL A   1      40.051  32.365  33.587  1.00  0.00    -0.248 NA
ATOM     41  C   UNL A   1      38.208  31.114  34.211  1.00  0.00     0.031 C 
ATOM     42  C   UNL A   1      37.856  31.489  29.461  1.00  0.00     0.029 A 
ATOM     43  N   UNL A   1      39.742  30.813  30.399  1.00  0.00    -0.354 N 
ATOM     44  C   UNL A   1      40.293  31.769  34.825  1.00  0.00     0.074 A 
ATOM     45  C   UNL A   1      39.043  31.207  35.249  1.00  0.00     0.031 C 
ATOM     46  C   UNL A   1      38.371  30.545  28.647  1.00  0.00     0.029 A 
ATOM     47  C   UNL A   1      39.618  30.079  29.219  1.00  0.00     0.049 A 
ATOM     48  H   UNL A   1      40.550  30.795  30.962  1.00  0.00     0.167 HD
ATOM     49  C   UNL A   1      41.573  31.491  35.198  1.00  0.00     0.037 A 
ATOM     50  C   UNL A   1      40.473  29.138  28.750  1.00  0.00     0.037 A 
ATOM     51  C   UNL A   1      42.497  32.199  34.347  1.00  0.00     0.049 A 
ATOM     52  C   UNL A   1      41.778  29.362  29.409  1.00  0.00     0.074 A 
ATOM     53  C   UNL A   1      42.967  33.484  34.213  1.00  0.00     0.029 A 
ATOM     54  N   UNL A   1      42.753  31.542  33.173  1.00  0.00    -0.354 N 
ATOM     55  N   UNL A   1      42.510  30.422  29.201  1.00  0.00    -0.248 NA
ATOM     56  C   UNL A   1      42.119  28.587  30.597  1.00  0.00     0.031 C 
ATOM     57  C   UNL A   1      43.415  33.606  32.862  1.00  0.00     0.029 A 
ATOM     58  C   UNL A   1      43.256  32.380  32.221  1.00  0.00     0.049 A 
ATOM     59  H   UNL A   1      42.592  30.581  33.034  1.00  0.00     0.167 HD
ATOM     60  C   UNL A   1      43.085  30.680  30.428  1.00  0.00     0.074 A 
ATOM     61  C   UNL A   1      42.961  29.441  31.186  1.00  0.00     0.031 C 
ATOM     62  C   UNL A   1      43.289  31.963  30.839  1.00  0.00     0.037 A 
BRANCH  49  63
ATOM     63  C   UNL A   1      42.028  30.214  35.892  1.00  0.00     0.064 A 
ATOM     64  C   UNL A   1      43.071  30.304  36.844  1.00  0.00     0.173 A 
ATOM     65  C   UNL A   1      41.758  28.907  35.429  1.00  0.00     0.173 A 
ATOM     66  F   UNL A   1      43.420  31.491  37.364  1.00  0.00    -0.203 F 
ATOM     67  C   UNL A   1      43.844  29.198  37.212  1.00  0.00     0.198 A 
ATOM     68  C   UNL A   1      42.504  27.799  35.832  1.00  0.00     0.198 A 
ATOM     69  F   UNL A   1      40.841  28.651  34.491  1.00  0.00    -0.203 F 
ATOM     70  F   UNL A   1      44.904  29.362  38.014  1.00  0.00    -0.200 F 
ATOM     71  C   UNL A   1      43.568  27.948  36.694  1.00  0.00     0.200 A 
ATOM     72  F   UNL A   1      42.230  26.597  35.304  1.00  0.00    -0.200 F 
ATOM     73  F   UNL A   1      44.347  26.899  36.987  1.00  0.00    -0.200 F 
ENDBRANCH  49  63
BRANCH  50  74
ATOM     74  C   UNL A   1      40.179  27.920  27.959  1.00  0.00     0.064 A 
ATOM     75  C   UNL A   1      40.815  27.675  26.730  1.00  0.00     0.173 A 
ATOM     76  C   UNL A   1      39.483  26.838  28.530  1.00  0.00     0.173 A 
ATOM     77  F   UNL A   1      41.532  28.641  26.137  1.00  0.00    -0.203 F 
ATOM     78  C   UNL A   1      40.783  26.412  26.127  1.00  0.00     0.198 A 
ATOM     79  C   UNL A   1      39.449  25.580  27.927  1.00  0.00     0.198 A 
ATOM     80  F   UNL A   1      38.903  26.957  29.735  1.00  0.00    -0.203 F 
ATOM     81  F   UNL A   1      41.454  26.198  24.986  1.00  0.00    -0.200 F 
ATOM     82  C   UNL A   1      40.112  25.362  26.734  1.00  0.00     0.200 A 
ATOM     83  F   UNL A   1      38.829  24.564  28.544  1.00  0.00    -0.200 F 
ATOM     84  F   UNL A   1      40.138  24.137  26.192  1.00  0.00    -0.200 F 
ENDBRANCH  50  74
BRANCH  62  85
ATOM     85  C   UNL A   1      43.402  33.021  29.790  1.00  0.00     0.064 A 
ATOM     86  C   UNL A   1      44.511  33.201  28.950  1.00  0.00     0.173 A 
ATOM     87  C   UNL A   1      42.281  33.833  29.574  1.00  0.00     0.173 A 
ATOM     88  F   UNL A   1      45.589  32.412  29.052  1.00  0.00    -0.203 F 
ATOM     89  C   UNL A   1      44.503  34.176  27.954  1.00  0.00     0.198 A 
ATOM     90  C   UNL A   1      42.262  34.780  28.559  1.00  0.00     0.198 A 
ATOM     91  F   UNL A   1      41.183  33.674  30.329  1.00  0.00    -0.203 F 
ATOM     92  F   UNL A   1      45.577  34.344  27.168  1.00  0.00    -0.200 F 
ATOM     93  C   UNL A   1      43.375  34.959  27.754  1.00  0.00     0.200 A 
ATOM     94  F   UNL A   1      41.154  35.502  28.346  1.00  0.00    -0.200 F 
ATOM     95  F   UNL A   1      43.352  35.871  26.773  1.00  0.00    -0.200 F 
ENDBRANCH  62  85
ENDBRANCH  36  37
ENDBRANCH  28  31
ENDBRANCH  26  27
ENDBRANCH  25  26
ENDBRANCH  24  25
ENDBRANCH   1  24
TORSDOF 15
ENDMDL
MODEL 3
REMARK VINA RESULT:     -11.6      3.926      9.609
REMARK SMILES Cn1cc(Cl)cc1C(=O)N[C@H]1C=C[C@H](C(=O)NCCCCCCNC(=O)c2ccc(-c3c4nc(c(-c5c(F)c(F)c(F)c(F)c5F)c5ccc([nH]5)c(-c5c(F)c(F)c(F)c(F)c5F)c5nc(c(-c6c(F)c(F)c(F)c(F)c6F)c6ccc3[nH]6)C=C5)C=C4)cc2)C1
REMARK SMILES IDX 20 1 19 2 18 3 17 4 15 5 16 6 14 8 11 9 12 10 90 11 13 12
REMARK SMILES IDX 10 13 8 14 9 15 7 17 1 18 2 19 3 20 4 21 6 22 5 23 21 24
REMARK SMILES IDX 22 25 23 26 24 27 25 28 26 30 27 31 28 32 89 33 29 34 88 35
REMARK SMILES IDX 30 36 31 37 32 38 82 39 33 40 87 41 81 42 83 43 34 44 86 45
REMARK SMILES IDX 80 46 79 47 35 49 67 50 47 51 66 52 48 53 51 54 65 55 84 56
REMARK SMILES IDX 49 57 50 58 64 60 85 61 52 62 36 63 37 64 45 65 38 66 39 67
REMARK SMILES IDX 43 68 46 69 40 70 41 71 44 72 42 73 68 74 69 75 77 76 70 77
REMARK SMILES IDX 71 78 75 79 78 80 72 81 73 82 76 83 74 84 53 85 54 86 62 87
REMARK SMILES IDX 55 88 56 89 60 90 63 91 57 92 58 93 61 94 59 95
REMARK H PARENT 17 7 10 16 24 29 83 48 51 59
REMARK Flexibility Score: inf
ROOT
ATOM      1  C   UNL A   1      39.853  22.608  26.224  1.00  0.00     0.002 C 
ENDROOT
BRANCH   1   2
ATOM      2  C   UNL A   1      38.349  22.366  26.379  1.00  0.00     0.021 C 
BRANCH   2   3
ATOM      3  C   UNL A   1      37.629  22.301  25.031  1.00  0.00     0.116 C 
BRANCH   3   4
ATOM      4  N   UNL A   1      37.456  20.912  24.651  1.00  0.00    -0.356 N 
ATOM      5  C   UNL A   1      36.389  20.086  24.890  1.00  0.00     0.227 C 
ATOM      6  O   UNL A   1      36.556  18.871  24.792  1.00  0.00    -0.274 OA
ATOM      7  H   UNL A   1      38.206  20.509  24.156  1.00  0.00     0.163 HD
BRANCH   5   8
ATOM      8  C   UNL A   1      35.009  20.728  25.027  1.00  0.00     0.103 C 
ATOM      9  C   UNL A   1      33.115  21.037  26.554  1.00  0.00     0.106 C 
ATOM     10  C   UNL A   1      32.758  20.138  25.435  1.00  0.00    -0.006 C 
ATOM     11  C   UNL A   1      34.593  21.348  26.370  1.00  0.00     0.047 C 
ATOM     12  C   UNL A   1      33.824  19.877  24.663  1.00  0.00    -0.016 C 
BRANCH   9  13
ATOM     13  N   UNL A   1      32.212  22.142  26.837  1.00  0.00    -0.345 N 
ATOM     14  C   UNL A   1      31.638  23.315  26.451  1.00  0.00     0.268 C 
ATOM     15  O   UNL A   1      31.030  23.810  27.415  1.00  0.00    -0.268 OA
ATOM     16  H   UNL A   1      31.841  21.953  27.729  1.00  0.00     0.164 HD
BRANCH  14  17
ATOM     17  C   UNL A   1      31.620  24.041  25.183  1.00  0.00     0.108 A 
ATOM     18  C   UNL A   1      29.944  25.925  25.308  1.00  0.00     0.150 C 
ATOM     19  N   UNL A   1      30.974  25.154  24.689  1.00  0.00    -0.345 N 
ATOM     20  C   UNL A   1      31.372  25.453  23.408  1.00  0.00     0.106 A 
ATOM     21  C   UNL A   1      32.285  24.517  23.023  1.00  0.00     0.059 A 
ATOM     22  C   UNL A   1      32.437  23.640  24.110  1.00  0.00     0.054 A 
ATOM     23  Cl  UNL A   1      33.080  24.419  21.532  1.00  0.00    -0.083 Cl
ENDBRANCH  14  17
ENDBRANCH   9  13
ENDBRANCH   5   8
ENDBRANCH   3   4
ENDBRANCH   2   3
ENDBRANCH   1   2
BRANCH   1  24
ATOM     24  C   UNL A   1      40.736  21.650  27.030  1.00  0.00     0.002 C 
BRANCH  24  25
ATOM     25  C   UNL A   1      41.230  20.414  26.265  1.00  0.00     0.021 C 
BRANCH  25  26
ATOM     26  C   UNL A   1      42.519  19.838  26.830  1.00  0.00     0.116 C 
BRANCH  26  27
ATOM     27  N   UNL A   1      43.539  19.680  25.794  1.00  0.00    -0.352 N 
ATOM     28  C   UNL A   1      44.143  20.649  25.032  1.00  0.00     0.251 C 
ATOM     29  H   UNL A   1      43.831  18.756  25.621  1.00  0.00     0.163 HD
ATOM     30  O   UNL A   1      44.699  20.365  23.970  1.00  0.00    -0.269 OA
BRANCH  28  31
ATOM     31  C   UNL A   1      44.126  22.038  25.504  1.00  0.00     0.039 A 
ATOM     32  C   UNL A   1      43.305  22.996  24.907  1.00  0.00     0.014 A 
ATOM     33  C   UNL A   1      44.945  22.367  26.583  1.00  0.00     0.014 A 
ATOM     34  C   UNL A   1      43.260  24.274  25.454  1.00  0.00     0.010 A 
ATOM     35  C   UNL A   1      44.783  23.571  27.214  1.00  0.00     0.010 A 
ATOM     36  C   UNL A   1      43.991  24.546  26.621  1.00  0.00    -0.014 A 
BRANCH  36  37
ATOM     37  C   UNL A   1      43.816  25.808  27.333  1.00  0.00     0.031 A 
ATOM     38  C   UNL A   1      44.793  26.851  26.917  1.00  0.00     0.074 A 
ATOM     39  C   UNL A   1      42.725  26.060  28.092  1.00  0.00     0.049 A 
ATOM     40  N   UNL A   1      45.722  27.391  27.633  1.00  0.00    -0.248 NA
ATOM     41  C   UNL A   1      44.861  27.226  25.492  1.00  0.00     0.031 C 
ATOM     42  C   UNL A   1      41.558  25.184  28.276  1.00  0.00     0.029 A 
ATOM     43  N   UNL A   1      42.351  27.193  28.758  1.00  0.00    -0.354 N 
ATOM     44  C   UNL A   1      46.312  28.358  26.821  1.00  0.00     0.074 A 
ATOM     45  C   UNL A   1      45.910  28.053  25.478  1.00  0.00     0.031 C 
ATOM     46  C   UNL A   1      40.523  25.897  28.766  1.00  0.00     0.029 A 
ATOM     47  C   UNL A   1      41.000  27.222  29.106  1.00  0.00     0.049 A 
ATOM     48  H   UNL A   1      42.976  27.923  28.971  1.00  0.00     0.167 HD
ATOM     49  C   UNL A   1      46.773  29.513  27.377  1.00  0.00     0.037 A 
ATOM     50  C   UNL A   1      40.313  28.269  29.624  1.00  0.00     0.037 A 
ATOM     51  C   UNL A   1      46.865  29.365  28.808  1.00  0.00     0.049 A 
ATOM     52  C   UNL A   1      41.303  29.194  30.218  1.00  0.00     0.074 A 
ATOM     53  C   UNL A   1      47.709  28.762  29.711  1.00  0.00     0.029 A 
ATOM     54  N   UNL A   1      45.675  29.594  29.446  1.00  0.00    -0.354 N 
ATOM     55  N   UNL A   1      42.027  28.891  31.260  1.00  0.00    -0.248 NA
ATOM     56  C   UNL A   1      41.773  30.333  29.436  1.00  0.00     0.031 C 
ATOM     57  C   UNL A   1      46.935  28.532  30.889  1.00  0.00     0.029 A 
ATOM     58  C   UNL A   1      45.656  29.048  30.697  1.00  0.00     0.049 A 
ATOM     59  H   UNL A   1      44.925  30.093  29.050  1.00  0.00     0.167 HD
ATOM     60  C   UNL A   1      43.241  29.498  31.014  1.00  0.00     0.074 A 
ATOM     61  C   UNL A   1      42.976  30.502  29.991  1.00  0.00     0.031 C 
ATOM     62  C   UNL A   1      44.404  28.899  31.399  1.00  0.00     0.037 A 
BRANCH  49  63
ATOM     63  C   UNL A   1      46.602  30.905  26.781  1.00  0.00     0.064 A 
ATOM     64  C   UNL A   1      47.715  31.779  26.793  1.00  0.00     0.173 A 
ATOM     65  C   UNL A   1      45.359  31.528  26.539  1.00  0.00     0.173 A 
ATOM     66  F   UNL A   1      48.952  31.307  27.009  1.00  0.00    -0.203 F 
ATOM     67  C   UNL A   1      47.574  33.166  26.683  1.00  0.00     0.198 A 
ATOM     68  C   UNL A   1      45.230  32.909  26.386  1.00  0.00     0.198 A 
ATOM     69  F   UNL A   1      44.203  30.858  26.546  1.00  0.00    -0.203 F 
ATOM     70  F   UNL A   1      48.644  33.959  26.835  1.00  0.00    -0.200 F 
ATOM     71  C   UNL A   1      46.329  33.731  26.493  1.00  0.00     0.200 A 
ATOM     72  F   UNL A   1      44.008  33.439  26.219  1.00  0.00    -0.200 F 
ATOM     73  F   UNL A   1      46.180  35.061  26.458  1.00  0.00    -0.200 F 
ENDBRANCH  49  63
BRANCH  50  74
ATOM     74  C   UNL A   1      38.891  28.640  29.433  1.00  0.00     0.064 A 
ATOM     75  C   UNL A   1      38.033  28.839  30.528  1.00  0.00     0.173 A 
ATOM     76  C   UNL A   1      38.423  29.084  28.181  1.00  0.00     0.173 A 
ATOM     77  F   UNL A   1      38.419  28.480  31.760  1.00  0.00    -0.203 F 
ATOM     78  C   UNL A   1      36.795  29.475  30.382  1.00  0.00     0.198 A 
ATOM     79  C   UNL A   1      37.187  29.717  28.037  1.00  0.00     0.198 A 
ATOM     80  F   UNL A   1      39.201  29.000  27.091  1.00  0.00    -0.203 F 
ATOM     81  F   UNL A   1      36.029  29.705  31.460  1.00  0.00    -0.200 F 
ATOM     82  C   UNL A   1      36.380  29.926  29.139  1.00  0.00     0.200 A 
ATOM     83  F   UNL A   1      36.815  30.182  26.836  1.00  0.00    -0.200 F 
ATOM     84  F   UNL A   1      35.226  30.596  29.011  1.00  0.00    -0.200 F 
ENDBRANCH  50  74
BRANCH  62  85
ATOM     85  C   UNL A   1      44.341  27.914  32.521  1.00  0.00     0.064 A 
ATOM     86  C   UNL A   1      44.226  28.253  33.878  1.00  0.00     0.173 A 
ATOM     87  C   UNL A   1      44.305  26.556  32.182  1.00  0.00     0.173 A 
ATOM     88  F   UNL A   1      44.180  29.533  34.268  1.00  0.00    -0.203 F 
ATOM     89  C   UNL A   1      44.110  27.264  34.854  1.00  0.00     0.198 A 
ATOM     90  C   UNL A   1      44.153  25.575  33.152  1.00  0.00     0.198 A 
ATOM     91  F   UNL A   1      44.375  26.184  30.894  1.00  0.00    -0.203 F 
ATOM     92  F   UNL A   1      44.015  27.604  36.148  1.00  0.00    -0.200 F 
ATOM     93  C   UNL A   1      44.065  25.927  34.489  1.00  0.00     0.200 A 
ATOM     94  F   UNL A   1      44.069  24.288  32.787  1.00  0.00    -0.200 F 
ATOM     95  F   UNL A   1      43.916  24.977  35.422  1.00  0.00    -0.200 F 
ENDBRANCH  62  85
ENDBRANCH  36  37
ENDBRANCH  28  31
ENDBRANCH  26  27
ENDBRANCH  25  26
ENDBRANCH  24  25
ENDBRANCH   1  24
TORSDOF 15
ENDMDL
