MODEL 1
REMARK VINA RESULT:     -12.1      0.000      0.000
REMARK SMILES CCN(C)C(=O)Cn1ccc2c(C(=O)NCCCCCCNC(=O)c3ccc(-c4c5nc(c(-c6c(F)c(F)c(F)c(F)c6F)c6ccc([nH]6)c(-c6c(F)c(F)c(F)c(F)c6F)c6nc(c(-c7c(F)c(F)c(F)c(F)c7F)c7ccc4[nH]7)C=C6)C=C5)cc3)cccc21
REMARK SMILES IDX 17 1 16 2 15 3 13 4 14 5 12 7 8 8 9 9 91 10 10 11 11 12
REMARK SMILES IDX 90 13 89 14 88 15 7 16 5 17 6 18 3 19 4 20 2 21 1 22 18 23
REMARK SMILES IDX 19 24 20 25 21 26 22 27 23 28 24 30 25 31 26 32 87 33 27 34
REMARK SMILES IDX 86 35 28 36 29 37 30 38 80 39 31 40 85 41 79 42 81 43 32 44
REMARK SMILES IDX 84 45 78 46 77 47 33 49 65 50 45 51 64 52 46 53 49 54 63 55
REMARK SMILES IDX 82 56 47 57 48 58 62 60 83 61 50 62 34 63 35 64 43 65 36 66
REMARK SMILES IDX 37 67 41 68 44 69 38 70 39 71 42 72 40 73 66 74 67 75 75 76
REMARK SMILES IDX 68 77 69 78 73 79 76 80 70 81 71 82 74 83 72 84 51 85 52 86
REMARK SMILES IDX 60 87 53 88 54 89 58 90 61 91 55 92 56 93 59 94 57 95
REMARK H PARENT 15 6 22 29 81 48 49 59
REMARK Flexibility Score: inf
ROOT
ATOM      1  C   UNL A   1      35.267  21.767  26.431  1.00  0.00     0.021 C 
ENDROOT
BRANCH   1   2
ATOM      2  C   UNL A   1      35.340  20.781  25.262  1.00  0.00     0.116 C 
BRANCH   2   3
ATOM      3  N   UNL A   1      34.124  19.998  25.193  1.00  0.00    -0.352 N 
ATOM      4  C   UNL A   1      32.782  20.265  25.161  1.00  0.00     0.251 C 
ATOM      5  O   UNL A   1      32.065  19.260  25.172  1.00  0.00    -0.269 OA
ATOM      6  H   UNL A   1      34.309  19.031  25.162  1.00  0.00     0.163 HD
BRANCH   4   7
ATOM      7  C   UNL A   1      32.159  21.628  25.080  1.00  0.00     0.049 A 
ATOM      8  N   UNL A   1      32.253  24.261  22.620  1.00  0.00    -0.338 N 
ATOM      9  C   UNL A   1      32.981  23.345  21.912  1.00  0.00     0.087 A 
ATOM     10  C   UNL A   1      31.874  23.725  23.841  1.00  0.00     0.049 A 
ATOM     11  C   UNL A   1      33.124  22.228  22.698  1.00  0.00     0.029 A 
ATOM     12  C   UNL A   1      32.410  22.429  23.922  1.00  0.00     0.012 A 
ATOM     13  C   UNL A   1      31.107  24.279  24.875  1.00  0.00     0.027 A 
ATOM     14  C   UNL A   1      30.822  23.479  25.974  1.00  0.00     0.003 A 
ATOM     15  C   UNL A   1      31.304  22.173  26.055  1.00  0.00     0.014 A 
BRANCH   8  16
ATOM     16  C   UNL A   1      31.878  25.579  22.123  1.00  0.00     0.222 C 
BRANCH  16  17
ATOM     17  C   UNL A   1      32.917  26.659  22.367  1.00  0.00     0.242 C 
ATOM     18  O   UNL A   1      33.926  26.693  21.654  1.00  0.00    -0.273 OA
BRANCH  17  19
ATOM     19  N   UNL A   1      32.686  27.619  23.349  1.00  0.00    -0.344 N 
ATOM     20  C   UNL A   1      31.394  27.851  23.980  1.00  0.00     0.146 C 
BRANCH  19  21
ATOM     21  C   UNL A   1      33.834  28.364  23.867  1.00  0.00     0.115 C 
ATOM     22  C   UNL A   1      33.673  28.754  25.329  1.00  0.00     0.027 C 
ENDBRANCH  19  21
ENDBRANCH  17  19
ENDBRANCH  16  17
ENDBRANCH   8  16
ENDBRANCH   4   7
ENDBRANCH   2   3
ENDBRANCH   1   2
BRANCH   1  23
ATOM     23  C   UNL A   1      35.636  23.204  26.031  1.00  0.00     0.002 C 
BRANCH  23  24
ATOM     24  C   UNL A   1      36.934  23.339  25.222  1.00  0.00     0.002 C 
BRANCH  24  25
ATOM     25  C   UNL A   1      38.215  23.433  26.058  1.00  0.00     0.021 C 
BRANCH  25  26
ATOM     26  C   UNL A   1      38.916  22.091  26.273  1.00  0.00     0.116 C 
BRANCH  26  27
ATOM     27  N   UNL A   1      40.272  22.058  25.766  1.00  0.00    -0.352 N 
ATOM     28  C   UNL A   1      41.378  22.843  25.926  1.00  0.00     0.251 C 
ATOM     29  H   UNL A   1      40.434  21.294  25.168  1.00  0.00     0.163 HD
ATOM     30  O   UNL A   1      42.413  22.443  25.380  1.00  0.00    -0.269 OA
BRANCH  28  31
ATOM     31  C   UNL A   1      41.413  24.148  26.640  1.00  0.00     0.039 A 
ATOM     32  C   UNL A   1      41.811  24.347  27.961  1.00  0.00     0.014 A 
ATOM     33  C   UNL A   1      40.971  25.263  25.900  1.00  0.00     0.014 A 
ATOM     34  C   UNL A   1      41.678  25.599  28.556  1.00  0.00     0.010 A 
ATOM     35  C   UNL A   1      40.859  26.521  26.480  1.00  0.00     0.010 A 
ATOM     36  C   UNL A   1      41.177  26.679  27.823  1.00  0.00    -0.014 A 
BRANCH  36  37
ATOM     37  C   UNL A   1      41.166  27.994  28.461  1.00  0.00     0.031 A 
ATOM     38  C   UNL A   1      42.352  28.838  28.138  1.00  0.00     0.074 A 
ATOM     39  C   UNL A   1      40.141  28.472  29.195  1.00  0.00     0.049 A 
ATOM     40  N   UNL A   1      43.223  29.328  28.960  1.00  0.00    -0.248 NA
ATOM     41  C   UNL A   1      42.675  29.067  26.721  1.00  0.00     0.031 C 
ATOM     42  C   UNL A   1      38.820  27.876  29.400  1.00  0.00     0.029 A 
ATOM     43  N   UNL A   1      40.044  29.663  29.858  1.00  0.00    -0.354 N 
ATOM     44  C   UNL A   1      44.123  30.057  28.186  1.00  0.00     0.074 A 
ATOM     45  C   UNL A   1      43.813  29.756  26.813  1.00  0.00     0.031 C 
ATOM     46  C   UNL A   1      37.994  28.794  29.953  1.00  0.00     0.029 A 
ATOM     47  C   UNL A   1      38.753  29.997  30.254  1.00  0.00     0.049 A 
ATOM     48  H   UNL A   1      40.823  30.236  30.040  1.00  0.00     0.167 HD
ATOM     49  C   UNL A   1      44.926  31.004  28.745  1.00  0.00     0.037 A 
ATOM     50  C   UNL A   1      38.334  31.190  30.751  1.00  0.00     0.037 A 
ATOM     51  C   UNL A   1      45.066  30.786  30.162  1.00  0.00     0.049 A 
ATOM     52  C   UNL A   1      39.531  31.897  31.268  1.00  0.00     0.074 A 
ATOM     53  C   UNL A   1      45.562  29.754  30.935  1.00  0.00     0.029 A 
ATOM     54  N   UNL A   1      44.338  31.574  31.017  1.00  0.00    -0.354 N 
ATOM     55  N   UNL A   1      40.186  31.529  32.334  1.00  0.00    -0.248 NA
ATOM     56  C   UNL A   1      40.258  32.763  30.353  1.00  0.00     0.031 C 
ATOM     57  C   UNL A   1      44.711  29.705  32.074  1.00  0.00     0.029 A 
ATOM     58  C   UNL A   1      43.792  30.748  31.962  1.00  0.00     0.049 A 
ATOM     59  H   UNL A   1      44.231  32.551  30.963  1.00  0.00     0.167 HD
ATOM     60  C   UNL A   1      41.516  31.736  32.010  1.00  0.00     0.074 A 
ATOM     61  C   UNL A   1      41.496  32.586  30.821  1.00  0.00     0.031 C 
ATOM     62  C   UNL A   1      42.498  30.967  32.559  1.00  0.00     0.037 A 
BRANCH  49  63
ATOM     63  C   UNL A   1      45.284  32.324  28.097  1.00  0.00     0.064 A 
ATOM     64  C   UNL A   1      44.251  33.241  27.803  1.00  0.00     0.173 A 
ATOM     65  C   UNL A   1      46.519  32.589  27.469  1.00  0.00     0.173 A 
ATOM     66  F   UNL A   1      43.032  33.099  28.345  1.00  0.00    -0.203 F 
ATOM     67  C   UNL A   1      44.411  34.262  26.864  1.00  0.00     0.198 A 
ATOM     68  C   UNL A   1      46.689  33.641  26.569  1.00  0.00     0.198 A 
ATOM     69  F   UNL A   1      47.581  31.790  27.609  1.00  0.00    -0.203 F 
ATOM     70  F   UNL A   1      43.357  35.012  26.511  1.00  0.00    -0.200 F 
ATOM     71  C   UNL A   1      45.626  34.452  26.236  1.00  0.00     0.200 A 
ATOM     72  F   UNL A   1      47.875  33.803  25.965  1.00  0.00    -0.200 F 
ATOM     73  F   UNL A   1      45.763  35.381  25.282  1.00  0.00    -0.200 F 
ENDBRANCH  49  63
BRANCH  50  74
ATOM     74  C   UNL A   1      37.019  31.869  30.616  1.00  0.00     0.064 A 
ATOM     75  C   UNL A   1      36.084  31.864  31.668  1.00  0.00     0.173 A 
ATOM     76  C   UNL A   1      36.761  32.769  29.565  1.00  0.00     0.173 A 
ATOM     77  F   UNL A   1      36.267  31.070  32.733  1.00  0.00    -0.203 F 
ATOM     78  C   UNL A   1      34.983  32.729  31.681  1.00  0.00     0.198 A 
ATOM     79  C   UNL A   1      35.658  33.625  29.575  1.00  0.00     0.198 A 
ATOM     80  F   UNL A   1      37.625  32.910  28.550  1.00  0.00    -0.203 F 
ATOM     81  F   UNL A   1      34.155  32.742  32.736  1.00  0.00    -0.200 F 
ATOM     82  C   UNL A   1      34.777  33.616  30.640  1.00  0.00     0.200 A 
ATOM     83  F   UNL A   1      35.490  34.502  28.575  1.00  0.00    -0.200 F 
ATOM     84  F   UNL A   1      33.761  34.489  30.681  1.00  0.00    -0.200 F 
ENDBRANCH  50  74
BRANCH  62  85
ATOM     85  C   UNL A   1      42.143  30.070  33.711  1.00  0.00     0.064 A 
ATOM     86  C   UNL A   1      41.682  28.751  33.560  1.00  0.00     0.173 A 
ATOM     87  C   UNL A   1      42.486  30.493  35.002  1.00  0.00     0.173 A 
ATOM     88  F   UNL A   1      41.421  28.244  32.349  1.00  0.00    -0.203 F 
ATOM     89  C   UNL A   1      41.558  27.901  34.657  1.00  0.00     0.198 A 
ATOM     90  C   UNL A   1      42.398  29.630  36.089  1.00  0.00     0.198 A 
ATOM     91  F   UNL A   1      42.981  31.726  35.197  1.00  0.00    -0.203 F 
ATOM     92  F   UNL A   1      41.127  26.643  34.488  1.00  0.00    -0.200 F 
ATOM     93  C   UNL A   1      41.931  28.337  35.919  1.00  0.00     0.200 A 
ATOM     94  F   UNL A   1      42.811  30.038  37.297  1.00  0.00    -0.200 F 
ATOM     95  F   UNL A   1      41.877  27.499  36.963  1.00  0.00    -0.200 F 
ENDBRANCH  62  85
ENDBRANCH  36  37
ENDBRANCH  28  31
ENDBRANCH  26  27
ENDBRANCH  25  26
ENDBRANCH  24  25
ENDBRANCH  23  24
ENDBRANCH   1  23
TORSDOF 17
ENDMDL
MODEL 2
REMARK VINA RESULT:     -12.0      3.024      8.917
REMARK SMILES CCN(C)C(=O)Cn1ccc2c(C(=O)NCCCCCCNC(=O)c3ccc(-c4c5nc(c(-c6c(F)c(F)c(F)c(F)c6F)c6ccc([nH]6)c(-c6c(F)c(F)c(F)c(F)c6F)c6nc(c(-c7c(F)c(F)c(F)c(F)c7F)c7ccc4[nH]7)C=C6)C=C5)cc3)cccc21
REMARK SMILES IDX 17 1 16 2 15 3 13 4 14 5 12 7 8 8 9 9 91 10 10 11 11 12
REMARK SMILES IDX 90 13 89 14 88 15 7 16 5 17 6 18 3 19 4 20 2 21 1 22 18 23
REMARK SMILES IDX 19 24 20 25 21 26 22 27 23 28 24 30 25 31 26 32 87 33 27 34
REMARK SMILES IDX 86 35 28 36 29 37 30 38 80 39 31 40 85 41 79 42 81 43 32 44
REMARK SMILES IDX 84 45 78 46 77 47 33 49 65 50 45 51 64 52 46 53 49 54 63 55
REMARK SMILES IDX 82 56 47 57 48 58 62 60 83 61 50 62 34 63 35 64 43 65 36 66
REMARK SMILES IDX 37 67 41 68 44 69 38 70 39 71 42 72 40 73 66 74 67 75 75 76
REMARK SMILES IDX 68 77 69 78 73 79 76 80 70 81 71 82 74 83 72 84 51 85 52 86
REMARK SMILES IDX 60 87 53 88 54 89 58 90 61 91 55 92 56 93 59 94 57 95
REMARK H PARENT 15 6 22 29 81 48 49 59
REMARK Flexibility Score: inf
ROOT
ATOM      1  C   UNL A   1      30.357  28.995  22.913  1.00  0.00     0.021 C 
ENDROOT
BRANCH   1   2
ATOM      2  C   UNL A   1      30.611  27.486  22.964  1.00  0.00     0.116 C 
BRANCH   2   3
ATOM      3  N   UNL A   1      31.749  27.143  22.138  1.00  0.00    -0.352 N 
ATOM      4  C   UNL A   1      32.887  26.397  22.291  1.00  0.00     0.251 C 
ATOM      5  O   UNL A   1      33.649  26.431  21.320  1.00  0.00    -0.269 OA
ATOM      6  H   UNL A   1      31.691  27.548  21.242  1.00  0.00     0.163 HD
BRANCH   4   7
ATOM      7  C   UNL A   1      33.233  25.556  23.485  1.00  0.00     0.049 A 
ATOM      8  N   UNL A   1      32.812  22.064  24.270  1.00  0.00    -0.338 N 
ATOM      9  C   UNL A   1      32.338  22.005  22.989  1.00  0.00     0.087 A 
ATOM     10  C   UNL A   1      33.193  23.361  24.577  1.00  0.00     0.049 A 
ATOM     11  C   UNL A   1      32.357  23.280  22.477  1.00  0.00     0.029 A 
ATOM     12  C   UNL A   1      32.919  24.161  23.455  1.00  0.00     0.012 A 
ATOM     13  C   UNL A   1      33.752  23.889  25.749  1.00  0.00     0.027 A 
ATOM     14  C   UNL A   1      34.102  25.232  25.755  1.00  0.00     0.003 A 
ATOM     15  C   UNL A   1      33.883  26.036  24.636  1.00  0.00     0.014 A 
BRANCH   8  16
ATOM     16  C   UNL A   1      32.956  20.910  25.150  1.00  0.00     0.222 C 
BRANCH  16  17
ATOM     17  C   UNL A   1      34.005  19.909  24.702  1.00  0.00     0.242 C 
ATOM     18  O   UNL A   1      35.201  20.201  24.811  1.00  0.00    -0.273 OA
BRANCH  17  19
ATOM     19  N   UNL A   1      33.600  18.662  24.230  1.00  0.00    -0.344 N 
ATOM     20  C   UNL A   1      32.564  18.464  23.226  1.00  0.00     0.146 C 
BRANCH  19  21
ATOM     21  C   UNL A   1      34.339  17.482  24.679  1.00  0.00     0.115 C 
ATOM     22  C   UNL A   1      34.027  16.241  23.856  1.00  0.00     0.027 C 
ENDBRANCH  19  21
ENDBRANCH  17  19
ENDBRANCH  16  17
ENDBRANCH   8  16
ENDBRANCH   4   7
ENDBRANCH   2   3
ENDBRANCH   1   2
BRANCH   1  23
ATOM     23  C   UNL A   1      30.658  29.702  24.244  1.00  0.00     0.002 C 
BRANCH  23  24
ATOM     24  C   UNL A   1      31.606  28.942  25.182  1.00  0.00     0.002 C 
BRANCH  24  25
ATOM     25  C   UNL A   1      32.991  29.574  25.359  1.00  0.00     0.021 C 
BRANCH  25  26
ATOM     26  C   UNL A   1      33.528  29.504  26.788  1.00  0.00     0.116 C 
BRANCH  26  27
ATOM     27  N   UNL A   1      33.650  30.800  27.424  1.00  0.00    -0.352 N 
ATOM     28  C   UNL A   1      34.667  31.483  28.027  1.00  0.00     0.251 C 
ATOM     29  H   UNL A   1      32.806  31.304  27.421  1.00  0.00     0.163 HD
ATOM     30  O   UNL A   1      34.406  32.635  28.394  1.00  0.00    -0.269 OA
BRANCH  28  31
ATOM     31  C   UNL A   1      36.017  30.933  28.326  1.00  0.00     0.039 A 
ATOM     32  C   UNL A   1      37.105  31.656  28.815  1.00  0.00     0.014 A 
ATOM     33  C   UNL A   1      36.194  29.561  28.054  1.00  0.00     0.014 A 
ATOM     34  C   UNL A   1      38.355  31.054  28.933  1.00  0.00     0.010 A 
ATOM     35  C   UNL A   1      37.432  28.947  28.194  1.00  0.00     0.010 A 
ATOM     36  C   UNL A   1      38.524  29.707  28.597  1.00  0.00    -0.014 A 
BRANCH  36  37
ATOM     37  C   UNL A   1      39.827  29.097  28.849  1.00  0.00     0.031 A 
ATOM     38  C   UNL A   1      40.149  28.921  30.295  1.00  0.00     0.074 A 
ATOM     39  C   UNL A   1      40.644  28.626  27.885  1.00  0.00     0.049 A 
ATOM     40  N   UNL A   1      41.146  29.422  30.951  1.00  0.00    -0.248 NA
ATOM     41  C   UNL A   1      39.184  28.199  31.137  1.00  0.00     0.031 C 
ATOM     42  C   UNL A   1      40.372  28.500  26.453  1.00  0.00     0.029 A 
ATOM     43  N   UNL A   1      41.888  28.074  28.008  1.00  0.00    -0.354 N 
ATOM     44  C   UNL A   1      41.025  28.957  32.259  1.00  0.00     0.074 A 
ATOM     45  C   UNL A   1      39.737  28.320  32.344  1.00  0.00     0.031 C 
ATOM     46  C   UNL A   1      41.323  27.725  25.882  1.00  0.00     0.029 A 
ATOM     47  C   UNL A   1      42.334  27.403  26.874  1.00  0.00     0.049 A 
ATOM     48  H   UNL A   1      42.423  28.146  28.831  1.00  0.00     0.167 HD
ATOM     49  C   UNL A   1      42.087  28.968  33.111  1.00  0.00     0.037 A 
ATOM     50  C   UNL A   1      43.430  26.606  26.776  1.00  0.00     0.037 A 
ATOM     51  C   UNL A   1      43.085  29.911  32.674  1.00  0.00     0.049 A 
ATOM     52  C   UNL A   1      44.335  26.959  27.897  1.00  0.00     0.074 A 
ATOM     53  C   UNL A   1      43.097  31.277  32.469  1.00  0.00     0.029 A 
ATOM     54  N   UNL A   1      44.202  29.429  32.039  1.00  0.00    -0.354 N 
ATOM     55  N   UNL A   1      44.991  28.082  27.972  1.00  0.00    -0.248 NA
ATOM     56  C   UNL A   1      44.175  26.241  29.152  1.00  0.00     0.031 C 
ATOM     57  C   UNL A   1      43.924  31.470  31.327  1.00  0.00     0.029 A 
ATOM     58  C   UNL A   1      44.419  30.223  30.945  1.00  0.00     0.049 A 
ATOM     59  H   UNL A   1      44.747  28.659  32.318  1.00  0.00     0.167 HD
ATOM     60  C   UNL A   1      44.933  28.427  29.311  1.00  0.00     0.074 A 
ATOM     61  C   UNL A   1      44.506  27.214  30.004  1.00  0.00     0.031 C 
ATOM     62  C   UNL A   1      44.953  29.734  29.699  1.00  0.00     0.037 A 
BRANCH  49  63
ATOM     63  C   UNL A   1      42.396  27.883  34.119  1.00  0.00     0.064 A 
ATOM     64  C   UNL A   1      42.999  26.687  33.671  1.00  0.00     0.173 A 
ATOM     65  C   UNL A   1      41.845  27.828  35.417  1.00  0.00     0.173 A 
ATOM     66  F   UNL A   1      43.564  26.616  32.456  1.00  0.00    -0.203 F 
ATOM     67  C   UNL A   1      42.942  25.505  34.413  1.00  0.00     0.198 A 
ATOM     68  C   UNL A   1      41.835  26.658  36.176  1.00  0.00     0.198 A 
ATOM     69  F   UNL A   1      41.199  28.862  35.967  1.00  0.00    -0.203 F 
ATOM     70  F   UNL A   1      43.398  24.363  33.879  1.00  0.00    -0.200 F 
ATOM     71  C   UNL A   1      42.347  25.487  35.659  1.00  0.00     0.200 A 
ATOM     72  F   UNL A   1      41.245  26.660  37.380  1.00  0.00    -0.200 F 
ATOM     73  F   UNL A   1      42.225  24.341  36.340  1.00  0.00    -0.200 F 
ENDBRANCH  49  63
BRANCH  50  74
ATOM     74  C   UNL A   1      43.663  25.409  25.926  1.00  0.00     0.064 A 
ATOM     75  C   UNL A   1      44.904  25.190  25.300  1.00  0.00     0.173 A 
ATOM     76  C   UNL A   1      42.774  24.318  25.933  1.00  0.00     0.173 A 
ATOM     77  F   UNL A   1      45.833  26.157  25.279  1.00  0.00    -0.203 F 
ATOM     78  C   UNL A   1      45.244  23.949  24.749  1.00  0.00     0.198 A 
ATOM     79  C   UNL A   1      43.110  23.083  25.375  1.00  0.00     0.198 A 
ATOM     80  F   UNL A   1      41.596  24.393  26.567  1.00  0.00    -0.203 F 
ATOM     81  F   UNL A   1      46.464  23.761  24.223  1.00  0.00    -0.200 F 
ATOM     82  C   UNL A   1      44.351  22.893  24.796  1.00  0.00     0.200 A 
ATOM     83  F   UNL A   1      42.248  22.060  25.459  1.00  0.00    -0.200 F 
ATOM     84  F   UNL A   1      44.698  21.687  24.327  1.00  0.00    -0.200 F 
ENDBRANCH  50  74
BRANCH  62  85
ATOM     85  C   UNL A   1      45.303  30.778  28.676  1.00  0.00     0.064 A 
ATOM     86  C   UNL A   1      44.365  31.361  27.806  1.00  0.00     0.173 A 
ATOM     87  C   UNL A   1      46.580  31.350  28.731  1.00  0.00     0.173 A 
ATOM     88  F   UNL A   1      43.098  30.930  27.764  1.00  0.00    -0.203 F 
ATOM     89  C   UNL A   1      44.701  32.461  27.018  1.00  0.00     0.198 A 
ATOM     90  C   UNL A   1      46.900  32.471  27.972  1.00  0.00     0.198 A 
ATOM     91  F   UNL A   1      47.498  30.865  29.582  1.00  0.00    -0.203 F 
ATOM     92  F   UNL A   1      43.787  33.009  26.205  1.00  0.00    -0.200 F 
ATOM     93  C   UNL A   1      45.963  33.024  27.113  1.00  0.00     0.200 A 
ATOM     94  F   UNL A   1      48.104  33.044  28.107  1.00  0.00    -0.200 F 
ATOM     95  F   UNL A   1      46.265  34.122  26.408  1.00  0.00    -0.200 F 
ENDBRANCH  62  85
ENDBRANCH  36  37
ENDBRANCH  28  31
ENDBRANCH  26  27
ENDBRANCH  25  26
ENDBRANCH  24  25
ENDBRANCH  23  24
ENDBRANCH   1  23
TORSDOF 17
ENDMDL
MODEL 3
REMARK VINA RESULT:     -12.0      3.301      8.771
REMARK SMILES CCN(C)C(=O)Cn1ccc2c(C(=O)NCCCCCCNC(=O)c3ccc(-c4c5nc(c(-c6c(F)c(F)c(F)c(F)c6F)c6ccc([nH]6)c(-c6c(F)c(F)c(F)c(F)c6F)c6nc(c(-c7c(F)c(F)c(F)c(F)c7F)c7ccc4[nH]7)C=C6)C=C5)cc3)cccc21
REMARK SMILES IDX 17 1 16 2 15 3 13 4 14 5 12 7 8 8 9 9 91 10 10 11 11 12
REMARK SMILES IDX 90 13 89 14 88 15 7 16 5 17 6 18 3 19 4 20 2 21 1 22 18 23
REMARK SMILES IDX 19 24 20 25 21 26 22 27 23 28 24 30 25 31 26 32 87 33 27 34
REMARK SMILES IDX 86 35 28 36 29 37 30 38 80 39 31 40 85 41 79 42 81 43 32 44
REMARK SMILES IDX 84 45 78 46 77 47 33 49 65 50 45 51 64 52 46 53 49 54 63 55
REMARK SMILES IDX 82 56 47 57 48 58 62 60 83 61 50 62 34 63 35 64 43 65 36 66
REMARK SMILES IDX 37 67 41 68 44 69 38 70 39 71 42 72 40 73 66 74 67 75 75 76
REMARK SMILES IDX 68 77 69 78 73 79 76 80 70 81 71 82 74 83 72 84 51 85 52 86
REMARK SMILES IDX 60 87 53 88 54 89 58 90 61 91 55 92 56 93 59 94 57 95
REMARK H PARENT 15 6 22 29 81 48 49 59
REMARK Flexibility Score: inf
ROOT
ATOM      1  C   UNL A   1      33.046  29.158  24.635  1.00  0.00     0.021 C 
ENDROOT
BRANCH   1   2
ATOM      2  C   UNL A   1      31.682  29.771  24.963  1.00  0.00     0.116 C 
BRANCH   2   3
ATOM      3  N   UNL A   1      30.764  29.560  23.864  1.00  0.00    -0.352 N 
ATOM      4  C   UNL A   1      30.253  28.476  23.202  1.00  0.00     0.251 C 
ATOM      5  O   UNL A   1      29.527  28.763  22.246  1.00  0.00    -0.269 OA
ATOM      6  H   UNL A   1      30.420  30.409  23.502  1.00  0.00     0.163 HD
BRANCH   4   7
ATOM      7  C   UNL A   1      30.477  27.037  23.568  1.00  0.00     0.049 A 
ATOM      8  N   UNL A   1      32.703  24.481  22.344  1.00  0.00    -0.338 N 
ATOM      9  C   UNL A   1      33.183  25.503  21.573  1.00  0.00     0.087 A 
ATOM     10  C   UNL A   1      31.675  24.938  23.153  1.00  0.00     0.049 A 
ATOM     11  C   UNL A   1      32.427  26.619  21.841  1.00  0.00     0.029 A 
ATOM     12  C   UNL A   1      31.476  26.298  22.860  1.00  0.00     0.012 A 
ATOM     13  C   UNL A   1      30.908  24.265  24.114  1.00  0.00     0.027 A 
ATOM     14  C   UNL A   1      29.976  24.999  24.835  1.00  0.00     0.003 A 
ATOM     15  C   UNL A   1      29.793  26.360  24.593  1.00  0.00     0.014 A 
BRANCH   8  16
ATOM     16  C   UNL A   1      33.248  23.129  22.355  1.00  0.00     0.222 C 
BRANCH  16  17
ATOM     17  C   UNL A   1      34.487  22.960  23.216  1.00  0.00     0.242 C 
ATOM     18  O   UNL A   1      35.600  23.131  22.707  1.00  0.00    -0.273 OA
BRANCH  17  19
ATOM     19  N   UNL A   1      34.342  22.672  24.571  1.00  0.00    -0.344 N 
ATOM     20  C   UNL A   1      33.727  21.457  25.088  1.00  0.00     0.146 C 
BRANCH  19  21
ATOM     21  C   UNL A   1      34.948  23.587  25.538  1.00  0.00     0.115 C 
ATOM     22  C   UNL A   1      33.979  24.651  26.031  1.00  0.00     0.027 C 
ENDBRANCH  19  21
ENDBRANCH  17  19
ENDBRANCH  16  17
ENDBRANCH   8  16
ENDBRANCH   4   7
ENDBRANCH   2   3
ENDBRANCH   1   2
BRANCH   1  23
ATOM     23  C   UNL A   1      33.622  28.318  25.785  1.00  0.00     0.002 C 
BRANCH  23  24
ATOM     24  C   UNL A   1      33.518  28.962  27.174  1.00  0.00     0.002 C 
BRANCH  24  25
ATOM     25  C   UNL A   1      34.732  29.798  27.596  1.00  0.00     0.021 C 
BRANCH  25  26
ATOM     26  C   UNL A   1      34.453  31.298  27.685  1.00  0.00     0.116 C 
BRANCH  26  27
ATOM     27  N   UNL A   1      34.432  31.804  29.042  1.00  0.00    -0.352 N 
ATOM     28  C   UNL A   1      35.311  31.792  30.086  1.00  0.00     0.251 C 
ATOM     29  H   UNL A   1      33.589  32.262  29.262  1.00  0.00     0.163 HD
ATOM     30  O   UNL A   1      34.963  32.414  31.098  1.00  0.00    -0.269 OA
BRANCH  28  31
ATOM     31  C   UNL A   1      36.599  31.049  30.120  1.00  0.00     0.039 A 
ATOM     32  C   UNL A   1      37.849  31.563  29.777  1.00  0.00     0.014 A 
ATOM     33  C   UNL A   1      36.517  29.697  30.510  1.00  0.00     0.014 A 
ATOM     34  C   UNL A   1      38.964  30.730  29.727  1.00  0.00     0.010 A 
ATOM     35  C   UNL A   1      37.630  28.865  30.487  1.00  0.00     0.010 A 
ATOM     36  C   UNL A   1      38.849  29.376  30.056  1.00  0.00    -0.014 A 
BRANCH  36  37
ATOM     37  C   UNL A   1      40.070  28.575  30.098  1.00  0.00     0.031 A 
ATOM     38  C   UNL A   1      40.678  28.461  31.455  1.00  0.00     0.074 A 
ATOM     39  C   UNL A   1      40.569  27.898  29.044  1.00  0.00     0.049 A 
ATOM     40  N   UNL A   1      41.860  28.835  31.827  1.00  0.00    -0.248 NA
ATOM     41  C   UNL A   1      39.830  27.982  32.557  1.00  0.00     0.031 C 
ATOM     42  C   UNL A   1      39.967  27.708  27.724  1.00  0.00     0.029 A 
ATOM     43  N   UNL A   1      41.713  27.154  28.967  1.00  0.00    -0.354 N 
ATOM     44  C   UNL A   1      41.968  28.502  33.176  1.00  0.00     0.074 A 
ATOM     45  C   UNL A   1      40.652  28.101  33.600  1.00  0.00     0.031 C 
ATOM     46  C   UNL A   1      40.640  26.740  27.059  1.00  0.00     0.029 A 
ATOM     47  C   UNL A   1      41.788  26.330  27.849  1.00  0.00     0.049 A 
ATOM     48  H   UNL A   1      42.424  27.198  29.646  1.00  0.00     0.167 HD
ATOM     49  C   UNL A   1      43.184  28.399  33.780  1.00  0.00     0.037 A 
ATOM     50  C   UNL A   1      42.703  25.352  27.615  1.00  0.00     0.037 A 
ATOM     51  C   UNL A   1      44.187  29.121  33.040  1.00  0.00     0.049 A 
ATOM     52  C   UNL A   1      43.879  25.634  28.475  1.00  0.00     0.074 A 
ATOM     53  C   UNL A   1      44.356  30.445  32.683  1.00  0.00     0.029 A 
ATOM     54  N   UNL A   1      45.048  28.408  32.244  1.00  0.00    -0.354 N 
ATOM     55  N   UNL A   1      44.695  26.632  28.282  1.00  0.00    -0.248 NA
ATOM     56  C   UNL A   1      43.900  25.054  29.809  1.00  0.00     0.031 C 
ATOM     57  C   UNL A   1      44.924  30.404  31.379  1.00  0.00     0.029 A 
ATOM     58  C   UNL A   1      45.129  29.065  31.047  1.00  0.00     0.049 A 
ATOM     59  H   UNL A   1      45.521  27.581  32.490  1.00  0.00     0.167 HD
ATOM     60  C   UNL A   1      44.991  27.086  29.556  1.00  0.00     0.074 A 
ATOM     61  C   UNL A   1      44.555  26.021  30.457  1.00  0.00     0.031 C 
ATOM     62  C   UNL A   1      45.292  28.396  29.780  1.00  0.00     0.037 A 
BRANCH  49  63
ATOM     63  C   UNL A   1      43.546  27.359  34.819  1.00  0.00     0.064 A 
ATOM     64  C   UNL A   1      43.987  27.790  36.089  1.00  0.00     0.173 A 
ATOM     65  C   UNL A   1      43.787  26.000  34.528  1.00  0.00     0.173 A 
ATOM     66  F   UNL A   1      43.808  29.060  36.484  1.00  0.00    -0.203 F 
ATOM     67  C   UNL A   1      44.717  26.959  36.941  1.00  0.00     0.198 A 
ATOM     68  C   UNL A   1      44.473  25.159  35.404  1.00  0.00     0.198 A 
ATOM     69  F   UNL A   1      43.471  25.451  33.350  1.00  0.00    -0.203 F 
ATOM     70  F   UNL A   1      45.241  27.459  38.070  1.00  0.00    -0.200 F 
ATOM     71  C   UNL A   1      44.972  25.648  36.592  1.00  0.00     0.200 A 
ATOM     72  F   UNL A   1      44.718  23.892  35.041  1.00  0.00    -0.200 F 
ATOM     73  F   UNL A   1      45.734  24.870  37.371  1.00  0.00    -0.200 F 
ENDBRANCH  49  63
BRANCH  50  74
ATOM     74  C   UNL A   1      42.559  24.071  26.876  1.00  0.00     0.064 A 
ATOM     75  C   UNL A   1      43.544  23.636  25.971  1.00  0.00     0.173 A 
ATOM     76  C   UNL A   1      41.595  23.114  27.247  1.00  0.00     0.173 A 
ATOM     77  F   UNL A   1      44.529  24.464  25.592  1.00  0.00    -0.203 F 
ATOM     78  C   UNL A   1      43.581  22.320  25.495  1.00  0.00     0.198 A 
ATOM     79  C   UNL A   1      41.627  21.804  26.765  1.00  0.00     0.198 A 
ATOM     80  F   UNL A   1      40.657  23.399  28.160  1.00  0.00    -0.203 F 
ATOM     81  F   UNL A   1      44.578  21.927  24.688  1.00  0.00    -0.200 F 
ATOM     82  C   UNL A   1      42.629  21.402  25.901  1.00  0.00     0.200 A 
ATOM     83  F   UNL A   1      40.717  20.917  27.193  1.00  0.00    -0.200 F 
ATOM     84  F   UNL A   1      42.698  20.126  25.498  1.00  0.00    -0.200 F 
ENDBRANCH  50  74
BRANCH  62  85
ATOM     85  C   UNL A   1      45.554  29.282  28.595  1.00  0.00     0.064 A 
ATOM     86  C   UNL A   1      44.548  29.985  27.910  1.00  0.00     0.173 A 
ATOM     87  C   UNL A   1      46.885  29.589  28.285  1.00  0.00     0.173 A 
ATOM     88  F   UNL A   1      43.255  29.816  28.214  1.00  0.00    -0.203 F 
ATOM     89  C   UNL A   1      44.866  30.943  26.948  1.00  0.00     0.198 A 
ATOM     90  C   UNL A   1      47.199  30.572  27.353  1.00  0.00     0.198 A 
ATOM     91  F   UNL A   1      47.886  28.984  28.945  1.00  0.00    -0.203 F 
ATOM     92  F   UNL A   1      43.890  31.611  26.317  1.00  0.00    -0.200 F 
ATOM     93  C   UNL A   1      46.192  31.246  26.682  1.00  0.00     0.200 A 
ATOM     94  F   UNL A   1      48.481  30.900  27.138  1.00  0.00    -0.200 F 
ATOM     95  F   UNL A   1      46.497  32.214  25.809  1.00  0.00    -0.200 F 
ENDBRANCH  62  85
ENDBRANCH  36  37
ENDBRANCH  28  31
ENDBRANCH  26  27
ENDBRANCH  25  26
ENDBRANCH  24  25
ENDBRANCH  23  24
ENDBRANCH   1  23
TORSDOF 17
ENDMDL
