MODEL 1
REMARK VINA RESULT:     -12.6      0.000      0.000
REMARK SMILES O=C(NCCCCCCNC(=O)[C@H](Cc1cccc(O)c1)Cc1cccc(F)c1)c1ccc(-c2c3nc(c(-c4c(F)c(F)c(F)c(F)c4F)c4ccc([nH]4)c(-c4c(F)c(F)c(F)c(F)c4F)c4nc(c(-c5c(F)c(F)c(F)c(F)c5F)c5ccc2[nH]5)C=C4)C=C3)cc1
REMARK SMILES IDX 7 1 6 2 5 3 4 4 3 5 1 6 2 7 30 9 31 10 92 11 32 12 91 13
REMARK SMILES IDX 33 14 34 15 35 16 85 17 36 18 90 19 84 20 86 21 37 22 89 23
REMARK SMILES IDX 83 24 82 25 38 27 70 28 50 29 69 30 51 31 54 32 68 33 87 34
REMARK SMILES IDX 52 35 53 36 67 38 88 39 55 40 39 41 40 42 48 43 41 44 42 45
REMARK SMILES IDX 46 46 49 47 43 48 44 49 47 50 45 51 71 52 72 53 80 54 73 55
REMARK SMILES IDX 74 56 78 57 81 58 75 59 76 60 79 61 77 62 56 63 57 64 65 65
REMARK SMILES IDX 58 66 59 67 63 68 66 69 60 70 61 71 64 72 62 73 8 74 9 75
REMARK SMILES IDX 10 76 11 77 12 79 13 80 22 81 23 82 24 83 29 84 25 85 27 86
REMARK SMILES IDX 26 87 28 88 14 89 15 90 16 91 21 92 17 93 19 94 18 95 20 96
REMARK H PARENT 3 8 86 26 54 37 10 78 20 97
REMARK Flexibility Score: inf
ROOT
ATOM      1  C   UNL A   1      32.319  29.929  26.809  1.00  0.00     0.002 C 
ENDROOT
BRANCH   1   2
ATOM      2  C   UNL A   1      31.345  30.815  26.032  1.00  0.00     0.002 C 
BRANCH   2   3
ATOM      3  C   UNL A   1      31.319  32.290  26.447  1.00  0.00     0.021 C 
BRANCH   3   4
ATOM      4  C   UNL A   1      32.588  32.793  27.129  1.00  0.00     0.116 C 
BRANCH   4   5
ATOM      5  N   UNL A   1      32.447  34.155  27.619  1.00  0.00    -0.352 N 
ATOM      6  O   UNL A   1      32.675  35.872  29.065  1.00  0.00    -0.269 OA
ATOM      7  C   UNL A   1      33.085  34.784  28.654  1.00  0.00     0.251 C 
ATOM      8  H   UNL A   1      31.794  34.709  27.133  1.00  0.00     0.163 HD
BRANCH   7   9
ATOM      9  C   UNL A   1      34.259  34.161  29.296  1.00  0.00     0.039 A 
ATOM     10  C   UNL A   1      35.555  34.511  28.908  1.00  0.00     0.014 A 
ATOM     11  C   UNL A   1      34.061  33.246  30.333  1.00  0.00     0.014 A 
ATOM     12  C   UNL A   1      36.647  33.853  29.465  1.00  0.00     0.010 A 
ATOM     13  C   UNL A   1      35.162  32.643  30.946  1.00  0.00     0.010 A 
ATOM     14  C   UNL A   1      36.462  32.922  30.500  1.00  0.00    -0.014 A 
BRANCH  14  15
ATOM     15  C   UNL A   1      37.639  32.288  31.147  1.00  0.00     0.031 A 
ATOM     16  C   UNL A   1      38.413  31.207  30.449  1.00  0.00     0.074 A 
ATOM     17  C   UNL A   1      38.005  32.696  32.377  1.00  0.00     0.049 A 
ATOM     18  N   UNL A   1      39.438  30.516  30.883  1.00  0.00    -0.248 NA
ATOM     19  C   UNL A   1      37.978  30.847  29.092  1.00  0.00     0.031 C 
ATOM     20  C   UNL A   1      37.332  33.739  33.151  1.00  0.00     0.029 A 
ATOM     21  N   UNL A   1      39.031  32.287  33.191  1.00  0.00    -0.354 N 
ATOM     22  C   UNL A   1      39.760  29.633  29.862  1.00  0.00     0.074 A 
ATOM     23  C   UNL A   1      38.805  29.852  28.796  1.00  0.00     0.031 C 
ATOM     24  C   UNL A   1      37.978  33.912  34.312  1.00  0.00     0.029 A 
ATOM     25  C   UNL A   1      39.070  32.948  34.395  1.00  0.00     0.049 A 
ATOM     26  H   UNL A   1      39.677  31.588  32.938  1.00  0.00     0.167 HD
ATOM     27  C   UNL A   1      40.768  28.728  29.817  1.00  0.00     0.037 A 
ATOM     28  C   UNL A   1      39.879  32.783  35.458  1.00  0.00     0.037 A 
ATOM     29  C   UNL A   1      41.719  28.523  30.880  1.00  0.00     0.049 A 
ATOM     30  C   UNL A   1      40.957  31.739  35.405  1.00  0.00     0.074 A 
ATOM     31  C   UNL A   1      42.795  27.654  30.914  1.00  0.00     0.029 A 
ATOM     32  N   UNL A   1      41.705  29.190  32.097  1.00  0.00    -0.354 N 
ATOM     33  N   UNL A   1      41.268  30.926  34.424  1.00  0.00    -0.248 NA
ATOM     34  C   UNL A   1      41.794  31.584  36.602  1.00  0.00     0.031 C 
ATOM     35  C   UNL A   1      43.396  27.751  32.172  1.00  0.00     0.029 A 
ATOM     36  C   UNL A   1      42.738  28.730  32.900  1.00  0.00     0.049 A 
ATOM     37  H   UNL A   1      41.058  29.886  32.353  1.00  0.00     0.167 HD
ATOM     38  C   UNL A   1      42.347  30.180  34.875  1.00  0.00     0.074 A 
ATOM     39  C   UNL A   1      42.644  30.643  36.215  1.00  0.00     0.031 C 
ATOM     40  C   UNL A   1      43.030  29.202  34.231  1.00  0.00     0.037 A 
BRANCH  27  41
ATOM     41  C   UNL A   1      40.896  27.875  28.588  1.00  0.00     0.064 A 
ATOM     42  C   UNL A   1      41.658  28.316  27.493  1.00  0.00     0.173 A 
ATOM     43  C   UNL A   1      40.211  26.658  28.460  1.00  0.00     0.173 A 
ATOM     44  F   UNL A   1      42.327  29.476  27.560  1.00  0.00    -0.203 F 
ATOM     45  C   UNL A   1      41.717  27.576  26.316  1.00  0.00     0.198 A 
ATOM     46  C   UNL A   1      40.297  25.906  27.291  1.00  0.00     0.198 A 
ATOM     47  F   UNL A   1      39.477  26.185  29.479  1.00  0.00    -0.203 F 
ATOM     48  F   UNL A   1      42.423  28.035  25.272  1.00  0.00    -0.200 F 
ATOM     49  C   UNL A   1      41.041  26.370  26.216  1.00  0.00     0.200 A 
ATOM     50  F   UNL A   1      39.664  24.728  27.205  1.00  0.00    -0.200 F 
ATOM     51  F   UNL A   1      41.109  25.653  25.086  1.00  0.00    -0.200 F 
ENDBRANCH  27  41
BRANCH  28  52
ATOM     52  C   UNL A   1      39.690  33.646  36.651  1.00  0.00     0.064 A 
ATOM     53  C   UNL A   1      38.857  33.252  37.710  1.00  0.00     0.173 A 
ATOM     54  C   UNL A   1      40.285  34.912  36.724  1.00  0.00     0.173 A 
ATOM     55  F   UNL A   1      38.258  32.053  37.684  1.00  0.00    -0.203 F 
ATOM     56  C   UNL A   1      38.601  34.107  38.780  1.00  0.00     0.198 A 
ATOM     57  C   UNL A   1      40.051  35.754  37.809  1.00  0.00     0.198 A 
ATOM     58  F   UNL A   1      41.102  35.324  35.744  1.00  0.00    -0.203 F 
ATOM     59  F   UNL A   1      37.762  33.727  39.753  1.00  0.00    -0.200 F 
ATOM     60  C   UNL A   1      39.200  35.356  38.830  1.00  0.00     0.200 A 
ATOM     61  F   UNL A   1      40.647  36.953  37.863  1.00  0.00    -0.200 F 
ATOM     62  F   UNL A   1      38.956  36.178  39.859  1.00  0.00    -0.200 F 
ENDBRANCH  28  52
BRANCH  40  63
ATOM     63  C   UNL A   1      44.192  28.574  34.942  1.00  0.00     0.064 A 
ATOM     64  C   UNL A   1      45.481  29.113  34.800  1.00  0.00     0.173 A 
ATOM     65  C   UNL A   1      44.052  27.390  35.679  1.00  0.00     0.173 A 
ATOM     66  F   UNL A   1      45.669  30.241  34.098  1.00  0.00    -0.203 F 
ATOM     67  C   UNL A   1      46.589  28.475  35.350  1.00  0.00     0.198 A 
ATOM     68  C   UNL A   1      45.160  26.771  36.254  1.00  0.00     0.198 A 
ATOM     69  F   UNL A   1      42.839  26.844  35.855  1.00  0.00    -0.203 F 
ATOM     70  F   UNL A   1      47.815  28.984  35.163  1.00  0.00    -0.200 F 
ATOM     71  C   UNL A   1      46.427  27.306  36.077  1.00  0.00     0.200 A 
ATOM     72  F   UNL A   1      45.000  25.654  36.976  1.00  0.00    -0.200 F 
ATOM     73  F   UNL A   1      47.494  26.694  36.608  1.00  0.00    -0.200 F 
ENDBRANCH  40  63
ENDBRANCH  14  15
ENDBRANCH   7   9
ENDBRANCH   4   5
ENDBRANCH   3   4
ENDBRANCH   2   3
ENDBRANCH   1   2
BRANCH   1  74
ATOM     74  C   UNL A   1      31.751  28.581  27.251  1.00  0.00     0.021 C 
BRANCH  74  75
ATOM     75  C   UNL A   1      32.094  27.399  26.349  1.00  0.00     0.116 C 
BRANCH  75  76
ATOM     76  N   UNL A   1      31.221  26.283  26.652  1.00  0.00    -0.356 N 
ATOM     77  C   UNL A   1      30.243  25.708  25.899  1.00  0.00     0.223 C 
ATOM     78  H   UNL A   1      31.357  25.877  27.539  1.00  0.00     0.163 HD
ATOM     79  O   UNL A   1      29.457  24.957  26.482  1.00  0.00    -0.275 OA
BRANCH  77  80
ATOM     80  C   UNL A   1      30.154  25.949  24.390  1.00  0.00     0.087 C 
BRANCH  80  81
ATOM     81  C   UNL A   1      30.373  24.565  23.724  1.00  0.00     0.049 C 
BRANCH  81  82
ATOM     82  C   UNL A   1      31.805  24.090  23.618  1.00  0.00    -0.044 A 
ATOM     83  C   UNL A   1      32.860  24.965  23.321  1.00  0.00     0.004 A 
ATOM     84  C   UNL A   1      32.099  22.739  23.853  1.00  0.00     0.043 A 
ATOM     85  C   UNL A   1      34.170  24.490  23.210  1.00  0.00     0.003 A 
ATOM     86  C   UNL A   1      33.406  22.278  23.749  1.00  0.00     0.123 A 
ATOM     87  C   UNL A   1      34.443  23.140  23.420  1.00  0.00     0.039 A 
ATOM     88  F   UNL A   1      33.668  20.982  23.966  1.00  0.00    -0.207 F 
ENDBRANCH  81  82
ENDBRANCH  80  81
BRANCH  80  89
ATOM     89  C   UNL A   1      28.777  26.533  23.997  1.00  0.00     0.049 C 
BRANCH  89  90
ATOM     90  C   UNL A   1      28.820  27.874  23.296  1.00  0.00    -0.044 A 
ATOM     91  C   UNL A   1      27.657  28.635  23.102  1.00  0.00     0.004 A 
ATOM     92  C   UNL A   1      30.041  28.390  22.841  1.00  0.00     0.049 A 
ATOM     93  C   UNL A   1      27.706  29.851  22.414  1.00  0.00     0.004 A 
ATOM     94  C   UNL A   1      30.076  29.588  22.131  1.00  0.00     0.115 A 
ATOM     95  C   UNL A   1      28.918  30.327  21.914  1.00  0.00     0.046 A 
BRANCH  94  96
ATOM     96  O   UNL A   1      31.275  29.975  21.608  1.00  0.00    -0.508 OA
ATOM     97  H   UNL A   1      31.804  29.358  21.142  1.00  0.00     0.293 HD
ENDBRANCH  94  96
ENDBRANCH  89  90
ENDBRANCH  80  89
ENDBRANCH  77  80
ENDBRANCH  75  76
ENDBRANCH  74  75
ENDBRANCH   1  74
TORSDOF 18
ENDMDL
MODEL 2
REMARK VINA RESULT:     -12.5      0.249      7.294
REMARK SMILES O=C(NCCCCCCNC(=O)[C@H](Cc1cccc(O)c1)Cc1cccc(F)c1)c1ccc(-c2c3nc(c(-c4c(F)c(F)c(F)c(F)c4F)c4ccc([nH]4)c(-c4c(F)c(F)c(F)c(F)c4F)c4nc(c(-c5c(F)c(F)c(F)c(F)c5F)c5ccc2[nH]5)C=C4)C=C3)cc1
REMARK SMILES IDX 7 1 6 2 5 3 4 4 3 5 1 6 2 7 30 9 31 10 92 11 32 12 91 13
REMARK SMILES IDX 33 14 34 15 35 16 85 17 36 18 90 19 84 20 86 21 37 22 89 23
REMARK SMILES IDX 83 24 82 25 38 27 70 28 50 29 69 30 51 31 54 32 68 33 87 34
REMARK SMILES IDX 52 35 53 36 67 38 88 39 55 40 39 41 40 42 48 43 41 44 42 45
REMARK SMILES IDX 46 46 49 47 43 48 44 49 47 50 45 51 71 52 72 53 80 54 73 55
REMARK SMILES IDX 74 56 78 57 81 58 75 59 76 60 79 61 77 62 56 63 57 64 65 65
REMARK SMILES IDX 58 66 59 67 63 68 66 69 60 70 61 71 64 72 62 73 8 74 9 75
REMARK SMILES IDX 10 76 11 77 12 79 13 80 22 81 23 82 24 83 29 84 25 85 27 86
REMARK SMILES IDX 26 87 28 88 14 89 15 90 16 91 21 92 17 93 19 94 18 95 20 96
REMARK H PARENT 3 8 86 26 54 37 10 78 20 97
REMARK Flexibility Score: inf
ROOT
ATOM      1  C   UNL A   1      32.386  29.993  26.233  1.00  0.00     0.002 C 
ENDROOT
BRANCH   1   2
ATOM      2  C   UNL A   1      31.243  30.896  25.766  1.00  0.00     0.002 C 
BRANCH   2   3
ATOM      3  C   UNL A   1      31.195  32.286  26.409  1.00  0.00     0.021 C 
BRANCH   3   4
ATOM      4  C   UNL A   1      32.487  32.729  27.091  1.00  0.00     0.116 C 
BRANCH   4   5
ATOM      5  N   UNL A   1      32.415  34.101  27.567  1.00  0.00    -0.352 N 
ATOM      6  O   UNL A   1      32.742  35.822  28.990  1.00  0.00    -0.269 OA
ATOM      7  C   UNL A   1      33.096  34.711  28.586  1.00  0.00     0.251 C 
ATOM      8  H   UNL A   1      31.782  34.679  27.083  1.00  0.00     0.163 HD
BRANCH   7   9
ATOM      9  C   UNL A   1      34.248  34.042  29.220  1.00  0.00     0.039 A 
ATOM     10  C   UNL A   1      34.056  33.028  30.162  1.00  0.00     0.014 A 
ATOM     11  C   UNL A   1      35.542  34.403  28.833  1.00  0.00     0.014 A 
ATOM     12  C   UNL A   1      35.152  32.467  30.811  1.00  0.00     0.010 A 
ATOM     13  C   UNL A   1      36.643  33.784  29.429  1.00  0.00     0.010 A 
ATOM     14  C   UNL A   1      36.457  32.829  30.441  1.00  0.00    -0.014 A 
BRANCH  14  15
ATOM     15  C   UNL A   1      37.621  32.163  31.078  1.00  0.00     0.031 A 
ATOM     16  C   UNL A   1      38.075  32.555  32.455  1.00  0.00     0.074 A 
ATOM     17  C   UNL A   1      38.272  31.198  30.401  1.00  0.00     0.049 A 
ATOM     18  N   UNL A   1      39.095  32.109  33.145  1.00  0.00    -0.248 NA
ATOM     19  C   UNL A   1      37.288  33.585  33.147  1.00  0.00     0.031 C 
ATOM     20  C   UNL A   1      37.921  30.731  29.059  1.00  0.00     0.029 A 
ATOM     21  N   UNL A   1      39.359  30.435  30.745  1.00  0.00    -0.354 N 
ATOM     22  C   UNL A   1      39.082  32.812  34.341  1.00  0.00     0.074 A 
ATOM     23  C   UNL A   1      37.970  33.737  34.275  1.00  0.00     0.031 C 
ATOM     24  C   UNL A   1      38.754  29.743  28.705  1.00  0.00     0.029 A 
ATOM     25  C   UNL A   1      39.738  29.550  29.765  1.00  0.00     0.049 A 
ATOM     26  H   UNL A   1      39.823  30.513  31.609  1.00  0.00     0.167 HD
ATOM     27  C   UNL A   1      39.917  32.689  35.400  1.00  0.00     0.037 A 
ATOM     28  C   UNL A   1      40.775  28.694  29.712  1.00  0.00     0.037 A 
ATOM     29  C   UNL A   1      41.017  31.759  35.460  1.00  0.00     0.049 A 
ATOM     30  C   UNL A   1      41.718  28.610  30.878  1.00  0.00     0.074 A 
ATOM     31  C   UNL A   1      41.899  31.537  36.503  1.00  0.00     0.029 A 
ATOM     32  N   UNL A   1      41.388  30.902  34.433  1.00  0.00    -0.354 N 
ATOM     33  N   UNL A   1      41.681  29.263  32.015  1.00  0.00    -0.248 NA
ATOM     34  C   UNL A   1      42.847  27.678  30.756  1.00  0.00     0.031 C 
ATOM     35  C   UNL A   1      42.839  30.589  36.087  1.00  0.00     0.029 A 
ATOM     36  C   UNL A   1      42.504  30.170  34.809  1.00  0.00     0.049 A 
ATOM     37  H   UNL A   1      40.927  30.825  33.567  1.00  0.00     0.167 HD
ATOM     38  C   UNL A   1      42.765  28.807  32.752  1.00  0.00     0.074 A 
ATOM     39  C   UNL A   1      43.436  27.815  31.937  1.00  0.00     0.031 C 
ATOM     40  C   UNL A   1      43.161  29.178  33.993  1.00  0.00     0.037 A 
BRANCH  27  41
ATOM     41  C   UNL A   1      39.694  33.585  36.584  1.00  0.00     0.064 A 
ATOM     42  C   UNL A   1      38.864  33.175  37.640  1.00  0.00     0.173 A 
ATOM     43  C   UNL A   1      40.239  34.877  36.644  1.00  0.00     0.173 A 
ATOM     44  F   UNL A   1      38.311  31.953  37.629  1.00  0.00    -0.203 F 
ATOM     45  C   UNL A   1      38.579  34.028  38.702  1.00  0.00     0.198 A 
ATOM     46  C   UNL A   1      39.976  35.716  37.724  1.00  0.00     0.198 A 
ATOM     47  F   UNL A   1      41.047  35.315  35.667  1.00  0.00    -0.203 F 
ATOM     48  F   UNL A   1      37.756  33.626  39.681  1.00  0.00    -0.200 F 
ATOM     49  C   UNL A   1      39.138  35.296  38.747  1.00  0.00     0.200 A 
ATOM     50  F   UNL A   1      40.537  36.932  37.778  1.00  0.00    -0.200 F 
ATOM     51  F   UNL A   1      38.873  36.112  39.776  1.00  0.00    -0.200 F 
ENDBRANCH  27  41
BRANCH  28  52
ATOM     52  C   UNL A   1      40.952  27.846  28.506  1.00  0.00     0.064 A 
ATOM     53  C   UNL A   1      41.718  28.284  27.414  1.00  0.00     0.173 A 
ATOM     54  C   UNL A   1      40.303  26.610  28.395  1.00  0.00     0.173 A 
ATOM     55  F   UNL A   1      42.353  29.464  27.469  1.00  0.00    -0.203 F 
ATOM     56  C   UNL A   1      41.799  27.532  26.244  1.00  0.00     0.198 A 
ATOM     57  C   UNL A   1      40.409  25.846  27.235  1.00  0.00     0.198 A 
ATOM     58  F   UNL A   1      39.575  26.143  29.419  1.00  0.00    -0.203 F 
ATOM     59  F   UNL A   1      42.495  27.997  25.198  1.00  0.00    -0.200 F 
ATOM     60  C   UNL A   1      41.147  26.313  26.156  1.00  0.00     0.200 A 
ATOM     61  F   UNL A   1      39.792  24.658  27.160  1.00  0.00    -0.200 F 
ATOM     62  F   UNL A   1      41.225  25.588  25.033  1.00  0.00    -0.200 F 
ENDBRANCH  28  52
BRANCH  40  63
ATOM     63  C   UNL A   1      44.361  28.494  34.579  1.00  0.00     0.064 A 
ATOM     64  C   UNL A   1      45.647  29.011  34.356  1.00  0.00     0.173 A 
ATOM     65  C   UNL A   1      44.251  27.281  35.273  1.00  0.00     0.173 A 
ATOM     66  F   UNL A   1      45.806  30.165  33.690  1.00  0.00    -0.203 F 
ATOM     67  C   UNL A   1      46.780  28.325  34.785  1.00  0.00     0.198 A 
ATOM     68  C   UNL A   1      45.386  26.613  35.728  1.00  0.00     0.198 A 
ATOM     69  F   UNL A   1      43.044  26.754  35.524  1.00  0.00    -0.203 F 
ATOM     70  F   UNL A   1      47.999  28.816  34.520  1.00  0.00    -0.200 F 
ATOM     71  C   UNL A   1      46.648  27.129  35.472  1.00  0.00     0.200 A 
ATOM     72  F   UNL A   1      45.257  25.468  36.411  1.00  0.00    -0.200 F 
ATOM     73  F   UNL A   1      47.738  26.470  35.887  1.00  0.00    -0.200 F 
ENDBRANCH  40  63
ENDBRANCH  14  15
ENDBRANCH   7   9
ENDBRANCH   4   5
ENDBRANCH   3   4
ENDBRANCH   2   3
ENDBRANCH   1   2
BRANCH   1  74
ATOM     74  C   UNL A   1      31.946  28.712  26.942  1.00  0.00     0.021 C 
BRANCH  74  75
ATOM     75  C   UNL A   1      32.256  27.415  26.200  1.00  0.00     0.116 C 
BRANCH  75  76
ATOM     76  N   UNL A   1      31.327  26.382  26.611  1.00  0.00    -0.356 N 
ATOM     77  C   UNL A   1      30.301  25.805  25.927  1.00  0.00     0.223 C 
ATOM     78  H   UNL A   1      31.458  26.046  27.527  1.00  0.00     0.163 HD
ATOM     79  O   UNL A   1      29.486  25.154  26.584  1.00  0.00    -0.275 OA
BRANCH  77  80
ATOM     80  C   UNL A   1      30.194  25.922  24.404  1.00  0.00     0.087 C 
BRANCH  80  81
ATOM     81  C   UNL A   1      30.408  24.488  23.851  1.00  0.00     0.049 C 
BRANCH  81  82
ATOM     82  C   UNL A   1      31.843  24.036  23.696  1.00  0.00    -0.044 A 
ATOM     83  C   UNL A   1      32.869  24.922  23.337  1.00  0.00     0.004 A 
ATOM     84  C   UNL A   1      32.170  22.695  23.948  1.00  0.00     0.043 A 
ATOM     85  C   UNL A   1      34.182  24.467  23.183  1.00  0.00     0.003 A 
ATOM     86  C   UNL A   1      33.480  22.254  23.801  1.00  0.00     0.123 A 
ATOM     87  C   UNL A   1      34.487  23.126  23.411  1.00  0.00     0.039 A 
ATOM     88  F   UNL A   1      33.774  20.969  24.035  1.00  0.00    -0.207 F 
ENDBRANCH  81  82
ENDBRANCH  80  81
BRANCH  80  89
ATOM     89  C   UNL A   1      28.811  26.471  23.981  1.00  0.00     0.049 C 
BRANCH  89  90
ATOM     90  C   UNL A   1      28.832  27.828  23.311  1.00  0.00    -0.044 A 
ATOM     91  C   UNL A   1      27.656  28.572  23.131  1.00  0.00     0.004 A 
ATOM     92  C   UNL A   1      30.044  28.377  22.872  1.00  0.00     0.049 A 
ATOM     93  C   UNL A   1      27.685  29.805  22.472  1.00  0.00     0.004 A 
ATOM     94  C   UNL A   1      30.060  29.591  22.190  1.00  0.00     0.115 A 
ATOM     95  C   UNL A   1      28.889  30.314  21.987  1.00  0.00     0.046 A 
BRANCH  94  96
ATOM     96  O   UNL A   1      31.253  30.012  21.680  1.00  0.00    -0.508 OA
ATOM     97  H   UNL A   1      31.893  30.398  22.243  1.00  0.00     0.293 HD
ENDBRANCH  94  96
ENDBRANCH  89  90
ENDBRANCH  80  89
ENDBRANCH  77  80
ENDBRANCH  75  76
ENDBRANCH  74  75
ENDBRANCH   1  74
TORSDOF 18
ENDMDL
MODEL 3
REMARK VINA RESULT:     -12.4      3.283      8.425
REMARK SMILES O=C(NCCCCCCNC(=O)[C@H](Cc1cccc(O)c1)Cc1cccc(F)c1)c1ccc(-c2c3nc(c(-c4c(F)c(F)c(F)c(F)c4F)c4ccc([nH]4)c(-c4c(F)c(F)c(F)c(F)c4F)c4nc(c(-c5c(F)c(F)c(F)c(F)c5F)c5ccc2[nH]5)C=C4)C=C3)cc1
REMARK SMILES IDX 7 1 6 2 5 3 4 4 3 5 1 6 2 7 30 9 31 10 92 11 32 12 91 13
REMARK SMILES IDX 33 14 34 15 35 16 85 17 36 18 90 19 84 20 86 21 37 22 89 23
REMARK SMILES IDX 83 24 82 25 38 27 70 28 50 29 69 30 51 31 54 32 68 33 87 34
REMARK SMILES IDX 52 35 53 36 67 38 88 39 55 40 39 41 40 42 48 43 41 44 42 45
REMARK SMILES IDX 46 46 49 47 43 48 44 49 47 50 45 51 71 52 72 53 80 54 73 55
REMARK SMILES IDX 74 56 78 57 81 58 75 59 76 60 79 61 77 62 56 63 57 64 65 65
REMARK SMILES IDX 58 66 59 67 63 68 66 69 60 70 61 71 64 72 62 73 8 74 9 75
REMARK SMILES IDX 10 76 11 77 12 79 13 80 22 81 23 82 24 83 29 84 25 85 27 86
REMARK SMILES IDX 26 87 28 88 14 89 15 90 16 91 21 92 17 93 19 94 18 95 20 96
REMARK H PARENT 3 8 86 26 54 37 10 78 20 97
REMARK Flexibility Score: inf
ROOT
ATOM      1  C   UNL A   1      33.627  25.091  26.187  1.00  0.00     0.002 C 
ENDROOT
BRANCH   1   2
ATOM      2  C   UNL A   1      33.134  26.420  25.613  1.00  0.00     0.002 C 
BRANCH   2   3
ATOM      3  C   UNL A   1      33.275  27.632  26.539  1.00  0.00     0.021 C 
BRANCH   3   4
ATOM      4  C   UNL A   1      34.147  28.763  25.999  1.00  0.00     0.116 C 
BRANCH   4   5
ATOM      5  N   UNL A   1      33.834  30.042  26.616  1.00  0.00    -0.352 N 
ATOM      6  O   UNL A   1      33.928  31.668  28.178  1.00  0.00    -0.269 OA
ATOM      7  C   UNL A   1      34.467  30.700  27.637  1.00  0.00     0.251 C 
ATOM      8  H   UNL A   1      33.050  30.506  26.244  1.00  0.00     0.163 HD
BRANCH   7   9
ATOM      9  C   UNL A   1      35.791  30.248  28.108  1.00  0.00     0.039 A 
ATOM     10  C   UNL A   1      36.928  30.419  27.315  1.00  0.00     0.014 A 
ATOM     11  C   UNL A   1      35.904  29.686  29.382  1.00  0.00     0.014 A 
ATOM     12  C   UNL A   1      38.153  29.912  27.739  1.00  0.00     0.010 A 
ATOM     13  C   UNL A   1      37.148  29.247  29.840  1.00  0.00     0.010 A 
ATOM     14  C   UNL A   1      38.278  29.334  29.012  1.00  0.00    -0.014 A 
BRANCH  14  15
ATOM     15  C   UNL A   1      39.606  28.873  29.491  1.00  0.00     0.031 A 
ATOM     16  C   UNL A   1      40.382  29.674  30.498  1.00  0.00     0.074 A 
ATOM     17  C   UNL A   1      40.111  27.722  29.008  1.00  0.00     0.049 A 
ATOM     18  N   UNL A   1      41.573  29.443  30.994  1.00  0.00    -0.248 NA
ATOM     19  C   UNL A   1      39.746  30.895  31.010  1.00  0.00     0.031 C 
ATOM     20  C   UNL A   1      39.448  26.860  28.030  1.00  0.00     0.029 A 
ATOM     21  N   UNL A   1      41.293  27.078  29.272  1.00  0.00    -0.354 N 
ATOM     22  C   UNL A   1      41.833  30.494  31.861  1.00  0.00     0.074 A 
ATOM     23  C   UNL A   1      40.690  31.381  31.805  1.00  0.00     0.031 C 
ATOM     24  C   UNL A   1      40.214  25.785  27.799  1.00  0.00     0.029 A 
ATOM     25  C   UNL A   1      41.452  25.914  28.561  1.00  0.00     0.049 A 
ATOM     26  H   UNL A   1      41.963  27.417  29.909  1.00  0.00     0.167 HD
ATOM     27  C   UNL A   1      42.924  30.693  32.640  1.00  0.00     0.037 A 
ATOM     28  C   UNL A   1      42.488  25.055  28.507  1.00  0.00     0.037 A 
ATOM     29  C   UNL A   1      44.053  29.799  32.695  1.00  0.00     0.049 A 
ATOM     30  C   UNL A   1      43.707  25.323  29.341  1.00  0.00     0.074 A 
ATOM     31  C   UNL A   1      45.190  29.898  33.478  1.00  0.00     0.029 A 
ATOM     32  N   UNL A   1      44.190  28.646  31.934  1.00  0.00    -0.354 N 
ATOM     33  N   UNL A   1      43.933  26.308  30.177  1.00  0.00    -0.248 NA
ATOM     34  C   UNL A   1      44.817  24.368  29.225  1.00  0.00     0.031 C 
ATOM     35  C   UNL A   1      46.041  28.839  33.149  1.00  0.00     0.029 A 
ATOM     36  C   UNL A   1      45.407  28.041  32.209  1.00  0.00     0.049 A 
ATOM     37  H   UNL A   1      43.523  28.309  31.294  1.00  0.00     0.167 HD
ATOM     38  C   UNL A   1      45.197  26.081  30.702  1.00  0.00     0.074 A 
ATOM     39  C   UNL A   1      45.687  24.860  30.098  1.00  0.00     0.031 C 
ATOM     40  C   UNL A   1      45.883  26.820  31.607  1.00  0.00     0.037 A 
BRANCH  27  41
ATOM     41  C   UNL A   1      42.967  31.929  33.491  1.00  0.00     0.064 A 
ATOM     42  C   UNL A   1      43.599  33.093  33.023  1.00  0.00     0.173 A 
ATOM     43  C   UNL A   1      42.451  31.945  34.795  1.00  0.00     0.173 A 
ATOM     44  F   UNL A   1      44.117  33.129  31.786  1.00  0.00    -0.203 F 
ATOM     45  C   UNL A   1      43.723  34.218  33.832  1.00  0.00     0.198 A 
ATOM     46  C   UNL A   1      42.550  33.084  35.591  1.00  0.00     0.198 A 
ATOM     47  F   UNL A   1      41.829  30.864  35.289  1.00  0.00    -0.203 F 
ATOM     48  F   UNL A   1      44.361  35.305  33.375  1.00  0.00    -0.200 F 
ATOM     49  C   UNL A   1      43.194  34.216  35.114  1.00  0.00     0.200 A 
ATOM     50  F   UNL A   1      42.016  33.088  36.821  1.00  0.00    -0.200 F 
ATOM     51  F   UNL A   1      43.303  35.304  35.888  1.00  0.00    -0.200 F 
ENDBRANCH  27  41
BRANCH  28  52
ATOM     52  C   UNL A   1      42.391  23.860  27.632  1.00  0.00     0.064 A 
ATOM     53  C   UNL A   1      41.933  22.629  28.129  1.00  0.00     0.173 A 
ATOM     54  C   UNL A   1      42.817  23.908  26.299  1.00  0.00     0.173 A 
ATOM     55  F   UNL A   1      41.521  22.529  29.401  1.00  0.00    -0.203 F 
ATOM     56  C   UNL A   1      41.939  21.485  27.334  1.00  0.00     0.198 A 
ATOM     57  C   UNL A   1      42.795  22.770  25.497  1.00  0.00     0.198 A 
ATOM     58  F   UNL A   1      43.246  25.066  25.776  1.00  0.00    -0.203 F 
ATOM     59  F   UNL A   1      41.547  20.312  27.848  1.00  0.00    -0.200 F 
ATOM     60  C   UNL A   1      42.368  21.557  26.018  1.00  0.00     0.200 A 
ATOM     61  F   UNL A   1      43.192  22.847  24.219  1.00  0.00    -0.200 F 
ATOM     62  F   UNL A   1      42.372  20.458  25.252  1.00  0.00    -0.200 F 
ENDBRANCH  28  52
BRANCH  40  63
ATOM     63  C   UNL A   1      47.233  26.325  32.036  1.00  0.00     0.064 A 
ATOM     64  C   UNL A   1      48.378  26.671  31.300  1.00  0.00     0.173 A 
ATOM     65  C   UNL A   1      47.384  25.434  33.108  1.00  0.00     0.173 A 
ATOM     66  F   UNL A   1      48.285  27.514  30.261  1.00  0.00    -0.203 F 
ATOM     67  C   UNL A   1      49.620  26.123  31.608  1.00  0.00     0.198 A 
ATOM     68  C   UNL A   1      48.635  24.912  33.431  1.00  0.00     0.198 A 
ATOM     69  F   UNL A   1      46.323  25.084  33.849  1.00  0.00    -0.203 F 
ATOM     70  F   UNL A   1      50.690  26.434  30.863  1.00  0.00    -0.200 F 
ATOM     71  C   UNL A   1      49.747  25.247  32.674  1.00  0.00     0.200 A 
ATOM     72  F   UNL A   1      48.761  24.082  34.475  1.00  0.00    -0.200 F 
ATOM     73  F   UNL A   1      50.944  24.721  32.971  1.00  0.00    -0.200 F 
ENDBRANCH  40  63
ENDBRANCH  14  15
ENDBRANCH   7   9
ENDBRANCH   4   5
ENDBRANCH   3   4
ENDBRANCH   2   3
ENDBRANCH   1   2
BRANCH   1  74
ATOM     74  C   UNL A   1      32.526  24.159  26.691  1.00  0.00     0.021 C 
BRANCH  74  75
ATOM     75  C   UNL A   1      33.010  22.900  27.403  1.00  0.00     0.116 C 
BRANCH  75  76
ATOM     76  N   UNL A   1      32.447  21.729  26.764  1.00  0.00    -0.356 N 
ATOM     77  C   UNL A   1      32.539  21.307  25.473  1.00  0.00     0.223 C 
ATOM     78  H   UNL A   1      31.915  21.147  27.355  1.00  0.00     0.163 HD
ATOM     79  O   UNL A   1      31.746  20.435  25.111  1.00  0.00    -0.275 OA
BRANCH  77  80
ATOM     80  C   UNL A   1      33.610  21.861  24.529  1.00  0.00     0.087 C 
BRANCH  80  81
ATOM     81  C   UNL A   1      34.764  20.823  24.540  1.00  0.00     0.049 C 
BRANCH  81  82
ATOM     82  C   UNL A   1      36.112  21.323  25.009  1.00  0.00    -0.044 A 
ATOM     83  C   UNL A   1      37.252  20.507  25.004  1.00  0.00     0.004 A 
ATOM     84  C   UNL A   1      36.239  22.654  25.434  1.00  0.00     0.043 A 
ATOM     85  C   UNL A   1      38.480  20.995  25.463  1.00  0.00     0.003 A 
ATOM     86  C   UNL A   1      37.466  23.132  25.880  1.00  0.00     0.123 A 
ATOM     87  C   UNL A   1      38.585  22.311  25.908  1.00  0.00     0.039 A 
ATOM     88  F   UNL A   1      37.568  24.402  26.293  1.00  0.00    -0.207 F 
ENDBRANCH  81  82
ENDBRANCH  80  81
BRANCH  80  89
ATOM     89  C   UNL A   1      33.054  22.045  23.097  1.00  0.00     0.049 C 
BRANCH  89  90
ATOM     90  C   UNL A   1      32.487  23.415  22.797  1.00  0.00    -0.044 A 
ATOM     91  C   UNL A   1      31.292  23.856  23.385  1.00  0.00     0.004 A 
ATOM     92  C   UNL A   1      33.166  24.283  21.930  1.00  0.00     0.049 A 
ATOM     93  C   UNL A   1      30.758  25.108  23.064  1.00  0.00     0.004 A 
ATOM     94  C   UNL A   1      32.612  25.515  21.594  1.00  0.00     0.115 A 
ATOM     95  C   UNL A   1      31.412  25.939  22.155  1.00  0.00     0.046 A 
BRANCH  94  96
ATOM     96  O   UNL A   1      33.258  26.260  20.652  1.00  0.00    -0.508 OA
ATOM     97  H   UNL A   1      33.389  27.177  20.789  1.00  0.00     0.293 HD
ENDBRANCH  94  96
ENDBRANCH  89  90
ENDBRANCH  80  89
ENDBRANCH  77  80
ENDBRANCH  75  76
ENDBRANCH  74  75
ENDBRANCH   1  74
TORSDOF 18
ENDMDL
