MODEL 1
REMARK VINA RESULT:     -13.7      0.000      0.000
REMARK SMILES O=C1O[C@@H](c2ccc(O)c(O)c2)[C@H](C(=O)NCCCCCCNC(=O)c2ccc(-c3c4nc(c(-c5c(F)c(F)c(F)c(F)c5F)c5ccc([nH]5)c(-c5c(F)c(F)c(F)c(F)c5F)c5nc(c(-c6c(F)c(F)c(F)c(F)c6F)c6ccc3[nH]6)C=C5)C=C4)cc2)/C1=C\c1ccc(O)c(O)c1
REMARK SMILES IDX 19 1 18 2 17 3 16 4 14 5 15 6 13 8 1 9 2 10 3 11 89 12 4 13
REMARK SMILES IDX 90 14 5 15 6 16 12 17 7 18 10 19 8 20 11 21 9 23 91 25 92 26
REMARK SMILES IDX 98 27 93 28 96 29 94 30 97 31 95 33 20 35 21 36 22 37 23 38
REMARK SMILES IDX 24 39 25 41 26 42 27 43 88 44 28 45 87 46 29 47 30 48 31 49
REMARK SMILES IDX 81 50 32 51 86 52 80 53 82 54 33 55 85 56 79 57 78 58 34 60
REMARK SMILES IDX 66 61 46 62 65 63 47 64 50 65 64 66 83 67 48 68 49 69 63 71
REMARK SMILES IDX 84 72 51 73 35 74 36 75 44 76 37 77 38 78 42 79 45 80 39 81
REMARK SMILES IDX 40 82 43 83 41 84 67 85 68 86 76 87 69 88 70 89 74 90 77 91
REMARK SMILES IDX 71 92 72 93 75 94 73 95 52 96 53 97 61 98 54 99 55 100
REMARK SMILES IDX 59 101 62 102 56 103 57 104 60 105 58 106
REMARK H PARENT 16 7 11 22 9 24 97 32 95 34 23 40 82 59 50 70
REMARK Flexibility Score: inf
ROOT
ATOM      1  C   UNL A   1      32.315  29.901  27.046  1.00  0.00     0.002 C 
ENDROOT
BRANCH   1   2
ATOM      2  C   UNL A   1      31.680  28.536  27.316  1.00  0.00     0.021 C 
BRANCH   2   3
ATOM      3  C   UNL A   1      32.628  27.357  27.148  1.00  0.00     0.116 C 
BRANCH   3   4
ATOM      4  N   UNL A   1      33.649  27.574  26.147  1.00  0.00    -0.355 N 
ATOM      5  C   UNL A   1      33.571  27.576  24.782  1.00  0.00     0.231 C 
ATOM      6  O   UNL A   1      34.580  27.939  24.176  1.00  0.00    -0.274 OA
ATOM      7  H   UNL A   1      34.549  27.747  26.507  1.00  0.00     0.163 HD
BRANCH   5   8
ATOM      8  C   UNL A   1      32.315  27.057  24.070  1.00  0.00     0.161 C 
ATOM      9  O   UNL A   1      33.278  25.983  20.801  1.00  0.00    -0.247 OA
ATOM     10  C   UNL A   1      32.803  26.528  21.782  1.00  0.00     0.335 C 
ATOM     11  O   UNL A   1      32.292  27.782  21.811  1.00  0.00    -0.453 OA
ATOM     12  C   UNL A   1      32.661  25.951  23.130  1.00  0.00     0.054 C 
ATOM     13  C   UNL A   1      31.719  28.071  23.097  1.00  0.00     0.224 C 
ATOM     14  C   UNL A   1      32.823  24.633  23.319  1.00  0.00     0.020 C 
BRANCH  13  15
ATOM     15  C   UNL A   1      30.187  28.095  23.042  1.00  0.00    -0.002 A 
ATOM     16  C   UNL A   1      29.412  27.091  23.669  1.00  0.00     0.012 A 
ATOM     17  C   UNL A   1      29.504  29.168  22.449  1.00  0.00     0.057 A 
ATOM     18  C   UNL A   1      28.016  27.164  23.727  1.00  0.00     0.050 A 
ATOM     19  C   UNL A   1      28.114  29.222  22.489  1.00  0.00     0.157 A 
ATOM     20  C   UNL A   1      27.373  28.237  23.134  1.00  0.00     0.157 A 
BRANCH  19  21
ATOM     21  O   UNL A   1      27.472  30.270  21.896  1.00  0.00    -0.504 OA
ATOM     22  H   UNL A   1      26.571  30.191  21.653  1.00  0.00     0.293 HD
ENDBRANCH  19  21
BRANCH  20  23
ATOM     23  O   UNL A   1      26.014  28.370  23.161  1.00  0.00    -0.504 OA
ATOM     24  H   UNL A   1      25.525  28.042  23.890  1.00  0.00     0.293 HD
ENDBRANCH  20  23
ENDBRANCH  13  15
BRANCH  14  25
ATOM     25  C   UNL A   1      32.693  23.963  24.611  1.00  0.00    -0.021 A 
ATOM     26  C   UNL A   1      33.724  24.022  25.563  1.00  0.00     0.012 A 
ATOM     27  C   UNL A   1      31.506  23.287  24.915  1.00  0.00     0.058 A 
ATOM     28  C   UNL A   1      33.586  23.387  26.801  1.00  0.00     0.051 A 
ATOM     29  C   UNL A   1      31.374  22.667  26.149  1.00  0.00     0.157 A 
ATOM     30  C   UNL A   1      32.406  22.709  27.084  1.00  0.00     0.157 A 
BRANCH  29  31
ATOM     31  O   UNL A   1      30.214  22.013  26.446  1.00  0.00    -0.504 OA
ATOM     32  H   UNL A   1      30.156  21.485  27.218  1.00  0.00     0.293 HD
ENDBRANCH  29  31
BRANCH  30  33
ATOM     33  O   UNL A   1      32.209  22.071  28.276  1.00  0.00    -0.504 OA
ATOM     34  H   UNL A   1      32.267  21.136  28.323  1.00  0.00     0.293 HD
ENDBRANCH  30  33
ENDBRANCH  14  25
ENDBRANCH   5   8
ENDBRANCH   3   4
ENDBRANCH   2   3
ENDBRANCH   1   2
BRANCH   1  35
ATOM     35  C   UNL A   1      31.533  30.805  26.086  1.00  0.00     0.002 C 
BRANCH  35  36
ATOM     36  C   UNL A   1      31.345  32.250  26.552  1.00  0.00     0.021 C 
BRANCH  36  37
ATOM     37  C   UNL A   1      32.522  32.827  27.328  1.00  0.00     0.116 C 
BRANCH  37  38
ATOM     38  N   UNL A   1      32.335  34.233  27.645  1.00  0.00    -0.352 N 
ATOM     39  C   UNL A   1      32.961  34.998  28.596  1.00  0.00     0.251 C 
ATOM     40  H   UNL A   1      31.663  34.703  27.100  1.00  0.00     0.163 HD
ATOM     41  O   UNL A   1      32.547  36.122  28.861  1.00  0.00    -0.269 OA
BRANCH  39  42
ATOM     42  C   UNL A   1      34.131  34.455  29.316  1.00  0.00     0.039 A 
ATOM     43  C   UNL A   1      33.935  33.801  30.533  1.00  0.00     0.014 A 
ATOM     44  C   UNL A   1      35.418  34.593  28.788  1.00  0.00     0.014 A 
ATOM     45  C   UNL A   1      35.024  33.236  31.198  1.00  0.00     0.010 A 
ATOM     46  C   UNL A   1      36.489  33.959  29.408  1.00  0.00     0.010 A 
ATOM     47  C   UNL A   1      36.306  33.282  30.624  1.00  0.00    -0.014 A 
BRANCH  47  48
ATOM     48  C   UNL A   1      37.473  32.647  31.286  1.00  0.00     0.031 A 
ATOM     49  C   UNL A   1      38.190  31.510  30.613  1.00  0.00     0.074 A 
ATOM     50  C   UNL A   1      37.844  33.046  32.518  1.00  0.00     0.049 A 
ATOM     51  N   UNL A   1      39.167  30.763  31.061  1.00  0.00    -0.248 NA
ATOM     52  C   UNL A   1      37.727  31.144  29.265  1.00  0.00     0.031 C 
ATOM     53  C   UNL A   1      37.204  34.113  33.290  1.00  0.00     0.029 A 
ATOM     54  N   UNL A   1      38.843  32.593  33.344  1.00  0.00    -0.354 N 
ATOM     55  C   UNL A   1      39.423  29.836  30.060  1.00  0.00     0.074 A 
ATOM     56  C   UNL A   1      38.460  30.072  29.007  1.00  0.00     0.031 C 
ATOM     57  C   UNL A   1      37.839  34.246  34.465  1.00  0.00     0.029 A 
ATOM     58  C   UNL A   1      38.899  33.246  34.551  1.00  0.00     0.049 A 
ATOM     59  H   UNL A   1      39.461  31.868  33.094  1.00  0.00     0.167 HD
ATOM     60  C   UNL A   1      40.391  28.889  30.012  1.00  0.00     0.037 A 
ATOM     61  C   UNL A   1      39.708  33.050  35.610  1.00  0.00     0.037 A 
ATOM     62  C   UNL A   1      41.360  28.673  31.054  1.00  0.00     0.049 A 
ATOM     63  C   UNL A   1      40.758  31.974  35.542  1.00  0.00     0.074 A 
ATOM     64  C   UNL A   1      42.411  27.773  31.081  1.00  0.00     0.029 A 
ATOM     65  N   UNL A   1      41.393  29.363  32.257  1.00  0.00    -0.354 N 
ATOM     66  N   UNL A   1      41.031  31.142  34.566  1.00  0.00    -0.248 NA
ATOM     67  C   UNL A   1      41.619  31.813  36.722  1.00  0.00     0.031 C 
ATOM     68  C   UNL A   1      43.044  27.878  32.323  1.00  0.00     0.029 A 
ATOM     69  C   UNL A   1      42.431  28.891  33.044  1.00  0.00     0.049 A 
ATOM     70  H   UNL A   1      40.771  30.083  32.514  1.00  0.00     0.167 HD
ATOM     71  C   UNL A   1      42.114  30.389  34.996  1.00  0.00     0.074 A 
ATOM     72  C   UNL A   1      42.457  30.868  36.319  1.00  0.00     0.031 C 
ATOM     73  C   UNL A   1      42.769  29.390  34.354  1.00  0.00     0.037 A 
BRANCH  60  74
ATOM     74  C   UNL A   1      40.448  28.014  28.792  1.00  0.00     0.064 A 
ATOM     75  C   UNL A   1      41.204  28.367  27.664  1.00  0.00     0.173 A 
ATOM     76  C   UNL A   1      39.765  26.787  28.764  1.00  0.00     0.173 A 
ATOM     77  F   UNL A   1      41.866  29.533  27.632  1.00  0.00    -0.203 F 
ATOM     78  C   UNL A   1      41.245  27.544  26.541  1.00  0.00     0.198 A 
ATOM     79  C   UNL A   1      39.839  25.949  27.654  1.00  0.00     0.198 A 
ATOM     80  F   UNL A   1      39.032  26.397  29.817  1.00  0.00    -0.203 F 
ATOM     81  F   UNL A   1      41.927  27.931  25.454  1.00  0.00    -0.200 F 
ATOM     82  C   UNL A   1      40.571  26.333  26.541  1.00  0.00     0.200 A 
ATOM     83  F   UNL A   1      39.198  24.773  27.661  1.00  0.00    -0.200 F 
ATOM     84  F   UNL A   1      40.618  25.537  25.463  1.00  0.00    -0.200 F 
ENDBRANCH  60  74
BRANCH  61  85
ATOM     85  C   UNL A   1      39.569  33.903  36.821  1.00  0.00     0.064 A 
ATOM     86  C   UNL A   1      38.800  33.480  37.915  1.00  0.00     0.173 A 
ATOM     87  C   UNL A   1      40.187  35.159  36.907  1.00  0.00     0.173 A 
ATOM     88  F   UNL A   1      38.173  32.296  37.874  1.00  0.00    -0.203 F 
ATOM     89  C   UNL A   1      38.632  34.293  39.035  1.00  0.00     0.198 A 
ATOM     90  C   UNL A   1      40.046  35.956  38.040  1.00  0.00     0.198 A 
ATOM     91  F   UNL A   1      40.939  35.608  35.890  1.00  0.00    -0.203 F 
ATOM     92  F   UNL A   1      37.847  33.887  40.043  1.00  0.00    -0.200 F 
ATOM     93  C   UNL A   1      39.260  35.527  39.099  1.00  0.00     0.200 A 
ATOM     94  F   UNL A   1      40.667  37.141  38.104  1.00  0.00    -0.200 F 
ATOM     95  F   UNL A   1      39.100  36.308  40.177  1.00  0.00    -0.200 F 
ENDBRANCH  61  85
BRANCH  73  96
ATOM     96  C   UNL A   1      43.956  28.782  35.045  1.00  0.00     0.064 A 
ATOM     97  C   UNL A   1      43.830  27.688  35.914  1.00  0.00     0.173 A 
ATOM     98  C   UNL A   1      45.247  29.276  34.796  1.00  0.00     0.173 A 
ATOM     99  F   UNL A   1      42.617  27.187  36.196  1.00  0.00    -0.203 F 
ATOM    100  C   UNL A   1      44.947  27.128  36.526  1.00  0.00     0.198 A 
ATOM    101  C   UNL A   1      46.365  28.690  35.382  1.00  0.00     0.198 A 
ATOM    102  F   UNL A   1      45.425  30.315  33.967  1.00  0.00    -0.203 F 
ATOM    103  F   UNL A   1      44.797  26.115  37.391  1.00  0.00    -0.200 F 
ATOM    104  C   UNL A   1      46.214  27.623  36.253  1.00  0.00     0.200 A 
ATOM    105  F   UNL A   1      47.589  29.159  35.103  1.00  0.00    -0.200 F 
ATOM    106  F   UNL A   1      47.289  27.074  36.835  1.00  0.00    -0.200 F 
ENDBRANCH  73  96
ENDBRANCH  47  48
ENDBRANCH  39  42
ENDBRANCH  37  38
ENDBRANCH  36  37
ENDBRANCH  35  36
ENDBRANCH   1  35
TORSDOF 19
ENDMDL
MODEL 2
REMARK VINA RESULT:     -13.7      0.118      1.862
REMARK SMILES O=C1O[C@@H](c2ccc(O)c(O)c2)[C@H](C(=O)NCCCCCCNC(=O)c2ccc(-c3c4nc(c(-c5c(F)c(F)c(F)c(F)c5F)c5ccc([nH]5)c(-c5c(F)c(F)c(F)c(F)c5F)c5nc(c(-c6c(F)c(F)c(F)c(F)c6F)c6ccc3[nH]6)C=C5)C=C4)cc2)/C1=C\c1ccc(O)c(O)c1
REMARK SMILES IDX 19 1 18 2 17 3 16 4 14 5 15 6 13 8 1 9 2 10 3 11 89 12 4 13
REMARK SMILES IDX 90 14 5 15 6 16 12 17 7 18 10 19 8 20 11 21 9 23 91 25 92 26
REMARK SMILES IDX 98 27 93 28 96 29 94 30 97 31 95 33 20 35 21 36 22 37 23 38
REMARK SMILES IDX 24 39 25 41 26 42 27 43 88 44 28 45 87 46 29 47 30 48 31 49
REMARK SMILES IDX 81 50 32 51 86 52 80 53 82 54 33 55 85 56 79 57 78 58 34 60
REMARK SMILES IDX 66 61 46 62 65 63 47 64 50 65 64 66 83 67 48 68 49 69 63 71
REMARK SMILES IDX 84 72 51 73 35 74 36 75 44 76 37 77 38 78 42 79 45 80 39 81
REMARK SMILES IDX 40 82 43 83 41 84 67 85 68 86 76 87 69 88 70 89 74 90 77 91
REMARK SMILES IDX 71 92 72 93 75 94 73 95 52 96 53 97 61 98 54 99 55 100
REMARK SMILES IDX 59 101 62 102 56 103 57 104 60 105 58 106
REMARK H PARENT 16 7 11 22 9 24 97 32 95 34 23 40 82 59 50 70
REMARK Flexibility Score: inf
ROOT
ATOM      1  C   UNL A   1      32.295  29.898  27.131  1.00  0.00     0.002 C 
ENDROOT
BRANCH   1   2
ATOM      2  C   UNL A   1      31.678  28.517  27.354  1.00  0.00     0.021 C 
BRANCH   2   3
ATOM      3  C   UNL A   1      32.646  27.357  27.170  1.00  0.00     0.116 C 
BRANCH   3   4
ATOM      4  N   UNL A   1      33.659  27.603  26.166  1.00  0.00    -0.355 N 
ATOM      5  C   UNL A   1      33.574  27.623  24.802  1.00  0.00     0.231 C 
ATOM      6  O   UNL A   1      34.573  28.010  24.196  1.00  0.00    -0.274 OA
ATOM      7  H   UNL A   1      34.558  27.785  26.524  1.00  0.00     0.163 HD
BRANCH   5   8
ATOM      8  C   UNL A   1      32.321  27.096  24.090  1.00  0.00     0.161 C 
ATOM      9  O   UNL A   1      33.296  26.010  20.828  1.00  0.00    -0.247 OA
ATOM     10  C   UNL A   1      32.817  26.558  21.805  1.00  0.00     0.335 C 
ATOM     11  O   UNL A   1      32.300  27.810  21.827  1.00  0.00    -0.453 OA
ATOM     12  C   UNL A   1      32.673  25.987  23.156  1.00  0.00     0.054 C 
ATOM     13  C   UNL A   1      31.723  28.103  23.111  1.00  0.00     0.224 C 
ATOM     14  C   UNL A   1      32.840  24.670  23.351  1.00  0.00     0.020 C 
BRANCH  13  15
ATOM     15  C   UNL A   1      30.191  28.120  23.052  1.00  0.00    -0.002 A 
ATOM     16  C   UNL A   1      29.419  27.112  23.674  1.00  0.00     0.012 A 
ATOM     17  C   UNL A   1      29.505  29.193  22.460  1.00  0.00     0.057 A 
ATOM     18  C   UNL A   1      28.022  27.179  23.729  1.00  0.00     0.050 A 
ATOM     19  C   UNL A   1      28.115  29.240  22.497  1.00  0.00     0.157 A 
ATOM     20  C   UNL A   1      27.376  28.251  23.137  1.00  0.00     0.157 A 
BRANCH  19  21
ATOM     21  O   UNL A   1      27.470  30.288  21.904  1.00  0.00    -0.504 OA
ATOM     22  H   UNL A   1      26.577  30.196  21.634  1.00  0.00     0.293 HD
ENDBRANCH  19  21
BRANCH  20  23
ATOM     23  O   UNL A   1      26.017  28.378  23.161  1.00  0.00    -0.504 OA
ATOM     24  H   UNL A   1      25.541  28.181  23.944  1.00  0.00     0.293 HD
ENDBRANCH  20  23
ENDBRANCH  13  15
BRANCH  14  25
ATOM     25  C   UNL A   1      32.709  24.007  24.646  1.00  0.00    -0.021 A 
ATOM     26  C   UNL A   1      33.778  23.982  25.557  1.00  0.00     0.012 A 
ATOM     27  C   UNL A   1      31.488  23.421  24.994  1.00  0.00     0.058 A 
ATOM     28  C   UNL A   1      33.640  23.353  26.798  1.00  0.00     0.051 A 
ATOM     29  C   UNL A   1      31.356  22.807  26.232  1.00  0.00     0.157 A 
ATOM     30  C   UNL A   1      32.424  22.766  27.126  1.00  0.00     0.157 A 
BRANCH  29  31
ATOM     31  O   UNL A   1      30.162  22.241  26.573  1.00  0.00    -0.504 OA
ATOM     32  H   UNL A   1      29.566  21.964  25.905  1.00  0.00     0.293 HD
ENDBRANCH  29  31
BRANCH  30  33
ATOM     33  O   UNL A   1      32.225  22.139  28.324  1.00  0.00    -0.504 OA
ATOM     34  H   UNL A   1      31.544  22.430  28.899  1.00  0.00     0.293 HD
ENDBRANCH  30  33
ENDBRANCH  14  25
ENDBRANCH   5   8
ENDBRANCH   3   4
ENDBRANCH   2   3
ENDBRANCH   1   2
BRANCH   1  35
ATOM     35  C   UNL A   1      31.545  30.796  26.140  1.00  0.00     0.002 C 
BRANCH  35  36
ATOM     36  C   UNL A   1      31.367  32.251  26.578  1.00  0.00     0.021 C 
BRANCH  36  37
ATOM     37  C   UNL A   1      32.551  32.837  27.338  1.00  0.00     0.116 C 
BRANCH  37  38
ATOM     38  N   UNL A   1      32.362  34.244  27.648  1.00  0.00    -0.352 N 
ATOM     39  C   UNL A   1      32.983  35.013  28.599  1.00  0.00     0.251 C 
ATOM     40  H   UNL A   1      31.693  34.712  27.098  1.00  0.00     0.163 HD
ATOM     41  O   UNL A   1      32.568  36.137  28.858  1.00  0.00    -0.269 OA
BRANCH  39  42
ATOM     42  C   UNL A   1      34.149  34.472  29.328  1.00  0.00     0.039 A 
ATOM     43  C   UNL A   1      33.950  33.855  30.564  1.00  0.00     0.014 A 
ATOM     44  C   UNL A   1      35.434  34.576  28.790  1.00  0.00     0.014 A 
ATOM     45  C   UNL A   1      35.035  33.292  31.238  1.00  0.00     0.010 A 
ATOM     46  C   UNL A   1      36.500  33.944  29.421  1.00  0.00     0.010 A 
ATOM     47  C   UNL A   1      36.314  33.304  30.656  1.00  0.00    -0.014 A 
BRANCH  47  48
ATOM     48  C   UNL A   1      37.476  32.670  31.330  1.00  0.00     0.031 A 
ATOM     49  C   UNL A   1      38.197  31.531  30.665  1.00  0.00     0.074 A 
ATOM     50  C   UNL A   1      37.837  33.071  32.564  1.00  0.00     0.049 A 
ATOM     51  N   UNL A   1      39.170  30.785  31.123  1.00  0.00    -0.248 NA
ATOM     52  C   UNL A   1      37.745  31.162  29.314  1.00  0.00     0.031 C 
ATOM     53  C   UNL A   1      37.190  34.140  33.327  1.00  0.00     0.029 A 
ATOM     54  N   UNL A   1      38.828  32.620  33.398  1.00  0.00    -0.354 N 
ATOM     55  C   UNL A   1      39.434  29.855  30.126  1.00  0.00     0.074 A 
ATOM     56  C   UNL A   1      38.481  30.089  29.064  1.00  0.00     0.031 C 
ATOM     57  C   UNL A   1      37.815  34.275  34.508  1.00  0.00     0.029 A 
ATOM     58  C   UNL A   1      38.874  33.275  34.604  1.00  0.00     0.049 A 
ATOM     59  H   UNL A   1      39.448  31.894  33.155  1.00  0.00     0.167 HD
ATOM     60  C   UNL A   1      40.403  28.908  30.088  1.00  0.00     0.037 A 
ATOM     61  C   UNL A   1      39.674  33.082  35.671  1.00  0.00     0.037 A 
ATOM     62  C   UNL A   1      41.362  28.694  31.139  1.00  0.00     0.049 A 
ATOM     63  C   UNL A   1      40.725  32.005  35.614  1.00  0.00     0.074 A 
ATOM     64  C   UNL A   1      42.413  27.794  31.177  1.00  0.00     0.029 A 
ATOM     65  N   UNL A   1      41.386  29.387  32.340  1.00  0.00    -0.354 N 
ATOM     66  N   UNL A   1      41.005  31.172  34.642  1.00  0.00    -0.248 NA
ATOM     67  C   UNL A   1      41.576  31.847  36.801  1.00  0.00     0.031 C 
ATOM     68  C   UNL A   1      43.036  27.902  32.424  1.00  0.00     0.029 A 
ATOM     69  C   UNL A   1      42.417  28.916  33.137  1.00  0.00     0.049 A 
ATOM     70  H   UNL A   1      40.762  30.107  32.591  1.00  0.00     0.167 HD
ATOM     71  C   UNL A   1      42.085  30.418  35.083  1.00  0.00     0.074 A 
ATOM     72  C   UNL A   1      42.417  30.901  36.408  1.00  0.00     0.031 C 
ATOM     73  C   UNL A   1      42.744  29.418  34.449  1.00  0.00     0.037 A 
BRANCH  60  74
ATOM     74  C   UNL A   1      40.469  28.030  28.871  1.00  0.00     0.064 A 
ATOM     75  C   UNL A   1      39.770  26.815  28.797  1.00  0.00     0.173 A 
ATOM     76  C   UNL A   1      41.215  28.425  27.748  1.00  0.00     0.173 A 
ATOM     77  F   UNL A   1      39.053  26.383  29.845  1.00  0.00    -0.203 F 
ATOM     78  C   UNL A   1      39.843  26.013  27.661  1.00  0.00     0.198 A 
ATOM     79  C   UNL A   1      41.255  27.638  26.600  1.00  0.00     0.198 A 
ATOM     80  F   UNL A   1      41.898  29.578  27.762  1.00  0.00    -0.203 F 
ATOM     81  F   UNL A   1      39.213  24.830  27.637  1.00  0.00    -0.200 F 
ATOM     82  C   UNL A   1      40.577  26.429  26.561  1.00  0.00     0.200 A 
ATOM     83  F   UNL A   1      41.954  28.048  25.533  1.00  0.00    -0.200 F 
ATOM     84  F   UNL A   1      40.640  25.660  25.465  1.00  0.00    -0.200 F 
ENDBRANCH  60  74
BRANCH  61  85
ATOM     85  C   UNL A   1      39.525  33.937  36.879  1.00  0.00     0.064 A 
ATOM     86  C   UNL A   1      40.161  35.184  36.962  1.00  0.00     0.173 A 
ATOM     87  C   UNL A   1      38.759  33.523  37.979  1.00  0.00     0.173 A 
ATOM     88  F   UNL A   1      40.920  35.616  35.945  1.00  0.00    -0.203 F 
ATOM     89  C   UNL A   1      40.059  35.971  38.108  1.00  0.00     0.198 A 
ATOM     90  C   UNL A   1      38.631  34.325  39.111  1.00  0.00     0.198 A 
ATOM     91  F   UNL A   1      38.125  32.341  37.949  1.00  0.00    -0.203 F 
ATOM     92  F   UNL A   1      40.722  37.133  38.181  1.00  0.00    -0.200 F 
ATOM     93  C   UNL A   1      39.290  35.543  39.179  1.00  0.00     0.200 A 
ATOM     94  F   UNL A   1      37.873  33.914  40.137  1.00  0.00    -0.200 F 
ATOM     95  F   UNL A   1      39.190  36.300  40.281  1.00  0.00    -0.200 F 
ENDBRANCH  61  85
BRANCH  73  96
ATOM     96  C   UNL A   1      43.926  28.812  35.151  1.00  0.00     0.064 A 
ATOM     97  C   UNL A   1      45.221  29.334  35.012  1.00  0.00     0.173 A 
ATOM     98  C   UNL A   1      43.749  27.718  36.013  1.00  0.00     0.173 A 
ATOM     99  F   UNL A   1      45.446  30.370  34.190  1.00  0.00    -0.203 F 
ATOM    100  C   UNL A   1      46.297  28.767  35.690  1.00  0.00     0.198 A 
ATOM    101  C   UNL A   1      44.821  27.177  36.716  1.00  0.00     0.198 A 
ATOM    102  F   UNL A   1      42.530  27.185  36.189  1.00  0.00    -0.203 F 
ATOM    103  F   UNL A   1      47.533  29.251  35.502  1.00  0.00    -0.200 F 
ATOM    104  C   UNL A   1      46.095  27.697  36.547  1.00  0.00     0.200 A 
ATOM    105  F   UNL A   1      44.621  26.154  37.558  1.00  0.00    -0.200 F 
ATOM    106  F   UNL A   1      47.131  27.161  37.208  1.00  0.00    -0.200 F 
ENDBRANCH  73  96
ENDBRANCH  47  48
ENDBRANCH  39  42
ENDBRANCH  37  38
ENDBRANCH  36  37
ENDBRANCH  35  36
ENDBRANCH   1  35
TORSDOF 19
ENDMDL
MODEL 3
REMARK VINA RESULT:     -13.4      5.490     11.066
REMARK SMILES O=C1O[C@@H](c2ccc(O)c(O)c2)[C@H](C(=O)NCCCCCCNC(=O)c2ccc(-c3c4nc(c(-c5c(F)c(F)c(F)c(F)c5F)c5ccc([nH]5)c(-c5c(F)c(F)c(F)c(F)c5F)c5nc(c(-c6c(F)c(F)c(F)c(F)c6F)c6ccc3[nH]6)C=C5)C=C4)cc2)/C1=C\c1ccc(O)c(O)c1
REMARK SMILES IDX 19 1 18 2 17 3 16 4 14 5 15 6 13 8 1 9 2 10 3 11 89 12 4 13
REMARK SMILES IDX 90 14 5 15 6 16 12 17 7 18 10 19 8 20 11 21 9 23 91 25 92 26
REMARK SMILES IDX 98 27 93 28 96 29 94 30 97 31 95 33 20 35 21 36 22 37 23 38
REMARK SMILES IDX 24 39 25 41 26 42 27 43 88 44 28 45 87 46 29 47 30 48 31 49
REMARK SMILES IDX 81 50 32 51 86 52 80 53 82 54 33 55 85 56 79 57 78 58 34 60
REMARK SMILES IDX 66 61 46 62 65 63 47 64 50 65 64 66 83 67 48 68 49 69 63 71
REMARK SMILES IDX 84 72 51 73 35 74 36 75 44 76 37 77 38 78 42 79 45 80 39 81
REMARK SMILES IDX 40 82 43 83 41 84 67 85 68 86 76 87 69 88 70 89 74 90 77 91
REMARK SMILES IDX 71 92 72 93 75 94 73 95 52 96 53 97 61 98 54 99 55 100
REMARK SMILES IDX 59 101 62 102 56 103 57 104 60 105 58 106
REMARK H PARENT 16 7 11 22 9 24 97 32 95 34 23 40 82 59 50 70
REMARK Flexibility Score: inf
ROOT
ATOM      1  C   UNL A   1      37.416  22.011  24.605  1.00  0.00     0.002 C 
ENDROOT
BRANCH   1   2
ATOM      2  C   UNL A   1      36.648  22.782  23.531  1.00  0.00     0.021 C 
BRANCH   2   3
ATOM      3  C   UNL A   1      36.004  24.072  24.021  1.00  0.00     0.116 C 
BRANCH   3   4
ATOM      4  N   UNL A   1      35.719  24.073  25.440  1.00  0.00    -0.355 N 
ATOM      5  C   UNL A   1      34.728  23.455  26.149  1.00  0.00     0.231 C 
ATOM      6  O   UNL A   1      34.815  23.511  27.376  1.00  0.00    -0.274 OA
ATOM      7  H   UNL A   1      36.342  24.608  25.984  1.00  0.00     0.163 HD
BRANCH   5   8
ATOM      8  C   UNL A   1      33.533  22.817  25.429  1.00  0.00     0.161 C 
ATOM      9  O   UNL A   1      30.686  23.108  27.570  1.00  0.00    -0.247 OA
ATOM     10  C   UNL A   1      31.619  22.747  26.874  1.00  0.00     0.335 C 
ATOM     11  O   UNL A   1      32.237  21.543  26.955  1.00  0.00    -0.453 OA
ATOM     12  C   UNL A   1      32.264  23.514  25.794  1.00  0.00     0.054 C 
ATOM     13  C   UNL A   1      33.225  21.405  25.919  1.00  0.00     0.224 C 
ATOM     14  C   UNL A   1      31.677  24.618  25.310  1.00  0.00     0.020 C 
BRANCH  13  15
ATOM     15  C   UNL A   1      32.771  20.425  24.831  1.00  0.00    -0.002 A 
ATOM     16  C   UNL A   1      32.441  20.870  23.530  1.00  0.00     0.012 A 
ATOM     17  C   UNL A   1      32.761  19.041  25.067  1.00  0.00     0.057 A 
ATOM     18  C   UNL A   1      32.140  19.975  22.497  1.00  0.00     0.050 A 
ATOM     19  C   UNL A   1      32.437  18.159  24.041  1.00  0.00     0.157 A 
ATOM     20  C   UNL A   1      32.141  18.617  22.762  1.00  0.00     0.157 A 
BRANCH  19  21
ATOM     21  O   UNL A   1      32.423  16.818  24.298  1.00  0.00    -0.504 OA
ATOM     22  H   UNL A   1      32.414  16.205  23.589  1.00  0.00     0.293 HD
ENDBRANCH  19  21
BRANCH  20  23
ATOM     23  O   UNL A   1      31.862  17.692  21.797  1.00  0.00    -0.504 OA
ATOM     24  H   UNL A   1      31.397  17.947  21.023  1.00  0.00     0.293 HD
ENDBRANCH  20  23
ENDBRANCH  13  15
BRANCH  14  25
ATOM     25  C   UNL A   1      32.228  25.441  24.235  1.00  0.00    -0.021 A 
ATOM     26  C   UNL A   1      33.208  26.413  24.498  1.00  0.00     0.012 A 
ATOM     27  C   UNL A   1      31.799  25.227  22.922  1.00  0.00     0.058 A 
ATOM     28  C   UNL A   1      33.737  27.188  23.462  1.00  0.00     0.051 A 
ATOM     29  C   UNL A   1      32.335  25.995  21.898  1.00  0.00     0.157 A 
ATOM     30  C   UNL A   1      33.292  26.972  22.163  1.00  0.00     0.157 A 
BRANCH  29  31
ATOM     31  O   UNL A   1      31.919  25.782  20.615  1.00  0.00    -0.504 OA
ATOM     32  H   UNL A   1      32.092  26.421  19.953  1.00  0.00     0.293 HD
ENDBRANCH  29  31
BRANCH  30  33
ATOM     33  O   UNL A   1      33.772  27.695  21.107  1.00  0.00    -0.504 OA
ATOM     34  H   UNL A   1      34.694  27.728  20.942  1.00  0.00     0.293 HD
ENDBRANCH  30  33
ENDBRANCH  14  25
ENDBRANCH   5   8
ENDBRANCH   3   4
ENDBRANCH   2   3
ENDBRANCH   1   2
BRANCH   1  35
ATOM     35  C   UNL A   1      36.947  20.569  24.832  1.00  0.00     0.002 C 
BRANCH  35  36
ATOM     36  C   UNL A   1      38.063  19.535  25.001  1.00  0.00     0.021 C 
BRANCH  36  37
ATOM     37  C   UNL A   1      39.281  20.033  25.771  1.00  0.00     0.116 C 
BRANCH  37  38
ATOM     38  N   UNL A   1      40.299  19.006  25.911  1.00  0.00    -0.352 N 
ATOM     39  C   UNL A   1      41.650  19.145  26.102  1.00  0.00     0.251 C 
ATOM     40  H   UNL A   1      39.973  18.078  25.861  1.00  0.00     0.163 HD
ATOM     41  O   UNL A   1      42.394  18.175  26.007  1.00  0.00    -0.269 OA
BRANCH  39  42
ATOM     42  C   UNL A   1      42.211  20.477  26.406  1.00  0.00     0.039 A 
ATOM     43  C   UNL A   1      42.651  21.284  25.356  1.00  0.00     0.014 A 
ATOM     44  C   UNL A   1      42.301  20.926  27.727  1.00  0.00     0.014 A 
ATOM     45  C   UNL A   1      43.133  22.566  25.625  1.00  0.00     0.010 A 
ATOM     46  C   UNL A   1      42.704  22.232  27.986  1.00  0.00     0.010 A 
ATOM     47  C   UNL A   1      43.133  23.063  26.940  1.00  0.00    -0.014 A 
BRANCH  47  48
ATOM     48  C   UNL A   1      43.595  24.440  27.246  1.00  0.00     0.031 A 
ATOM     49  C   UNL A   1      42.623  25.455  27.778  1.00  0.00     0.074 A 
ATOM     50  C   UNL A   1      44.868  24.794  26.984  1.00  0.00     0.049 A 
ATOM     51  N   UNL A   1      42.802  26.729  28.020  1.00  0.00    -0.248 NA
ATOM     52  C   UNL A   1      41.255  24.983  28.045  1.00  0.00     0.031 C 
ATOM     53  C   UNL A   1      45.895  23.908  26.433  1.00  0.00     0.029 A 
ATOM     54  N   UNL A   1      45.512  25.996  27.134  1.00  0.00    -0.354 N 
ATOM     55  C   UNL A   1      41.573  27.208  28.452  1.00  0.00     0.074 A 
ATOM     56  C   UNL A   1      40.640  26.106  28.382  1.00  0.00     0.031 C 
ATOM     57  C   UNL A   1      47.045  24.592  26.312  1.00  0.00     0.029 A 
ATOM     58  C   UNL A   1      46.825  25.972  26.732  1.00  0.00     0.049 A 
ATOM     59  H   UNL A   1      45.074  26.801  27.496  1.00  0.00     0.167 HD
ATOM     60  C   UNL A   1      41.258  28.450  28.894  1.00  0.00     0.037 A 
ATOM     61  C   UNL A   1      47.743  26.957  26.696  1.00  0.00     0.037 A 
ATOM     62  C   UNL A   1      42.196  29.537  28.982  1.00  0.00     0.049 A 
ATOM     63  C   UNL A   1      47.360  28.335  27.167  1.00  0.00     0.074 A 
ATOM     64  C   UNL A   1      41.989  30.819  29.462  1.00  0.00     0.029 A 
ATOM     65  N   UNL A   1      43.522  29.471  28.578  1.00  0.00    -0.354 N 
ATOM     66  N   UNL A   1      46.211  28.762  27.632  1.00  0.00    -0.248 NA
ATOM     67  C   UNL A   1      48.405  29.367  27.117  1.00  0.00     0.031 C 
ATOM     68  C   UNL A   1      43.172  31.544  29.294  1.00  0.00     0.029 A 
ATOM     69  C   UNL A   1      44.137  30.697  28.773  1.00  0.00     0.049 A 
ATOM     70  H   UNL A   1      43.961  28.671  28.207  1.00  0.00     0.167 HD
ATOM     71  C   UNL A   1      46.404  30.097  27.962  1.00  0.00     0.074 A 
ATOM     72  C   UNL A   1      47.785  30.407  27.656  1.00  0.00     0.031 C 
ATOM     73  C   UNL A   1      45.519  30.985  28.476  1.00  0.00     0.037 A 
BRANCH  60  74
ATOM     74  C   UNL A   1      39.837  28.699  29.313  1.00  0.00     0.064 A 
ATOM     75  C   UNL A   1      39.408  28.488  30.633  1.00  0.00     0.173 A 
ATOM     76  C   UNL A   1      38.898  29.187  28.391  1.00  0.00     0.173 A 
ATOM     77  F   UNL A   1      40.260  28.010  31.553  1.00  0.00    -0.203 F 
ATOM     78  C   UNL A   1      38.087  28.724  31.005  1.00  0.00     0.198 A 
ATOM     79  C   UNL A   1      37.587  29.457  28.776  1.00  0.00     0.198 A 
ATOM     80  F   UNL A   1      39.253  29.411  27.118  1.00  0.00    -0.203 F 
ATOM     81  F   UNL A   1      37.688  28.460  32.257  1.00  0.00    -0.200 F 
ATOM     82  C   UNL A   1      37.180  29.216  30.079  1.00  0.00     0.200 A 
ATOM     83  F   UNL A   1      36.716  29.946  27.882  1.00  0.00    -0.200 F 
ATOM     84  F   UNL A   1      35.911  29.449  30.440  1.00  0.00    -0.200 F 
ENDBRANCH  60  74
BRANCH  61  85
ATOM     85  C   UNL A   1      49.121  26.675  26.211  1.00  0.00     0.064 A 
ATOM     86  C   UNL A   1      50.099  26.163  27.076  1.00  0.00     0.173 A 
ATOM     87  C   UNL A   1      49.494  26.922  24.881  1.00  0.00     0.173 A 
ATOM     88  F   UNL A   1      49.798  25.928  28.361  1.00  0.00    -0.203 F 
ATOM     89  C   UNL A   1      51.402  25.936  26.637  1.00  0.00     0.198 A 
ATOM     90  C   UNL A   1      50.788  26.664  24.436  1.00  0.00     0.198 A 
ATOM     91  F   UNL A   1      48.595  27.406  24.011  1.00  0.00    -0.203 F 
ATOM     92  F   UNL A   1      52.330  25.499  27.499  1.00  0.00    -0.200 F 
ATOM     93  C   UNL A   1      51.744  26.181  25.316  1.00  0.00     0.200 A 
ATOM     94  F   UNL A   1      51.109  26.887  23.154  1.00  0.00    -0.200 F 
ATOM     95  F   UNL A   1      52.997  25.962  24.894  1.00  0.00    -0.200 F 
ENDBRANCH  61  85
BRANCH  73  96
ATOM     96  C   UNL A   1      46.024  32.364  28.792  1.00  0.00     0.064 A 
ATOM     97  C   UNL A   1      45.953  33.412  27.862  1.00  0.00     0.173 A 
ATOM     98  C   UNL A   1      46.545  32.651  30.064  1.00  0.00     0.173 A 
ATOM     99  F   UNL A   1      45.476  33.188  26.628  1.00  0.00    -0.203 F 
ATOM    100  C   UNL A   1      46.409  34.687  28.185  1.00  0.00     0.198 A 
ATOM    101  C   UNL A   1      46.966  33.936  30.394  1.00  0.00     0.198 A 
ATOM    102  F   UNL A   1      46.627  31.688  30.994  1.00  0.00    -0.203 F 
ATOM    103  F   UNL A   1      46.378  35.660  27.262  1.00  0.00    -0.200 F 
ATOM    104  C   UNL A   1      46.906  34.951  29.452  1.00  0.00     0.200 A 
ATOM    105  F   UNL A   1      47.429  34.191  31.626  1.00  0.00    -0.200 F 
ATOM    106  F   UNL A   1      47.333  36.182  29.764  1.00  0.00    -0.200 F 
ENDBRANCH  73  96
ENDBRANCH  47  48
ENDBRANCH  39  42
ENDBRANCH  37  38
ENDBRANCH  36  37
ENDBRANCH  35  36
ENDBRANCH   1  35
TORSDOF 19
ENDMDL
