MODEL 1
REMARK VINA RESULT:     -13.4      0.000      0.000
REMARK SMILES Cc1ccc2c(c1)c(-c1ccnc3c(C)cccc13)c(C)n2CC(=O)NCCCCCCNC(=O)c1ccc(-c2c3nc(c(-c4c(F)c(F)c(F)c(F)c4F)c4ccc([nH]4)c(-c4c(F)c(F)c(F)c(F)c4F)c4nc(c(-c5c(F)c(F)c(F)c(F)c5F)c5ccc2[nH]5)C=C4)C=C3)cc1
REMARK SMILES IDX 29 1 28 2 27 3 26 4 24 5 25 6 23 8 22 9 1 10 2 11 3 12 7 13
REMARK SMILES IDX 4 14 6 15 5 16 8 17 20 18 21 19 9 20 10 21 19 22 11 23 13 24
REMARK SMILES IDX 18 25 12 26 14 27 17 28 15 29 16 30 30 31 31 32 32 33 33 34
REMARK SMILES IDX 34 35 35 37 36 38 37 39 98 40 38 41 97 42 39 43 40 44 41 45
REMARK SMILES IDX 91 46 42 47 96 48 90 49 92 50 43 51 95 52 89 53 88 54 44 56
REMARK SMILES IDX 76 57 56 58 75 59 57 60 60 61 74 62 93 63 58 64 59 65 73 67
REMARK SMILES IDX 94 68 61 69 45 70 46 71 54 72 47 73 48 74 52 75 55 76 49 77
REMARK SMILES IDX 50 78 53 79 51 80 77 81 78 82 86 83 79 84 80 85 84 86 87 87
REMARK SMILES IDX 81 88 82 89 85 90 83 91 62 92 63 93 71 94 64 95 65 96 69 97
REMARK SMILES IDX 72 98 66 99 67 100 70 101 68 102
REMARK H PARENT 26 7 33 36 92 55 60 66
REMARK Flexibility Score: inf
ROOT
ATOM      1  C   UNL A   1      41.972  20.715  27.341  1.00  0.00     0.002 C 
ENDROOT
BRANCH   1   2
ATOM      2  C   UNL A   1      41.022  21.029  26.179  1.00  0.00     0.021 C 
BRANCH   2   3
ATOM      3  C   UNL A   1      39.743  21.749  26.599  1.00  0.00     0.116 C 
BRANCH   3   4
ATOM      4  N   UNL A   1      38.987  22.191  25.443  1.00  0.00    -0.355 N 
ATOM      5  C   UNL A   1      37.716  21.871  25.063  1.00  0.00     0.239 C 
ATOM      6  O   UNL A   1      37.309  22.323  23.989  1.00  0.00    -0.273 OA
ATOM      7  H   UNL A   1      39.460  22.813  24.845  1.00  0.00     0.163 HD
BRANCH   5   8
ATOM      8  C   UNL A   1      36.807  21.057  25.965  1.00  0.00     0.222 C 
BRANCH   8   9
ATOM      9  N   UNL A   1      35.389  21.155  25.631  1.00  0.00    -0.335 N 
ATOM     10  C   UNL A   1      31.899  17.789  22.716  1.00  0.00     0.044 C 
ATOM     11  C   UNL A   1      32.844  18.615  23.539  1.00  0.00    -0.050 A 
ATOM     12  C   UNL A   1      34.098  18.101  23.871  1.00  0.00     0.005 A 
ATOM     13  C   UNL A   1      32.485  19.900  23.975  1.00  0.00     0.014 A 
ATOM     14  C   UNL A   1      35.018  18.852  24.609  1.00  0.00     0.027 A 
ATOM     15  C   UNL A   1      33.400  20.682  24.716  1.00  0.00     0.008 A 
ATOM     16  C   UNL A   1      34.663  20.156  24.996  1.00  0.00     0.049 A 
ATOM     17  C   UNL A   1      33.350  21.986  25.289  1.00  0.00     0.011 A 
ATOM     18  C   UNL A   1      34.570  22.236  25.901  1.00  0.00     0.024 A 
ATOM     19  C   UNL A   1      35.008  23.443  26.667  1.00  0.00     0.065 C 
BRANCH  17  20
ATOM     20  C   UNL A   1      32.256  22.952  25.279  1.00  0.00    -0.005 A 
ATOM     21  C   UNL A   1      31.356  22.929  26.339  1.00  0.00     0.029 A 
ATOM     22  C   UNL A   1      32.112  23.914  24.245  1.00  0.00     0.008 A 
ATOM     23  C   UNL A   1      30.355  23.873  26.350  1.00  0.00     0.112 A 
ATOM     24  C   UNL A   1      31.060  24.849  24.357  1.00  0.00     0.074 A 
ATOM     25  C   UNL A   1      32.970  23.976  23.123  1.00  0.00     0.011 A 
ATOM     26  N   UNL A   1      30.201  24.817  25.398  1.00  0.00    -0.256 NA
ATOM     27  C   UNL A   1      30.926  25.827  23.359  1.00  0.00    -0.025 A 
ATOM     28  C   UNL A   1      32.814  24.936  22.131  1.00  0.00     0.001 A 
ATOM     29  C   UNL A   1      29.854  26.884  23.427  1.00  0.00     0.047 C 
ATOM     30  C   UNL A   1      31.794  25.863  22.252  1.00  0.00     0.005 A 
ENDBRANCH  17  20
ENDBRANCH   8   9
ENDBRANCH   5   8
ENDBRANCH   3   4
ENDBRANCH   2   3
ENDBRANCH   1   2
BRANCH   1  31
ATOM     31  C   UNL A   1      42.186  19.223  27.604  1.00  0.00     0.002 C 
BRANCH  31  32
ATOM     32  C   UNL A   1      42.580  18.402  26.373  1.00  0.00     0.021 C 
BRANCH  32  33
ATOM     33  C   UNL A   1      44.076  18.428  26.046  1.00  0.00     0.116 C 
BRANCH  33  34
ATOM     34  N   UNL A   1      44.369  18.815  24.679  1.00  0.00    -0.352 N 
ATOM     35  C   UNL A   1      44.705  19.990  24.062  1.00  0.00     0.251 C 
ATOM     36  H   UNL A   1      44.314  18.059  24.050  1.00  0.00     0.163 HD
ATOM     37  O   UNL A   1      44.996  19.925  22.876  1.00  0.00    -0.269 OA
BRANCH  35  38
ATOM     38  C   UNL A   1      44.671  21.332  24.720  1.00  0.00     0.039 A 
ATOM     39  C   UNL A   1      45.330  21.670  25.898  1.00  0.00     0.014 A 
ATOM     40  C   UNL A   1      43.845  22.301  24.115  1.00  0.00     0.014 A 
ATOM     41  C   UNL A   1      45.068  22.876  26.532  1.00  0.00     0.010 A 
ATOM     42  C   UNL A   1      43.615  23.533  24.724  1.00  0.00     0.010 A 
ATOM     43  C   UNL A   1      44.182  23.795  25.965  1.00  0.00    -0.014 A 
BRANCH  43  44
ATOM     44  C   UNL A   1      43.947  25.024  26.720  1.00  0.00     0.031 A 
ATOM     45  C   UNL A   1      44.981  26.088  26.563  1.00  0.00     0.074 A 
ATOM     46  C   UNL A   1      42.869  25.236  27.500  1.00  0.00     0.049 A 
ATOM     47  N   UNL A   1      45.745  26.609  27.471  1.00  0.00    -0.248 NA
ATOM     48  C   UNL A   1      45.249  26.574  25.201  1.00  0.00     0.031 C 
ATOM     49  C   UNL A   1      41.638  24.451  27.597  1.00  0.00     0.029 A 
ATOM     50  N   UNL A   1      42.638  26.284  28.341  1.00  0.00    -0.354 N 
ATOM     51  C   UNL A   1      46.500  27.588  26.827  1.00  0.00     0.074 A 
ATOM     52  C   UNL A   1      46.221  27.460  25.419  1.00  0.00     0.031 C 
ATOM     53  C   UNL A   1      40.712  25.160  28.283  1.00  0.00     0.029 A 
ATOM     54  C   UNL A   1      41.331  26.372  28.792  1.00  0.00     0.049 A 
ATOM     55  H   UNL A   1      43.339  26.924  28.606  1.00  0.00     0.167 HD
ATOM     56  C   UNL A   1      47.183  28.546  27.512  1.00  0.00     0.037 A 
ATOM     57  C   UNL A   1      40.788  27.404  29.480  1.00  0.00     0.037 A 
ATOM     58  C   UNL A   1      47.429  28.162  28.874  1.00  0.00     0.049 A 
ATOM     59  C   UNL A   1      41.895  28.156  30.118  1.00  0.00     0.074 A 
ATOM     60  C   UNL A   1      48.145  27.154  29.489  1.00  0.00     0.029 A 
ATOM     61  N   UNL A   1      46.650  28.709  29.861  1.00  0.00    -0.354 N 
ATOM     62  N   UNL A   1      42.616  27.706  31.105  1.00  0.00    -0.248 NA
ATOM     63  C   UNL A   1      42.453  29.292  29.401  1.00  0.00     0.031 C 
ATOM     64  C   UNL A   1      47.405  26.836  30.666  1.00  0.00     0.029 A 
ATOM     65  C   UNL A   1      46.300  27.685  30.703  1.00  0.00     0.049 A 
ATOM     66  H   UNL A   1      46.392  29.655  29.950  1.00  0.00     0.167 HD
ATOM     67  C   UNL A   1      43.883  28.217  30.876  1.00  0.00     0.074 A 
ATOM     68  C   UNL A   1      43.697  29.271  29.886  1.00  0.00     0.031 C 
ATOM     69  C   UNL A   1      44.997  27.558  31.307  1.00  0.00     0.037 A 
BRANCH  56  70
ATOM     70  C   UNL A   1      47.371  29.963  27.030  1.00  0.00     0.064 A 
ATOM     71  C   UNL A   1      48.637  30.575  27.130  1.00  0.00     0.173 A 
ATOM     72  C   UNL A   1      46.294  30.835  26.758  1.00  0.00     0.173 A 
ATOM     73  F   UNL A   1      49.729  29.846  27.409  1.00  0.00    -0.203 F 
ATOM     74  C   UNL A   1      48.798  31.959  27.034  1.00  0.00     0.198 A 
ATOM     75  C   UNL A   1      46.467  32.209  26.612  1.00  0.00     0.198 A 
ATOM     76  F   UNL A   1      45.026  30.407  26.734  1.00  0.00    -0.203 F 
ATOM     77  F   UNL A   1      50.001  32.506  27.257  1.00  0.00    -0.200 F 
ATOM     78  C   UNL A   1      47.712  32.776  26.781  1.00  0.00     0.200 A 
ATOM     79  F   UNL A   1      45.398  32.987  26.384  1.00  0.00    -0.200 F 
ATOM     80  F   UNL A   1      47.853  34.108  26.749  1.00  0.00    -0.200 F 
ENDBRANCH  56  70
BRANCH  57  81
ATOM     81  C   UNL A   1      39.423  27.965  29.357  1.00  0.00     0.064 A 
ATOM     82  C   UNL A   1      38.612  28.137  30.491  1.00  0.00     0.173 A 
ATOM     83  C   UNL A   1      39.003  28.615  28.181  1.00  0.00     0.173 A 
ATOM     84  F   UNL A   1      38.962  27.584  31.661  1.00  0.00    -0.203 F 
ATOM     85  C   UNL A   1      37.472  28.944  30.459  1.00  0.00     0.198 A 
ATOM     86  C   UNL A   1      37.858  29.413  28.148  1.00  0.00     0.198 A 
ATOM     87  F   UNL A   1      39.747  28.575  27.066  1.00  0.00    -0.203 F 
ATOM     88  F   UNL A   1      36.765  29.146  31.580  1.00  0.00    -0.200 F 
ATOM     89  C   UNL A   1      37.104  29.592  29.292  1.00  0.00     0.200 A 
ATOM     90  F   UNL A   1      37.534  30.061  27.021  1.00  0.00    -0.200 F 
ATOM     91  F   UNL A   1      36.051  30.421  29.279  1.00  0.00    -0.200 F 
ENDBRANCH  57  81
BRANCH  69  92
ATOM     92  C   UNL A   1      44.807  26.427  32.277  1.00  0.00     0.064 A 
ATOM     93  C   UNL A   1      44.722  26.602  33.669  1.00  0.00     0.173 A 
ATOM     94  C   UNL A   1      44.558  25.145  31.769  1.00  0.00     0.173 A 
ATOM     95  F   UNL A   1      44.844  27.816  34.219  1.00  0.00    -0.203 F 
ATOM     96  C   UNL A   1      44.446  25.529  34.515  1.00  0.00     0.198 A 
ATOM     97  C   UNL A   1      44.245  24.083  32.613  1.00  0.00     0.198 A 
ATOM     98  F   UNL A   1      44.565  24.933  30.443  1.00  0.00    -0.203 F 
ATOM     99  F   UNL A   1      44.377  25.718  35.840  1.00  0.00    -0.200 F 
ATOM    100  C   UNL A   1      44.199  24.273  33.986  1.00  0.00     0.200 A 
ATOM    101  F   UNL A   1      43.956  22.882  32.095  1.00  0.00    -0.200 F 
ATOM    102  F   UNL A   1      43.886  23.252  34.795  1.00  0.00    -0.200 F 
ENDBRANCH  69  92
ENDBRANCH  43  44
ENDBRANCH  35  38
ENDBRANCH  33  34
ENDBRANCH  32  33
ENDBRANCH  31  32
ENDBRANCH   1  31
TORSDOF 15
ENDMDL
MODEL 2
REMARK VINA RESULT:     -12.8      4.940     10.604
REMARK SMILES Cc1ccc2c(c1)c(-c1ccnc3c(C)cccc13)c(C)n2CC(=O)NCCCCCCNC(=O)c1ccc(-c2c3nc(c(-c4c(F)c(F)c(F)c(F)c4F)c4ccc([nH]4)c(-c4c(F)c(F)c(F)c(F)c4F)c4nc(c(-c5c(F)c(F)c(F)c(F)c5F)c5ccc2[nH]5)C=C4)C=C3)cc1
REMARK SMILES IDX 29 1 28 2 27 3 26 4 24 5 25 6 23 8 22 9 1 10 2 11 3 12 7 13
REMARK SMILES IDX 4 14 6 15 5 16 8 17 20 18 21 19 9 20 10 21 19 22 11 23 13 24
REMARK SMILES IDX 18 25 12 26 14 27 17 28 15 29 16 30 30 31 31 32 32 33 33 34
REMARK SMILES IDX 34 35 35 37 36 38 37 39 98 40 38 41 97 42 39 43 40 44 41 45
REMARK SMILES IDX 91 46 42 47 96 48 90 49 92 50 43 51 95 52 89 53 88 54 44 56
REMARK SMILES IDX 76 57 56 58 75 59 57 60 60 61 74 62 93 63 58 64 59 65 73 67
REMARK SMILES IDX 94 68 61 69 45 70 46 71 54 72 47 73 48 74 52 75 55 76 49 77
REMARK SMILES IDX 50 78 53 79 51 80 77 81 78 82 86 83 79 84 80 85 84 86 87 87
REMARK SMILES IDX 81 88 82 89 85 90 83 91 62 92 63 93 71 94 64 95 65 96 69 97
REMARK SMILES IDX 72 98 66 99 67 100 70 101 68 102
REMARK H PARENT 26 7 33 36 92 55 60 66
REMARK Flexibility Score: inf
ROOT
ATOM      1  C   UNL A   1      35.395  33.976  28.505  1.00  0.00     0.002 C 
ENDROOT
BRANCH   1   2
ATOM      2  C   UNL A   1      34.402  32.829  28.729  1.00  0.00     0.021 C 
BRANCH   2   3
ATOM      3  C   UNL A   1      34.655  31.608  27.848  1.00  0.00     0.116 C 
BRANCH   3   4
ATOM      4  N   UNL A   1      33.653  30.583  28.073  1.00  0.00    -0.355 N 
ATOM      5  C   UNL A   1      32.817  29.976  27.182  1.00  0.00     0.239 C 
ATOM      6  O   UNL A   1      31.992  29.173  27.627  1.00  0.00    -0.273 OA
ATOM      7  H   UNL A   1      33.564  30.281  29.006  1.00  0.00     0.163 HD
BRANCH   5   8
ATOM      8  C   UNL A   1      32.951  30.216  25.690  1.00  0.00     0.222 C 
BRANCH   8   9
ATOM      9  N   UNL A   1      32.342  29.179  24.860  1.00  0.00    -0.335 N 
ATOM     10  C   UNL A   1      27.278  28.743  22.376  1.00  0.00     0.044 C 
ATOM     11  C   UNL A   1      28.632  28.933  22.995  1.00  0.00    -0.050 A 
ATOM     12  C   UNL A   1      28.979  30.176  23.526  1.00  0.00     0.005 A 
ATOM     13  C   UNL A   1      29.554  27.876  23.050  1.00  0.00     0.014 A 
ATOM     14  C   UNL A   1      30.218  30.384  24.139  1.00  0.00     0.027 A 
ATOM     15  C   UNL A   1      30.811  28.058  23.671  1.00  0.00     0.008 A 
ATOM     16  C   UNL A   1      31.111  29.302  24.231  1.00  0.00     0.049 A 
ATOM     17  C   UNL A   1      31.937  27.215  23.890  1.00  0.00     0.011 A 
ATOM     18  C   UNL A   1      32.898  27.945  24.577  1.00  0.00     0.024 A 
ATOM     19  C   UNL A   1      34.264  27.526  25.014  1.00  0.00     0.065 C 
BRANCH  17  20
ATOM     20  C   UNL A   1      32.131  25.822  23.501  1.00  0.00    -0.005 A 
ATOM     21  C   UNL A   1      32.659  25.564  22.240  1.00  0.00     0.029 A 
ATOM     22  C   UNL A   1      31.825  24.747  24.376  1.00  0.00     0.008 A 
ATOM     23  C   UNL A   1      32.885  24.251  21.896  1.00  0.00     0.112 A 
ATOM     24  C   UNL A   1      32.108  23.436  23.935  1.00  0.00     0.074 A 
ATOM     25  C   UNL A   1      31.257  24.932  25.658  1.00  0.00     0.011 A 
ATOM     26  N   UNL A   1      32.629  23.205  22.710  1.00  0.00    -0.256 NA
ATOM     27  C   UNL A   1      31.841  22.366  24.803  1.00  0.00    -0.025 A 
ATOM     28  C   UNL A   1      30.979  23.864  26.500  1.00  0.00     0.001 A 
ATOM     29  C   UNL A   1      32.152  20.942  24.421  1.00  0.00     0.047 C 
ATOM     30  C   UNL A   1      31.274  22.581  26.073  1.00  0.00     0.005 A 
ENDBRANCH  17  20
ENDBRANCH   8   9
ENDBRANCH   5   8
ENDBRANCH   3   4
ENDBRANCH   2   3
ENDBRANCH   1   2
BRANCH   1  31
ATOM     31  C   UNL A   1      34.747  35.326  28.189  1.00  0.00     0.002 C 
BRANCH  31  32
ATOM     32  C   UNL A   1      33.324  35.501  28.727  1.00  0.00     0.021 C 
BRANCH  32  33
ATOM     33  C   UNL A   1      33.205  36.476  29.901  1.00  0.00     0.116 C 
BRANCH  33  34
ATOM     34  N   UNL A   1      32.531  35.919  31.058  1.00  0.00    -0.352 N 
ATOM     35  C   UNL A   1      32.921  35.153  32.124  1.00  0.00     0.251 C 
ATOM     36  H   UNL A   1      31.572  36.142  31.083  1.00  0.00     0.163 HD
ATOM     37  O   UNL A   1      32.085  34.954  32.994  1.00  0.00    -0.269 OA
BRANCH  35  38
ATOM     38  C   UNL A   1      34.260  34.500  32.253  1.00  0.00     0.039 A 
ATOM     39  C   UNL A   1      35.481  35.166  32.301  1.00  0.00     0.014 A 
ATOM     40  C   UNL A   1      34.268  33.091  32.260  1.00  0.00     0.014 A 
ATOM     41  C   UNL A   1      36.673  34.462  32.215  1.00  0.00     0.010 A 
ATOM     42  C   UNL A   1      35.463  32.377  32.219  1.00  0.00     0.010 A 
ATOM     43  C   UNL A   1      36.666  33.067  32.137  1.00  0.00    -0.014 A 
BRANCH  43  44
ATOM     44  C   UNL A   1      37.968  32.415  32.018  1.00  0.00     0.031 A 
ATOM     45  C   UNL A   1      38.822  32.447  33.242  1.00  0.00     0.074 A 
ATOM     46  C   UNL A   1      38.402  31.792  30.905  1.00  0.00     0.049 A 
ATOM     47  N   UNL A   1      39.988  32.990  33.396  1.00  0.00    -0.248 NA
ATOM     48  C   UNL A   1      38.262  31.865  34.471  1.00  0.00     0.031 C 
ATOM     49  C   UNL A   1      37.648  31.429  29.705  1.00  0.00     0.029 A 
ATOM     50  N   UNL A   1      39.643  31.283  30.661  1.00  0.00    -0.354 N 
ATOM     51  C   UNL A   1      40.378  32.705  34.703  1.00  0.00     0.074 A 
ATOM     52  C   UNL A   1      39.243  32.093  35.346  1.00  0.00     0.031 C 
ATOM     53  C   UNL A   1      38.388  30.578  28.957  1.00  0.00     0.029 A 
ATOM     54  C   UNL A   1      39.709  30.458  29.551  1.00  0.00     0.049 A 
ATOM     55  H   UNL A   1      40.425  31.484  31.224  1.00  0.00     0.167 HD
ATOM     56  C   UNL A   1      41.666  32.847  35.125  1.00  0.00     0.037 A 
ATOM     57  C   UNL A   1      40.758  29.683  29.189  1.00  0.00     0.037 A 
ATOM     58  C   UNL A   1      42.415  33.732  34.278  1.00  0.00     0.049 A 
ATOM     59  C   UNL A   1      41.973  30.235  29.834  1.00  0.00     0.074 A 
ATOM     60  C   UNL A   1      42.332  35.071  33.950  1.00  0.00     0.029 A 
ATOM     61  N   UNL A   1      43.290  33.191  33.372  1.00  0.00    -0.354 N 
ATOM     62  N   UNL A   1      42.529  31.368  29.509  1.00  0.00    -0.248 NA
ATOM     63  C   UNL A   1      42.373  29.689  31.121  1.00  0.00     0.031 C 
ATOM     64  C   UNL A   1      42.764  35.151  32.594  1.00  0.00     0.029 A 
ATOM     65  C   UNL A   1      43.103  33.860  32.191  1.00  0.00     0.049 A 
ATOM     66  H   UNL A   1      43.930  32.461  33.537  1.00  0.00     0.167 HD
ATOM     67  C   UNL A   1      43.013  31.877  30.703  1.00  0.00     0.074 A 
ATOM     68  C   UNL A   1      42.990  30.756  31.634  1.00  0.00     0.031 C 
ATOM     69  C   UNL A   1      43.131  33.222  30.897  1.00  0.00     0.037 A 
BRANCH  56  70
ATOM     70  C   UNL A   1      42.332  31.948  36.137  1.00  0.00     0.064 A 
ATOM     71  C   UNL A   1      42.941  32.509  37.277  1.00  0.00     0.173 A 
ATOM     72  C   UNL A   1      42.652  30.598  35.877  1.00  0.00     0.173 A 
ATOM     73  F   UNL A   1      42.727  33.791  37.607  1.00  0.00    -0.203 F 
ATOM     74  C   UNL A   1      43.856  31.792  38.054  1.00  0.00     0.198 A 
ATOM     75  C   UNL A   1      43.525  29.871  36.683  1.00  0.00     0.198 A 
ATOM     76  F   UNL A   1      42.224  29.969  34.776  1.00  0.00    -0.203 F 
ATOM     77  F   UNL A   1      44.502  32.405  39.054  1.00  0.00    -0.200 F 
ATOM     78  C   UNL A   1      44.151  30.476  37.752  1.00  0.00     0.200 A 
ATOM     79  F   UNL A   1      43.813  28.601  36.364  1.00  0.00    -0.200 F 
ATOM     80  F   UNL A   1      45.073  29.805  38.457  1.00  0.00    -0.200 F 
ENDBRANCH  56  70
BRANCH  57  81
ATOM     81  C   UNL A   1      40.730  28.327  28.594  1.00  0.00     0.064 A 
ATOM     82  C   UNL A   1      39.986  27.295  29.190  1.00  0.00     0.173 A 
ATOM     83  C   UNL A   1      41.184  28.095  27.281  1.00  0.00     0.173 A 
ATOM     84  F   UNL A   1      39.483  27.452  30.423  1.00  0.00    -0.203 F 
ATOM     85  C   UNL A   1      39.680  26.120  28.499  1.00  0.00     0.198 A 
ATOM     86  C   UNL A   1      40.887  26.917  26.596  1.00  0.00     0.198 A 
ATOM     87  F   UNL A   1      41.838  29.045  26.599  1.00  0.00    -0.203 F 
ATOM     88  F   UNL A   1      38.903  25.190  29.072  1.00  0.00    -0.200 F 
ATOM     89  C   UNL A   1      40.119  25.938  27.198  1.00  0.00     0.200 A 
ATOM     90  F   UNL A   1      41.289  26.768  25.326  1.00  0.00    -0.200 F 
ATOM     91  F   UNL A   1      39.767  24.842  26.511  1.00  0.00    -0.200 F 
ENDBRANCH  57  81
BRANCH  69  92
ATOM     92  C   UNL A   1      42.999  34.115  29.698  1.00  0.00     0.064 A 
ATOM     93  C   UNL A   1      41.768  34.583  29.208  1.00  0.00     0.173 A 
ATOM     94  C   UNL A   1      44.165  34.629  29.114  1.00  0.00     0.173 A 
ATOM     95  F   UNL A   1      40.614  34.220  29.783  1.00  0.00    -0.203 F 
ATOM     96  C   UNL A   1      41.709  35.491  28.152  1.00  0.00     0.198 A 
ATOM     97  C   UNL A   1      44.105  35.563  28.083  1.00  0.00     0.198 A 
ATOM     98  F   UNL A   1      45.369  34.263  29.582  1.00  0.00    -0.203 F 
ATOM     99  F   UNL A   1      40.522  35.918  27.697  1.00  0.00    -0.200 F 
ATOM    100  C   UNL A   1      42.878  35.986  27.596  1.00  0.00     0.200 A 
ATOM    101  F   UNL A   1      45.236  36.078  27.584  1.00  0.00    -0.200 F 
ATOM    102  F   UNL A   1      42.822  36.894  26.612  1.00  0.00    -0.200 F 
ENDBRANCH  69  92
ENDBRANCH  43  44
ENDBRANCH  35  38
ENDBRANCH  33  34
ENDBRANCH  32  33
ENDBRANCH  31  32
ENDBRANCH   1  31
TORSDOF 15
ENDMDL
MODEL 3
REMARK VINA RESULT:     -12.8      3.099      4.820
REMARK SMILES Cc1ccc2c(c1)c(-c1ccnc3c(C)cccc13)c(C)n2CC(=O)NCCCCCCNC(=O)c1ccc(-c2c3nc(c(-c4c(F)c(F)c(F)c(F)c4F)c4ccc([nH]4)c(-c4c(F)c(F)c(F)c(F)c4F)c4nc(c(-c5c(F)c(F)c(F)c(F)c5F)c5ccc2[nH]5)C=C4)C=C3)cc1
REMARK SMILES IDX 29 1 28 2 27 3 26 4 24 5 25 6 23 8 22 9 1 10 2 11 3 12 7 13
REMARK SMILES IDX 4 14 6 15 5 16 8 17 20 18 21 19 9 20 10 21 19 22 11 23 13 24
REMARK SMILES IDX 18 25 12 26 14 27 17 28 15 29 16 30 30 31 31 32 32 33 33 34
REMARK SMILES IDX 34 35 35 37 36 38 37 39 98 40 38 41 97 42 39 43 40 44 41 45
REMARK SMILES IDX 91 46 42 47 96 48 90 49 92 50 43 51 95 52 89 53 88 54 44 56
REMARK SMILES IDX 76 57 56 58 75 59 57 60 60 61 74 62 93 63 58 64 59 65 73 67
REMARK SMILES IDX 94 68 61 69 45 70 46 71 54 72 47 73 48 74 52 75 55 76 49 77
REMARK SMILES IDX 50 78 53 79 51 80 77 81 78 82 86 83 79 84 80 85 84 86 87 87
REMARK SMILES IDX 81 88 82 89 85 90 83 91 62 92 63 93 71 94 64 95 65 96 69 97
REMARK SMILES IDX 72 98 66 99 67 100 70 101 68 102
REMARK H PARENT 26 7 33 36 92 55 60 66
REMARK Flexibility Score: inf
ROOT
ATOM      1  C   UNL A   1      37.302  19.961  24.417  1.00  0.00     0.002 C 
ENDROOT
BRANCH   1   2
ATOM      2  C   UNL A   1      35.924  19.877  25.085  1.00  0.00     0.021 C 
BRANCH   2   3
ATOM      3  C   UNL A   1      35.081  21.140  24.931  1.00  0.00     0.116 C 
BRANCH   3   4
ATOM      4  N   UNL A   1      35.817  22.179  24.236  1.00  0.00    -0.355 N 
ATOM      5  C   UNL A   1      35.406  23.013  23.237  1.00  0.00     0.239 C 
ATOM      6  O   UNL A   1      36.243  23.779  22.750  1.00  0.00    -0.273 OA
ATOM      7  H   UNL A   1      36.749  22.301  24.528  1.00  0.00     0.163 HD
BRANCH   5   8
ATOM      8  C   UNL A   1      33.954  23.058  22.797  1.00  0.00     0.222 C 
BRANCH   8   9
ATOM      9  N   UNL A   1      33.113  23.942  23.599  1.00  0.00    -0.335 N 
ATOM     10  C   UNL A   1      29.155  22.952  27.519  1.00  0.00     0.044 C 
ATOM     11  C   UNL A   1      30.259  23.167  26.524  1.00  0.00    -0.050 A 
ATOM     12  C   UNL A   1      31.043  22.086  26.121  1.00  0.00     0.005 A 
ATOM     13  C   UNL A   1      30.511  24.441  25.993  1.00  0.00     0.014 A 
ATOM     14  C   UNL A   1      32.060  22.241  25.174  1.00  0.00     0.027 A 
ATOM     15  C   UNL A   1      31.528  24.623  25.029  1.00  0.00     0.008 A 
ATOM     16  C   UNL A   1      32.268  23.513  24.613  1.00  0.00     0.049 A 
ATOM     17  C   UNL A   1      32.022  25.750  24.311  1.00  0.00     0.011 A 
ATOM     18  C   UNL A   1      33.042  25.318  23.475  1.00  0.00     0.024 A 
ATOM     19  C   UNL A   1      33.898  26.116  22.545  1.00  0.00     0.065 C 
BRANCH  17  20
ATOM     20  C   UNL A   1      31.591  27.143  24.379  1.00  0.00    -0.005 A 
ATOM     21  C   UNL A   1      30.626  27.572  23.473  1.00  0.00     0.029 A 
ATOM     22  C   UNL A   1      32.105  28.042  25.349  1.00  0.00     0.008 A 
ATOM     23  C   UNL A   1      30.188  28.872  23.572  1.00  0.00     0.112 A 
ATOM     24  C   UNL A   1      31.579  29.353  25.377  1.00  0.00     0.074 A 
ATOM     25  C   UNL A   1      33.109  27.686  26.279  1.00  0.00     0.011 A 
ATOM     26  N   UNL A   1      30.636  29.749  24.495  1.00  0.00    -0.256 NA
ATOM     27  C   UNL A   1      32.055  30.243  26.353  1.00  0.00    -0.025 A 
ATOM     28  C   UNL A   1      33.585  28.582  27.226  1.00  0.00     0.001 A 
ATOM     29  C   UNL A   1      31.514  31.645  26.473  1.00  0.00     0.047 C 
ATOM     30  C   UNL A   1      33.055  29.859  27.265  1.00  0.00     0.005 A 
ENDBRANCH  17  20
ENDBRANCH   8   9
ENDBRANCH   5   8
ENDBRANCH   3   4
ENDBRANCH   2   3
ENDBRANCH   1   2
BRANCH   1  31
ATOM     31  C   UNL A   1      38.479  20.026  25.393  1.00  0.00     0.002 C 
BRANCH  31  32
ATOM     32  C   UNL A   1      38.939  21.441  25.757  1.00  0.00     0.021 C 
BRANCH  32  33
ATOM     33  C   UNL A   1      40.156  21.493  26.684  1.00  0.00     0.116 C 
BRANCH  33  34
ATOM     34  N   UNL A   1      41.379  21.904  26.021  1.00  0.00    -0.352 N 
ATOM     35  C   UNL A   1      42.141  23.042  26.025  1.00  0.00     0.251 C 
ATOM     36  H   UNL A   1      41.747  21.204  25.434  1.00  0.00     0.163 HD
ATOM     37  O   UNL A   1      43.199  22.998  25.414  1.00  0.00    -0.269 OA
BRANCH  35  38
ATOM     38  C   UNL A   1      41.733  24.332  26.661  1.00  0.00     0.039 A 
ATOM     39  C   UNL A   1      40.770  25.206  26.166  1.00  0.00     0.014 A 
ATOM     40  C   UNL A   1      42.440  24.706  27.821  1.00  0.00     0.014 A 
ATOM     41  C   UNL A   1      40.613  26.469  26.718  1.00  0.00     0.010 A 
ATOM     42  C   UNL A   1      42.254  25.956  28.407  1.00  0.00     0.010 A 
ATOM     43  C   UNL A   1      41.380  26.861  27.817  1.00  0.00    -0.014 A 
BRANCH  43  44
ATOM     44  C   UNL A   1      41.166  28.220  28.310  1.00  0.00     0.031 A 
ATOM     45  C   UNL A   1      42.201  29.221  27.918  1.00  0.00     0.074 A 
ATOM     46  C   UNL A   1      40.106  28.595  29.052  1.00  0.00     0.049 A 
ATOM     47  N   UNL A   1      42.986  29.910  28.685  1.00  0.00    -0.248 NA
ATOM     48  C   UNL A   1      42.441  29.417  26.481  1.00  0.00     0.031 C 
ATOM     49  C   UNL A   1      38.875  27.856  29.332  1.00  0.00     0.029 A 
ATOM     50  N   UNL A   1      39.897  29.795  29.666  1.00  0.00    -0.354 N 
ATOM     51  C   UNL A   1      43.731  30.731  27.841  1.00  0.00     0.074 A 
ATOM     52  C   UNL A   1      43.422  30.322  26.494  1.00  0.00     0.031 C 
ATOM     53  C   UNL A   1      37.966  28.697  29.877  1.00  0.00     0.029 A 
ATOM     54  C   UNL A   1      38.601  29.983  30.116  1.00  0.00     0.049 A 
ATOM     55  H   UNL A   1      40.606  30.469  29.781  1.00  0.00     0.167 HD
ATOM     56  C   UNL A   1      44.433  31.803  28.302  1.00  0.00     0.037 A 
ATOM     57  C   UNL A   1      38.077  31.137  30.590  1.00  0.00     0.037 A 
ATOM     58  C   UNL A   1      44.706  31.702  29.709  1.00  0.00     0.049 A 
ATOM     59  C   UNL A   1      39.200  31.995  31.039  1.00  0.00     0.074 A 
ATOM     60  C   UNL A   1      45.431  30.835  30.501  1.00  0.00     0.029 A 
ATOM     61  N   UNL A   1      43.951  32.445  30.579  1.00  0.00    -0.354 N 
ATOM     62  N   UNL A   1      39.941  31.749  32.083  1.00  0.00    -0.248 NA
ATOM     63  C   UNL A   1      39.747  32.956  30.095  1.00  0.00     0.031 C 
ATOM     64  C   UNL A   1      44.716  30.769  31.733  1.00  0.00     0.029 A 
ATOM     65  C   UNL A   1      43.615  31.617  31.619  1.00  0.00     0.049 A 
ATOM     66  H   UNL A   1      43.698  33.391  30.478  1.00  0.00     0.167 HD
ATOM     67  C   UNL A   1      41.204  32.193  31.728  1.00  0.00     0.074 A 
ATOM     68  C   UNL A   1      41.001  33.024  30.548  1.00  0.00     0.031 C 
ATOM     69  C   UNL A   1      42.324  31.626  32.262  1.00  0.00     0.037 A 
BRANCH  56  70
ATOM     70  C   UNL A   1      44.615  33.091  27.538  1.00  0.00     0.064 A 
ATOM     71  C   UNL A   1      45.821  33.330  26.848  1.00  0.00     0.173 A 
ATOM     72  C   UNL A   1      43.778  34.214  27.708  1.00  0.00     0.173 A 
ATOM     73  F   UNL A   1      46.704  32.340  26.649  1.00  0.00    -0.203 F 
ATOM     74  C   UNL A   1      46.188  34.611  26.425  1.00  0.00     0.198 A 
ATOM     75  C   UNL A   1      44.124  35.480  27.239  1.00  0.00     0.198 A 
ATOM     76  F   UNL A   1      42.651  34.154  28.428  1.00  0.00    -0.203 F 
ATOM     77  F   UNL A   1      47.397  34.811  25.883  1.00  0.00    -0.200 F 
ATOM     78  C   UNL A   1      45.342  35.685  26.627  1.00  0.00     0.200 A 
ATOM     79  F   UNL A   1      43.298  36.513  27.460  1.00  0.00    -0.200 F 
ATOM     80  F   UNL A   1      45.717  36.923  26.278  1.00  0.00    -0.200 F 
ENDBRANCH  56  70
BRANCH  57  81
ATOM     81  C   UNL A   1      36.712  31.673  30.383  1.00  0.00     0.064 A 
ATOM     82  C   UNL A   1      35.977  32.203  31.457  1.00  0.00     0.173 A 
ATOM     83  C   UNL A   1      36.222  31.948  29.092  1.00  0.00     0.173 A 
ATOM     84  F   UNL A   1      36.397  32.021  32.717  1.00  0.00    -0.203 F 
ATOM     85  C   UNL A   1      34.844  32.994  31.249  1.00  0.00     0.198 A 
ATOM     86  C   UNL A   1      35.085  32.730  28.886  1.00  0.00     0.198 A 
ATOM     87  F   UNL A   1      36.892  31.552  28.001  1.00  0.00    -0.203 F 
ATOM     88  F   UNL A   1      34.213  33.546  32.295  1.00  0.00    -0.200 F 
ATOM     89  C   UNL A   1      34.407  33.268  29.964  1.00  0.00     0.200 A 
ATOM     90  F   UNL A   1      34.693  33.015  27.636  1.00  0.00    -0.200 F 
ATOM     91  F   UNL A   1      33.363  34.084  29.762  1.00  0.00    -0.200 F 
ENDBRANCH  57  81
BRANCH  69  92
ATOM     92  C   UNL A   1      42.151  30.718  33.446  1.00  0.00     0.064 A 
ATOM     93  C   UNL A   1      42.154  31.166  34.778  1.00  0.00     0.173 A 
ATOM     94  C   UNL A   1      41.826  29.373  33.216  1.00  0.00     0.173 A 
ATOM     95  F   UNL A   1      42.351  32.458  35.069  1.00  0.00    -0.203 F 
ATOM     96  C   UNL A   1      41.889  30.295  35.833  1.00  0.00     0.198 A 
ATOM     97  C   UNL A   1      41.526  28.514  34.269  1.00  0.00     0.198 A 
ATOM     98  F   UNL A   1      41.749  28.905  31.960  1.00  0.00    -0.203 F 
ATOM     99  F   UNL A   1      41.905  30.744  37.096  1.00  0.00    -0.200 F 
ATOM    100  C   UNL A   1      41.567  28.972  35.577  1.00  0.00     0.200 A 
ATOM    101  F   UNL A   1      41.164  27.250  34.014  1.00  0.00    -0.200 F 
ATOM    102  F   UNL A   1      41.266  28.146  36.588  1.00  0.00    -0.200 F 
ENDBRANCH  69  92
ENDBRANCH  43  44
ENDBRANCH  35  38
ENDBRANCH  33  34
ENDBRANCH  32  33
ENDBRANCH  31  32
ENDBRANCH   1  31
TORSDOF 15
ENDMDL
