MODEL 1
REMARK VINA RESULT:     -12.6      0.000      0.000
REMARK SMILES CC(=O)N1C[C@@H]2C[N@H+](CC(=O)NCc3ccccc3)C[C@]2(C(=O)NCCCCCCNC(=O)c2ccc(-c3c4nc(c(-c5c(F)c(F)c(F)c(F)c5F)c5ccc([nH]5)c(-c5c(F)c(F)c(F)c(F)c5F)c5nc(c(-c6c(F)c(F)c(F)c(F)c6F)c6ccc3[nH]6)C=C5)C=C4)cc2)C1
REMARK SMILES IDX 26 1 25 2 24 3 22 4 23 5 21 7 4 8 5 9 97 10 6 11 7 12 20 13
REMARK SMILES IDX 8 14 2 16 1 17 3 18 9 19 10 20 11 21 12 22 13 24 14 25 15 26
REMARK SMILES IDX 19 27 16 28 18 29 17 30 27 31 28 32 29 33 30 34 31 35 32 36
REMARK SMILES IDX 33 38 34 39 35 40 96 41 36 42 95 43 37 44 38 45 39 46 89 47
REMARK SMILES IDX 40 48 94 49 88 50 90 51 41 52 93 53 87 54 86 55 42 57 74 58
REMARK SMILES IDX 54 59 73 60 55 61 58 62 72 63 91 64 56 65 57 66 71 68 92 69
REMARK SMILES IDX 59 70 43 71 44 72 52 73 45 74 46 75 50 76 53 77 47 78 48 79
REMARK SMILES IDX 51 80 49 81 75 82 76 83 84 84 77 85 78 86 82 87 85 88 79 89
REMARK SMILES IDX 80 90 83 91 81 92 60 93 61 94 69 95 62 96 63 97 67 98 70 99
REMARK SMILES IDX 64 100 65 101 68 102 66 103
REMARK H PARENT 24 6 8 15 12 23 31 37 90 56 58 67
REMARK Flexibility Score: inf
ROOT
ATOM      1  C   UNL A   1      33.534  28.514  26.394  1.00  0.00     0.021 C 
ENDROOT
BRANCH   1   2
ATOM      2  C   UNL A   1      33.493  27.062  25.914  1.00  0.00     0.116 C 
BRANCH   2   3
ATOM      3  N   UNL A   1      32.414  26.211  26.449  1.00  0.00    -0.355 N 
ATOM      4  C   UNL A   1      32.000  24.902  26.188  1.00  0.00     0.234 C 
ATOM      5  O   UNL A   1      31.024  24.519  26.839  1.00  0.00    -0.274 OA
ATOM      6  H   UNL A   1      31.871  26.661  27.135  1.00  0.00     0.163 HD
BRANCH   4   7
ATOM      7  C   UNL A   1      32.741  23.985  25.104  1.00  0.00     0.125 C 
ATOM      8  N   UNL A   1      34.499  22.254  25.636  1.00  0.00    -0.341 N 
ATOM      9  C   UNL A   1      33.908  21.720  24.473  1.00  0.00     0.130 C 
ATOM     10  C   UNL A   1      33.556  23.183  26.256  1.00  0.00     0.143 C 
ATOM     11  C   UNL A   1      32.578  22.437  24.435  1.00  0.00     0.087 C 
ATOM     12  C   UNL A   1      32.170  22.510  22.963  1.00  0.00     0.269 C 
ATOM     13  C   UNL A   1      31.526  24.265  24.161  1.00  0.00     0.282 C 
ATOM     14  N   UNL A   1      31.944  23.925  22.806  1.00  0.00    -0.326 N 
ATOM     15  H   UNL A   1      31.265  24.156  22.082  1.00  0.00     0.348 HD
BRANCH   8  16
ATOM     16  C   UNL A   1      35.871  22.212  25.764  1.00  0.00     0.219 C 
ATOM     17  C   UNL A   1      36.547  23.513  26.080  1.00  0.00     0.114 C 
ATOM     18  O   UNL A   1      36.509  21.157  25.792  1.00  0.00    -0.275 OA
ENDBRANCH   8  16
BRANCH  14  19
ATOM     19  C   UNL A   1      33.103  24.720  22.274  1.00  0.00     0.363 C 
BRANCH  19  20
ATOM     20  C   UNL A   1      32.849  25.876  21.271  1.00  0.00     0.275 C 
ATOM     21  O   UNL A   1      32.935  25.617  20.063  1.00  0.00    -0.268 OA
ATOM     22  N   UNL A   1      32.531  27.174  21.575  1.00  0.00    -0.347 N 
ATOM     23  H   UNL A   1      32.686  27.788  20.822  1.00  0.00     0.164 HD
BRANCH  22  24
ATOM     24  C   UNL A   1      32.017  27.855  22.755  1.00  0.00     0.151 C 
BRANCH  24  25
ATOM     25  C   UNL A   1      30.549  28.255  22.748  1.00  0.00    -0.029 A 
ATOM     26  C   UNL A   1      30.105  29.462  22.202  1.00  0.00     0.005 A 
ATOM     27  C   UNL A   1      29.562  27.393  23.278  1.00  0.00     0.005 A 
ATOM     28  C   UNL A   1      28.753  29.836  22.284  1.00  0.00     0.000 A 
ATOM     29  C   UNL A   1      28.224  27.783  23.406  1.00  0.00     0.000 A 
ATOM     30  C   UNL A   1      27.821  29.017  22.919  1.00  0.00     0.000 A 
ENDBRANCH  24  25
ENDBRANCH  22  24
ENDBRANCH  19  20
ENDBRANCH  14  19
ENDBRANCH   4   7
ENDBRANCH   2   3
ENDBRANCH   1   2
BRANCH   1  31
ATOM     31  C   UNL A   1      32.135  29.090  26.663  1.00  0.00     0.002 C 
BRANCH  31  32
ATOM     32  C   UNL A   1      31.700  30.292  25.806  1.00  0.00     0.002 C 
BRANCH  32  33
ATOM     33  C   UNL A   1      31.440  31.608  26.543  1.00  0.00     0.021 C 
BRANCH  33  34
ATOM     34  C   UNL A   1      32.678  32.317  27.081  1.00  0.00     0.116 C 
BRANCH  34  35
ATOM     35  N   UNL A   1      32.424  33.703  27.445  1.00  0.00    -0.352 N 
ATOM     36  C   UNL A   1      33.036  34.468  28.403  1.00  0.00     0.251 C 
ATOM     37  H   UNL A   1      31.715  34.154  26.932  1.00  0.00     0.163 HD
ATOM     38  O   UNL A   1      32.604  35.592  28.673  1.00  0.00    -0.269 OA
BRANCH  36  39
ATOM     39  C   UNL A   1      34.202  33.937  29.133  1.00  0.00     0.039 A 
ATOM     40  C   UNL A   1      34.000  32.993  30.143  1.00  0.00     0.014 A 
ATOM     41  C   UNL A   1      35.492  34.368  28.815  1.00  0.00     0.014 A 
ATOM     42  C   UNL A   1      35.101  32.444  30.802  1.00  0.00     0.010 A 
ATOM     43  C   UNL A   1      36.589  33.767  29.421  1.00  0.00     0.010 A 
ATOM     44  C   UNL A   1      36.404  32.808  30.427  1.00  0.00    -0.014 A 
BRANCH  44  45
ATOM     45  C   UNL A   1      37.590  32.220  31.098  1.00  0.00     0.031 A 
ATOM     46  C   UNL A   1      38.371  31.134  30.414  1.00  0.00     0.074 A 
ATOM     47  C   UNL A   1      37.922  32.623  32.340  1.00  0.00     0.049 A 
ATOM     48  N   UNL A   1      39.387  30.438  30.857  1.00  0.00    -0.248 NA
ATOM     49  C   UNL A   1      37.934  30.759  29.059  1.00  0.00     0.031 C 
ATOM     50  C   UNL A   1      37.212  33.639  33.118  1.00  0.00     0.029 A 
ATOM     51  N   UNL A   1      38.938  32.218  33.170  1.00  0.00    -0.354 N 
ATOM     52  C   UNL A   1      39.699  29.540  29.845  1.00  0.00     0.074 A 
ATOM     53  C   UNL A   1      38.729  29.734  28.790  1.00  0.00     0.031 C 
ATOM     54  C   UNL A   1      37.825  33.794  34.303  1.00  0.00     0.029 A 
ATOM     55  C   UNL A   1      38.945  32.860  34.384  1.00  0.00     0.049 A 
ATOM     56  H   UNL A   1      39.597  31.532  32.919  1.00  0.00     0.167 HD
ATOM     57  C   UNL A   1      40.719  28.651  29.791  1.00  0.00     0.037 A 
ATOM     58  C   UNL A   1      39.761  32.705  35.444  1.00  0.00     0.037 A 
ATOM     59  C   UNL A   1      41.693  28.482  30.835  1.00  0.00     0.049 A 
ATOM     60  C   UNL A   1      40.879  31.700  35.361  1.00  0.00     0.074 A 
ATOM     61  C   UNL A   1      42.794  27.644  30.861  1.00  0.00     0.029 A 
ATOM     62  N   UNL A   1      41.681  29.165  32.043  1.00  0.00    -0.354 N 
ATOM     63  N   UNL A   1      41.204  30.901  34.374  1.00  0.00    -0.248 NA
ATOM     64  C   UNL A   1      41.750  31.580  36.539  1.00  0.00     0.031 C 
ATOM     65  C   UNL A   1      43.421  27.786  32.103  1.00  0.00     0.029 A 
ATOM     66  C   UNL A   1      42.746  28.754  32.828  1.00  0.00     0.049 A 
ATOM     67  H   UNL A   1      41.015  29.841  32.303  1.00  0.00     0.167 HD
ATOM     68  C   UNL A   1      42.334  30.213  34.794  1.00  0.00     0.074 A 
ATOM     69  C   UNL A   1      42.646  30.697  36.123  1.00  0.00     0.031 C 
ATOM     70  C   UNL A   1      43.050  29.265  34.141  1.00  0.00     0.037 A 
BRANCH  57  71
ATOM     71  C   UNL A   1      40.837  27.800  28.560  1.00  0.00     0.064 A 
ATOM     72  C   UNL A   1      40.177  26.565  28.452  1.00  0.00     0.173 A 
ATOM     73  C   UNL A   1      41.584  28.239  27.457  1.00  0.00     0.173 A 
ATOM     74  F   UNL A   1      39.458  26.091  29.482  1.00  0.00    -0.203 F 
ATOM     75  C   UNL A   1      40.284  25.792  27.299  1.00  0.00     0.198 A 
ATOM     76  C   UNL A   1      41.663  27.479  26.293  1.00  0.00     0.198 A 
ATOM     77  F   UNL A   1      42.232  29.413  27.504  1.00  0.00    -0.203 F 
ATOM     78  F   UNL A   1      39.686  24.594  27.240  1.00  0.00    -0.200 F 
ATOM     79  C   UNL A   1      41.019  26.252  26.218  1.00  0.00     0.200 A 
ATOM     80  F   UNL A   1      42.362  27.932  25.243  1.00  0.00    -0.200 F 
ATOM     81  F   UNL A   1      41.113  25.513  25.105  1.00  0.00    -0.200 F 
ENDBRANCH  57  71
BRANCH  58  82
ATOM     82  C   UNL A   1      39.568  33.531  36.665  1.00  0.00     0.064 A 
ATOM     83  C   UNL A   1      40.243  34.751  36.825  1.00  0.00     0.173 A 
ATOM     84  C   UNL A   1      38.723  33.116  37.705  1.00  0.00     0.173 A 
ATOM     85  F   UNL A   1      41.077  35.184  35.868  1.00  0.00    -0.203 F 
ATOM     86  C   UNL A   1      40.105  35.506  37.988  1.00  0.00     0.198 A 
ATOM     87  C   UNL A   1      38.560  33.887  38.853  1.00  0.00     0.198 A 
ATOM     88  F   UNL A   1      38.047  31.962  37.600  1.00  0.00    -0.203 F 
ATOM     89  F   UNL A   1      40.805  36.638  38.137  1.00  0.00    -0.200 F 
ATOM     90  C   UNL A   1      39.259  35.076  38.999  1.00  0.00     0.200 A 
ATOM     91  F   UNL A   1      37.729  33.476  39.821  1.00  0.00    -0.200 F 
ATOM     92  F   UNL A   1      39.126  35.802  40.117  1.00  0.00    -0.200 F 
ENDBRANCH  58  82
BRANCH  70  93
ATOM     93  C   UNL A   1      44.271  28.726  34.829  1.00  0.00     0.064 A 
ATOM     94  C   UNL A   1      45.529  29.328  34.683  1.00  0.00     0.173 A 
ATOM     95  C   UNL A   1      44.166  27.619  35.685  1.00  0.00     0.173 A 
ATOM     96  F   UNL A   1      45.683  30.380  33.865  1.00  0.00    -0.203 F 
ATOM     97  C   UNL A   1      46.643  28.824  35.349  1.00  0.00     0.198 A 
ATOM     98  C   UNL A   1      45.275  27.139  36.375  1.00  0.00     0.198 A 
ATOM     99  F   UNL A   1      42.983  27.012  35.866  1.00  0.00    -0.203 F 
ATOM    100  F   UNL A   1      47.844  29.385  35.157  1.00  0.00    -0.200 F 
ATOM    101  C   UNL A   1      46.513  27.737  36.201  1.00  0.00     0.200 A 
ATOM    102  F   UNL A   1      45.145  26.100  37.211  1.00  0.00    -0.200 F 
ATOM    103  F   UNL A   1      47.586  27.262  36.849  1.00  0.00    -0.200 F 
ENDBRANCH  70  93
ENDBRANCH  44  45
ENDBRANCH  36  39
ENDBRANCH  34  35
ENDBRANCH  33  34
ENDBRANCH  32  33
ENDBRANCH  31  32
ENDBRANCH   1  31
TORSDOF 18
ENDMDL
MODEL 2
REMARK VINA RESULT:     -12.5      4.761     10.254
REMARK SMILES CC(=O)N1C[C@@H]2C[N@H+](CC(=O)NCc3ccccc3)C[C@]2(C(=O)NCCCCCCNC(=O)c2ccc(-c3c4nc(c(-c5c(F)c(F)c(F)c(F)c5F)c5ccc([nH]5)c(-c5c(F)c(F)c(F)c(F)c5F)c5nc(c(-c6c(F)c(F)c(F)c(F)c6F)c6ccc3[nH]6)C=C5)C=C4)cc2)C1
REMARK SMILES IDX 26 1 25 2 24 3 22 4 23 5 21 7 4 8 5 9 97 10 6 11 7 12 20 13
REMARK SMILES IDX 8 14 2 16 1 17 3 18 9 19 10 20 11 21 12 22 13 24 14 25 15 26
REMARK SMILES IDX 19 27 16 28 18 29 17 30 27 31 28 32 29 33 30 34 31 35 32 36
REMARK SMILES IDX 33 38 34 39 35 40 96 41 36 42 95 43 37 44 38 45 39 46 89 47
REMARK SMILES IDX 40 48 94 49 88 50 90 51 41 52 93 53 87 54 86 55 42 57 74 58
REMARK SMILES IDX 54 59 73 60 55 61 58 62 72 63 91 64 56 65 57 66 71 68 92 69
REMARK SMILES IDX 59 70 43 71 44 72 52 73 45 74 46 75 50 76 53 77 47 78 48 79
REMARK SMILES IDX 51 80 49 81 75 82 76 83 84 84 77 85 78 86 82 87 85 88 79 89
REMARK SMILES IDX 80 90 83 91 81 92 60 93 61 94 69 95 62 96 63 97 67 98 70 99
REMARK SMILES IDX 64 100 65 101 68 102 66 103
REMARK H PARENT 24 6 8 15 12 23 31 37 90 56 58 67
REMARK Flexibility Score: inf
ROOT
ATOM      1  C   UNL A   1      36.211  23.033  24.053  1.00  0.00     0.021 C 
ENDROOT
BRANCH   1   2
ATOM      2  C   UNL A   1      34.853  23.740  24.070  1.00  0.00     0.116 C 
BRANCH   2   3
ATOM      3  N   UNL A   1      34.397  24.342  22.804  1.00  0.00    -0.355 N 
ATOM      4  C   UNL A   1      33.368  25.229  22.474  1.00  0.00     0.234 C 
ATOM      5  O   UNL A   1      33.280  25.509  21.275  1.00  0.00    -0.274 OA
ATOM      6  H   UNL A   1      34.931  24.060  22.026  1.00  0.00     0.163 HD
BRANCH   4   7
ATOM      7  C   UNL A   1      32.375  25.815  23.584  1.00  0.00     0.125 C 
ATOM      8  N   UNL A   1      32.466  28.161  24.512  1.00  0.00    -0.341 N 
ATOM      9  C   UNL A   1      31.094  27.857  24.625  1.00  0.00     0.130 C 
ATOM     10  C   UNL A   1      33.057  27.285  23.501  1.00  0.00     0.143 C 
ATOM     11  C   UNL A   1      30.940  26.715  23.647  1.00  0.00     0.087 C 
ATOM     12  C   UNL A   1      29.775  25.864  24.157  1.00  0.00     0.269 C 
ATOM     13  C   UNL A   1      31.374  24.690  23.160  1.00  0.00     0.282 C 
ATOM     14  N   UNL A   1      30.390  24.563  24.229  1.00  0.00    -0.326 N 
ATOM     15  H   UNL A   1      29.735  23.791  24.113  1.00  0.00     0.348 HD
BRANCH   8  16
ATOM     16  C   UNL A   1      33.092  28.812  25.554  1.00  0.00     0.219 C 
ATOM     17  C   UNL A   1      33.972  27.971  26.428  1.00  0.00     0.114 C 
ATOM     18  O   UNL A   1      33.081  30.039  25.679  1.00  0.00    -0.275 OA
ENDBRANCH   8  16
BRANCH  14  19
ATOM     19  C   UNL A   1      30.946  24.172  25.569  1.00  0.00     0.363 C 
BRANCH  19  20
ATOM     20  C   UNL A   1      30.735  22.730  26.101  1.00  0.00     0.275 C 
ATOM     21  O   UNL A   1      29.878  22.562  26.980  1.00  0.00    -0.268 OA
ATOM     22  N   UNL A   1      31.398  21.600  25.699  1.00  0.00    -0.347 N 
ATOM     23  H   UNL A   1      31.312  20.861  26.344  1.00  0.00     0.164 HD
BRANCH  22  24
ATOM     24  C   UNL A   1      32.201  21.239  24.539  1.00  0.00     0.151 C 
BRANCH  24  25
ATOM     25  C   UNL A   1      32.494  19.762  24.323  1.00  0.00    -0.029 A 
ATOM     26  C   UNL A   1      32.895  18.919  25.362  1.00  0.00     0.005 A 
ATOM     27  C   UNL A   1      32.341  19.174  23.047  1.00  0.00     0.005 A 
ATOM     28  C   UNL A   1      33.235  17.579  25.112  1.00  0.00     0.000 A 
ATOM     29  C   UNL A   1      32.726  17.854  22.785  1.00  0.00     0.000 A 
ATOM     30  C   UNL A   1      33.188  17.057  23.821  1.00  0.00     0.000 A 
ENDBRANCH  24  25
ENDBRANCH  22  24
ENDBRANCH  19  20
ENDBRANCH  14  19
ENDBRANCH   4   7
ENDBRANCH   2   3
ENDBRANCH   1   2
BRANCH   1  31
ATOM     31  C   UNL A   1      36.423  22.128  25.277  1.00  0.00     0.002 C 
BRANCH  31  32
ATOM     32  C   UNL A   1      36.453  20.611  25.023  1.00  0.00     0.002 C 
BRANCH  32  33
ATOM     33  C   UNL A   1      37.822  19.982  24.754  1.00  0.00     0.021 C 
BRANCH  33  34
ATOM     34  C   UNL A   1      38.897  20.276  25.794  1.00  0.00     0.116 C 
BRANCH  34  35
ATOM     35  N   UNL A   1      39.927  19.250  25.850  1.00  0.00    -0.352 N 
ATOM     36  C   UNL A   1      41.266  19.386  26.109  1.00  0.00     0.251 C 
ATOM     37  H   UNL A   1      39.620  18.330  25.680  1.00  0.00     0.163 HD
ATOM     38  O   UNL A   1      42.026  18.422  25.986  1.00  0.00    -0.269 OA
BRANCH  36  39
ATOM     39  C   UNL A   1      41.805  20.697  26.515  1.00  0.00     0.039 A 
ATOM     40  C   UNL A   1      42.213  21.599  25.529  1.00  0.00     0.014 A 
ATOM     41  C   UNL A   1      41.904  21.035  27.867  1.00  0.00     0.014 A 
ATOM     42  C   UNL A   1      42.675  22.863  25.900  1.00  0.00     0.010 A 
ATOM     43  C   UNL A   1      42.293  22.318  28.231  1.00  0.00     0.010 A 
ATOM     44  C   UNL A   1      42.693  23.240  27.253  1.00  0.00    -0.014 A 
BRANCH  44  45
ATOM     45  C   UNL A   1      43.158  24.586  27.669  1.00  0.00     0.031 A 
ATOM     46  C   UNL A   1      42.151  25.651  28.004  1.00  0.00     0.074 A 
ATOM     47  C   UNL A   1      44.476  24.862  27.687  1.00  0.00     0.049 A 
ATOM     48  N   UNL A   1      42.345  26.908  28.315  1.00  0.00    -0.248 NA
ATOM     49  C   UNL A   1      40.733  25.258  27.958  1.00  0.00     0.031 C 
ATOM     50  C   UNL A   1      45.541  23.920  27.340  1.00  0.00     0.029 A 
ATOM     51  N   UNL A   1      45.144  26.019  28.000  1.00  0.00    -0.354 N 
ATOM     52  C   UNL A   1      41.080  27.454  28.486  1.00  0.00     0.074 A 
ATOM     53  C   UNL A   1      40.123  26.412  28.186  1.00  0.00     0.031 C 
ATOM     54  C   UNL A   1      46.730  24.530  27.480  1.00  0.00     0.029 A 
ATOM     55  C   UNL A   1      46.508  25.915  27.886  1.00  0.00     0.049 A 
ATOM     56  H   UNL A   1      44.688  26.845  28.279  1.00  0.00     0.167 HD
ATOM     57  C   UNL A   1      40.748  28.705  28.882  1.00  0.00     0.037 A 
ATOM     58  C   UNL A   1      47.470  26.838  28.080  1.00  0.00     0.037 A 
ATOM     59  C   UNL A   1      41.708  29.728  29.202  1.00  0.00     0.049 A 
ATOM     60  C   UNL A   1      47.071  28.225  28.509  1.00  0.00     0.074 A 
ATOM     61  C   UNL A   1      41.479  31.014  29.659  1.00  0.00     0.029 A 
ATOM     62  N   UNL A   1      43.084  29.579  29.094  1.00  0.00    -0.354 N 
ATOM     63  N   UNL A   1      45.874  28.713  28.729  1.00  0.00    -0.248 NA
ATOM     64  C   UNL A   1      48.158  29.190  28.722  1.00  0.00     0.031 C 
ATOM     65  C   UNL A   1      42.714  31.658  29.784  1.00  0.00     0.029 A 
ATOM     66  C   UNL A   1      43.715  30.757  29.460  1.00  0.00     0.049 A 
ATOM     67  H   UNL A   1      43.542  28.759  28.802  1.00  0.00     0.167 HD
ATOM     68  C   UNL A   1      46.065  30.024  29.142  1.00  0.00     0.074 A 
ATOM     69  C   UNL A   1      47.495  30.253  29.153  1.00  0.00     0.031 C 
ATOM     70  C   UNL A   1      45.142  30.957  29.483  1.00  0.00     0.037 A 
BRANCH  57  71
ATOM     71  C   UNL A   1      39.288  29.034  29.000  1.00  0.00     0.064 A 
ATOM     72  C   UNL A   1      38.614  28.959  30.230  1.00  0.00     0.173 A 
ATOM     73  C   UNL A   1      38.562  29.470  27.882  1.00  0.00     0.173 A 
ATOM     74  F   UNL A   1      39.257  28.537  31.329  1.00  0.00    -0.203 F 
ATOM     75  C   UNL A   1      37.262  29.281  30.327  1.00  0.00     0.198 A 
ATOM     76  C   UNL A   1      37.219  29.822  27.989  1.00  0.00     0.198 A 
ATOM     77  F   UNL A   1      39.157  29.563  26.683  1.00  0.00    -0.203 F 
ATOM     78  F   UNL A   1      36.628  29.153  31.501  1.00  0.00    -0.200 F 
ATOM     79  C   UNL A   1      36.569  29.720  29.211  1.00  0.00     0.200 A 
ATOM     80  F   UNL A   1      36.553  30.260  26.912  1.00  0.00    -0.200 F 
ATOM     81  F   UNL A   1      35.271  30.039  29.308  1.00  0.00    -0.200 F 
ENDBRANCH  57  71
BRANCH  58  82
ATOM     82  C   UNL A   1      48.901  26.479  27.894  1.00  0.00     0.064 A 
ATOM     83  C   UNL A   1      49.721  26.192  28.995  1.00  0.00     0.173 A 
ATOM     84  C   UNL A   1      49.485  26.434  26.620  1.00  0.00     0.173 A 
ATOM     85  F   UNL A   1      49.216  26.240  30.237  1.00  0.00    -0.203 F 
ATOM     86  C   UNL A   1      51.075  25.904  28.831  1.00  0.00     0.198 A 
ATOM     87  C   UNL A   1      50.830  26.114  26.454  1.00  0.00     0.198 A 
ATOM     88  F   UNL A   1      48.743  26.692  25.532  1.00  0.00    -0.203 F 
ATOM     89  F   UNL A   1      51.847  25.689  29.905  1.00  0.00    -0.200 F 
ATOM     90  C   UNL A   1      51.627  25.860  27.560  1.00  0.00     0.200 A 
ATOM     91  F   UNL A   1      51.356  26.056  25.222  1.00  0.00    -0.200 F 
ATOM     92  F   UNL A   1      52.929  25.583  27.402  1.00  0.00    -0.200 F 
ENDBRANCH  58  82
BRANCH  70  93
ATOM     93  C   UNL A   1      45.647  32.293  29.945  1.00  0.00     0.064 A 
ATOM     94  C   UNL A   1      45.832  33.362  29.057  1.00  0.00     0.173 A 
ATOM     95  C   UNL A   1      45.903  32.516  31.307  1.00  0.00     0.173 A 
ATOM     96  F   UNL A   1      45.614  33.195  27.744  1.00  0.00    -0.203 F 
ATOM     97  C   UNL A   1      46.280  34.599  29.512  1.00  0.00     0.198 A 
ATOM     98  C   UNL A   1      46.318  33.764  31.763  1.00  0.00     0.198 A 
ATOM     99  F   UNL A   1      45.733  31.528  32.199  1.00  0.00    -0.203 F 
ATOM    100  F   UNL A   1      46.496  35.593  28.640  1.00  0.00    -0.200 F 
ATOM    101  C   UNL A   1      46.513  34.802  30.865  1.00  0.00     0.200 A 
ATOM    102  F   UNL A   1      46.526  33.962  33.071  1.00  0.00    -0.200 F 
ATOM    103  F   UNL A   1      46.933  35.997  31.301  1.00  0.00    -0.200 F 
ENDBRANCH  70  93
ENDBRANCH  44  45
ENDBRANCH  36  39
ENDBRANCH  34  35
ENDBRANCH  33  34
ENDBRANCH  32  33
ENDBRANCH  31  32
ENDBRANCH   1  31
TORSDOF 18
ENDMDL
MODEL 3
REMARK VINA RESULT:     -12.4      0.550      7.037
REMARK SMILES CC(=O)N1C[C@@H]2C[N@H+](CC(=O)NCc3ccccc3)C[C@]2(C(=O)NCCCCCCNC(=O)c2ccc(-c3c4nc(c(-c5c(F)c(F)c(F)c(F)c5F)c5ccc([nH]5)c(-c5c(F)c(F)c(F)c(F)c5F)c5nc(c(-c6c(F)c(F)c(F)c(F)c6F)c6ccc3[nH]6)C=C5)C=C4)cc2)C1
REMARK SMILES IDX 26 1 25 2 24 3 22 4 23 5 21 7 4 8 5 9 97 10 6 11 7 12 20 13
REMARK SMILES IDX 8 14 2 16 1 17 3 18 9 19 10 20 11 21 12 22 13 24 14 25 15 26
REMARK SMILES IDX 19 27 16 28 18 29 17 30 27 31 28 32 29 33 30 34 31 35 32 36
REMARK SMILES IDX 33 38 34 39 35 40 96 41 36 42 95 43 37 44 38 45 39 46 89 47
REMARK SMILES IDX 40 48 94 49 88 50 90 51 41 52 93 53 87 54 86 55 42 57 74 58
REMARK SMILES IDX 54 59 73 60 55 61 58 62 72 63 91 64 56 65 57 66 71 68 92 69
REMARK SMILES IDX 59 70 43 71 44 72 52 73 45 74 46 75 50 76 53 77 47 78 48 79
REMARK SMILES IDX 51 80 49 81 75 82 76 83 84 84 77 85 78 86 82 87 85 88 79 89
REMARK SMILES IDX 80 90 83 91 81 92 60 93 61 94 69 95 62 96 63 97 67 98 70 99
REMARK SMILES IDX 64 100 65 101 68 102 66 103
REMARK H PARENT 24 6 8 15 12 23 31 37 90 56 58 67
REMARK Flexibility Score: inf
ROOT
ATOM      1  C   UNL A   1      33.102  28.297  26.763  1.00  0.00     0.021 C 
ENDROOT
BRANCH   1   2
ATOM      2  C   UNL A   1      32.939  26.952  26.053  1.00  0.00     0.116 C 
BRANCH   2   3
ATOM      3  N   UNL A   1      32.075  25.951  26.706  1.00  0.00    -0.355 N 
ATOM      4  C   UNL A   1      31.825  24.595  26.473  1.00  0.00     0.234 C 
ATOM      5  O   UNL A   1      31.010  24.072  27.239  1.00  0.00    -0.274 OA
ATOM      6  H   UNL A   1      31.568  26.315  27.467  1.00  0.00     0.163 HD
BRANCH   4   7
ATOM      7  C   UNL A   1      32.542  23.800  25.283  1.00  0.00     0.125 C 
ATOM      8  N   UNL A   1      34.234  21.953  25.592  1.00  0.00    -0.341 N 
ATOM      9  C   UNL A   1      33.632  21.594  24.369  1.00  0.00     0.130 C 
ATOM     10  C   UNL A   1      33.319  22.827  26.324  1.00  0.00     0.143 C 
ATOM     11  C   UNL A   1      32.329  22.357  24.420  1.00  0.00     0.087 C 
ATOM     12  C   UNL A   1      31.934  22.633  22.969  1.00  0.00     0.269 C 
ATOM     13  C   UNL A   1      31.343  24.242  24.381  1.00  0.00     0.282 C 
ATOM     14  N   UNL A   1      31.759  24.063  22.994  1.00  0.00    -0.326 N 
ATOM     15  H   UNL A   1      31.093  24.410  22.304  1.00  0.00     0.348 HD
BRANCH   8  16
ATOM     16  C   UNL A   1      35.603  21.846  25.717  1.00  0.00     0.219 C 
ATOM     17  C   UNL A   1      36.245  20.693  25.007  1.00  0.00     0.114 C 
ATOM     18  O   UNL A   1      36.299  22.726  26.231  1.00  0.00    -0.275 OA
ENDBRANCH   8  16
BRANCH  14  19
ATOM     19  C   UNL A   1      32.948  24.879  22.572  1.00  0.00     0.363 C 
BRANCH  19  20
ATOM     20  C   UNL A   1      32.793  25.953  21.464  1.00  0.00     0.275 C 
ATOM     21  O   UNL A   1      32.902  25.583  20.286  1.00  0.00    -0.268 OA
ATOM     22  N   UNL A   1      32.541  27.288  21.641  1.00  0.00    -0.347 N 
ATOM     23  H   UNL A   1      32.755  27.823  20.843  1.00  0.00     0.164 HD
BRANCH  22  24
ATOM     24  C   UNL A   1      32.031  28.098  22.738  1.00  0.00     0.151 C 
BRANCH  24  25
ATOM     25  C   UNL A   1      30.528  28.328  22.798  1.00  0.00    -0.029 A 
ATOM     26  C   UNL A   1      29.931  29.502  22.332  1.00  0.00     0.005 A 
ATOM     27  C   UNL A   1      29.664  27.333  23.311  1.00  0.00     0.005 A 
ATOM     28  C   UNL A   1      28.549  29.714  22.477  1.00  0.00     0.000 A 
ATOM     29  C   UNL A   1      28.297  27.560  23.501  1.00  0.00     0.000 A 
ATOM     30  C   UNL A   1      27.740  28.763  23.095  1.00  0.00     0.000 A 
ENDBRANCH  24  25
ENDBRANCH  22  24
ENDBRANCH  19  20
ENDBRANCH  14  19
ENDBRANCH   4   7
ENDBRANCH   2   3
ENDBRANCH   1   2
BRANCH   1  31
ATOM     31  C   UNL A   1      31.780  29.074  26.875  1.00  0.00     0.002 C 
BRANCH  31  32
ATOM     32  C   UNL A   1      31.574  30.240  25.892  1.00  0.00     0.002 C 
BRANCH  32  33
ATOM     33  C   UNL A   1      31.407  31.634  26.500  1.00  0.00     0.021 C 
BRANCH  33  34
ATOM     34  C   UNL A   1      32.701  32.347  26.876  1.00  0.00     0.116 C 
BRANCH  34  35
ATOM     35  N   UNL A   1      32.483  33.707  27.348  1.00  0.00    -0.352 N 
ATOM     36  C   UNL A   1      33.111  34.377  28.364  1.00  0.00     0.251 C 
ATOM     37  H   UNL A   1      31.788  34.216  26.870  1.00  0.00     0.163 HD
ATOM     38  O   UNL A   1      32.708  35.488  28.720  1.00  0.00    -0.269 OA
BRANCH  36  39
ATOM     39  C   UNL A   1      34.260  33.760  29.050  1.00  0.00     0.039 A 
ATOM     40  C   UNL A   1      34.030  32.746  29.984  1.00  0.00     0.014 A 
ATOM     41  C   UNL A   1      35.563  34.180  28.768  1.00  0.00     0.014 A 
ATOM     42  C   UNL A   1      35.113  32.118  30.600  1.00  0.00     0.010 A 
ATOM     43  C   UNL A   1      36.641  33.503  29.326  1.00  0.00     0.010 A 
ATOM     44  C   UNL A   1      36.428  32.474  30.255  1.00  0.00    -0.014 A 
BRANCH  44  45
ATOM     45  C   UNL A   1      37.594  31.805  30.879  1.00  0.00     0.031 A 
ATOM     46  C   UNL A   1      38.043  32.216  32.254  1.00  0.00     0.074 A 
ATOM     47  C   UNL A   1      38.280  30.874  30.188  1.00  0.00     0.049 A 
ATOM     48  N   UNL A   1      39.078  31.813  32.945  1.00  0.00    -0.248 NA
ATOM     49  C   UNL A   1      37.232  33.241  32.933  1.00  0.00     0.031 C 
ATOM     50  C   UNL A   1      37.963  30.425  28.831  1.00  0.00     0.029 A 
ATOM     51  N   UNL A   1      39.392  30.145  30.528  1.00  0.00    -0.354 N 
ATOM     52  C   UNL A   1      39.050  32.541  34.127  1.00  0.00     0.074 A 
ATOM     53  C   UNL A   1      37.933  33.454  34.038  1.00  0.00     0.031 C 
ATOM     54  C   UNL A   1      38.846  29.483  28.462  1.00  0.00     0.029 A 
ATOM     55  C   UNL A   1      39.814  29.292  29.538  1.00  0.00     0.049 A 
ATOM     56  H   UNL A   1      39.845  30.228  31.398  1.00  0.00     0.167 HD
ATOM     57  C   UNL A   1      39.868  32.437  35.201  1.00  0.00     0.037 A 
ATOM     58  C   UNL A   1      40.870  28.456  29.503  1.00  0.00     0.037 A 
ATOM     59  C   UNL A   1      40.963  31.508  35.291  1.00  0.00     0.049 A 
ATOM     60  C   UNL A   1      41.771  28.370  30.707  1.00  0.00     0.074 A 
ATOM     61  C   UNL A   1      41.824  31.288  36.351  1.00  0.00     0.029 A 
ATOM     62  N   UNL A   1      41.348  30.644  34.275  1.00  0.00    -0.354 N 
ATOM     63  N   UNL A   1      41.697  29.017  31.845  1.00  0.00    -0.248 NA
ATOM     64  C   UNL A   1      42.898  27.433  30.624  1.00  0.00     0.031 C 
ATOM     65  C   UNL A   1      42.759  30.324  35.961  1.00  0.00     0.029 A 
ATOM     66  C   UNL A   1      42.446  29.902  34.679  1.00  0.00     0.049 A 
ATOM     67  H   UNL A   1      40.907  30.569  33.399  1.00  0.00     0.167 HD
ATOM     68  C   UNL A   1      42.741  28.540  32.625  1.00  0.00     0.074 A 
ATOM     69  C   UNL A   1      43.428  27.539  31.834  1.00  0.00     0.031 C 
ATOM     70  C   UNL A   1      43.102  28.896  33.883  1.00  0.00     0.037 A 
BRANCH  57  71
ATOM     71  C   UNL A   1      39.606  33.345  36.367  1.00  0.00     0.064 A 
ATOM     72  C   UNL A   1      38.760  32.964  37.421  1.00  0.00     0.173 A 
ATOM     73  C   UNL A   1      40.237  34.595  36.455  1.00  0.00     0.173 A 
ATOM     74  F   UNL A   1      38.121  31.785  37.382  1.00  0.00    -0.203 F 
ATOM     75  C   UNL A   1      38.536  33.811  38.504  1.00  0.00     0.198 A 
ATOM     76  C   UNL A   1      40.037  35.426  37.555  1.00  0.00     0.198 A 
ATOM     77  F   UNL A   1      41.058  35.008  35.478  1.00  0.00    -0.203 F 
ATOM     78  F   UNL A   1      37.685  33.445  39.473  1.00  0.00    -0.200 F 
ATOM     79  C   UNL A   1      39.180  35.036  38.574  1.00  0.00     0.200 A 
ATOM     80  F   UNL A   1      40.672  36.604  37.628  1.00  0.00    -0.200 F 
ATOM     81  F   UNL A   1      38.973  35.846  39.621  1.00  0.00    -0.200 F 
ENDBRANCH  57  71
BRANCH  58  82
ATOM     82  C   UNL A   1      41.123  27.618  28.301  1.00  0.00     0.064 A 
ATOM     83  C   UNL A   1      40.521  26.359  28.160  1.00  0.00     0.173 A 
ATOM     84  C   UNL A   1      41.982  28.045  27.279  1.00  0.00     0.173 A 
ATOM     85  F   UNL A   1      39.705  25.896  29.119  1.00  0.00    -0.203 F 
ATOM     86  C   UNL A   1      40.792  25.548  27.060  1.00  0.00     0.198 A 
ATOM     87  C   UNL A   1      42.227  27.248  26.163  1.00  0.00     0.198 A 
ATOM     88  F   UNL A   1      42.578  29.245  27.359  1.00  0.00    -0.203 F 
ATOM     89  F   UNL A   1      40.247  24.327  26.979  1.00  0.00    -0.200 F 
ATOM     90  C   UNL A   1      41.641  25.996  26.059  1.00  0.00     0.200 A 
ATOM     91  F   UNL A   1      43.036  27.691  25.190  1.00  0.00    -0.200 F 
ATOM     92  F   UNL A   1      41.902  25.216  25.001  1.00  0.00    -0.200 F 
ENDBRANCH  58  82
BRANCH  70  93
ATOM     93  C   UNL A   1      44.257  28.165  34.503  1.00  0.00     0.064 A 
ATOM     94  C   UNL A   1      45.565  28.667  34.450  1.00  0.00     0.173 A 
ATOM     95  C   UNL A   1      44.039  26.968  35.204  1.00  0.00     0.173 A 
ATOM     96  F   UNL A   1      45.827  29.800  33.781  1.00  0.00    -0.203 F 
ATOM     97  C   UNL A   1      46.617  27.983  35.053  1.00  0.00     0.198 A 
ATOM     98  C   UNL A   1      45.088  26.305  35.833  1.00  0.00     0.198 A 
ATOM     99  F   UNL A   1      42.804  26.450  35.292  1.00  0.00    -0.203 F 
ATOM    100  F   UNL A   1      47.867  28.455  34.948  1.00  0.00    -0.200 F 
ATOM    101  C   UNL A   1      46.377  26.809  35.752  1.00  0.00     0.200 A 
ATOM    102  F   UNL A   1      44.851  25.180  36.522  1.00  0.00    -0.200 F 
ATOM    103  F   UNL A   1      47.390  26.159  36.340  1.00  0.00    -0.200 F 
ENDBRANCH  70  93
ENDBRANCH  44  45
ENDBRANCH  36  39
ENDBRANCH  34  35
ENDBRANCH  33  34
ENDBRANCH  32  33
ENDBRANCH  31  32
ENDBRANCH   1  31
TORSDOF 18
ENDMDL
