MODEL 1
REMARK VINA RESULT:     -13.1      0.000      0.000
REMARK SMILES Cc1cc(=O)n2cc(-c3ccccc3)nc2n1[C@H](C)C(=O)NCCCCCCNC(=O)c1ccc(-c2c3nc(c(-c4c(F)c(F)c(F)c(F)c4F)c4ccc([nH]4)c(-c4c(F)c(F)c(F)c(F)c4F)c4nc(c(-c5c(F)c(F)c(F)c(F)c5F)c5ccc2[nH]5)C=C4)C=C3)cc1
REMARK SMILES IDX 25 1 24 2 23 3 22 4 20 5 21 6 18 8 19 9 17 10 1 11 2 12 3 13
REMARK SMILES IDX 4 14 16 15 5 16 6 17 15 18 7 19 8 20 9 21 10 22 14 23 11 24
REMARK SMILES IDX 13 25 12 26 26 27 27 28 28 29 29 30 30 31 31 33 32 34 33 35
REMARK SMILES IDX 94 36 34 37 93 38 35 39 36 40 37 41 87 42 38 43 92 44 86 45
REMARK SMILES IDX 88 46 39 47 91 48 85 49 84 50 40 52 72 53 52 54 71 55 53 56
REMARK SMILES IDX 56 57 70 58 89 59 54 60 55 61 69 63 90 64 57 65 41 66 42 67
REMARK SMILES IDX 50 68 43 69 44 70 48 71 51 72 45 73 46 74 49 75 47 76 73 77
REMARK SMILES IDX 74 78 82 79 75 80 76 81 80 82 83 83 77 84 78 85 81 86 79 87
REMARK SMILES IDX 58 88 59 89 67 90 60 91 61 92 65 93 68 94 62 95 63 96 66 97
REMARK SMILES IDX 64 98
REMARK H PARENT 22 7 29 32 88 51 56 62
REMARK Flexibility Score: inf
ROOT
ATOM      1  C   UNL A   1      36.112  23.405  25.771  1.00  0.00     0.002 C 
ENDROOT
BRANCH   1   2
ATOM      2  C   UNL A   1      35.518  22.158  25.121  1.00  0.00     0.021 C 
BRANCH   2   3
ATOM      3  C   UNL A   1      34.600  21.345  26.024  1.00  0.00     0.116 C 
BRANCH   3   4
ATOM      4  N   UNL A   1      33.959  22.151  27.036  1.00  0.00    -0.354 N 
ATOM      5  C   UNL A   1      32.714  22.709  27.012  1.00  0.00     0.242 C 
ATOM      6  O   UNL A   1      32.390  23.415  27.974  1.00  0.00    -0.273 OA
ATOM      7  H   UNL A   1      34.490  22.321  27.847  1.00  0.00     0.163 HD
BRANCH   5   8
ATOM      8  C   UNL A   1      31.740  22.482  25.830  1.00  0.00     0.176 C 
ATOM      9  C   UNL A   1      30.292  22.609  26.316  1.00  0.00     0.042 C 
BRANCH   8  10
ATOM     10  N   UNL A   1      32.210  23.210  24.590  1.00  0.00    -0.303 N 
ATOM     11  C   UNL A   1      32.143  21.025  23.268  1.00  0.00     0.065 C 
ATOM     12  C   UNL A   1      32.408  22.513  23.366  1.00  0.00     0.024 A 
ATOM     13  C   UNL A   1      32.845  23.127  22.251  1.00  0.00     0.093 A 
ATOM     14  C   UNL A   1      33.145  24.570  22.254  1.00  0.00     0.259 A 
ATOM     15  C   UNL A   1      32.480  24.561  24.626  1.00  0.00     0.218 A 
ATOM     16  O   UNL A   1      33.562  25.189  21.296  1.00  0.00    -0.269 OA
ATOM     17  N   UNL A   1      32.927  25.195  23.476  1.00  0.00    -0.251 N 
ATOM     18  N   UNL A   1      32.438  25.422  25.622  1.00  0.00    -0.212 NA
ATOM     19  C   UNL A   1      33.130  26.523  23.781  1.00  0.00     0.127 A 
ATOM     20  C   UNL A   1      32.810  26.636  25.109  1.00  0.00     0.091 A 
BRANCH  20  21
ATOM     21  C   UNL A   1      32.860  27.846  25.895  1.00  0.00     0.002 A 
ATOM     22  C   UNL A   1      33.986  28.143  26.671  1.00  0.00     0.010 A 
ATOM     23  C   UNL A   1      31.796  28.756  25.847  1.00  0.00     0.010 A 
ATOM     24  C   UNL A   1      34.049  29.341  27.386  1.00  0.00     0.001 A 
ATOM     25  C   UNL A   1      31.856  29.947  26.574  1.00  0.00     0.001 A 
ATOM     26  C   UNL A   1      32.984  30.241  27.339  1.00  0.00     0.000 A 
ENDBRANCH  20  21
ENDBRANCH   8  10
ENDBRANCH   5   8
ENDBRANCH   3   4
ENDBRANCH   2   3
ENDBRANCH   1   2
BRANCH   1  27
ATOM     27  C   UNL A   1      37.643  23.504  25.747  1.00  0.00     0.002 C 
BRANCH  27  28
ATOM     28  C   UNL A   1      38.407  22.202  25.462  1.00  0.00     0.021 C 
BRANCH  28  29
ATOM     29  C   UNL A   1      39.454  21.863  26.509  1.00  0.00     0.116 C 
BRANCH  29  30
ATOM     30  N   UNL A   1      40.798  21.773  25.945  1.00  0.00    -0.352 N 
ATOM     31  C   UNL A   1      41.737  22.776  25.833  1.00  0.00     0.251 C 
ATOM     32  H   UNL A   1      41.067  20.889  25.605  1.00  0.00     0.163 HD
ATOM     33  O   UNL A   1      42.682  22.683  25.059  1.00  0.00    -0.269 OA
BRANCH  31  34
ATOM     34  C   UNL A   1      41.579  23.977  26.668  1.00  0.00     0.039 A 
ATOM     35  C   UNL A   1      42.167  24.058  27.933  1.00  0.00     0.014 A 
ATOM     36  C   UNL A   1      40.851  25.043  26.146  1.00  0.00     0.014 A 
ATOM     37  C   UNL A   1      42.081  25.254  28.640  1.00  0.00     0.010 A 
ATOM     38  C   UNL A   1      40.886  26.260  26.778  1.00  0.00     0.010 A 
ATOM     39  C   UNL A   1      41.452  26.358  28.047  1.00  0.00    -0.014 A 
BRANCH  39  40
ATOM     40  C   UNL A   1      41.456  27.661  28.706  1.00  0.00     0.031 A 
ATOM     41  C   UNL A   1      42.568  28.580  28.322  1.00  0.00     0.074 A 
ATOM     42  C   UNL A   1      40.396  28.090  29.425  1.00  0.00     0.049 A 
ATOM     43  N   UNL A   1      43.421  29.161  29.101  1.00  0.00    -0.248 NA
ATOM     44  C   UNL A   1      42.815  28.826  26.891  1.00  0.00     0.031 C 
ATOM     45  C   UNL A   1      39.111  27.416  29.649  1.00  0.00     0.029 A 
ATOM     46  N   UNL A   1      40.201  29.298  30.013  1.00  0.00    -0.354 N 
ATOM     47  C   UNL A   1      44.227  29.957  28.287  1.00  0.00     0.074 A 
ATOM     48  C   UNL A   1      43.886  29.621  26.929  1.00  0.00     0.031 C 
ATOM     49  C   UNL A   1      38.202  28.312  30.092  1.00  0.00     0.029 A 
ATOM     50  C   UNL A   1      38.879  29.570  30.341  1.00  0.00     0.049 A 
ATOM     51  H   UNL A   1      40.935  29.929  30.193  1.00  0.00     0.167 HD
ATOM     52  C   UNL A   1      44.989  30.962  28.801  1.00  0.00     0.037 A 
ATOM     53  C   UNL A   1      38.374  30.761  30.747  1.00  0.00     0.037 A 
ATOM     54  C   UNL A   1      45.155  30.818  30.223  1.00  0.00     0.049 A 
ATOM     55  C   UNL A   1      39.516  31.573  31.240  1.00  0.00     0.074 A 
ATOM     56  C   UNL A   1      45.723  29.852  31.030  1.00  0.00     0.029 A 
ATOM     57  N   UNL A   1      44.366  31.577  31.052  1.00  0.00    -0.354 N 
ATOM     58  N   UNL A   1      40.192  31.284  32.318  1.00  0.00    -0.248 NA
ATOM     59  C   UNL A   1      40.204  32.422  30.279  1.00  0.00     0.031 C 
ATOM     60  C   UNL A   1      44.855  29.762  32.157  1.00  0.00     0.029 A 
ATOM     61  C   UNL A   1      43.858  30.727  32.002  1.00  0.00     0.049 A 
ATOM     62  H   UNL A   1      44.197  32.544  30.980  1.00  0.00     0.167 HD
ATOM     63  C   UNL A   1      41.513  31.542  31.985  1.00  0.00     0.074 A 
ATOM     64  C   UNL A   1      41.451  32.320  30.748  1.00  0.00     0.031 C 
ATOM     65  C   UNL A   1      42.538  30.857  32.570  1.00  0.00     0.037 A 
BRANCH  52  66
ATOM     66  C   UNL A   1      45.333  32.244  28.088  1.00  0.00     0.064 A 
ATOM     67  C   UNL A   1      44.309  33.159  27.769  1.00  0.00     0.173 A 
ATOM     68  C   UNL A   1      46.570  32.465  27.445  1.00  0.00     0.173 A 
ATOM     69  F   UNL A   1      43.086  33.034  28.308  1.00  0.00    -0.203 F 
ATOM     70  C   UNL A   1      44.489  34.169  26.820  1.00  0.00     0.198 A 
ATOM     71  C   UNL A   1      46.761  33.506  26.537  1.00  0.00     0.198 A 
ATOM     72  F   UNL A   1      47.599  31.621  27.581  1.00  0.00    -0.203 F 
ATOM     73  F   UNL A   1      43.452  34.936  26.457  1.00  0.00    -0.200 F 
ATOM     74  C   UNL A   1      45.713  34.337  26.200  1.00  0.00     0.200 A 
ATOM     75  F   UNL A   1      47.950  33.640  25.934  1.00  0.00    -0.200 F 
ATOM     76  F   UNL A   1      45.873  35.263  25.245  1.00  0.00    -0.200 F 
ENDBRANCH  52  66
BRANCH  53  77
ATOM     77  C   UNL A   1      37.030  31.327  30.476  1.00  0.00     0.064 A 
ATOM     78  C   UNL A   1      36.179  31.714  31.524  1.00  0.00     0.173 A 
ATOM     79  C   UNL A   1      36.654  31.739  29.182  1.00  0.00     0.173 A 
ATOM     80  F   UNL A   1      36.486  31.402  32.792  1.00  0.00    -0.203 F 
ATOM     81  C   UNL A   1      35.034  32.484  31.292  1.00  0.00     0.198 A 
ATOM     82  C   UNL A   1      35.507  32.499  28.951  1.00  0.00     0.198 A 
ATOM     83  F   UNL A   1      37.440  31.492  28.124  1.00  0.00    -0.203 F 
ATOM     84  F   UNL A   1      34.278  32.885  32.325  1.00  0.00    -0.200 F 
ATOM     85  C   UNL A   1      34.703  32.884  30.008  1.00  0.00     0.200 A 
ATOM     86  F   UNL A   1      35.219  32.908  27.707  1.00  0.00    -0.200 F 
ATOM     87  F   UNL A   1      33.639  33.669  29.792  1.00  0.00    -0.200 F 
ENDBRANCH  53  77
BRANCH  65  88
ATOM     88  C   UNL A   1      42.225  29.963  33.738  1.00  0.00     0.064 A 
ATOM     89  C   UNL A   1      41.839  28.616  33.610  1.00  0.00     0.173 A 
ATOM     90  C   UNL A   1      42.518  30.423  35.029  1.00  0.00     0.173 A 
ATOM     91  F   UNL A   1      41.639  28.067  32.409  1.00  0.00    -0.203 F 
ATOM     92  C   UNL A   1      41.723  27.783  34.721  1.00  0.00     0.198 A 
ATOM     93  C   UNL A   1      42.438  29.579  36.134  1.00  0.00     0.198 A 
ATOM     94  F   UNL A   1      42.950  31.681  35.209  1.00  0.00    -0.203 F 
ATOM     95  F   UNL A   1      41.354  26.503  34.566  1.00  0.00    -0.200 F 
ATOM     96  C   UNL A   1      42.033  28.263  35.981  1.00  0.00     0.200 A 
ATOM     97  F   UNL A   1      42.791  30.034  37.345  1.00  0.00    -0.200 F 
ATOM     98  F   UNL A   1      41.975  27.449  37.044  1.00  0.00    -0.200 F 
ENDBRANCH  65  88
ENDBRANCH  39  40
ENDBRANCH  31  34
ENDBRANCH  29  30
ENDBRANCH  28  29
ENDBRANCH  27  28
ENDBRANCH   1  27
TORSDOF 15
ENDMDL
MODEL 2
REMARK VINA RESULT:     -12.9      3.045      8.593
REMARK SMILES Cc1cc(=O)n2cc(-c3ccccc3)nc2n1[C@H](C)C(=O)NCCCCCCNC(=O)c1ccc(-c2c3nc(c(-c4c(F)c(F)c(F)c(F)c4F)c4ccc([nH]4)c(-c4c(F)c(F)c(F)c(F)c4F)c4nc(c(-c5c(F)c(F)c(F)c(F)c5F)c5ccc2[nH]5)C=C4)C=C3)cc1
REMARK SMILES IDX 25 1 24 2 23 3 22 4 20 5 21 6 18 8 19 9 17 10 1 11 2 12 3 13
REMARK SMILES IDX 4 14 16 15 5 16 6 17 15 18 7 19 8 20 9 21 10 22 14 23 11 24
REMARK SMILES IDX 13 25 12 26 26 27 27 28 28 29 29 30 30 31 31 33 32 34 33 35
REMARK SMILES IDX 94 36 34 37 93 38 35 39 36 40 37 41 87 42 38 43 92 44 86 45
REMARK SMILES IDX 88 46 39 47 91 48 85 49 84 50 40 52 72 53 52 54 71 55 53 56
REMARK SMILES IDX 56 57 70 58 89 59 54 60 55 61 69 63 90 64 57 65 41 66 42 67
REMARK SMILES IDX 50 68 43 69 44 70 48 71 51 72 45 73 46 74 49 75 47 76 73 77
REMARK SMILES IDX 74 78 82 79 75 80 76 81 80 82 83 83 77 84 78 85 81 86 79 87
REMARK SMILES IDX 58 88 59 89 67 90 60 91 61 92 65 93 68 94 62 95 63 96 66 97
REMARK SMILES IDX 64 98
REMARK H PARENT 22 7 29 32 88 51 56 62
REMARK Flexibility Score: inf
ROOT
ATOM      1  C   UNL A   1      33.539  28.228  26.072  1.00  0.00     0.002 C 
ENDROOT
BRANCH   1   2
ATOM      2  C   UNL A   1      32.116  28.707  25.792  1.00  0.00     0.021 C 
BRANCH   2   3
ATOM      3  C   UNL A   1      31.860  29.136  24.354  1.00  0.00     0.116 C 
BRANCH   3   4
ATOM      4  N   UNL A   1      32.920  28.737  23.458  1.00  0.00    -0.354 N 
ATOM      5  C   UNL A   1      32.939  27.694  22.579  1.00  0.00     0.242 C 
ATOM      6  O   UNL A   1      33.983  27.504  21.946  1.00  0.00    -0.273 OA
ATOM      7  H   UNL A   1      33.735  29.289  23.485  1.00  0.00     0.163 HD
BRANCH   5   8
ATOM      8  C   UNL A   1      31.711  26.772  22.380  1.00  0.00     0.176 C 
ATOM      9  C   UNL A   1      31.838  26.013  21.055  1.00  0.00     0.042 C 
BRANCH   8  10
ATOM     10  N   UNL A   1      31.362  26.045  23.660  1.00  0.00    -0.303 N 
ATOM     11  C   UNL A   1      29.034  27.098  23.637  1.00  0.00     0.065 C 
ATOM     12  C   UNL A   1      30.084  26.205  24.265  1.00  0.00     0.024 A 
ATOM     13  C   UNL A   1      29.750  25.590  25.414  1.00  0.00     0.093 A 
ATOM     14  C   UNL A   1      30.712  24.715  26.107  1.00  0.00     0.259 A 
ATOM     15  C   UNL A   1      32.284  25.232  24.282  1.00  0.00     0.218 A 
ATOM     16  O   UNL A   1      30.492  24.144  27.156  1.00  0.00    -0.269 OA
ATOM     17  N   UNL A   1      31.938  24.596  25.466  1.00  0.00    -0.251 N 
ATOM     18  N   UNL A   1      33.535  24.957  23.977  1.00  0.00    -0.212 NA
ATOM     19  C   UNL A   1      33.029  23.861  25.879  1.00  0.00     0.127 A 
ATOM     20  C   UNL A   1      33.995  24.095  24.936  1.00  0.00     0.091 A 
BRANCH  20  21
ATOM     21  C   UNL A   1      35.328  23.540  24.930  1.00  0.00     0.002 A 
ATOM     22  C   UNL A   1      36.214  23.809  25.979  1.00  0.00     0.010 A 
ATOM     23  C   UNL A   1      35.725  22.687  23.893  1.00  0.00     0.010 A 
ATOM     24  C   UNL A   1      37.483  23.225  25.992  1.00  0.00     0.001 A 
ATOM     25  C   UNL A   1      36.999  22.116  23.902  1.00  0.00     0.001 A 
ATOM     26  C   UNL A   1      37.876  22.381  24.953  1.00  0.00     0.000 A 
ENDBRANCH  20  21
ENDBRANCH   8  10
ENDBRANCH   5   8
ENDBRANCH   3   4
ENDBRANCH   2   3
ENDBRANCH   1   2
BRANCH   1  27
ATOM     27  C   UNL A   1      34.397  29.159  26.938  1.00  0.00     0.002 C 
BRANCH  27  28
ATOM     28  C   UNL A   1      33.706  30.420  27.476  1.00  0.00     0.021 C 
BRANCH  28  29
ATOM     29  C   UNL A   1      34.653  31.582  27.724  1.00  0.00     0.116 C 
BRANCH  29  30
ATOM     30  N   UNL A   1      34.524  32.132  29.070  1.00  0.00    -0.352 N 
ATOM     31  C   UNL A   1      35.238  31.784  30.197  1.00  0.00     0.251 C 
ATOM     32  H   UNL A   1      33.846  32.835  29.188  1.00  0.00     0.163 HD
ATOM     33  O   UNL A   1      34.831  32.056  31.320  1.00  0.00    -0.269 OA
BRANCH  31  34
ATOM     34  C   UNL A   1      36.511  31.067  30.024  1.00  0.00     0.039 A 
ATOM     35  C   UNL A   1      37.703  31.761  29.797  1.00  0.00     0.014 A 
ATOM     36  C   UNL A   1      36.497  29.679  30.125  1.00  0.00     0.014 A 
ATOM     37  C   UNL A   1      38.897  31.047  29.748  1.00  0.00     0.010 A 
ATOM     38  C   UNL A   1      37.682  28.995  30.216  1.00  0.00     0.010 A 
ATOM     39  C   UNL A   1      38.880  29.664  29.976  1.00  0.00    -0.014 A 
BRANCH  39  40
ATOM     40  C   UNL A   1      40.126  28.906  30.058  1.00  0.00     0.031 A 
ATOM     41  C   UNL A   1      40.679  28.713  31.431  1.00  0.00     0.074 A 
ATOM     42  C   UNL A   1      40.609  28.227  28.995  1.00  0.00     0.049 A 
ATOM     43  N   UNL A   1      41.861  29.021  31.860  1.00  0.00    -0.248 NA
ATOM     44  C   UNL A   1      39.791  28.186  32.480  1.00  0.00     0.031 C 
ATOM     45  C   UNL A   1      40.019  28.083  27.658  1.00  0.00     0.029 A 
ATOM     46  N   UNL A   1      41.688  27.404  28.931  1.00  0.00    -0.354 N 
ATOM     47  C   UNL A   1      41.923  28.602  33.189  1.00  0.00     0.074 A 
ATOM     48  C   UNL A   1      40.587  28.205  33.551  1.00  0.00     0.031 C 
ATOM     49  C   UNL A   1      40.599  27.044  27.018  1.00  0.00     0.029 A 
ATOM     50  C   UNL A   1      41.702  26.562  27.826  1.00  0.00     0.049 A 
ATOM     51  H   UNL A   1      42.400  27.404  29.611  1.00  0.00     0.167 HD
ATOM     52  C   UNL A   1      43.113  28.449  33.834  1.00  0.00     0.037 A 
ATOM     53  C   UNL A   1      42.539  25.517  27.616  1.00  0.00     0.037 A 
ATOM     54  C   UNL A   1      44.174  29.130  33.142  1.00  0.00     0.049 A 
ATOM     55  C   UNL A   1      43.716  25.717  28.500  1.00  0.00     0.074 A 
ATOM     56  C   UNL A   1      44.417  30.451  32.817  1.00  0.00     0.029 A 
ATOM     57  N   UNL A   1      45.009  28.391  32.339  1.00  0.00    -0.354 N 
ATOM     58  N   UNL A   1      44.582  26.680  28.339  1.00  0.00    -0.248 NA
ATOM     59  C   UNL A   1      43.661  25.142  29.837  1.00  0.00     0.031 C 
ATOM     60  C   UNL A   1      44.976  30.407  31.508  1.00  0.00     0.029 A 
ATOM     61  C   UNL A   1      45.108  29.065  31.148  1.00  0.00     0.049 A 
ATOM     62  H   UNL A   1      45.450  27.543  32.572  1.00  0.00     0.167 HD
ATOM     63  C   UNL A   1      44.863  27.119  29.624  1.00  0.00     0.074 A 
ATOM     64  C   UNL A   1      44.333  26.082  30.508  1.00  0.00     0.031 C 
ATOM     65  C   UNL A   1      45.229  28.412  29.866  1.00  0.00     0.037 A 
BRANCH  52  66
ATOM     66  C   UNL A   1      43.391  27.438  34.916  1.00  0.00     0.064 A 
ATOM     67  C   UNL A   1      43.764  27.879  36.202  1.00  0.00     0.173 A 
ATOM     68  C   UNL A   1      43.598  26.065  34.658  1.00  0.00     0.173 A 
ATOM     69  F   UNL A   1      43.627  29.168  36.550  1.00  0.00    -0.203 F 
ATOM     70  C   UNL A   1      44.369  27.027  37.130  1.00  0.00     0.198 A 
ATOM     71  C   UNL A   1      44.154  25.206  35.605  1.00  0.00     0.198 A 
ATOM     72  F   UNL A   1      43.378  25.530  33.452  1.00  0.00    -0.203 F 
ATOM     73  F   UNL A   1      44.819  27.518  38.292  1.00  0.00    -0.200 F 
ATOM     74  C   UNL A   1      44.569  25.693  36.828  1.00  0.00     0.200 A 
ATOM     75  F   UNL A   1      44.357  23.921  35.286  1.00  0.00    -0.200 F 
ATOM     76  F   UNL A   1      45.205  24.886  37.688  1.00  0.00    -0.200 F 
ENDBRANCH  52  66
BRANCH  53  77
ATOM     77  C   UNL A   1      42.254  24.240  26.918  1.00  0.00     0.064 A 
ATOM     78  C   UNL A   1      43.179  23.677  26.024  1.00  0.00     0.173 A 
ATOM     79  C   UNL A   1      41.179  23.415  27.307  1.00  0.00     0.173 A 
ATOM     80  F   UNL A   1      44.255  24.378  25.638  1.00  0.00    -0.203 F 
ATOM     81  C   UNL A   1      43.048  22.361  25.565  1.00  0.00     0.198 A 
ATOM     82  C   UNL A   1      41.045  22.106  26.841  1.00  0.00     0.198 A 
ATOM     83  F   UNL A   1      40.287  23.828  28.219  1.00  0.00    -0.203 F 
ATOM     84  F   UNL A   1      43.984  21.839  24.760  1.00  0.00    -0.200 F 
ATOM     85  C   UNL A   1      41.987  21.574  25.981  1.00  0.00     0.200 A 
ATOM     86  F   UNL A   1      40.032  21.345  27.280  1.00  0.00    -0.200 F 
ATOM     87  F   UNL A   1      41.893  20.297  25.588  1.00  0.00    -0.200 F 
ENDBRANCH  53  77
BRANCH  65  88
ATOM     88  C   UNL A   1      45.529  29.302  28.691  1.00  0.00     0.064 A 
ATOM     89  C   UNL A   1      44.563  30.092  28.042  1.00  0.00     0.173 A 
ATOM     90  C   UNL A   1      46.868  29.515  28.340  1.00  0.00     0.173 A 
ATOM     91  F   UNL A   1      43.273  30.027  28.387  1.00  0.00    -0.203 F 
ATOM     92  C   UNL A   1      44.918  31.024  27.070  1.00  0.00     0.198 A 
ATOM     93  C   UNL A   1      47.225  30.473  27.395  1.00  0.00     0.198 A 
ATOM     94  F   UNL A   1      47.841  28.835  28.967  1.00  0.00    -0.203 F 
ATOM     95  F   UNL A   1      43.973  31.763  26.469  1.00  0.00    -0.200 F 
ATOM     96  C   UNL A   1      46.251  31.221  26.755  1.00  0.00     0.200 A 
ATOM     97  F   UNL A   1      48.521  30.698  27.132  1.00  0.00    -0.200 F 
ATOM     98  F   UNL A   1      46.599  32.156  25.860  1.00  0.00    -0.200 F 
ENDBRANCH  65  88
ENDBRANCH  39  40
ENDBRANCH  31  34
ENDBRANCH  29  30
ENDBRANCH  28  29
ENDBRANCH  27  28
ENDBRANCH   1  27
TORSDOF 15
ENDMDL
MODEL 3
REMARK VINA RESULT:     -12.7      1.752      2.697
REMARK SMILES Cc1cc(=O)n2cc(-c3ccccc3)nc2n1[C@H](C)C(=O)NCCCCCCNC(=O)c1ccc(-c2c3nc(c(-c4c(F)c(F)c(F)c(F)c4F)c4ccc([nH]4)c(-c4c(F)c(F)c(F)c(F)c4F)c4nc(c(-c5c(F)c(F)c(F)c(F)c5F)c5ccc2[nH]5)C=C4)C=C3)cc1
REMARK SMILES IDX 25 1 24 2 23 3 22 4 20 5 21 6 18 8 19 9 17 10 1 11 2 12 3 13
REMARK SMILES IDX 4 14 16 15 5 16 6 17 15 18 7 19 8 20 9 21 10 22 14 23 11 24
REMARK SMILES IDX 13 25 12 26 26 27 27 28 28 29 29 30 30 31 31 33 32 34 33 35
REMARK SMILES IDX 94 36 34 37 93 38 35 39 36 40 37 41 87 42 38 43 92 44 86 45
REMARK SMILES IDX 88 46 39 47 91 48 85 49 84 50 40 52 72 53 52 54 71 55 53 56
REMARK SMILES IDX 56 57 70 58 89 59 54 60 55 61 69 63 90 64 57 65 41 66 42 67
REMARK SMILES IDX 50 68 43 69 44 70 48 71 51 72 45 73 46 74 49 75 47 76 73 77
REMARK SMILES IDX 74 78 82 79 75 80 76 81 80 82 83 83 77 84 78 85 81 86 79 87
REMARK SMILES IDX 58 88 59 89 67 90 60 91 61 92 65 93 68 94 62 95 63 96 66 97
REMARK SMILES IDX 64 98
REMARK H PARENT 22 7 29 32 88 51 56 62
REMARK Flexibility Score: inf
ROOT
ATOM      1  C   UNL A   1      34.912  20.968  24.654  1.00  0.00     0.002 C 
ENDROOT
BRANCH   1   2
ATOM      2  C   UNL A   1      33.517  21.589  24.670  1.00  0.00     0.021 C 
BRANCH   2   3
ATOM      3  C   UNL A   1      33.216  22.507  23.494  1.00  0.00     0.116 C 
BRANCH   3   4
ATOM      4  N   UNL A   1      31.922  23.141  23.601  1.00  0.00    -0.354 N 
ATOM      5  C   UNL A   1      31.615  24.465  23.481  1.00  0.00     0.242 C 
ATOM      6  O   UNL A   1      30.438  24.793  23.668  1.00  0.00    -0.273 OA
ATOM      7  H   UNL A   1      31.165  22.539  23.785  1.00  0.00     0.163 HD
BRANCH   5   8
ATOM      8  C   UNL A   1      32.690  25.525  23.136  1.00  0.00     0.176 C 
ATOM      9  C   UNL A   1      32.541  25.960  21.674  1.00  0.00     0.042 C 
BRANCH   8  10
ATOM     10  N   UNL A   1      32.821  26.549  24.241  1.00  0.00    -0.303 N 
ATOM     11  C   UNL A   1      34.599  25.109  25.379  1.00  0.00     0.065 C 
ATOM     12  C   UNL A   1      33.730  26.348  25.317  1.00  0.00     0.024 A 
ATOM     13  C   UNL A   1      33.856  27.229  26.326  1.00  0.00     0.093 A 
ATOM     14  C   UNL A   1      33.040  28.456  26.361  1.00  0.00     0.259 A 
ATOM     15  C   UNL A   1      32.044  27.687  24.242  1.00  0.00     0.218 A 
ATOM     16  O   UNL A   1      33.080  29.286  27.247  1.00  0.00    -0.269 OA
ATOM     17  N   UNL A   1      32.176  28.597  25.282  1.00  0.00    -0.251 N 
ATOM     18  N   UNL A   1      31.101  28.087  23.416  1.00  0.00    -0.212 NA
ATOM     19  C   UNL A   1      31.290  29.626  25.051  1.00  0.00     0.127 A 
ATOM     20  C   UNL A   1      30.648  29.290  23.888  1.00  0.00     0.091 A 
BRANCH  20  21
ATOM     21  C   UNL A   1      29.622  30.064  23.229  1.00  0.00     0.002 A 
ATOM     22  C   UNL A   1      29.131  31.237  23.815  1.00  0.00     0.010 A 
ATOM     23  C   UNL A   1      29.145  29.668  21.974  1.00  0.00     0.010 A 
ATOM     24  C   UNL A   1      28.177  32.007  23.147  1.00  0.00     0.001 A 
ATOM     25  C   UNL A   1      28.181  30.434  21.314  1.00  0.00     0.001 A 
ATOM     26  C   UNL A   1      27.701  31.606  21.899  1.00  0.00     0.000 A 
ENDBRANCH  20  21
ENDBRANCH   8  10
ENDBRANCH   5   8
ENDBRANCH   3   4
ENDBRANCH   2   3
ENDBRANCH   1   2
BRANCH   1  27
ATOM     27  C   UNL A   1      35.949  21.634  25.568  1.00  0.00     0.002 C 
BRANCH  27  28
ATOM     28  C   UNL A   1      37.076  22.409  24.870  1.00  0.00     0.021 C 
BRANCH  28  29
ATOM     29  C   UNL A   1      38.057  23.063  25.828  1.00  0.00     0.116 C 
BRANCH  29  30
ATOM     30  N   UNL A   1      39.200  22.206  26.130  1.00  0.00    -0.352 N 
ATOM     31  C   UNL A   1      40.482  22.591  26.458  1.00  0.00     0.251 C 
ATOM     32  H   UNL A   1      39.035  21.236  26.095  1.00  0.00     0.163 HD
ATOM     33  O   UNL A   1      41.426  21.816  26.363  1.00  0.00    -0.269 OA
BRANCH  31  34
ATOM     34  C   UNL A   1      40.700  23.968  26.927  1.00  0.00     0.039 A 
ATOM     35  C   UNL A   1      39.908  25.022  26.462  1.00  0.00     0.014 A 
ATOM     36  C   UNL A   1      41.699  24.185  27.872  1.00  0.00     0.014 A 
ATOM     37  C   UNL A   1      40.080  26.287  27.015  1.00  0.00     0.010 A 
ATOM     38  C   UNL A   1      41.772  25.395  28.514  1.00  0.00     0.010 A 
ATOM     39  C   UNL A   1      41.004  26.463  28.054  1.00  0.00    -0.014 A 
BRANCH  39  40
ATOM     40  C   UNL A   1      41.118  27.746  28.742  1.00  0.00     0.031 A 
ATOM     41  C   UNL A   1      42.267  28.605  28.328  1.00  0.00     0.074 A 
ATOM     42  C   UNL A   1      40.121  28.219  29.520  1.00  0.00     0.049 A 
ATOM     43  N   UNL A   1      43.189  29.112  29.080  1.00  0.00    -0.248 NA
ATOM     44  C   UNL A   1      42.464  28.872  26.893  1.00  0.00     0.031 C 
ATOM     45  C   UNL A   1      38.808  27.620  29.788  1.00  0.00     0.029 A 
ATOM     46  N   UNL A   1      40.028  29.422  30.144  1.00  0.00    -0.354 N 
ATOM     47  C   UNL A   1      44.005  29.878  28.247  1.00  0.00     0.074 A 
ATOM     48  C   UNL A   1      43.582  29.600  26.899  1.00  0.00     0.031 C 
ATOM     49  C   UNL A   1      37.978  28.557  30.294  1.00  0.00     0.029 A 
ATOM     50  C   UNL A   1      38.742  29.765  30.540  1.00  0.00     0.049 A 
ATOM     51  H   UNL A   1      40.808  30.002  30.304  1.00  0.00     0.167 HD
ATOM     52  C   UNL A   1      44.851  30.822  28.748  1.00  0.00     0.037 A 
ATOM     53  C   UNL A   1      38.331  30.973  30.997  1.00  0.00     0.037 A 
ATOM     54  C   UNL A   1      45.071  30.631  30.157  1.00  0.00     0.049 A 
ATOM     55  C   UNL A   1      39.542  31.701  31.454  1.00  0.00     0.074 A 
ATOM     56  C   UNL A   1      45.614  29.611  30.914  1.00  0.00     0.029 A 
ATOM     57  N   UNL A   1      44.369  31.415  31.039  1.00  0.00    -0.354 N 
ATOM     58  N   UNL A   1      40.247  31.343  32.493  1.00  0.00    -0.248 NA
ATOM     59  C   UNL A   1      40.237  32.532  30.482  1.00  0.00     0.031 C 
ATOM     60  C   UNL A   1      44.795  29.546  32.077  1.00  0.00     0.029 A 
ATOM     61  C   UNL A   1      43.854  30.573  31.992  1.00  0.00     0.049 A 
ATOM     62  H   UNL A   1      44.257  32.392  30.997  1.00  0.00     0.167 HD
ATOM     63  C   UNL A   1      41.565  31.530  32.104  1.00  0.00     0.074 A 
ATOM     64  C   UNL A   1      41.495  32.341  30.890  1.00  0.00     0.031 C 
ATOM     65  C   UNL A   1      42.572  30.769  32.624  1.00  0.00     0.037 A 
BRANCH  52  66
ATOM     66  C   UNL A   1      45.240  32.099  28.049  1.00  0.00     0.064 A 
ATOM     67  C   UNL A   1      44.245  33.040  27.712  1.00  0.00     0.173 A 
ATOM     68  C   UNL A   1      46.496  32.293  27.435  1.00  0.00     0.173 A 
ATOM     69  F   UNL A   1      43.009  32.941  28.224  1.00  0.00    -0.203 F 
ATOM     70  C   UNL A   1      44.471  34.049  26.773  1.00  0.00     0.198 A 
ATOM     71  C   UNL A   1      46.732  33.333  26.537  1.00  0.00     0.198 A 
ATOM     72  F   UNL A   1      47.502  31.424  27.589  1.00  0.00    -0.203 F 
ATOM     73  F   UNL A   1      43.461  34.843  26.392  1.00  0.00    -0.200 F 
ATOM     74  C   UNL A   1      45.712  34.191  26.181  1.00  0.00     0.200 A 
ATOM     75  F   UNL A   1      47.937  33.442  25.961  1.00  0.00    -0.200 F 
ATOM     76  F   UNL A   1      45.915  35.117  25.235  1.00  0.00    -0.200 F 
ENDBRANCH  52  66
BRANCH  53  77
ATOM     77  C   UNL A   1      37.014  31.627  30.803  1.00  0.00     0.064 A 
ATOM     78  C   UNL A   1      36.108  31.770  31.866  1.00  0.00     0.173 A 
ATOM     79  C   UNL A   1      36.721  32.354  29.631  1.00  0.00     0.173 A 
ATOM     80  F   UNL A   1      36.335  31.149  33.033  1.00  0.00    -0.203 F 
ATOM     81  C   UNL A   1      34.990  32.607  31.771  1.00  0.00     0.198 A 
ATOM     82  C   UNL A   1      35.600  33.181  29.534  1.00  0.00     0.198 A 
ATOM     83  F   UNL A   1      37.564  32.351  28.588  1.00  0.00    -0.203 F 
ATOM     84  F   UNL A   1      34.182  32.764  32.828  1.00  0.00    -0.200 F 
ATOM     85  C   UNL A   1      34.742  33.318  30.608  1.00  0.00     0.200 A 
ATOM     86  F   UNL A   1      35.392  33.890  28.415  1.00  0.00    -0.200 F 
ATOM     87  F   UNL A   1      33.704  34.162  30.536  1.00  0.00    -0.200 F 
ENDBRANCH  53  77
BRANCH  65  88
ATOM     88  C   UNL A   1      42.257  29.865  33.785  1.00  0.00     0.064 A 
ATOM     89  C   UNL A   1      41.825  28.534  33.644  1.00  0.00     0.173 A 
ATOM     90  C   UNL A   1      42.594  30.293  35.075  1.00  0.00     0.173 A 
ATOM     91  F   UNL A   1      41.580  28.011  32.439  1.00  0.00    -0.203 F 
ATOM     92  C   UNL A   1      41.708  27.686  34.744  1.00  0.00     0.198 A 
ATOM     93  C   UNL A   1      42.512  29.434  36.168  1.00  0.00     0.198 A 
ATOM     94  F   UNL A   1      43.070  31.534  35.266  1.00  0.00    -0.203 F 
ATOM     95  F   UNL A   1      41.294  26.421  34.577  1.00  0.00    -0.200 F 
ATOM     96  C   UNL A   1      42.062  28.134  36.004  1.00  0.00     0.200 A 
ATOM     97  F   UNL A   1      42.908  29.857  37.378  1.00  0.00    -0.200 F 
ATOM     98  F   UNL A   1      42.003  27.304  37.055  1.00  0.00    -0.200 F 
ENDBRANCH  65  88
ENDBRANCH  39  40
ENDBRANCH  31  34
ENDBRANCH  29  30
ENDBRANCH  28  29
ENDBRANCH  27  28
ENDBRANCH   1  27
TORSDOF 15
ENDMDL
