MODEL 1
REMARK VINA RESULT:     -11.5      0.000      0.000
REMARK SMILES O=C(NCCCCCCNC(=O)c1cc2ccccc2cc1OCCO)c1ccc(-c2c3nc(c(-c4c(F)c(F)c(F)c(F)c4F)c4ccc([nH]4)c(-c4c(F)c(F)c(F)c(F)c4F)c4nc(c(-c5c(F)c(F)c(F)c(F)c5F)c5ccc2[nH]5)C=C4)C=C3)cc1
REMARK SMILES IDX 7 1 6 2 5 3 4 4 3 5 1 6 2 7 27 9 28 10 89 11 29 12 88 13
REMARK SMILES IDX 30 14 31 15 32 16 82 17 33 18 87 19 81 20 83 21 34 22 86 23
REMARK SMILES IDX 80 24 79 25 35 27 67 28 47 29 66 30 48 31 51 32 65 33 84 34
REMARK SMILES IDX 49 35 50 36 64 38 85 39 52 40 36 41 37 42 45 43 38 44 39 45
REMARK SMILES IDX 43 46 46 47 40 48 41 49 44 50 42 51 68 52 69 53 77 54 70 55
REMARK SMILES IDX 71 56 75 57 78 58 72 59 73 60 76 61 74 62 53 63 54 64 62 65
REMARK SMILES IDX 55 66 56 67 60 68 63 69 57 70 58 71 61 72 59 73 8 74 9 75
REMARK SMILES IDX 10 76 11 77 12 79 13 80 14 81 22 82 15 83 21 84 16 85 20 86
REMARK SMILES IDX 17 87 19 88 18 89 23 90 24 91 25 92 26 93
REMARK H PARENT 3 8 83 26 51 37 10 78 26 94
REMARK Flexibility Score: inf
ROOT
ATOM      1  C   UNL A   1      33.297  30.165  27.118  1.00  0.00     0.002 C 
ENDROOT
BRANCH   1   2
ATOM      2  C   UNL A   1      31.843  30.559  26.863  1.00  0.00     0.002 C 
BRANCH   2   3
ATOM      3  C   UNL A   1      31.523  32.050  26.864  1.00  0.00     0.021 C 
BRANCH   3   4
ATOM      4  C   UNL A   1      32.722  32.979  27.005  1.00  0.00     0.116 C 
BRANCH   4   5
ATOM      5  N   UNL A   1      32.405  34.264  27.609  1.00  0.00    -0.352 N 
ATOM      6  O   UNL A   1      32.548  35.967  29.081  1.00  0.00    -0.269 OA
ATOM      7  C   UNL A   1      33.007  34.908  28.664  1.00  0.00     0.251 C 
ATOM      8  H   UNL A   1      31.649  34.744  27.200  1.00  0.00     0.163 HD
BRANCH   7   9
ATOM      9  C   UNL A   1      34.188  34.310  29.329  1.00  0.00     0.039 A 
ATOM     10  C   UNL A   1      35.486  34.649  28.941  1.00  0.00     0.014 A 
ATOM     11  C   UNL A   1      33.989  33.398  30.372  1.00  0.00     0.014 A 
ATOM     12  C   UNL A   1      36.571  33.967  29.483  1.00  0.00     0.010 A 
ATOM     13  C   UNL A   1      35.086  32.777  30.977  1.00  0.00     0.010 A 
ATOM     14  C   UNL A   1      36.385  33.031  30.514  1.00  0.00    -0.014 A 
BRANCH  14  15
ATOM     15  C   UNL A   1      37.571  32.377  31.122  1.00  0.00     0.031 A 
ATOM     16  C   UNL A   1      38.033  32.731  32.509  1.00  0.00     0.074 A 
ATOM     17  C   UNL A   1      38.215  31.426  30.418  1.00  0.00     0.049 A 
ATOM     18  N   UNL A   1      39.031  32.235  33.197  1.00  0.00    -0.248 NA
ATOM     19  C   UNL A   1      37.285  33.783  33.213  1.00  0.00     0.031 C 
ATOM     20  C   UNL A   1      37.866  31.008  29.059  1.00  0.00     0.029 A 
ATOM     21  N   UNL A   1      39.278  30.625  30.750  1.00  0.00    -0.354 N 
ATOM     22  C   UNL A   1      39.042  32.922  34.404  1.00  0.00     0.074 A 
ATOM     23  C   UNL A   1      37.967  33.890  34.345  1.00  0.00     0.031 C 
ATOM     24  C   UNL A   1      38.667  29.998  28.691  1.00  0.00     0.029 A 
ATOM     25  C   UNL A   1      39.623  29.737  29.761  1.00  0.00     0.049 A 
ATOM     26  H   UNL A   1      39.749  30.683  31.612  1.00  0.00     0.167 HD
ATOM     27  C   UNL A   1      39.869  32.753  35.464  1.00  0.00     0.037 A 
ATOM     28  C   UNL A   1      40.607  28.822  29.715  1.00  0.00     0.037 A 
ATOM     29  C   UNL A   1      40.927  31.775  35.523  1.00  0.00     0.049 A 
ATOM     30  C   UNL A   1      41.518  28.668  30.899  1.00  0.00     0.074 A 
ATOM     31  C   UNL A   1      41.795  31.503  36.567  1.00  0.00     0.029 A 
ATOM     32  N   UNL A   1      41.264  30.910  34.491  1.00  0.00    -0.354 N 
ATOM     33  N   UNL A   1      41.494  29.300  32.046  1.00  0.00    -0.248 NA
ATOM     34  C   UNL A   1      42.593  27.675  30.779  1.00  0.00     0.031 C 
ATOM     35  C   UNL A   1      42.684  30.505  36.151  1.00  0.00     0.029 A 
ATOM     36  C   UNL A   1      42.339  30.120  34.865  1.00  0.00     0.049 A 
ATOM     37  H   UNL A   1      40.805  30.865  33.620  1.00  0.00     0.167 HD
ATOM     38  C   UNL A   1      42.538  28.773  32.792  1.00  0.00     0.074 A 
ATOM     39  C   UNL A   1      43.161  27.752  31.973  1.00  0.00     0.031 C 
ATOM     40  C   UNL A   1      42.948  29.109  34.039  1.00  0.00     0.037 A 
BRANCH  27  41
ATOM     41  C   UNL A   1      39.678  33.654  36.651  1.00  0.00     0.064 A 
ATOM     42  C   UNL A   1      40.278  34.920  36.721  1.00  0.00     0.173 A 
ATOM     43  C   UNL A   1      38.839  33.267  37.707  1.00  0.00     0.173 A 
ATOM     44  F   UNL A   1      41.096  35.335  35.742  1.00  0.00    -0.203 F 
ATOM     45  C   UNL A   1      40.063  35.755  37.815  1.00  0.00     0.198 A 
ATOM     46  C   UNL A   1      38.604  34.116  38.787  1.00  0.00     0.198 A 
ATOM     47  F   UNL A   1      38.232  32.071  37.686  1.00  0.00    -0.203 F 
ATOM     48  F   UNL A   1      40.678  36.945  37.879  1.00  0.00    -0.200 F 
ATOM     49  C   UNL A   1      39.222  35.356  38.843  1.00  0.00     0.200 A 
ATOM     50  F   UNL A   1      37.780  33.734  39.772  1.00  0.00    -0.200 F 
ATOM     51  F   UNL A   1      39.009  36.165  39.889  1.00  0.00    -0.200 F 
ENDBRANCH  27  41
BRANCH  28  52
ATOM     52  C   UNL A   1      40.774  27.982  28.501  1.00  0.00     0.064 A 
ATOM     53  C   UNL A   1      40.159  26.728  28.402  1.00  0.00     0.173 A 
ATOM     54  C   UNL A   1      41.535  28.425  27.409  1.00  0.00     0.173 A 
ATOM     55  F   UNL A   1      39.436  26.253  29.427  1.00  0.00    -0.203 F 
ATOM     56  C   UNL A   1      40.310  25.941  27.261  1.00  0.00     0.198 A 
ATOM     57  C   UNL A   1      41.661  27.652  26.258  1.00  0.00     0.198 A 
ATOM     58  F   UNL A   1      42.139  29.622  27.453  1.00  0.00    -0.203 F 
ATOM     59  F   UNL A   1      39.743  24.729  27.207  1.00  0.00    -0.200 F 
ATOM     60  C   UNL A   1      41.054  26.409  26.188  1.00  0.00     0.200 A 
ATOM     61  F   UNL A   1      42.366  28.115  25.217  1.00  0.00    -0.200 F 
ATOM     62  F   UNL A   1      41.189  25.656  25.087  1.00  0.00    -0.200 F 
ENDBRANCH  28  52
BRANCH  40  63
ATOM     63  C   UNL A   1      44.109  28.344  34.602  1.00  0.00     0.064 A 
ATOM     64  C   UNL A   1      45.428  28.800  34.460  1.00  0.00     0.173 A 
ATOM     65  C   UNL A   1      43.897  27.149  35.307  1.00  0.00     0.173 A 
ATOM     66  F   UNL A   1      45.683  29.927  33.779  1.00  0.00    -0.203 F 
ATOM     67  C   UNL A   1      46.495  28.072  34.979  1.00  0.00     0.198 A 
ATOM     68  C   UNL A   1      44.965  26.439  35.850  1.00  0.00     0.198 A 
ATOM     69  F   UNL A   1      42.654  26.673  35.474  1.00  0.00    -0.203 F 
ATOM     70  F   UNL A   1      47.751  28.500  34.787  1.00  0.00    -0.200 F 
ATOM     71  C   UNL A   1      46.264  26.897  35.678  1.00  0.00     0.200 A 
ATOM     72  F   UNL A   1      44.739  25.310  36.533  1.00  0.00    -0.200 F 
ATOM     73  F   UNL A   1      47.292  26.199  36.177  1.00  0.00    -0.200 F 
ENDBRANCH  40  63
ENDBRANCH  14  15
ENDBRANCH   7   9
ENDBRANCH   4   5
ENDBRANCH   3   4
ENDBRANCH   2   3
ENDBRANCH   1   2
BRANCH   1  74
ATOM     74  C   UNL A   1      33.614  28.694  27.428  1.00  0.00     0.021 C 
BRANCH  74  75
ATOM     75  C   UNL A   1      33.345  27.646  26.344  1.00  0.00     0.116 C 
BRANCH  75  76
ATOM     76  N   UNL A   1      34.000  27.924  25.081  1.00  0.00    -0.352 N 
ATOM     77  C   UNL A   1      33.420  28.264  23.884  1.00  0.00     0.255 C 
ATOM     78  H   UNL A   1      34.983  27.861  25.082  1.00  0.00     0.163 HD
ATOM     79  O   UNL A   1      34.115  28.611  22.934  1.00  0.00    -0.269 OA
BRANCH  77  80
ATOM     80  C   UNL A   1      31.964  28.133  23.704  1.00  0.00     0.082 A 
ATOM     81  C   UNL A   1      31.271  29.358  23.635  1.00  0.00     0.026 A 
ATOM     82  C   UNL A   1      31.259  26.930  23.636  1.00  0.00     0.132 A 
ATOM     83  C   UNL A   1      29.877  29.401  23.461  1.00  0.00    -0.017 A 
ATOM     84  C   UNL A   1      29.869  26.980  23.442  1.00  0.00     0.056 A 
ATOM     85  C   UNL A   1      29.170  30.614  23.394  1.00  0.00     0.009 A 
ATOM     86  C   UNL A   1      29.168  28.190  23.352  1.00  0.00    -0.015 A 
ATOM     87  C   UNL A   1      27.784  30.623  23.206  1.00  0.00     0.001 A 
ATOM     88  C   UNL A   1      27.777  28.213  23.159  1.00  0.00     0.009 A 
ATOM     89  C   UNL A   1      27.090  29.423  23.085  1.00  0.00     0.001 A 
BRANCH  82  90
ATOM     90  O   UNL A   1      31.697  25.643  23.655  1.00  0.00    -0.490 OA
BRANCH  90  91
ATOM     91  C   UNL A   1      31.653  24.801  22.505  1.00  0.00     0.257 C 
BRANCH  91  92
ATOM     92  C   UNL A   1      32.697  25.295  21.512  1.00  0.00     0.197 C 
BRANCH  92  93
ATOM     93  O   UNL A   1      32.087  25.817  20.329  1.00  0.00    -0.393 OA
ATOM     94  H   UNL A   1      31.140  25.606  20.334  1.00  0.00     0.210 HD
ENDBRANCH  92  93
ENDBRANCH  91  92
ENDBRANCH  90  91
ENDBRANCH  82  90
ENDBRANCH  77  80
ENDBRANCH  75  76
ENDBRANCH  74  75
ENDBRANCH   1  74
TORSDOF 17
ENDMDL
MODEL 2
REMARK VINA RESULT:     -11.4      0.937      7.812
REMARK SMILES O=C(NCCCCCCNC(=O)c1cc2ccccc2cc1OCCO)c1ccc(-c2c3nc(c(-c4c(F)c(F)c(F)c(F)c4F)c4ccc([nH]4)c(-c4c(F)c(F)c(F)c(F)c4F)c4nc(c(-c5c(F)c(F)c(F)c(F)c5F)c5ccc2[nH]5)C=C4)C=C3)cc1
REMARK SMILES IDX 7 1 6 2 5 3 4 4 3 5 1 6 2 7 27 9 28 10 89 11 29 12 88 13
REMARK SMILES IDX 30 14 31 15 32 16 82 17 33 18 87 19 81 20 83 21 34 22 86 23
REMARK SMILES IDX 80 24 79 25 35 27 67 28 47 29 66 30 48 31 51 32 65 33 84 34
REMARK SMILES IDX 49 35 50 36 64 38 85 39 52 40 36 41 37 42 45 43 38 44 39 45
REMARK SMILES IDX 43 46 46 47 40 48 41 49 44 50 42 51 68 52 69 53 77 54 70 55
REMARK SMILES IDX 71 56 75 57 78 58 72 59 73 60 76 61 74 62 53 63 54 64 62 65
REMARK SMILES IDX 55 66 56 67 60 68 63 69 57 70 58 71 61 72 59 73 8 74 9 75
REMARK SMILES IDX 10 76 11 77 12 79 13 80 14 81 22 82 15 83 21 84 16 85 20 86
REMARK SMILES IDX 17 87 19 88 18 89 23 90 24 91 25 92 26 93
REMARK H PARENT 3 8 83 26 51 37 10 78 26 94
REMARK Flexibility Score: inf
ROOT
ATOM      1  C   UNL A   1      31.871  29.755  27.121  1.00  0.00     0.002 C 
ENDROOT
BRANCH   1   2
ATOM      2  C   UNL A   1      31.459  30.772  26.057  1.00  0.00     0.002 C 
BRANCH   2   3
ATOM      3  C   UNL A   1      31.303  32.219  26.512  1.00  0.00     0.021 C 
BRANCH   3   4
ATOM      4  C   UNL A   1      32.541  32.850  27.134  1.00  0.00     0.116 C 
BRANCH   4   5
ATOM      5  N   UNL A   1      32.331  34.203  27.624  1.00  0.00    -0.352 N 
ATOM      6  O   UNL A   1      32.621  36.012  28.941  1.00  0.00    -0.269 OA
ATOM      7  C   UNL A   1      32.992  34.888  28.616  1.00  0.00     0.251 C 
ATOM      8  H   UNL A   1      31.609  34.703  27.179  1.00  0.00     0.163 HD
BRANCH   7   9
ATOM      9  C   UNL A   1      34.131  34.260  29.326  1.00  0.00     0.039 A 
ATOM     10  C   UNL A   1      35.451  34.534  28.962  1.00  0.00     0.014 A 
ATOM     11  C   UNL A   1      33.869  33.386  30.387  1.00  0.00     0.014 A 
ATOM     12  C   UNL A   1      36.494  33.823  29.547  1.00  0.00     0.010 A 
ATOM     13  C   UNL A   1      34.925  32.737  31.035  1.00  0.00     0.010 A 
ATOM     14  C   UNL A   1      36.245  32.924  30.598  1.00  0.00    -0.014 A 
BRANCH  14  15
ATOM     15  C   UNL A   1      37.388  32.239  31.252  1.00  0.00     0.031 A 
ATOM     16  C   UNL A   1      38.166  31.167  30.541  1.00  0.00     0.074 A 
ATOM     17  C   UNL A   1      37.744  32.620  32.494  1.00  0.00     0.049 A 
ATOM     18  N   UNL A   1      39.207  30.489  30.957  1.00  0.00    -0.248 NA
ATOM     19  C   UNL A   1      37.715  30.799  29.190  1.00  0.00     0.031 C 
ATOM     20  C   UNL A   1      37.055  33.640  33.287  1.00  0.00     0.029 A 
ATOM     21  N   UNL A   1      38.778  32.216  33.297  1.00  0.00    -0.354 N 
ATOM     22  C   UNL A   1      39.525  29.608  29.933  1.00  0.00     0.074 A 
ATOM     23  C   UNL A   1      38.550  29.816  28.883  1.00  0.00     0.031 C 
ATOM     24  C   UNL A   1      37.712  33.815  34.442  1.00  0.00     0.029 A 
ATOM     25  C   UNL A   1      38.830  32.881  34.498  1.00  0.00     0.049 A 
ATOM     26  H   UNL A   1      39.420  31.516  33.040  1.00  0.00     0.167 HD
ATOM     27  C   UNL A   1      40.542  28.714  29.873  1.00  0.00     0.037 A 
ATOM     28  C   UNL A   1      39.677  32.746  35.534  1.00  0.00     0.037 A 
ATOM     29  C   UNL A   1      41.520  28.524  30.915  1.00  0.00     0.049 A 
ATOM     30  C   UNL A   1      40.785  31.737  35.446  1.00  0.00     0.074 A 
ATOM     31  C   UNL A   1      42.609  27.668  30.932  1.00  0.00     0.029 A 
ATOM     32  N   UNL A   1      41.524  29.197  32.129  1.00  0.00    -0.354 N 
ATOM     33  N   UNL A   1      41.094  30.935  34.457  1.00  0.00    -0.248 NA
ATOM     34  C   UNL A   1      41.659  31.612  36.619  1.00  0.00     0.031 C 
ATOM     35  C   UNL A   1      43.246  27.793  32.173  1.00  0.00     0.029 A 
ATOM     36  C   UNL A   1      42.583  28.761  32.910  1.00  0.00     0.049 A 
ATOM     37  H   UNL A   1      40.871  29.885  32.395  1.00  0.00     0.167 HD
ATOM     38  C   UNL A   1      42.206  30.221  34.880  1.00  0.00     0.074 A 
ATOM     39  C   UNL A   1      42.530  30.703  36.208  1.00  0.00     0.031 C 
ATOM     40  C   UNL A   1      42.892  29.250  34.229  1.00  0.00     0.037 A 
BRANCH  27  41
ATOM     41  C   UNL A   1      40.647  27.856  28.644  1.00  0.00     0.064 A 
ATOM     42  C   UNL A   1      39.971  26.632  28.539  1.00  0.00     0.173 A 
ATOM     43  C   UNL A   1      41.393  28.291  27.538  1.00  0.00     0.173 A 
ATOM     44  F   UNL A   1      39.252  26.166  29.570  1.00  0.00    -0.203 F 
ATOM     45  C   UNL A   1      40.055  25.865  27.379  1.00  0.00     0.198 A 
ATOM     46  C   UNL A   1      41.453  27.535  26.369  1.00  0.00     0.198 A 
ATOM     47  F   UNL A   1      42.051  29.459  27.582  1.00  0.00    -0.203 F 
ATOM     48  F   UNL A   1      39.432  24.679  27.314  1.00  0.00    -0.200 F 
ATOM     49  C   UNL A   1      40.789  26.319  26.293  1.00  0.00     0.200 A 
ATOM     50  F   UNL A   1      42.150  27.983  25.317  1.00  0.00    -0.200 F 
ATOM     51  F   UNL A   1      40.861  25.584  25.175  1.00  0.00    -0.200 F 
ENDBRANCH  27  41
BRANCH  28  52
ATOM     52  C   UNL A   1      39.504  33.596  36.740  1.00  0.00     0.064 A 
ATOM     53  C   UNL A   1      40.109  34.856  36.828  1.00  0.00     0.173 A 
ATOM     54  C   UNL A   1      38.715  33.173  37.820  1.00  0.00     0.173 A 
ATOM     55  F   UNL A   1      40.887  35.296  35.828  1.00  0.00    -0.203 F 
ATOM     56  C   UNL A   1      39.943  35.656  37.956  1.00  0.00     0.198 A 
ATOM     57  C   UNL A   1      38.525  33.985  38.935  1.00  0.00     0.198 A 
ATOM     58  F   UNL A   1      38.110  31.977  37.782  1.00  0.00    -0.203 F 
ATOM     59  F   UNL A   1      40.563  36.841  38.032  1.00  0.00    -0.200 F 
ATOM     60  C   UNL A   1      39.144  35.223  39.004  1.00  0.00     0.200 A 
ATOM     61  F   UNL A   1      37.738  33.570  39.936  1.00  0.00    -0.200 F 
ATOM     62  F   UNL A   1      38.976  35.998  40.085  1.00  0.00    -0.200 F 
ENDBRANCH  28  52
BRANCH  40  63
ATOM     63  C   UNL A   1      44.079  28.666  34.938  1.00  0.00     0.064 A 
ATOM     64  C   UNL A   1      43.961  27.534  35.757  1.00  0.00     0.173 A 
ATOM     65  C   UNL A   1      45.351  29.236  34.780  1.00  0.00     0.173 A 
ATOM     66  F   UNL A   1      42.763  26.964  35.953  1.00  0.00    -0.203 F 
ATOM     67  C   UNL A   1      45.069  27.010  36.416  1.00  0.00     0.198 A 
ATOM     68  C   UNL A   1      46.463  28.692  35.418  1.00  0.00     0.198 A 
ATOM     69  F   UNL A   1      45.517  30.317  34.004  1.00  0.00    -0.203 F 
ATOM     70  F   UNL A   1      44.925  25.959  37.236  1.00  0.00    -0.200 F 
ATOM     71  C   UNL A   1      46.320  27.585  36.242  1.00  0.00     0.200 A 
ATOM     72  F   UNL A   1      47.671  29.243  35.241  1.00  0.00    -0.200 F 
ATOM     73  F   UNL A   1      47.385  27.079  36.877  1.00  0.00    -0.200 F 
ENDBRANCH  40  63
ENDBRANCH  14  15
ENDBRANCH   7   9
ENDBRANCH   4   5
ENDBRANCH   3   4
ENDBRANCH   2   3
ENDBRANCH   1   2
BRANCH   1  74
ATOM     74  C   UNL A   1      32.470  28.417  26.663  1.00  0.00     0.021 C 
BRANCH  74  75
ATOM     75  C   UNL A   1      33.901  28.409  26.115  1.00  0.00     0.116 C 
BRANCH  75  76
ATOM     76  N   UNL A   1      34.027  28.977  24.788  1.00  0.00    -0.352 N 
ATOM     77  C   UNL A   1      33.437  28.548  23.625  1.00  0.00     0.255 C 
ATOM     78  H   UNL A   1      34.607  29.770  24.710  1.00  0.00     0.163 HD
ATOM     79  O   UNL A   1      33.523  29.218  22.601  1.00  0.00    -0.269 OA
BRANCH  77  80
ATOM     80  C   UNL A   1      32.769  27.236  23.574  1.00  0.00     0.082 A 
ATOM     81  C   UNL A   1      33.641  26.143  23.402  1.00  0.00     0.026 A 
ATOM     82  C   UNL A   1      31.391  27.023  23.647  1.00  0.00     0.132 A 
ATOM     83  C   UNL A   1      33.158  24.824  23.337  1.00  0.00    -0.017 A 
ATOM     84  C   UNL A   1      30.917  25.701  23.602  1.00  0.00     0.056 A 
ATOM     85  C   UNL A   1      34.013  23.723  23.163  1.00  0.00     0.009 A 
ATOM     86  C   UNL A   1      31.773  24.602  23.451  1.00  0.00    -0.015 A 
ATOM     87  C   UNL A   1      33.502  22.422  23.117  1.00  0.00     0.001 A 
ATOM     88  C   UNL A   1      31.272  23.290  23.408  1.00  0.00     0.009 A 
ATOM     89  C   UNL A   1      32.133  22.207  23.244  1.00  0.00     0.001 A 
BRANCH  82  90
ATOM     90  O   UNL A   1      30.367  27.897  23.833  1.00  0.00    -0.490 OA
BRANCH  90  91
ATOM     91  C   UNL A   1      29.553  28.366  22.760  1.00  0.00     0.257 C 
BRANCH  91  92
ATOM     92  C   UNL A   1      29.827  29.852  22.570  1.00  0.00     0.197 C 
BRANCH  92  93
ATOM     93  O   UNL A   1      30.789  30.078  21.537  1.00  0.00    -0.393 OA
ATOM     94  H   UNL A   1      31.669  29.823  21.854  1.00  0.00     0.210 HD
ENDBRANCH  92  93
ENDBRANCH  91  92
ENDBRANCH  90  91
ENDBRANCH  82  90
ENDBRANCH  77  80
ENDBRANCH  75  76
ENDBRANCH  74  75
ENDBRANCH   1  74
TORSDOF 17
ENDMDL
MODEL 3
REMARK VINA RESULT:     -11.3      5.890     10.180
REMARK SMILES O=C(NCCCCCCNC(=O)c1cc2ccccc2cc1OCCO)c1ccc(-c2c3nc(c(-c4c(F)c(F)c(F)c(F)c4F)c4ccc([nH]4)c(-c4c(F)c(F)c(F)c(F)c4F)c4nc(c(-c5c(F)c(F)c(F)c(F)c5F)c5ccc2[nH]5)C=C4)C=C3)cc1
REMARK SMILES IDX 7 1 6 2 5 3 4 4 3 5 1 6 2 7 27 9 28 10 89 11 29 12 88 13
REMARK SMILES IDX 30 14 31 15 32 16 82 17 33 18 87 19 81 20 83 21 34 22 86 23
REMARK SMILES IDX 80 24 79 25 35 27 67 28 47 29 66 30 48 31 51 32 65 33 84 34
REMARK SMILES IDX 49 35 50 36 64 38 85 39 52 40 36 41 37 42 45 43 38 44 39 45
REMARK SMILES IDX 43 46 46 47 40 48 41 49 44 50 42 51 68 52 69 53 77 54 70 55
REMARK SMILES IDX 71 56 75 57 78 58 72 59 73 60 76 61 74 62 53 63 54 64 62 65
REMARK SMILES IDX 55 66 56 67 60 68 63 69 57 70 58 71 61 72 59 73 8 74 9 75
REMARK SMILES IDX 10 76 11 77 12 79 13 80 14 81 22 82 15 83 21 84 16 85 20 86
REMARK SMILES IDX 17 87 19 88 18 89 23 90 24 91 25 92 26 93
REMARK H PARENT 3 8 83 26 51 37 10 78 26 94
REMARK Flexibility Score: inf
ROOT
ATOM      1  C   UNL A   1      37.391  21.877  24.429  1.00  0.00     0.002 C 
ENDROOT
BRANCH   1   2
ATOM      2  C   UNL A   1      37.093  20.457  24.909  1.00  0.00     0.002 C 
BRANCH   2   3
ATOM      3  C   UNL A   1      38.265  19.482  24.942  1.00  0.00     0.021 C 
BRANCH   3   4
ATOM      4  C   UNL A   1      39.358  19.802  25.954  1.00  0.00     0.116 C 
BRANCH   4   5
ATOM      5  N   UNL A   1      40.483  18.880  25.918  1.00  0.00    -0.352 N 
ATOM      6  O   UNL A   1      42.641  18.225  25.931  1.00  0.00    -0.269 OA
ATOM      7  C   UNL A   1      41.826  19.133  26.064  1.00  0.00     0.251 C 
ATOM      8  H   UNL A   1      40.247  17.937  25.768  1.00  0.00     0.163 HD
BRANCH   7   9
ATOM      9  C   UNL A   1      42.302  20.508  26.346  1.00  0.00     0.039 A 
ATOM     10  C   UNL A   1      42.456  20.967  27.655  1.00  0.00     0.014 A 
ATOM     11  C   UNL A   1      42.611  21.350  25.272  1.00  0.00     0.014 A 
ATOM     12  C   UNL A   1      42.764  22.303  27.889  1.00  0.00     0.010 A 
ATOM     13  C   UNL A   1      43.008  22.670  25.510  1.00  0.00     0.010 A 
ATOM     14  C   UNL A   1      43.054  23.168  26.820  1.00  0.00    -0.014 A 
BRANCH  14  15
ATOM     15  C   UNL A   1      43.454  24.568  27.109  1.00  0.00     0.031 A 
ATOM     16  C   UNL A   1      42.483  25.552  27.699  1.00  0.00     0.074 A 
ATOM     17  C   UNL A   1      44.726  24.940  26.863  1.00  0.00     0.049 A 
ATOM     18  N   UNL A   1      42.678  26.803  28.038  1.00  0.00    -0.248 NA
ATOM     19  C   UNL A   1      41.111  25.076  27.934  1.00  0.00     0.031 C 
ATOM     20  C   UNL A   1      45.753  24.076  26.279  1.00  0.00     0.029 A 
ATOM     21  N   UNL A   1      45.377  26.125  27.089  1.00  0.00    -0.354 N 
ATOM     22  C   UNL A   1      41.457  27.267  28.508  1.00  0.00     0.074 A 
ATOM     23  C   UNL A   1      40.517  26.173  28.387  1.00  0.00     0.031 C 
ATOM     24  C   UNL A   1      46.915  24.743  26.237  1.00  0.00     0.029 A 
ATOM     25  C   UNL A   1      46.703  26.097  26.734  1.00  0.00     0.049 A 
ATOM     26  H   UNL A   1      44.936  26.919  27.469  1.00  0.00     0.167 HD
ATOM     27  C   UNL A   1      41.153  28.493  29.002  1.00  0.00     0.037 A 
ATOM     28  C   UNL A   1      47.642  27.059  26.789  1.00  0.00     0.037 A 
ATOM     29  C   UNL A   1      42.098  29.573  29.135  1.00  0.00     0.049 A 
ATOM     30  C   UNL A   1      47.272  28.410  27.327  1.00  0.00     0.074 A 
ATOM     31  C   UNL A   1      41.894  30.839  29.658  1.00  0.00     0.029 A 
ATOM     32  N   UNL A   1      43.427  29.516  28.739  1.00  0.00    -0.354 N 
ATOM     33  N   UNL A   1      46.122  28.825  27.799  1.00  0.00    -0.248 NA
ATOM     34  C   UNL A   1      48.329  29.429  27.334  1.00  0.00     0.031 C 
ATOM     35  C   UNL A   1      43.088  31.562  29.536  1.00  0.00     0.029 A 
ATOM     36  C   UNL A   1      44.048  30.730  28.984  1.00  0.00     0.049 A 
ATOM     37  H   UNL A   1      43.864  28.727  28.341  1.00  0.00     0.167 HD
ATOM     38  C   UNL A   1      46.320  30.145  28.176  1.00  0.00     0.074 A 
ATOM     39  C   UNL A   1      47.708  30.455  27.897  1.00  0.00     0.031 C 
ATOM     40  C   UNL A   1      45.430  31.023  28.700  1.00  0.00     0.037 A 
BRANCH  27  41
ATOM     41  C   UNL A   1      39.733  28.743  29.425  1.00  0.00     0.064 A 
ATOM     42  C   UNL A   1      39.301  28.502  30.736  1.00  0.00     0.173 A 
ATOM     43  C   UNL A   1      38.808  29.281  28.517  1.00  0.00     0.173 A 
ATOM     44  F   UNL A   1      40.142  27.981  31.641  1.00  0.00    -0.203 F 
ATOM     45  C   UNL A   1      37.988  28.771  31.118  1.00  0.00     0.198 A 
ATOM     46  C   UNL A   1      37.503  29.574  28.909  1.00  0.00     0.198 A 
ATOM     47  F   UNL A   1      39.172  29.540  27.252  1.00  0.00    -0.203 F 
ATOM     48  F   UNL A   1      37.585  28.497  32.368  1.00  0.00    -0.200 F 
ATOM     49  C   UNL A   1      37.093  29.312  30.208  1.00  0.00     0.200 A 
ATOM     50  F   UNL A   1      36.645  30.110  28.032  1.00  0.00    -0.200 F 
ATOM     51  F   UNL A   1      35.833  29.578  30.580  1.00  0.00    -0.200 F 
ENDBRANCH  27  41
BRANCH  28  52
ATOM     52  C   UNL A   1      49.022  26.767  26.323  1.00  0.00     0.064 A 
ATOM     53  C   UNL A   1      49.982  26.243  27.197  1.00  0.00     0.173 A 
ATOM     54  C   UNL A   1      49.401  26.987  24.990  1.00  0.00     0.173 A 
ATOM     55  F   UNL A   1      49.673  26.032  28.485  1.00  0.00    -0.203 F 
ATOM     56  C   UNL A   1      51.276  25.963  26.760  1.00  0.00     0.198 A 
ATOM     57  C   UNL A   1      50.683  26.679  24.546  1.00  0.00     0.198 A 
ATOM     58  F   UNL A   1      48.515  27.481  24.113  1.00  0.00    -0.203 F 
ATOM     59  F   UNL A   1      52.187  25.499  27.624  1.00  0.00    -0.200 F 
ATOM     60  C   UNL A   1      51.622  26.174  25.433  1.00  0.00     0.200 A 
ATOM     61  F   UNL A   1      51.008  26.868  23.260  1.00  0.00    -0.200 F 
ATOM     62  F   UNL A   1      52.863  25.894  25.010  1.00  0.00    -0.200 F 
ENDBRANCH  28  52
BRANCH  40  63
ATOM     63  C   UNL A   1      45.942  32.394  29.030  1.00  0.00     0.064 A 
ATOM     64  C   UNL A   1      46.520  32.682  30.275  1.00  0.00     0.173 A 
ATOM     65  C   UNL A   1      45.871  33.426  28.081  1.00  0.00     0.173 A 
ATOM     66  F   UNL A   1      46.595  31.734  31.220  1.00  0.00    -0.203 F 
ATOM     67  C   UNL A   1      46.981  33.963  30.569  1.00  0.00     0.198 A 
ATOM     68  C   UNL A   1      46.359  34.697  28.369  1.00  0.00     0.198 A 
ATOM     69  F   UNL A   1      45.331  33.199  26.875  1.00  0.00    -0.203 F 
ATOM     70  F   UNL A   1      47.482  34.230  31.784  1.00  0.00    -0.200 F 
ATOM     71  C   UNL A   1      46.906  34.967  29.616  1.00  0.00     0.200 A 
ATOM     72  F   UNL A   1      46.296  35.663  27.443  1.00  0.00    -0.200 F 
ATOM     73  F   UNL A   1      47.351  36.198  29.900  1.00  0.00    -0.200 F 
ENDBRANCH  40  63
ENDBRANCH  14  15
ENDBRANCH   7   9
ENDBRANCH   4   5
ENDBRANCH   3   4
ENDBRANCH   2   3
ENDBRANCH   1   2
BRANCH   1  74
ATOM     74  C   UNL A   1      37.193  23.040  25.415  1.00  0.00     0.021 C 
BRANCH  74  75
ATOM     75  C   UNL A   1      35.784  23.617  25.587  1.00  0.00     0.116 C 
BRANCH  75  76
ATOM     76  N   UNL A   1      35.115  23.187  26.798  1.00  0.00    -0.352 N 
ATOM     77  C   UNL A   1      34.211  22.164  26.947  1.00  0.00     0.255 C 
ATOM     78  H   UNL A   1      35.337  23.689  27.616  1.00  0.00     0.163 HD
ATOM     79  O   UNL A   1      33.838  21.824  28.065  1.00  0.00    -0.269 OA
BRANCH  77  80
ATOM     80  C   UNL A   1      33.616  21.524  25.761  1.00  0.00     0.082 A 
ATOM     81  C   UNL A   1      33.979  20.174  25.582  1.00  0.00     0.026 A 
ATOM     82  C   UNL A   1      32.785  22.151  24.831  1.00  0.00     0.132 A 
ATOM     83  C   UNL A   1      33.492  19.423  24.498  1.00  0.00    -0.017 A 
ATOM     84  C   UNL A   1      32.285  21.389  23.762  1.00  0.00     0.056 A 
ATOM     85  C   UNL A   1      33.846  18.078  24.303  1.00  0.00     0.009 A 
ATOM     86  C   UNL A   1      32.621  20.040  23.581  1.00  0.00    -0.015 A 
ATOM     87  C   UNL A   1      33.332  17.354  23.222  1.00  0.00     0.001 A 
ATOM     88  C   UNL A   1      32.108  19.301  22.502  1.00  0.00     0.009 A 
ATOM     89  C   UNL A   1      32.461  17.965  22.326  1.00  0.00     0.001 A 
BRANCH  82  90
ATOM     90  O   UNL A   1      32.283  23.414  24.799  1.00  0.00    -0.490 OA
BRANCH  90  91
ATOM     91  C   UNL A   1      30.894  23.692  24.961  1.00  0.00     0.257 C 
BRANCH  91  92
ATOM     92  C   UNL A   1      30.523  23.438  26.416  1.00  0.00     0.197 C 
BRANCH  92  93
ATOM     93  O   UNL A   1      31.344  24.200  27.305  1.00  0.00    -0.393 OA
ATOM     94  H   UNL A   1      31.666  23.627  28.018  1.00  0.00     0.210 HD
ENDBRANCH  92  93
ENDBRANCH  91  92
ENDBRANCH  90  91
ENDBRANCH  82  90
ENDBRANCH  77  80
ENDBRANCH  75  76
ENDBRANCH  74  75
ENDBRANCH   1  74
TORSDOF 17
ENDMDL
