MODEL 1
REMARK VINA RESULT:     -12.0      0.000      0.000
REMARK SMILES CC(C)(C)OC(=O)N1CC[N@H+](Cc2ccc(Cl)nc2)[C@H](C(=O)NCCCCCCNC(=O)c2ccc(-c3c4nc(c(-c5c(F)c(F)c(F)c(F)c5F)c5ccc([nH]5)c(-c5c(F)c(F)c(F)c(F)c5F)c5nc(c(-c6c(F)c(F)c(F)c(F)c6F)c6ccc3[nH]6)C=C5)C=C4)cc2)C1
REMARK SMILES IDX 26 1 25 2 24 3 23 4 21 5 22 6 20 8 8 9 9 10 96 11 10 12
REMARK SMILES IDX 11 13 6 15 7 16 5 17 2 18 1 19 3 20 4 21 12 22 13 23 14 24
REMARK SMILES IDX 19 25 15 26 18 27 16 28 17 29 27 30 28 31 29 32 30 33 31 34
REMARK SMILES IDX 32 36 33 37 34 38 95 39 35 40 94 41 36 42 37 43 38 44 88 45
REMARK SMILES IDX 39 46 93 47 87 48 89 49 40 50 92 51 86 52 85 53 41 55 73 56
REMARK SMILES IDX 53 57 72 58 54 59 57 60 71 61 90 62 55 63 56 64 70 66 91 67
REMARK SMILES IDX 58 68 42 69 43 70 51 71 44 72 45 73 49 74 52 75 46 76 47 77
REMARK SMILES IDX 50 78 48 79 74 80 75 81 83 82 76 83 77 84 81 85 84 86 78 87
REMARK SMILES IDX 79 88 82 89 80 90 59 91 60 92 68 93 61 94 62 95 66 96 69 97
REMARK SMILES IDX 63 98 64 99 67 100 65 101
REMARK H PARENT 23 7 11 14 30 35 89 54 57 65
REMARK Flexibility Score: inf
ROOT
ATOM      1  C   UNL A   1      32.057  30.511  26.694  1.00  0.00     0.002 C 
ENDROOT
BRANCH   1   2
ATOM      2  C   UNL A   1      32.274  29.253  25.841  1.00  0.00     0.021 C 
BRANCH   2   3
ATOM      3  C   UNL A   1      33.716  29.076  25.357  1.00  0.00     0.116 C 
BRANCH   3   4
ATOM      4  N   UNL A   1      33.758  29.049  23.907  1.00  0.00    -0.351 N 
ATOM      5  C   UNL A   1      33.790  27.972  23.067  1.00  0.00     0.280 C 
ATOM      6  O   UNL A   1      34.078  28.179  21.888  1.00  0.00    -0.268 OA
ATOM      7  H   UNL A   1      33.767  29.930  23.468  1.00  0.00     0.163 HD
BRANCH   5   8
ATOM      8  C   UNL A   1      33.394  26.585  23.592  1.00  0.00     0.294 C 
ATOM      9  N   UNL A   1      33.734  24.135  23.394  1.00  0.00    -0.296 N 
ATOM     10  C   UNL A   1      32.320  23.903  23.646  1.00  0.00     0.184 C 
ATOM     11  C   UNL A   1      34.123  25.448  22.859  1.00  0.00     0.198 C 
ATOM     12  C   UNL A   1      31.582  25.118  24.241  1.00  0.00     0.285 C 
ATOM     13  N   UNL A   1      31.912  26.432  23.672  1.00  0.00    -0.318 N 
ATOM     14  H   UNL A   1      31.606  27.165  24.312  1.00  0.00     0.349 HD
BRANCH   9  15
ATOM     15  C   UNL A   1      34.557  23.030  23.336  1.00  0.00     0.410 C 
ATOM     16  O   UNL A   1      35.530  22.968  22.598  1.00  0.00    -0.224 OA
BRANCH  15  17
ATOM     17  O   UNL A   1      34.089  22.010  24.097  1.00  0.00    -0.444 OA
BRANCH  17  18
ATOM     18  C   UNL A   1      34.740  21.674  25.351  1.00  0.00     0.106 C 
ATOM     19  C   UNL A   1      35.656  20.490  25.011  1.00  0.00     0.056 C 
ATOM     20  C   UNL A   1      33.683  21.233  26.364  1.00  0.00     0.056 C 
ATOM     21  C   UNL A   1      35.625  22.802  25.909  1.00  0.00     0.056 C 
ENDBRANCH  17  18
ENDBRANCH  15  17
ENDBRANCH   9  15
BRANCH  13  22
ATOM     22  C   UNL A   1      31.098  26.835  22.508  1.00  0.00     0.301 C 
BRANCH  22  23
ATOM     23  C   UNL A   1      30.158  28.006  22.643  1.00  0.00     0.025 A 
ATOM     24  C   UNL A   1      30.541  29.308  22.301  1.00  0.00     0.014 A 
ATOM     25  C   UNL A   1      28.857  27.843  23.114  1.00  0.00     0.122 A 
ATOM     26  C   UNL A   1      29.690  30.379  22.566  1.00  0.00     0.041 A 
ATOM     27  N   UNL A   1      27.997  28.859  23.360  1.00  0.00    -0.244 NA
ATOM     28  C   UNL A   1      28.450  30.100  23.109  1.00  0.00     0.129 A 
ATOM     29  Cl  UNL A   1      27.368  31.359  23.531  1.00  0.00    -0.062 Cl
ENDBRANCH  22  23
ENDBRANCH  13  22
ENDBRANCH   5   8
ENDBRANCH   3   4
ENDBRANCH   2   3
ENDBRANCH   1   2
BRANCH   1  30
ATOM     30  C   UNL A   1      31.041  31.510  26.128  1.00  0.00     0.002 C 
BRANCH  30  31
ATOM     31  C   UNL A   1      31.417  32.985  26.300  1.00  0.00     0.021 C 
BRANCH  31  32
ATOM     32  C   UNL A   1      32.486  33.260  27.355  1.00  0.00     0.116 C 
BRANCH  32  33
ATOM     33  N   UNL A   1      32.388  34.602  27.900  1.00  0.00    -0.352 N 
ATOM     34  C   UNL A   1      33.106  35.206  28.900  1.00  0.00     0.251 C 
ATOM     35  H   UNL A   1      31.696  35.168  27.487  1.00  0.00     0.163 HD
ATOM     36  O   UNL A   1      32.744  36.297  29.331  1.00  0.00    -0.269 OA
BRANCH  34  37
ATOM     37  C   UNL A   1      34.302  34.553  29.481  1.00  0.00     0.039 A 
ATOM     38  C   UNL A   1      34.159  33.871  30.693  1.00  0.00     0.014 A 
ATOM     39  C   UNL A   1      35.561  34.648  28.881  1.00  0.00     0.014 A 
ATOM     40  C   UNL A   1      35.262  33.245  31.276  1.00  0.00     0.010 A 
ATOM     41  C   UNL A   1      36.650  33.973  29.433  1.00  0.00     0.010 A 
ATOM     42  C   UNL A   1      36.513  33.268  30.638  1.00  0.00    -0.014 A 
BRANCH  42  43
ATOM     43  C   UNL A   1      37.666  32.537  31.223  1.00  0.00     0.031 A 
ATOM     44  C   UNL A   1      38.211  32.910  32.575  1.00  0.00     0.074 A 
ATOM     45  C   UNL A   1      38.249  31.551  30.511  1.00  0.00     0.049 A 
ATOM     46  N   UNL A   1      39.199  32.368  33.244  1.00  0.00    -0.248 NA
ATOM     47  C   UNL A   1      37.583  34.051  33.256  1.00  0.00     0.031 C 
ATOM     48  C   UNL A   1      37.856  31.140  29.162  1.00  0.00     0.029 A 
ATOM     49  N   UNL A   1      39.294  30.717  30.821  1.00  0.00    -0.354 N 
ATOM     50  C   UNL A   1      39.318  33.109  34.412  1.00  0.00     0.074 A 
ATOM     51  C   UNL A   1      38.329  34.163  34.346  1.00  0.00     0.031 C 
ATOM     52  C   UNL A   1      38.634  30.119  28.770  1.00  0.00     0.029 A 
ATOM     53  C   UNL A   1      39.593  29.817  29.829  1.00  0.00     0.049 A 
ATOM     54  H   UNL A   1      39.783  30.761  31.675  1.00  0.00     0.167 HD
ATOM     55  C   UNL A   1      40.163  32.914  35.453  1.00  0.00     0.037 A 
ATOM     56  C   UNL A   1      40.532  28.853  29.779  1.00  0.00     0.037 A 
ATOM     57  C   UNL A   1      41.116  31.838  35.537  1.00  0.00     0.049 A 
ATOM     58  C   UNL A   1      41.428  28.637  30.968  1.00  0.00     0.074 A 
ATOM     59  C   UNL A   1      41.943  31.501  36.596  1.00  0.00     0.029 A 
ATOM     60  N   UNL A   1      41.371  30.927  34.525  1.00  0.00    -0.354 N 
ATOM     61  N   UNL A   1      41.457  29.280  32.110  1.00  0.00    -0.248 NA
ATOM     62  C   UNL A   1      42.413  27.551  30.866  1.00  0.00     0.031 C 
ATOM     63  C   UNL A   1      42.730  30.412  36.207  1.00  0.00     0.029 A 
ATOM     64  C   UNL A   1      42.363  30.044  34.923  1.00  0.00     0.049 A 
ATOM     65  H   UNL A   1      40.916  30.910  33.653  1.00  0.00     0.167 HD
ATOM     66  C   UNL A   1      42.442  28.663  32.868  1.00  0.00     0.074 A 
ATOM     67  C   UNL A   1      42.970  27.579  32.067  1.00  0.00     0.031 C 
ATOM     68  C   UNL A   1      42.876  28.970  34.114  1.00  0.00     0.037 A 
BRANCH  55  69
ATOM     69  C   UNL A   1      40.097  33.875  36.603  1.00  0.00     0.064 A 
ATOM     70  C   UNL A   1      40.857  35.054  36.620  1.00  0.00     0.173 A 
ATOM     71  C   UNL A   1      39.202  33.655  37.660  1.00  0.00     0.173 A 
ATOM     72  F   UNL A   1      41.733  35.306  35.635  1.00  0.00    -0.203 F 
ATOM     73  C   UNL A   1      40.730  35.973  37.658  1.00  0.00     0.198 A 
ATOM     74  C   UNL A   1      39.060  34.588  38.684  1.00  0.00     0.198 A 
ATOM     75  F   UNL A   1      38.448  32.546  37.688  1.00  0.00    -0.203 F 
ATOM     76  F   UNL A   1      41.484  37.082  37.666  1.00  0.00    -0.200 F 
ATOM     77  C   UNL A   1      39.825  35.745  38.684  1.00  0.00     0.200 A 
ATOM     78  F   UNL A   1      38.176  34.371  39.669  1.00  0.00    -0.200 F 
ATOM     79  F   UNL A   1      39.691  36.639  39.672  1.00  0.00    -0.200 F 
ENDBRANCH  55  69
BRANCH  56  80
ATOM     80  C   UNL A   1      40.663  27.998  28.571  1.00  0.00     0.064 A 
ATOM     81  C   UNL A   1      41.439  28.408  27.478  1.00  0.00     0.173 A 
ATOM     82  C   UNL A   1      39.990  26.772  28.471  1.00  0.00     0.173 A 
ATOM     83  F   UNL A   1      42.085  29.583  27.519  1.00  0.00    -0.203 F 
ATOM     84  C   UNL A   1      41.513  27.640  26.319  1.00  0.00     0.198 A 
ATOM     85  C   UNL A   1      40.088  25.990  27.322  1.00  0.00     0.198 A 
ATOM     86  F   UNL A   1      39.239  26.332  29.491  1.00  0.00    -0.203 F 
ATOM     87  F   UNL A   1      42.215  28.083  25.267  1.00  0.00    -0.200 F 
ATOM     88  C   UNL A   1      40.839  26.430  26.242  1.00  0.00     0.200 A 
ATOM     89  F   UNL A   1      39.446  24.816  27.258  1.00  0.00    -0.200 F 
ATOM     90  F   UNL A   1      40.905  25.693  25.125  1.00  0.00    -0.200 F 
ENDBRANCH  56  80
BRANCH  68  91
ATOM     91  C   UNL A   1      43.961  28.107  34.691  1.00  0.00     0.064 A 
ATOM     92  C   UNL A   1      43.668  26.895  35.333  1.00  0.00     0.173 A 
ATOM     93  C   UNL A   1      45.306  28.490  34.589  1.00  0.00     0.173 A 
ATOM     94  F   UNL A   1      42.395  26.494  35.470  1.00  0.00    -0.203 F 
ATOM     95  C   UNL A   1      44.681  26.115  35.882  1.00  0.00     0.198 A 
ATOM     96  C   UNL A   1      46.319  27.692  35.113  1.00  0.00     0.198 A 
ATOM     97  F   UNL A   1      45.639  29.637  33.977  1.00  0.00    -0.203 F 
ATOM     98  F   UNL A   1      44.374  24.989  36.541  1.00  0.00    -0.200 F 
ATOM     99  C   UNL A   1      46.006  26.510  35.767  1.00  0.00     0.200 A 
ATOM    100  F   UNL A   1      47.599  28.071  34.991  1.00  0.00    -0.200 F 
ATOM    101  F   UNL A   1      46.980  25.759  36.298  1.00  0.00    -0.200 F 
ENDBRANCH  68  91
ENDBRANCH  42  43
ENDBRANCH  34  37
ENDBRANCH  32  33
ENDBRANCH  31  32
ENDBRANCH  30  31
ENDBRANCH   1  30
TORSDOF 18
ENDMDL
MODEL 2
REMARK VINA RESULT:     -11.8      6.006     11.539
REMARK SMILES CC(C)(C)OC(=O)N1CC[N@H+](Cc2ccc(Cl)nc2)[C@H](C(=O)NCCCCCCNC(=O)c2ccc(-c3c4nc(c(-c5c(F)c(F)c(F)c(F)c5F)c5ccc([nH]5)c(-c5c(F)c(F)c(F)c(F)c5F)c5nc(c(-c6c(F)c(F)c(F)c(F)c6F)c6ccc3[nH]6)C=C5)C=C4)cc2)C1
REMARK SMILES IDX 26 1 25 2 24 3 23 4 21 5 22 6 20 8 8 9 9 10 96 11 10 12
REMARK SMILES IDX 11 13 6 15 7 16 5 17 2 18 1 19 3 20 4 21 12 22 13 23 14 24
REMARK SMILES IDX 19 25 15 26 18 27 16 28 17 29 27 30 28 31 29 32 30 33 31 34
REMARK SMILES IDX 32 36 33 37 34 38 95 39 35 40 94 41 36 42 37 43 38 44 88 45
REMARK SMILES IDX 39 46 93 47 87 48 89 49 40 50 92 51 86 52 85 53 41 55 73 56
REMARK SMILES IDX 53 57 72 58 54 59 57 60 71 61 90 62 55 63 56 64 70 66 91 67
REMARK SMILES IDX 58 68 42 69 43 70 51 71 44 72 45 73 49 74 52 75 46 76 47 77
REMARK SMILES IDX 50 78 48 79 74 80 75 81 83 82 76 83 77 84 81 85 84 86 78 87
REMARK SMILES IDX 79 88 82 89 80 90 59 91 60 92 68 93 61 94 62 95 66 96 69 97
REMARK SMILES IDX 63 98 64 99 67 100 65 101
REMARK H PARENT 23 7 11 14 30 35 89 54 57 65
REMARK Flexibility Score: inf
ROOT
ATOM      1  C   UNL A   1      39.466  21.470  26.112  1.00  0.00     0.002 C 
ENDROOT
BRANCH   1   2
ATOM      2  C   UNL A   1      39.163  22.925  26.496  1.00  0.00     0.021 C 
BRANCH   2   3
ATOM      3  C   UNL A   1      37.890  23.482  25.855  1.00  0.00     0.116 C 
BRANCH   3   4
ATOM      4  N   UNL A   1      36.718  22.957  26.530  1.00  0.00    -0.351 N 
ATOM      5  C   UNL A   1      35.406  23.310  26.378  1.00  0.00     0.280 C 
ATOM      6  O   UNL A   1      34.609  22.916  27.229  1.00  0.00    -0.268 OA
ATOM      7  H   UNL A   1      36.891  22.248  27.190  1.00  0.00     0.163 HD
BRANCH   5   8
ATOM      8  C   UNL A   1      34.970  24.100  25.136  1.00  0.00     0.294 C 
ATOM      9  N   UNL A   1      33.811  26.122  24.285  1.00  0.00    -0.296 N 
ATOM     10  C   UNL A   1      33.259  25.359  23.176  1.00  0.00     0.184 C 
ATOM     11  C   UNL A   1      34.202  25.382  25.494  1.00  0.00     0.198 C 
ATOM     12  C   UNL A   1      33.956  24.004  22.941  1.00  0.00     0.285 C 
ATOM     13  N   UNL A   1      34.295  23.221  24.138  1.00  0.00    -0.318 N 
ATOM     14  H   UNL A   1      34.990  22.515  23.895  1.00  0.00     0.349 HD
BRANCH   9  15
ATOM     15  C   UNL A   1      33.611  27.487  24.276  1.00  0.00     0.410 C 
ATOM     16  O   UNL A   1      33.781  28.173  23.277  1.00  0.00    -0.224 OA
BRANCH  15  17
ATOM     17  O   UNL A   1      33.325  27.965  25.511  1.00  0.00    -0.444 OA
BRANCH  17  18
ATOM     18  C   UNL A   1      31.957  28.298  25.868  1.00  0.00     0.106 C 
ATOM     19  C   UNL A   1      31.813  29.786  25.516  1.00  0.00     0.056 C 
ATOM     20  C   UNL A   1      31.767  28.106  27.373  1.00  0.00     0.056 C 
ATOM     21  C   UNL A   1      30.901  27.525  25.059  1.00  0.00     0.056 C 
ENDBRANCH  17  18
ENDBRANCH  15  17
ENDBRANCH   9  15
BRANCH  13  22
ATOM     22  C   UNL A   1      33.239  22.303  24.606  1.00  0.00     0.301 C 
BRANCH  22  23
ATOM     23  C   UNL A   1      33.354  20.832  24.290  1.00  0.00     0.025 A 
ATOM     24  C   UNL A   1      32.411  20.168  23.498  1.00  0.00     0.014 A 
ATOM     25  C   UNL A   1      34.413  20.067  24.773  1.00  0.00     0.122 A 
ATOM     26  C   UNL A   1      32.482  18.785  23.341  1.00  0.00     0.041 A 
ATOM     27  N   UNL A   1      34.525  18.727  24.619  1.00  0.00    -0.244 NA
ATOM     28  C   UNL A   1      33.538  18.120  23.935  1.00  0.00     0.129 A 
ATOM     29  Cl  UNL A   1      33.666  16.414  23.852  1.00  0.00    -0.062 Cl
ENDBRANCH  22  23
ENDBRANCH  13  22
ENDBRANCH   5   8
ENDBRANCH   3   4
ENDBRANCH   2   3
ENDBRANCH   1   2
BRANCH   1  30
ATOM     30  C   UNL A   1      40.863  20.974  26.501  1.00  0.00     0.002 C 
BRANCH  30  31
ATOM     31  C   UNL A   1      41.176  19.530  26.096  1.00  0.00     0.021 C 
BRANCH  31  32
ATOM     32  C   UNL A   1      42.589  19.058  26.431  1.00  0.00     0.116 C 
BRANCH  32  33
ATOM     33  N   UNL A   1      43.386  18.823  25.241  1.00  0.00    -0.352 N 
ATOM     34  C   UNL A   1      44.153  19.687  24.503  1.00  0.00     0.251 C 
ATOM     35  H   UNL A   1      43.374  17.895  24.910  1.00  0.00     0.163 HD
ATOM     36  O   UNL A   1      44.608  19.323  23.423  1.00  0.00    -0.269 OA
BRANCH  34  37
ATOM     37  C   UNL A   1      44.425  21.063  24.982  1.00  0.00     0.039 A 
ATOM     38  C   UNL A   1      43.908  22.133  24.245  1.00  0.00     0.014 A 
ATOM     39  C   UNL A   1      45.218  21.311  26.105  1.00  0.00     0.014 A 
ATOM     40  C   UNL A   1      44.145  23.445  24.660  1.00  0.00     0.010 A 
ATOM     41  C   UNL A   1      45.405  22.620  26.553  1.00  0.00     0.010 A 
ATOM     42  C   UNL A   1      44.873  23.699  25.833  1.00  0.00    -0.014 A 
BRANCH  42  43
ATOM     43  C   UNL A   1      45.058  25.094  26.312  1.00  0.00     0.031 A 
ATOM     44  C   UNL A   1      46.405  25.760  26.246  1.00  0.00     0.074 A 
ATOM     45  C   UNL A   1      44.008  25.750  26.845  1.00  0.00     0.049 A 
ATOM     46  N   UNL A   1      46.742  26.975  26.603  1.00  0.00    -0.248 NA
ATOM     47  C   UNL A   1      47.524  24.955  25.735  1.00  0.00     0.031 C 
ATOM     48  C   UNL A   1      42.667  25.190  27.025  1.00  0.00     0.029 A 
ATOM     49  N   UNL A   1      43.902  27.029  27.332  1.00  0.00    -0.354 N 
ATOM     50  C   UNL A   1      48.108  27.072  26.374  1.00  0.00     0.074 A 
ATOM     51  C   UNL A   1      48.548  25.784  25.884  1.00  0.00     0.031 C 
ATOM     52  C   UNL A   1      41.869  26.126  27.562  1.00  0.00     0.029 A 
ATOM     53  C   UNL A   1      42.644  27.344  27.783  1.00  0.00     0.049 A 
ATOM     54  H   UNL A   1      44.657  27.660  27.356  1.00  0.00     0.167 HD
ATOM     55  C   UNL A   1      48.917  28.147  26.539  1.00  0.00     0.037 A 
ATOM     56  C   UNL A   1      42.167  28.487  28.311  1.00  0.00     0.037 A 
ATOM     57  C   UNL A   1      48.471  29.442  26.984  1.00  0.00     0.049 A 
ATOM     58  C   UNL A   1      43.082  29.674  28.443  1.00  0.00     0.074 A 
ATOM     59  C   UNL A   1      49.198  30.616  27.084  1.00  0.00     0.029 A 
ATOM     60  N   UNL A   1      47.183  29.732  27.404  1.00  0.00    -0.354 N 
ATOM     61  N   UNL A   1      44.349  29.782  28.122  1.00  0.00    -0.248 NA
ATOM     62  C   UNL A   1      42.496  30.902  28.999  1.00  0.00     0.031 C 
ATOM     63  C   UNL A   1      48.360  31.606  27.608  1.00  0.00     0.029 A 
ATOM     64  C   UNL A   1      47.100  31.060  27.792  1.00  0.00     0.049 A 
ATOM     65  H   UNL A   1      46.437  29.090  27.425  1.00  0.00     0.167 HD
ATOM     66  C   UNL A   1      44.703  31.092  28.414  1.00  0.00     0.074 A 
ATOM     67  C   UNL A   1      43.513  31.747  28.914  1.00  0.00     0.031 C 
ATOM     68  C   UNL A   1      45.908  31.697  28.285  1.00  0.00     0.037 A 
BRANCH  55  69
ATOM     69  C   UNL A   1      50.376  27.985  26.227  1.00  0.00     0.064 A 
ATOM     70  C   UNL A   1      51.316  27.714  27.232  1.00  0.00     0.173 A 
ATOM     71  C   UNL A   1      50.825  28.018  24.898  1.00  0.00     0.173 A 
ATOM     72  F   UNL A   1      50.938  27.680  28.519  1.00  0.00    -0.203 F 
ATOM     73  C   UNL A   1      52.655  27.491  26.919  1.00  0.00     0.198 A 
ATOM     74  C   UNL A   1      52.159  27.771  24.587  1.00  0.00     0.198 A 
ATOM     75  F   UNL A   1      49.965  28.267  23.900  1.00  0.00    -0.203 F 
ATOM     76  F   UNL A   1      53.540  27.259  27.898  1.00  0.00    -0.200 F 
ATOM     77  C   UNL A   1      53.073  27.511  25.597  1.00  0.00     0.200 A 
ATOM     78  F   UNL A   1      52.560  27.778  23.307  1.00  0.00    -0.200 F 
ATOM     79  F   UNL A   1      54.358  27.279  25.296  1.00  0.00    -0.200 F 
ENDBRANCH  55  69
BRANCH  56  80
ATOM     80  C   UNL A   1      40.746  28.579  28.735  1.00  0.00     0.064 A 
ATOM     81  C   UNL A   1      39.755  29.014  27.844  1.00  0.00     0.173 A 
ATOM     82  C   UNL A   1      40.357  28.268  30.046  1.00  0.00     0.173 A 
ATOM     83  F   UNL A   1      40.083  29.343  26.586  1.00  0.00    -0.203 F 
ATOM     84  C   UNL A   1      38.433  29.164  28.256  1.00  0.00     0.198 A 
ATOM     85  C   UNL A   1      39.028  28.391  30.449  1.00  0.00     0.198 A 
ATOM     86  F   UNL A   1      41.266  27.843  30.934  1.00  0.00    -0.203 F 
ATOM     87  F   UNL A   1      37.516  29.636  27.401  1.00  0.00    -0.200 F 
ATOM     88  C   UNL A   1      38.070  28.850  29.557  1.00  0.00     0.200 A 
ATOM     89  F   UNL A   1      38.680  28.074  31.703  1.00  0.00    -0.200 F 
ATOM     90  F   UNL A   1      36.800  29.000  29.956  1.00  0.00    -0.200 F 
ENDBRANCH  56  80
BRANCH  68  91
ATOM     91  C   UNL A   1      45.989  33.146  28.673  1.00  0.00     0.064 A 
ATOM     92  C   UNL A   1      45.718  34.166  27.751  1.00  0.00     0.173 A 
ATOM     93  C   UNL A   1      46.329  33.514  29.983  1.00  0.00     0.173 A 
ATOM     94  F   UNL A   1      45.405  33.863  26.481  1.00  0.00    -0.203 F 
ATOM     95  C   UNL A   1      45.817  35.505  28.117  1.00  0.00     0.198 A 
ATOM     96  C   UNL A   1      46.398  34.854  30.353  1.00  0.00     0.198 A 
ATOM     97  F   UNL A   1      46.591  32.575  30.905  1.00  0.00    -0.203 F 
ATOM     98  F   UNL A   1      45.608  36.464  27.204  1.00  0.00    -0.200 F 
ATOM     99  C   UNL A   1      46.152  35.849  29.418  1.00  0.00     0.200 A 
ATOM    100  F   UNL A   1      46.710  35.184  31.614  1.00  0.00    -0.200 F 
ATOM    101  F   UNL A   1      46.248  37.138  29.768  1.00  0.00    -0.200 F 
ENDBRANCH  68  91
ENDBRANCH  42  43
ENDBRANCH  34  37
ENDBRANCH  32  33
ENDBRANCH  31  32
ENDBRANCH  30  31
ENDBRANCH   1  30
TORSDOF 18
ENDMDL
MODEL 3
REMARK VINA RESULT:     -11.8      1.261      7.296
REMARK SMILES CC(C)(C)OC(=O)N1CC[N@H+](Cc2ccc(Cl)nc2)[C@H](C(=O)NCCCCCCNC(=O)c2ccc(-c3c4nc(c(-c5c(F)c(F)c(F)c(F)c5F)c5ccc([nH]5)c(-c5c(F)c(F)c(F)c(F)c5F)c5nc(c(-c6c(F)c(F)c(F)c(F)c6F)c6ccc3[nH]6)C=C5)C=C4)cc2)C1
REMARK SMILES IDX 26 1 25 2 24 3 23 4 21 5 22 6 20 8 8 9 9 10 96 11 10 12
REMARK SMILES IDX 11 13 6 15 7 16 5 17 2 18 1 19 3 20 4 21 12 22 13 23 14 24
REMARK SMILES IDX 19 25 15 26 18 27 16 28 17 29 27 30 28 31 29 32 30 33 31 34
REMARK SMILES IDX 32 36 33 37 34 38 95 39 35 40 94 41 36 42 37 43 38 44 88 45
REMARK SMILES IDX 39 46 93 47 87 48 89 49 40 50 92 51 86 52 85 53 41 55 73 56
REMARK SMILES IDX 53 57 72 58 54 59 57 60 71 61 90 62 55 63 56 64 70 66 91 67
REMARK SMILES IDX 58 68 42 69 43 70 51 71 44 72 45 73 49 74 52 75 46 76 47 77
REMARK SMILES IDX 50 78 48 79 74 80 75 81 83 82 76 83 77 84 81 85 84 86 78 87
REMARK SMILES IDX 79 88 82 89 80 90 59 91 60 92 68 93 61 94 62 95 66 96 69 97
REMARK SMILES IDX 63 98 64 99 67 100 65 101
REMARK H PARENT 23 7 11 14 30 35 89 54 57 65
REMARK Flexibility Score: inf
ROOT
ATOM      1  C   UNL A   1      34.987  30.655  27.536  1.00  0.00     0.002 C 
ENDROOT
BRANCH   1   2
ATOM      2  C   UNL A   1      34.541  29.378  26.810  1.00  0.00     0.021 C 
BRANCH   2   3
ATOM      3  C   UNL A   1      33.270  29.552  25.975  1.00  0.00     0.116 C 
BRANCH   3   4
ATOM      4  N   UNL A   1      33.442  28.948  24.668  1.00  0.00    -0.351 N 
ATOM      5  C   UNL A   1      33.262  27.646  24.291  1.00  0.00     0.280 C 
ATOM      6  O   UNL A   1      33.707  27.306  23.194  1.00  0.00    -0.268 OA
ATOM      7  H   UNL A   1      33.728  29.560  23.952  1.00  0.00     0.163 HD
BRANCH   5   8
ATOM      8  C   UNL A   1      32.461  26.697  25.191  1.00  0.00     0.294 C 
ATOM      9  N   UNL A   1      32.227  24.381  26.049  1.00  0.00    -0.296 N 
ATOM     10  C   UNL A   1      30.777  24.492  26.002  1.00  0.00     0.184 C 
ATOM     11  C   UNL A   1      33.006  25.261  25.167  1.00  0.00     0.198 C 
ATOM     12  C   UNL A   1      30.264  25.940  25.872  1.00  0.00     0.285 C 
ATOM     13  N   UNL A   1      30.994  26.816  24.943  1.00  0.00    -0.318 N 
ATOM     14  H   UNL A   1      30.770  27.789  25.150  1.00  0.00     0.349 HD
BRANCH   9  15
ATOM     15  C   UNL A   1      32.756  23.249  26.634  1.00  0.00     0.410 C 
ATOM     16  O   UNL A   1      32.416  22.857  27.742  1.00  0.00    -0.224 OA
BRANCH  15  17
ATOM     17  O   UNL A   1      33.754  22.714  25.890  1.00  0.00    -0.444 OA
BRANCH  17  18
ATOM     18  C   UNL A   1      33.469  21.663  24.930  1.00  0.00     0.106 C 
ATOM     19  C   UNL A   1      34.603  20.644  25.118  1.00  0.00     0.056 C 
ATOM     20  C   UNL A   1      33.528  22.242  23.516  1.00  0.00     0.056 C 
ATOM     21  C   UNL A   1      32.140  20.933  25.189  1.00  0.00     0.056 C 
ENDBRANCH  17  18
ENDBRANCH  15  17
ENDBRANCH   9  15
BRANCH  13  22
ATOM     22  C   UNL A   1      30.510  26.794  23.549  1.00  0.00     0.301 C 
BRANCH  22  23
ATOM     23  C   UNL A   1      29.836  28.022  22.990  1.00  0.00     0.025 A 
ATOM     24  C   UNL A   1      28.481  28.292  23.216  1.00  0.00     0.014 A 
ATOM     25  C   UNL A   1      30.536  28.948  22.221  1.00  0.00     0.122 A 
ATOM     26  C   UNL A   1      27.866  29.363  22.571  1.00  0.00     0.041 A 
ATOM     27  N   UNL A   1      29.975  30.011  21.600  1.00  0.00    -0.244 NA
ATOM     28  C   UNL A   1      28.650  30.170  21.768  1.00  0.00     0.129 A 
ATOM     29  Cl  UNL A   1      27.964  31.467  20.883  1.00  0.00    -0.062 Cl
ENDBRANCH  22  23
ENDBRANCH  13  22
ENDBRANCH   5   8
ENDBRANCH   3   4
ENDBRANCH   2   3
ENDBRANCH   1   2
BRANCH   1  30
ATOM     30  C   UNL A   1      33.848  31.515  28.094  1.00  0.00     0.002 C 
BRANCH  30  31
ATOM     31  C   UNL A   1      33.648  32.863  27.393  1.00  0.00     0.021 C 
BRANCH  31  32
ATOM     32  C   UNL A   1      32.322  33.556  27.697  1.00  0.00     0.116 C 
BRANCH  32  33
ATOM     33  N   UNL A   1      32.500  34.955  28.042  1.00  0.00    -0.352 N 
ATOM     34  C   UNL A   1      33.334  35.543  28.957  1.00  0.00     0.251 C 
ATOM     35  H   UNL A   1      31.931  35.582  27.538  1.00  0.00     0.163 HD
ATOM     36  O   UNL A   1      33.202  36.734  29.221  1.00  0.00    -0.269 OA
BRANCH  34  37
ATOM     37  C   UNL A   1      34.381  34.755  29.649  1.00  0.00     0.039 A 
ATOM     38  C   UNL A   1      35.655  34.703  29.076  1.00  0.00     0.014 A 
ATOM     39  C   UNL A   1      34.113  34.032  30.815  1.00  0.00     0.014 A 
ATOM     40  C   UNL A   1      36.669  33.969  29.695  1.00  0.00     0.010 A 
ATOM     41  C   UNL A   1      35.141  33.348  31.465  1.00  0.00     0.010 A 
ATOM     42  C   UNL A   1      36.428  33.306  30.909  1.00  0.00    -0.014 A 
BRANCH  42  43
ATOM     43  C   UNL A   1      37.529  32.589  31.603  1.00  0.00     0.031 A 
ATOM     44  C   UNL A   1      38.223  31.425  30.951  1.00  0.00     0.074 A 
ATOM     45  C   UNL A   1      37.880  32.972  32.847  1.00  0.00     0.049 A 
ATOM     46  N   UNL A   1      39.214  30.697  31.404  1.00  0.00    -0.248 NA
ATOM     47  C   UNL A   1      37.729  31.007  29.631  1.00  0.00     0.031 C 
ATOM     48  C   UNL A   1      37.239  34.043  33.613  1.00  0.00     0.029 A 
ATOM     49  N   UNL A   1      38.860  32.505  33.687  1.00  0.00    -0.354 N 
ATOM     50  C   UNL A   1      39.449  29.732  30.434  1.00  0.00     0.074 A 
ATOM     51  C   UNL A   1      38.475  29.940  29.385  1.00  0.00     0.031 C 
ATOM     52  C   UNL A   1      37.856  34.165  34.799  1.00  0.00     0.029 A 
ATOM     53  C   UNL A   1      38.921  33.170  34.886  1.00  0.00     0.049 A 
ATOM     54  H   UNL A   1      39.463  31.762  33.451  1.00  0.00     0.167 HD
ATOM     55  C   UNL A   1      40.406  28.772  30.414  1.00  0.00     0.037 A 
ATOM     56  C   UNL A   1      39.745  33.000  35.938  1.00  0.00     0.037 A 
ATOM     57  C   UNL A   1      41.404  28.594  31.438  1.00  0.00     0.049 A 
ATOM     58  C   UNL A   1      40.822  31.952  35.866  1.00  0.00     0.074 A 
ATOM     59  C   UNL A   1      42.473  27.715  31.455  1.00  0.00     0.029 A 
ATOM     60  N   UNL A   1      41.452  29.306  32.626  1.00  0.00    -0.354 N 
ATOM     61  N   UNL A   1      41.100  31.115  34.895  1.00  0.00    -0.248 NA
ATOM     62  C   UNL A   1      41.709  31.834  37.032  1.00  0.00     0.031 C 
ATOM     63  C   UNL A   1      43.144  27.865  32.673  1.00  0.00     0.029 A 
ATOM     64  C   UNL A   1      42.518  28.867  33.396  1.00  0.00     0.049 A 
ATOM     65  H   UNL A   1      40.823  30.017  32.884  1.00  0.00     0.167 HD
ATOM     66  C   UNL A   1      42.204  30.392  35.323  1.00  0.00     0.074 A 
ATOM     67  C   UNL A   1      42.561  30.904  36.629  1.00  0.00     0.031 C 
ATOM     68  C   UNL A   1      42.861  29.388  34.693  1.00  0.00     0.037 A 
BRANCH  55  69
ATOM     69  C   UNL A   1      40.440  27.836  29.243  1.00  0.00     0.064 A 
ATOM     70  C   UNL A   1      39.625  26.695  29.190  1.00  0.00     0.173 A 
ATOM     71  C   UNL A   1      41.234  28.128  28.123  1.00  0.00     0.173 A 
ATOM     72  F   UNL A   1      38.854  26.368  30.238  1.00  0.00    -0.203 F 
ATOM     73  C   UNL A   1      39.612  25.876  28.064  1.00  0.00     0.198 A 
ATOM     74  C   UNL A   1      41.200  27.321  26.990  1.00  0.00     0.198 A 
ATOM     75  F   UNL A   1      42.026  29.211  28.121  1.00  0.00    -0.203 F 
ATOM     76  F   UNL A   1      38.844  24.777  28.045  1.00  0.00    -0.200 F 
ATOM     77  C   UNL A   1      40.391  26.195  26.961  1.00  0.00     0.200 A 
ATOM     78  F   UNL A   1      41.944  27.637  25.921  1.00  0.00    -0.200 F 
ATOM     79  F   UNL A   1      40.364  25.415  25.872  1.00  0.00    -0.200 F 
ENDBRANCH  55  69
BRANCH  56  80
ATOM     80  C   UNL A   1      39.605  33.856  37.144  1.00  0.00     0.064 A 
ATOM     81  C   UNL A   1      38.840  33.436  38.241  1.00  0.00     0.173 A 
ATOM     82  C   UNL A   1      40.204  35.123  37.210  1.00  0.00     0.173 A 
ATOM     83  F   UNL A   1      38.231  32.242  38.215  1.00  0.00    -0.203 F 
ATOM     84  C   UNL A   1      38.654  34.263  39.347  1.00  0.00     0.198 A 
ATOM     85  C   UNL A   1      40.041  35.937  38.330  1.00  0.00     0.198 A 
ATOM     86  F   UNL A   1      40.950  35.568  36.189  1.00  0.00    -0.203 F 
ATOM     87  F   UNL A   1      37.871  33.861  40.357  1.00  0.00    -0.200 F 
ATOM     88  C   UNL A   1      39.257  35.511  39.391  1.00  0.00     0.200 A 
ATOM     89  F   UNL A   1      40.635  37.136  38.374  1.00  0.00    -0.200 F 
ATOM     90  F   UNL A   1      39.073  36.309  40.452  1.00  0.00    -0.200 F 
ENDBRANCH  56  80
BRANCH  68  91
ATOM     91  C   UNL A   1      44.043  28.795  35.403  1.00  0.00     0.064 A 
ATOM     92  C   UNL A   1      43.900  27.719  36.289  1.00  0.00     0.173 A 
ATOM     93  C   UNL A   1      45.333  29.301  35.183  1.00  0.00     0.173 A 
ATOM     94  F   UNL A   1      42.685  27.211  36.544  1.00  0.00    -0.203 F 
ATOM     95  C   UNL A   1      45.002  27.192  36.958  1.00  0.00     0.198 A 
ATOM     96  C   UNL A   1      46.436  28.752  35.830  1.00  0.00     0.198 A 
ATOM     97  F   UNL A   1      45.524  30.326  34.338  1.00  0.00    -0.203 F 
ATOM     98  F   UNL A   1      44.834  26.200  37.844  1.00  0.00    -0.200 F 
ATOM     99  C   UNL A   1      46.269  27.705  36.724  1.00  0.00     0.200 A 
ATOM    100  F   UNL A   1      47.661  29.242  35.595  1.00  0.00    -0.200 F 
ATOM    101  F   UNL A   1      47.328  27.198  37.369  1.00  0.00    -0.200 F 
ENDBRANCH  68  91
ENDBRANCH  42  43
ENDBRANCH  34  37
ENDBRANCH  32  33
ENDBRANCH  31  32
ENDBRANCH  30  31
ENDBRANCH   1  30
TORSDOF 18
ENDMDL
