MODEL 1
REMARK VINA RESULT:      -9.4      0.000      0.000
REMARK SMILES O=C(NCCCCCCNC(=O)c1ccccc1Nc1nc(Cl)nc(Nc2ccc(N3CCOCC3=O)cc2)n1)c1ccc(-c2c3nc(c(-c4c(F)c(F)c(F)c(F)c4F)c4ccc([nH]4)c(-c4c(F)c(F)c(F)c(F)c4F)c4nc(c(-c5c(F)c(F)c(F)c(F)c5F)c5ccc2[nH]5)C=C4)C=C3)cc1
REMARK SMILES IDX 8 1 7 2 6 3 5 4 4 5 3 6 1 7 2 8 41 10 42 11 103 12 43 13
REMARK SMILES IDX 102 14 44 15 45 16 46 17 96 18 47 19 101 20 95 21 97 22
REMARK SMILES IDX 48 23 100 24 94 25 93 26 49 28 81 29 61 30 80 31 62 32 65 33
REMARK SMILES IDX 79 34 98 35 63 36 64 37 78 39 99 40 66 41 50 42 51 43 59 44
REMARK SMILES IDX 52 45 53 46 57 47 60 48 54 49 55 50 58 51 56 52 82 53 83 54
REMARK SMILES IDX 91 55 84 56 85 57 89 58 92 59 86 60 87 61 90 62 88 63 67 64
REMARK SMILES IDX 68 65 76 66 69 67 70 68 74 69 77 70 71 71 72 72 75 73 73 74
REMARK SMILES IDX 9 75 10 76 11 77 12 79 13 80 14 81 18 82 15 83 17 84 16 85
REMARK SMILES IDX 19 86 20 88 21 89 40 90 22 91 25 92 23 93 24 94 26 95 27 97
REMARK SMILES IDX 28 98 39 99 29 100 38 101 30 102 31 103 32 104 36 105 33 106
REMARK SMILES IDX 35 107 37 108 34 109
REMARK H PARENT 3 9 97 27 65 38 10 78 19 87 26 96
REMARK Flexibility Score: inf
ROOT
ATOM      1  C   UNL A   1      36.778  31.582  32.831  1.00  0.00     0.021 C 
ENDROOT
BRANCH   1   2
ATOM      2  C   UNL A   1      36.831  32.953  32.149  1.00  0.00     0.002 C 
BRANCH   2   3
ATOM      3  C   UNL A   1      36.561  32.979  30.643  1.00  0.00     0.002 C 
BRANCH   3   4
ATOM      4  C   UNL A   1      35.101  32.826  30.221  1.00  0.00     0.021 C 
BRANCH   4   5
ATOM      5  C   UNL A   1      34.855  32.766  28.721  1.00  0.00     0.116 C 
BRANCH   5   6
ATOM      6  N   UNL A   1      34.073  31.614  28.304  1.00  0.00    -0.352 N 
ATOM      7  O   UNL A   1      33.718  29.486  27.625  1.00  0.00    -0.269 OA
ATOM      8  C   UNL A   1      34.495  30.325  28.074  1.00  0.00     0.251 C 
ATOM      9  H   UNL A   1      33.112  31.779  28.168  1.00  0.00     0.163 HD
BRANCH   8  10
ATOM     10  C   UNL A   1      35.903  29.957  28.341  1.00  0.00     0.039 A 
ATOM     11  C   UNL A   1      36.282  29.450  29.584  1.00  0.00     0.014 A 
ATOM     12  C   UNL A   1      36.862  30.132  27.336  1.00  0.00     0.014 A 
ATOM     13  C   UNL A   1      37.628  29.271  29.876  1.00  0.00     0.010 A 
ATOM     14  C   UNL A   1      38.208  29.858  27.601  1.00  0.00     0.010 A 
ATOM     15  C   UNL A   1      38.606  29.454  28.883  1.00  0.00    -0.014 A 
BRANCH  15  16
ATOM     16  C   UNL A   1      40.019  29.133  29.212  1.00  0.00     0.031 A 
ATOM     17  C   UNL A   1      40.675  27.869  28.733  1.00  0.00     0.074 A 
ATOM     18  C   UNL A   1      40.730  30.045  29.904  1.00  0.00     0.049 A 
ATOM     19  N   UNL A   1      41.921  27.486  28.872  1.00  0.00    -0.248 NA
ATOM     20  C   UNL A   1      39.830  26.905  28.013  1.00  0.00     0.031 C 
ATOM     21  C   UNL A   1      40.189  31.296  30.443  1.00  0.00     0.029 A 
ATOM     22  N   UNL A   1      42.058  30.087  30.242  1.00  0.00    -0.354 N 
ATOM     23  C   UNL A   1      42.008  26.240  28.266  1.00  0.00     0.074 A 
ATOM     24  C   UNL A   1      40.682  25.914  27.784  1.00  0.00     0.031 C 
ATOM     25  C   UNL A   1      41.185  32.008  30.987  1.00  0.00     0.029 A 
ATOM     26  C   UNL A   1      42.421  31.242  30.892  1.00  0.00     0.049 A 
ATOM     27  H   UNL A   1      42.690  29.359  30.040  1.00  0.00     0.167 HD
ATOM     28  C   UNL A   1      43.099  25.448  28.119  1.00  0.00     0.037 A 
ATOM     29  C   UNL A   1      43.615  31.639  31.365  1.00  0.00     0.037 A 
ATOM     30  C   UNL A   1      44.419  25.782  28.596  1.00  0.00     0.049 A 
ATOM     31  C   UNL A   1      44.804  30.743  31.180  1.00  0.00     0.074 A 
ATOM     32  C   UNL A   1      45.588  25.049  28.489  1.00  0.00     0.029 A 
ATOM     33  N   UNL A   1      44.744  26.952  29.268  1.00  0.00    -0.354 N 
ATOM     34  N   UNL A   1      44.874  29.576  30.587  1.00  0.00    -0.248 NA
ATOM     35  C   UNL A   1      46.080  31.217  31.730  1.00  0.00     0.031 C 
ATOM     36  C   UNL A   1      46.612  25.758  29.127  1.00  0.00     0.029 A 
ATOM     37  C   UNL A   1      46.092  26.954  29.593  1.00  0.00     0.049 A 
ATOM     38  H   UNL A   1      44.110  27.674  29.483  1.00  0.00     0.167 HD
ATOM     39  C   UNL A   1      46.197  29.176  30.692  1.00  0.00     0.074 A 
ATOM     40  C   UNL A   1      46.904  30.245  31.369  1.00  0.00     0.031 C 
ATOM     41  C   UNL A   1      46.774  28.022  30.278  1.00  0.00     0.037 A 
BRANCH  28  42
ATOM     42  C   UNL A   1      42.921  24.133  27.415  1.00  0.00     0.064 A 
ATOM     43  C   UNL A   1      43.160  23.999  26.040  1.00  0.00     0.173 A 
ATOM     44  C   UNL A   1      42.581  22.977  28.136  1.00  0.00     0.173 A 
ATOM     45  F   UNL A   1      43.481  25.075  25.303  1.00  0.00    -0.203 F 
ATOM     46  C   UNL A   1      43.054  22.761  25.410  1.00  0.00     0.198 A 
ATOM     47  C   UNL A   1      42.499  21.737  27.508  1.00  0.00     0.198 A 
ATOM     48  F   UNL A   1      42.350  23.048  29.456  1.00  0.00    -0.203 F 
ATOM     49  F   UNL A   1      43.264  22.663  24.090  1.00  0.00    -0.200 F 
ATOM     50  C   UNL A   1      42.733  21.630  26.145  1.00  0.00     0.200 A 
ATOM     51  F   UNL A   1      42.203  20.644  28.223  1.00  0.00    -0.200 F 
ATOM     52  F   UNL A   1      42.650  20.437  25.541  1.00  0.00    -0.200 F 
ENDBRANCH  28  42
BRANCH  29  53
ATOM     53  C   UNL A   1      43.734  32.942  32.067  1.00  0.00     0.064 A 
ATOM     54  C   UNL A   1      43.879  33.007  33.460  1.00  0.00     0.173 A 
ATOM     55  C   UNL A   1      43.714  34.152  31.355  1.00  0.00     0.173 A 
ATOM     56  F   UNL A   1      43.887  31.880  34.185  1.00  0.00    -0.203 F 
ATOM     57  C   UNL A   1      43.980  34.233  34.114  1.00  0.00     0.198 A 
ATOM     58  C   UNL A   1      43.848  35.374  32.007  1.00  0.00     0.198 A 
ATOM     59  F   UNL A   1      43.585  34.142  30.020  1.00  0.00    -0.203 F 
ATOM     60  F   UNL A   1      44.072  34.269  35.451  1.00  0.00    -0.200 F 
ATOM     61  C   UNL A   1      43.972  35.415  33.387  1.00  0.00     0.200 A 
ATOM     62  F   UNL A   1      43.859  36.511  31.299  1.00  0.00    -0.200 F 
ATOM     63  F   UNL A   1      44.077  36.592  34.018  1.00  0.00    -0.200 F 
ENDBRANCH  29  53
BRANCH  41  64
ATOM     64  C   UNL A   1      48.241  27.868  30.551  1.00  0.00     0.064 A 
ATOM     65  C   UNL A   1      48.705  27.262  31.729  1.00  0.00     0.173 A 
ATOM     66  C   UNL A   1      49.191  28.332  29.630  1.00  0.00     0.173 A 
ATOM     67  F   UNL A   1      47.834  26.819  32.648  1.00  0.00    -0.203 F 
ATOM     68  C   UNL A   1      50.068  27.161  31.990  1.00  0.00     0.198 A 
ATOM     69  C   UNL A   1      50.553  28.203  29.882  1.00  0.00     0.198 A 
ATOM     70  F   UNL A   1      48.798  28.914  28.487  1.00  0.00    -0.203 F 
ATOM     71  F   UNL A   1      50.488  26.634  33.149  1.00  0.00    -0.200 F 
ATOM     72  C   UNL A   1      50.991  27.628  31.066  1.00  0.00     0.200 A 
ATOM     73  F   UNL A   1      51.445  28.646  28.985  1.00  0.00    -0.200 F 
ATOM     74  F   UNL A   1      52.302  27.535  31.323  1.00  0.00    -0.200 F 
ENDBRANCH  41  64
ENDBRANCH  15  16
ENDBRANCH   8  10
ENDBRANCH   5   6
ENDBRANCH   4   5
ENDBRANCH   3   4
ENDBRANCH   2   3
ENDBRANCH   1   2
BRANCH   1  75
ATOM     75  C   UNL A   1      38.031  31.167  33.599  1.00  0.00     0.116 C 
BRANCH  75  76
ATOM     76  N   UNL A   1      37.727  30.537  34.872  1.00  0.00    -0.352 N 
ATOM     77  C   UNL A   1      38.278  30.777  36.105  1.00  0.00     0.253 C 
ATOM     78  H   UNL A   1      37.029  29.843  34.846  1.00  0.00     0.163 HD
ATOM     79  O   UNL A   1      37.917  30.123  37.080  1.00  0.00    -0.269 OA
BRANCH  77  80
ATOM     80  C   UNL A   1      39.331  31.802  36.267  1.00  0.00     0.063 A 
ATOM     81  C   UNL A   1      38.899  33.135  36.339  1.00  0.00     0.016 A 
ATOM     82  C   UNL A   1      40.699  31.476  36.318  1.00  0.00     0.054 A 
ATOM     83  C   UNL A   1      39.826  34.159  36.514  1.00  0.00     0.001 A 
ATOM     84  C   UNL A   1      41.606  32.525  36.544  1.00  0.00     0.027 A 
ATOM     85  C   UNL A   1      41.177  33.853  36.631  1.00  0.00     0.002 A 
BRANCH  82  86
ATOM     86  N   UNL A   1      41.150  30.155  36.154  1.00  0.00    -0.323 N 
ATOM     87  H   UNL A   1      41.366  29.684  36.990  1.00  0.00     0.170 HD
BRANCH  86  88
ATOM     88  C   UNL A   1      41.338  29.411  34.995  1.00  0.00     0.233 A 
ATOM     89  N   UNL A   1      40.289  28.965  34.324  1.00  0.00    -0.182 NA
ATOM     90  N   UNL A   1      42.598  29.207  34.625  1.00  0.00    -0.176 NA
ATOM     91  C   UNL A   1      40.605  28.293  33.230  1.00  0.00     0.228 A 
ATOM     92  C   UNL A   1      42.791  28.452  33.546  1.00  0.00     0.233 A 
ATOM     93  Cl  UNL A   1      39.294  27.709  32.304  1.00  0.00    -0.041 Cl
ATOM     94  N   UNL A   1      41.810  27.999  32.784  1.00  0.00    -0.182 NA
BRANCH  92  95
ATOM     95  N   UNL A   1      44.105  28.050  33.320  1.00  0.00    -0.324 N 
ATOM     96  H   UNL A   1      44.699  28.727  32.924  1.00  0.00     0.170 HD
BRANCH  95  97
ATOM     97  C   UNL A   1      44.690  26.808  33.583  1.00  0.00     0.041 A 
ATOM     98  C   UNL A   1      45.225  26.549  34.849  1.00  0.00     0.028 A 
ATOM     99  C   UNL A   1      44.655  25.767  32.652  1.00  0.00     0.028 A 
ATOM    100  C   UNL A   1      45.692  25.273  35.184  1.00  0.00     0.028 A 
ATOM    101  C   UNL A   1      45.174  24.508  32.963  1.00  0.00     0.028 A 
ATOM    102  C   UNL A   1      45.676  24.240  34.241  1.00  0.00     0.044 A 
BRANCH 102 103
ATOM    103  N   UNL A   1      46.106  22.926  34.593  1.00  0.00    -0.308 N 
ATOM    104  C   UNL A   1      45.084  21.871  34.584  1.00  0.00     0.154 C 
ATOM    105  C   UNL A   1      47.467  22.593  34.612  1.00  0.00     0.253 C 
ATOM    106  C   UNL A   1      45.548  20.575  35.233  1.00  0.00     0.183 C 
ATOM    107  C   UNL A   1      47.784  21.112  34.880  1.00  0.00     0.260 C 
ATOM    108  O   UNL A   1      48.388  23.409  34.533  1.00  0.00    -0.272 OA
ATOM    109  O   UNL A   1      46.767  20.154  34.630  1.00  0.00    -0.370 OA
ENDBRANCH 102 103
ENDBRANCH  95  97
ENDBRANCH  92  95
ENDBRANCH  86  88
ENDBRANCH  82  86
ENDBRANCH  77  80
ENDBRANCH  75  76
ENDBRANCH   1  75
TORSDOF 18
ENDMDL
MODEL 2
REMARK VINA RESULT:      -8.9      1.156      7.021
REMARK SMILES O=C(NCCCCCCNC(=O)c1ccccc1Nc1nc(Cl)nc(Nc2ccc(N3CCOCC3=O)cc2)n1)c1ccc(-c2c3nc(c(-c4c(F)c(F)c(F)c(F)c4F)c4ccc([nH]4)c(-c4c(F)c(F)c(F)c(F)c4F)c4nc(c(-c5c(F)c(F)c(F)c(F)c5F)c5ccc2[nH]5)C=C4)C=C3)cc1
REMARK SMILES IDX 8 1 7 2 6 3 5 4 4 5 3 6 1 7 2 8 41 10 42 11 103 12 43 13
REMARK SMILES IDX 102 14 44 15 45 16 46 17 96 18 47 19 101 20 95 21 97 22
REMARK SMILES IDX 48 23 100 24 94 25 93 26 49 28 81 29 61 30 80 31 62 32 65 33
REMARK SMILES IDX 79 34 98 35 63 36 64 37 78 39 99 40 66 41 50 42 51 43 59 44
REMARK SMILES IDX 52 45 53 46 57 47 60 48 54 49 55 50 58 51 56 52 82 53 83 54
REMARK SMILES IDX 91 55 84 56 85 57 89 58 92 59 86 60 87 61 90 62 88 63 67 64
REMARK SMILES IDX 68 65 76 66 69 67 70 68 74 69 77 70 71 71 72 72 75 73 73 74
REMARK SMILES IDX 9 75 10 76 11 77 12 79 13 80 14 81 18 82 15 83 17 84 16 85
REMARK SMILES IDX 19 86 20 88 21 89 40 90 22 91 25 92 23 93 24 94 26 95 27 97
REMARK SMILES IDX 28 98 39 99 29 100 38 101 30 102 31 103 32 104 36 105 33 106
REMARK SMILES IDX 35 107 37 108 34 109
REMARK H PARENT 3 9 97 27 65 38 10 78 19 87 26 96
REMARK Flexibility Score: inf
ROOT
ATOM      1  C   UNL A   1      36.884  31.162  32.700  1.00  0.00     0.021 C 
ENDROOT
BRANCH   1   2
ATOM      2  C   UNL A   1      37.118  32.563  32.123  1.00  0.00     0.002 C 
BRANCH   2   3
ATOM      3  C   UNL A   1      36.705  32.779  30.665  1.00  0.00     0.002 C 
BRANCH   3   4
ATOM      4  C   UNL A   1      35.240  32.500  30.335  1.00  0.00     0.021 C 
BRANCH   4   5
ATOM      5  C   UNL A   1      34.900  32.450  28.853  1.00  0.00     0.116 C 
BRANCH   5   6
ATOM      6  N   UNL A   1      34.242  31.220  28.447  1.00  0.00    -0.352 N 
ATOM      7  O   UNL A   1      34.110  29.068  27.762  1.00  0.00    -0.269 OA
ATOM      8  C   UNL A   1      34.799  29.987  28.198  1.00  0.00     0.251 C 
ATOM      9  H   UNL A   1      33.265  31.277  28.335  1.00  0.00     0.163 HD
BRANCH   8  10
ATOM     10  C   UNL A   1      36.246  29.777  28.428  1.00  0.00     0.039 A 
ATOM     11  C   UNL A   1      37.176  30.088  27.435  1.00  0.00     0.014 A 
ATOM     12  C   UNL A   1      36.678  29.250  29.650  1.00  0.00     0.014 A 
ATOM     13  C   UNL A   1      38.507  29.728  27.599  1.00  0.00     0.010 A 
ATOM     14  C   UNL A   1      38.036  28.978  29.851  1.00  0.00     0.010 A 
ATOM     15  C   UNL A   1      38.958  29.187  28.816  1.00  0.00    -0.014 A 
BRANCH  15  16
ATOM     16  C   UNL A   1      40.412  28.931  28.982  1.00  0.00     0.031 A 
ATOM     17  C   UNL A   1      41.303  29.890  29.720  1.00  0.00     0.074 A 
ATOM     18  C   UNL A   1      40.909  27.772  28.509  1.00  0.00     0.049 A 
ATOM     19  N   UNL A   1      42.574  29.767  30.016  1.00  0.00    -0.248 NA
ATOM     20  C   UNL A   1      40.701  31.149  30.179  1.00  0.00     0.031 C 
ATOM     21  C   UNL A   1      40.141  26.778  27.753  1.00  0.00     0.029 A 
ATOM     22  N   UNL A   1      42.155  27.212  28.619  1.00  0.00    -0.354 N 
ATOM     23  C   UNL A   1      42.925  30.932  30.687  1.00  0.00     0.074 A 
ATOM     24  C   UNL A   1      41.741  31.764  30.729  1.00  0.00     0.031 C 
ATOM     25  C   UNL A   1      40.913  25.707  27.522  1.00  0.00     0.029 A 
ATOM     26  C   UNL A   1      42.244  25.961  28.058  1.00  0.00     0.049 A 
ATOM     27  H   UNL A   1      42.913  27.663  29.056  1.00  0.00     0.167 HD
ATOM     28  C   UNL A   1      44.123  31.267  31.225  1.00  0.00     0.037 A 
ATOM     29  C   UNL A   1      43.284  25.113  27.976  1.00  0.00     0.037 A 
ATOM     30  C   UNL A   1      45.297  30.429  31.185  1.00  0.00     0.049 A 
ATOM     31  C   UNL A   1      44.595  25.510  28.589  1.00  0.00     0.074 A 
ATOM     32  C   UNL A   1      46.555  30.678  31.708  1.00  0.00     0.029 A 
ATOM     33  N   UNL A   1      45.356  29.177  30.590  1.00  0.00    -0.354 N 
ATOM     34  N   UNL A   1      44.904  26.606  29.238  1.00  0.00    -0.248 NA
ATOM     35  C   UNL A   1      45.702  24.554  28.458  1.00  0.00     0.031 C 
ATOM     36  C   UNL A   1      47.383  29.593  31.398  1.00  0.00     0.029 A 
ATOM     37  C   UNL A   1      46.630  28.648  30.722  1.00  0.00     0.049 A 
ATOM     38  H   UNL A   1      44.602  28.730  30.140  1.00  0.00     0.167 HD
ATOM     39  C   UNL A   1      46.238  26.474  29.592  1.00  0.00     0.074 A 
ATOM     40  C   UNL A   1      46.667  25.172  29.122  1.00  0.00     0.031 C 
ATOM     41  C   UNL A   1      47.041  27.355  30.236  1.00  0.00     0.037 A 
BRANCH  28  42
ATOM     42  C   UNL A   1      44.238  32.600  31.907  1.00  0.00     0.064 A 
ATOM     43  C   UNL A   1      44.199  32.716  33.304  1.00  0.00     0.173 A 
ATOM     44  C   UNL A   1      44.463  33.767  31.159  1.00  0.00     0.173 A 
ATOM     45  F   UNL A   1      43.979  31.632  34.065  1.00  0.00    -0.203 F 
ATOM     46  C   UNL A   1      44.370  33.950  33.928  1.00  0.00     0.198 A 
ATOM     47  C   UNL A   1      44.657  34.995  31.787  1.00  0.00     0.198 A 
ATOM     48  F   UNL A   1      44.517  33.712  29.820  1.00  0.00    -0.203 F 
ATOM     49  F   UNL A   1      44.306  34.038  35.263  1.00  0.00    -0.200 F 
ATOM     50  C   UNL A   1      44.608  35.086  33.169  1.00  0.00     0.200 A 
ATOM     51  F   UNL A   1      44.902  36.089  31.053  1.00  0.00    -0.200 F 
ATOM     52  F   UNL A   1      44.792  36.269  33.772  1.00  0.00    -0.200 F 
ENDBRANCH  28  42
BRANCH  29  53
ATOM     53  C   UNL A   1      43.122  23.812  27.278  1.00  0.00     0.064 A 
ATOM     54  C   UNL A   1      43.493  23.657  25.936  1.00  0.00     0.173 A 
ATOM     55  C   UNL A   1      42.601  22.693  27.946  1.00  0.00     0.173 A 
ATOM     56  F   UNL A   1      43.980  24.701  25.251  1.00  0.00    -0.203 F 
ATOM     57  C   UNL A   1      43.330  22.437  25.283  1.00  0.00     0.198 A 
ATOM     58  C   UNL A   1      42.470  21.466  27.302  1.00  0.00     0.198 A 
ATOM     59  F   UNL A   1      42.239  22.788  29.234  1.00  0.00    -0.203 F 
ATOM     60  F   UNL A   1      43.649  22.327  23.986  1.00  0.00    -0.200 F 
ATOM     61  C   UNL A   1      42.825  21.341  25.968  1.00  0.00     0.200 A 
ATOM     62  F   UNL A   1      42.001  20.406  27.973  1.00  0.00    -0.200 F 
ATOM     63  F   UNL A   1      42.677  20.166  25.340  1.00  0.00    -0.200 F 
ENDBRANCH  29  53
BRANCH  41  64
ATOM     64  C   UNL A   1      48.461  26.929  30.464  1.00  0.00     0.064 A 
ATOM     65  C   UNL A   1      48.819  26.148  31.574  1.00  0.00     0.173 A 
ATOM     66  C   UNL A   1      49.473  27.308  29.570  1.00  0.00     0.173 A 
ATOM     67  F   UNL A   1      47.889  25.778  32.466  1.00  0.00    -0.203 F 
ATOM     68  C   UNL A   1      50.145  25.792  31.798  1.00  0.00     0.198 A 
ATOM     69  C   UNL A   1      50.794  26.925  29.783  1.00  0.00     0.198 A 
ATOM     70  F   UNL A   1      49.180  28.050  28.492  1.00  0.00    -0.203 F 
ATOM     71  F   UNL A   1      50.474  25.097  32.896  1.00  0.00    -0.200 F 
ATOM     72  C   UNL A   1      51.131  26.178  30.901  1.00  0.00     0.200 A 
ATOM     73  F   UNL A   1      51.744  27.290  28.911  1.00  0.00    -0.200 F 
ATOM     74  F   UNL A   1      52.408  25.839  31.122  1.00  0.00    -0.200 F 
ENDBRANCH  41  64
ENDBRANCH  15  16
ENDBRANCH   8  10
ENDBRANCH   5   6
ENDBRANCH   4   5
ENDBRANCH   3   4
ENDBRANCH   2   3
ENDBRANCH   1   2
BRANCH   1  75
ATOM     75  C   UNL A   1      38.059  30.544  33.455  1.00  0.00     0.116 C 
BRANCH  75  76
ATOM     76  N   UNL A   1      37.753  30.275  34.849  1.00  0.00    -0.352 N 
ATOM     77  C   UNL A   1      38.257  30.877  35.973  1.00  0.00     0.253 C 
ATOM     78  H   UNL A   1      37.092  29.563  35.008  1.00  0.00     0.163 HD
ATOM     79  O   UNL A   1      37.904  30.499  37.087  1.00  0.00    -0.269 OA
BRANCH  77  80
ATOM     80  C   UNL A   1      39.252  31.964  35.857  1.00  0.00     0.063 A 
ATOM     81  C   UNL A   1      38.787  33.184  35.343  1.00  0.00     0.016 A 
ATOM     82  C   UNL A   1      40.604  31.791  36.210  1.00  0.00     0.054 A 
ATOM     83  C   UNL A   1      39.656  34.267  35.223  1.00  0.00     0.001 A 
ATOM     84  C   UNL A   1      41.444  32.913  36.124  1.00  0.00     0.027 A 
ATOM     85  C   UNL A   1      40.980  34.135  35.626  1.00  0.00     0.002 A 
BRANCH  82  86
ATOM     86  N   UNL A   1      41.102  30.548  36.637  1.00  0.00    -0.323 N 
ATOM     87  H   UNL A   1      41.355  30.507  37.587  1.00  0.00     0.170 HD
BRANCH  86  88
ATOM     88  C   UNL A   1      41.292  29.369  35.927  1.00  0.00     0.233 A 
ATOM     89  N   UNL A   1      40.875  29.282  34.675  1.00  0.00    -0.182 NA
ATOM     90  N   UNL A   1      41.909  28.386  36.574  1.00  0.00    -0.176 NA
ATOM     91  C   UNL A   1      41.137  28.117  34.107  1.00  0.00     0.228 A 
ATOM     92  C   UNL A   1      42.050  27.234  35.922  1.00  0.00     0.233 A 
ATOM     93  Cl  UNL A   1      40.646  27.949  32.480  1.00  0.00    -0.041 Cl
ATOM     94  N   UNL A   1      41.709  27.063  34.656  1.00  0.00    -0.182 NA
BRANCH  92  95
ATOM     95  N   UNL A   1      42.473  26.154  36.692  1.00  0.00    -0.324 N 
ATOM     96  H   UNL A   1      42.039  26.057  37.570  1.00  0.00     0.170 HD
BRANCH  95  97
ATOM     97  C   UNL A   1      43.433  25.189  36.380  1.00  0.00     0.041 A 
ATOM     98  C   UNL A   1      44.707  25.270  36.954  1.00  0.00     0.028 A 
ATOM     99  C   UNL A   1      43.128  24.072  35.599  1.00  0.00     0.028 A 
ATOM    100  C   UNL A   1      45.644  24.246  36.770  1.00  0.00     0.028 A 
ATOM    101  C   UNL A   1      44.081  23.076  35.365  1.00  0.00     0.028 A 
ATOM    102  C   UNL A   1      45.341  23.141  35.968  1.00  0.00     0.044 A 
BRANCH 102 103
ATOM    103  N   UNL A   1      46.275  22.072  35.817  1.00  0.00    -0.308 N 
ATOM    104  C   UNL A   1      47.329  22.252  34.810  1.00  0.00     0.154 C 
ATOM    105  C   UNL A   1      46.390  21.072  36.792  1.00  0.00     0.253 C 
ATOM    106  C   UNL A   1      48.104  20.976  34.513  1.00  0.00     0.183 C 
ATOM    107  C   UNL A   1      47.523  20.056  36.569  1.00  0.00     0.260 C 
ATOM    108  O   UNL A   1      45.598  20.909  37.724  1.00  0.00    -0.272 OA
ATOM    109  O   UNL A   1      48.603  20.432  35.731  1.00  0.00    -0.370 OA
ENDBRANCH 102 103
ENDBRANCH  95  97
ENDBRANCH  92  95
ENDBRANCH  86  88
ENDBRANCH  82  86
ENDBRANCH  77  80
ENDBRANCH  75  76
ENDBRANCH   1  75
TORSDOF 18
ENDMDL
MODEL 3
REMARK VINA RESULT:      -8.8      5.134     11.184
REMARK SMILES O=C(NCCCCCCNC(=O)c1ccccc1Nc1nc(Cl)nc(Nc2ccc(N3CCOCC3=O)cc2)n1)c1ccc(-c2c3nc(c(-c4c(F)c(F)c(F)c(F)c4F)c4ccc([nH]4)c(-c4c(F)c(F)c(F)c(F)c4F)c4nc(c(-c5c(F)c(F)c(F)c(F)c5F)c5ccc2[nH]5)C=C4)C=C3)cc1
REMARK SMILES IDX 8 1 7 2 6 3 5 4 4 5 3 6 1 7 2 8 41 10 42 11 103 12 43 13
REMARK SMILES IDX 102 14 44 15 45 16 46 17 96 18 47 19 101 20 95 21 97 22
REMARK SMILES IDX 48 23 100 24 94 25 93 26 49 28 81 29 61 30 80 31 62 32 65 33
REMARK SMILES IDX 79 34 98 35 63 36 64 37 78 39 99 40 66 41 50 42 51 43 59 44
REMARK SMILES IDX 52 45 53 46 57 47 60 48 54 49 55 50 58 51 56 52 82 53 83 54
REMARK SMILES IDX 91 55 84 56 85 57 89 58 92 59 86 60 87 61 90 62 88 63 67 64
REMARK SMILES IDX 68 65 76 66 69 67 70 68 74 69 77 70 71 71 72 72 75 73 73 74
REMARK SMILES IDX 9 75 10 76 11 77 12 79 13 80 14 81 18 82 15 83 17 84 16 85
REMARK SMILES IDX 19 86 20 88 21 89 40 90 22 91 25 92 23 93 24 94 26 95 27 97
REMARK SMILES IDX 28 98 39 99 29 100 38 101 30 102 31 103 32 104 36 105 33 106
REMARK SMILES IDX 35 107 37 108 34 109
REMARK H PARENT 3 9 97 27 65 38 10 78 19 87 26 96
REMARK Flexibility Score: inf
ROOT
ATOM      1  C   UNL A   1      40.220  28.898  26.837  1.00  0.00     0.021 C 
ENDROOT
BRANCH   1   2
ATOM      2  C   UNL A   1      40.805  27.483  26.903  1.00  0.00     0.002 C 
BRANCH   2   3
ATOM      3  C   UNL A   1      40.499  26.675  28.166  1.00  0.00     0.002 C 
BRANCH   3   4
ATOM      4  C   UNL A   1      39.828  25.320  27.949  1.00  0.00     0.021 C 
BRANCH   4   5
ATOM      5  C   UNL A   1      39.940  24.751  26.543  1.00  0.00     0.116 C 
BRANCH   5   6
ATOM      6  N   UNL A   1      40.695  23.511  26.475  1.00  0.00    -0.352 N 
ATOM      7  O   UNL A   1      42.530  22.213  26.224  1.00  0.00    -0.269 OA
ATOM      8  C   UNL A   1      42.055  23.336  26.374  1.00  0.00     0.251 C 
ATOM      9  H   UNL A   1      40.160  22.685  26.503  1.00  0.00     0.163 HD
BRANCH   8  10
ATOM     10  C   UNL A   1      42.951  24.514  26.417  1.00  0.00     0.039 A 
ATOM     11  C   UNL A   1      43.200  25.259  25.264  1.00  0.00     0.014 A 
ATOM     12  C   UNL A   1      43.559  24.871  27.626  1.00  0.00     0.014 A 
ATOM     13  C   UNL A   1      44.171  26.252  25.282  1.00  0.00     0.010 A 
ATOM     14  C   UNL A   1      44.465  25.937  27.663  1.00  0.00     0.010 A 
ATOM     15  C   UNL A   1      44.801  26.618  26.484  1.00  0.00    -0.014 A 
BRANCH  15  16
ATOM     16  C   UNL A   1      45.742  27.767  26.471  1.00  0.00     0.031 A 
ATOM     17  C   UNL A   1      45.290  29.163  26.790  1.00  0.00     0.074 A 
ATOM     18  C   UNL A   1      47.044  27.515  26.228  1.00  0.00     0.049 A 
ATOM     19  N   UNL A   1      46.007  30.255  26.896  1.00  0.00    -0.248 NA
ATOM     20  C   UNL A   1      43.851  29.369  27.011  1.00  0.00     0.031 C 
ATOM     21  C   UNL A   1      47.593  26.202  25.880  1.00  0.00     0.029 A 
ATOM     22  N   UNL A   1      48.144  28.332  26.270  1.00  0.00    -0.354 N 
ATOM     23  C   UNL A   1      45.110  31.275  27.188  1.00  0.00     0.074 A 
ATOM     24  C   UNL A   1      43.791  30.679  27.213  1.00  0.00     0.031 C 
ATOM     25  C   UNL A   1      48.928  26.289  25.802  1.00  0.00     0.029 A 
ATOM     26  C   UNL A   1      49.325  27.672  26.033  1.00  0.00     0.049 A 
ATOM     27  H   UNL A   1      48.093  29.299  26.452  1.00  0.00     0.167 HD
ATOM     28  C   UNL A   1      45.370  32.584  27.423  1.00  0.00     0.037 A 
ATOM     29  C   UNL A   1      50.589  28.128  25.999  1.00  0.00     0.037 A 
ATOM     30  C   UNL A   1      46.688  33.170  27.404  1.00  0.00     0.049 A 
ATOM     31  C   UNL A   1      50.844  29.582  26.271  1.00  0.00     0.074 A 
ATOM     32  C   UNL A   1      47.054  34.486  27.636  1.00  0.00     0.029 A 
ATOM     33  N   UNL A   1      47.859  32.474  27.140  1.00  0.00    -0.354 N 
ATOM     34  N   UNL A   1      49.987  30.529  26.566  1.00  0.00    -0.248 NA
ATOM     35  C   UNL A   1      52.240  30.031  26.205  1.00  0.00     0.031 C 
ATOM     36  C   UNL A   1      48.440  34.591  27.478  1.00  0.00     0.029 A 
ATOM     37  C   UNL A   1      48.945  33.334  27.191  1.00  0.00     0.049 A 
ATOM     38  H   UNL A   1      47.911  31.510  26.945  1.00  0.00     0.167 HD
ATOM     39  C   UNL A   1      50.737  31.685  26.720  1.00  0.00     0.074 A 
ATOM     40  C   UNL A   1      52.124  31.310  26.527  1.00  0.00     0.031 C 
ATOM     41  C   UNL A   1      50.316  32.945  26.983  1.00  0.00     0.037 A 
BRANCH  28  42
ATOM     42  C   UNL A   1      44.208  33.488  27.722  1.00  0.00     0.064 A 
ATOM     43  C   UNL A   1      43.617  33.527  28.993  1.00  0.00     0.173 A 
ATOM     44  C   UNL A   1      43.726  34.377  26.748  1.00  0.00     0.173 A 
ATOM     45  F   UNL A   1      44.034  32.692  29.958  1.00  0.00    -0.203 F 
ATOM     46  C   UNL A   1      42.580  34.415  29.276  1.00  0.00     0.198 A 
ATOM     47  C   UNL A   1      42.706  35.279  27.041  1.00  0.00     0.198 A 
ATOM     48  F   UNL A   1      44.261  34.386  25.518  1.00  0.00    -0.203 F 
ATOM     49  F   UNL A   1      42.016  34.417  30.492  1.00  0.00    -0.200 F 
ATOM     50  C   UNL A   1      42.133  35.296  28.304  1.00  0.00     0.200 A 
ATOM     51  F   UNL A   1      42.286  36.140  26.104  1.00  0.00    -0.200 F 
ATOM     52  F   UNL A   1      41.149  36.162  28.583  1.00  0.00    -0.200 F 
ENDBRANCH  28  42
BRANCH  29  53
ATOM     53  C   UNL A   1      51.702  27.196  25.684  1.00  0.00     0.064 A 
ATOM     54  C   UNL A   1      52.424  26.557  26.702  1.00  0.00     0.173 A 
ATOM     55  C   UNL A   1      52.060  26.919  24.356  1.00  0.00     0.173 A 
ATOM     56  F   UNL A   1      52.131  26.803  27.987  1.00  0.00    -0.203 F 
ATOM     57  C   UNL A   1      53.473  25.692  26.402  1.00  0.00     0.198 A 
ATOM     58  C   UNL A   1      53.087  26.028  24.057  1.00  0.00     0.198 A 
ATOM     59  F   UNL A   1      51.394  27.499  23.347  1.00  0.00    -0.203 F 
ATOM     60  F   UNL A   1      54.178  25.129  27.394  1.00  0.00    -0.200 F 
ATOM     61  C   UNL A   1      53.800  25.422  25.080  1.00  0.00     0.200 A 
ATOM     62  F   UNL A   1      53.385  25.756  22.781  1.00  0.00    -0.200 F 
ATOM     63  F   UNL A   1      54.805  24.583  24.795  1.00  0.00    -0.200 F 
ENDBRANCH  29  53
BRANCH  41  64
ATOM     64  C   UNL A   1      51.376  34.002  27.077  1.00  0.00     0.064 A 
ATOM     65  C   UNL A   1      51.762  34.752  25.954  1.00  0.00     0.173 A 
ATOM     66  C   UNL A   1      52.016  34.266  28.297  1.00  0.00     0.173 A 
ATOM     67  F   UNL A   1      51.192  34.522  24.762  1.00  0.00    -0.203 F 
ATOM     68  C   UNL A   1      52.775  35.701  26.043  1.00  0.00     0.198 A 
ATOM     69  C   UNL A   1      53.008  35.237  28.388  1.00  0.00     0.198 A 
ATOM     70  F   UNL A   1      51.680  33.580  29.399  1.00  0.00    -0.203 F 
ATOM     71  F   UNL A   1      53.168  36.363  24.945  1.00  0.00    -0.200 F 
ATOM     72  C   UNL A   1      53.394  35.946  27.260  1.00  0.00     0.200 A 
ATOM     73  F   UNL A   1      53.600  35.480  29.565  1.00  0.00    -0.200 F 
ATOM     74  F   UNL A   1      54.374  36.857  27.342  1.00  0.00    -0.200 F 
ENDBRANCH  41  64
ENDBRANCH  15  16
ENDBRANCH   8  10
ENDBRANCH   5   6
ENDBRANCH   4   5
ENDBRANCH   3   4
ENDBRANCH   2   3
ENDBRANCH   1   2
BRANCH   1  75
ATOM     75  C   UNL A   1      39.859  29.536  28.176  1.00  0.00     0.116 C 
BRANCH  75  76
ATOM     76  N   UNL A   1      38.496  29.245  28.588  1.00  0.00    -0.352 N 
ATOM     77  C   UNL A   1      37.699  29.927  29.470  1.00  0.00     0.253 C 
ATOM     78  H   UNL A   1      38.090  28.449  28.174  1.00  0.00     0.163 HD
ATOM     79  O   UNL A   1      36.569  29.518  29.725  1.00  0.00    -0.269 OA
BRANCH  77  80
ATOM     80  C   UNL A   1      38.200  31.142  30.147  1.00  0.00     0.063 A 
ATOM     81  C   UNL A   1      38.888  30.946  31.354  1.00  0.00     0.016 A 
ATOM     82  C   UNL A   1      37.980  32.436  29.637  1.00  0.00     0.054 A 
ATOM     83  C   UNL A   1      39.412  32.036  32.043  1.00  0.00     0.001 A 
ATOM     84  C   UNL A   1      38.563  33.511  30.327  1.00  0.00     0.027 A 
ATOM     85  C   UNL A   1      39.261  33.317  31.523  1.00  0.00     0.002 A 
BRANCH  82  86
ATOM     86  N   UNL A   1      37.214  32.651  28.478  1.00  0.00    -0.323 N 
ATOM     87  H   UNL A   1      37.721  32.636  27.636  1.00  0.00     0.170 HD
BRANCH  86  88
ATOM     88  C   UNL A   1      35.850  32.884  28.339  1.00  0.00     0.233 A 
ATOM     89  N   UNL A   1      35.362  34.090  28.572  1.00  0.00    -0.182 NA
ATOM     90  N   UNL A   1      35.113  31.845  27.958  1.00  0.00    -0.176 NA
ATOM     91  C   UNL A   1      34.058  34.182  28.382  1.00  0.00     0.228 A 
ATOM     92  C   UNL A   1      33.800  32.042  27.872  1.00  0.00     0.233 A 
ATOM     93  Cl  UNL A   1      33.368  35.722  28.643  1.00  0.00    -0.041 Cl
ATOM     94  N   UNL A   1      33.223  33.220  28.040  1.00  0.00    -0.182 NA
BRANCH  92  95
ATOM     95  N   UNL A   1      33.028  30.893  27.713  1.00  0.00    -0.324 N 
ATOM     96  H   UNL A   1      32.403  30.692  28.446  1.00  0.00     0.170 HD
BRANCH  95  97
ATOM     97  C   UNL A   1      33.028  29.988  26.649  1.00  0.00     0.041 A 
ATOM     98  C   UNL A   1      33.887  28.884  26.679  1.00  0.00     0.028 A 
ATOM     99  C   UNL A   1      32.109  30.085  25.601  1.00  0.00     0.028 A 
ATOM    100  C   UNL A   1      33.812  27.889  25.697  1.00  0.00     0.028 A 
ATOM    101  C   UNL A   1      32.071  29.124  24.588  1.00  0.00     0.028 A 
ATOM    102  C   UNL A   1      32.906  28.003  24.637  1.00  0.00     0.044 A 
BRANCH 102 103
ATOM    103  N   UNL A   1      32.793  26.968  23.662  1.00  0.00    -0.308 N 
ATOM    104  C   UNL A   1      33.513  27.170  22.397  1.00  0.00     0.154 C 
ATOM    105  C   UNL A   1      32.315  25.698  24.010  1.00  0.00     0.253 C 
ATOM    106  C   UNL A   1      33.122  26.173  21.315  1.00  0.00     0.183 C 
ATOM    107  C   UNL A   1      32.367  24.641  22.894  1.00  0.00     0.260 C 
ATOM    108  O   UNL A   1      31.780  25.422  25.086  1.00  0.00    -0.272 OA
ATOM    109  O   UNL A   1      33.267  24.848  21.817  1.00  0.00    -0.370 OA
ENDBRANCH 102 103
ENDBRANCH  95  97
ENDBRANCH  92  95
ENDBRANCH  86  88
ENDBRANCH  82  86
ENDBRANCH  77  80
ENDBRANCH  75  76
ENDBRANCH   1  75
TORSDOF 18
ENDMDL
