MODEL 1
REMARK VINA RESULT:     -11.7      0.000      0.000
REMARK SMILES O=C(NCCCCCCNC(=O)[C@H]1C[C@H]1c1ccc(C2CC2)cc1)c1ccc(-c2c3nc(c(-c4c(F)c(F)c(F)c(F)c4F)c4ccc([nH]4)c(-c4c(F)c(F)c(F)c(F)c4F)c4nc(c(-c5c(F)c(F)c(F)c(F)c5F)c5ccc2[nH]5)C=C4)C=C3)cc1
REMARK SMILES IDX 6 1 5 2 4 3 3 4 1 5 2 6 25 8 26 9 87 10 27 11 86 12 28 13
REMARK SMILES IDX 29 14 30 15 80 16 31 17 85 18 79 19 81 20 32 21 84 22 78 23
REMARK SMILES IDX 77 24 33 26 65 27 45 28 64 29 46 30 49 31 63 32 82 33 47 34
REMARK SMILES IDX 48 35 62 37 83 38 50 39 34 40 35 41 43 42 36 43 37 44 41 45
REMARK SMILES IDX 44 46 38 47 39 48 42 49 40 50 66 51 67 52 75 53 68 54 69 55
REMARK SMILES IDX 73 56 76 57 70 58 71 59 74 60 72 61 51 62 52 63 60 64 53 65
REMARK SMILES IDX 54 66 58 67 61 68 55 69 56 70 59 71 57 72 7 73 8 74 9 75
REMARK SMILES IDX 10 76 11 77 12 79 13 80 14 81 15 82 16 83 17 84 24 85 18 86
REMARK SMILES IDX 23 87 19 88 20 89 21 90 22 91
REMARK H PARENT 3 7 81 25 49 36 10 78
REMARK Flexibility Score: inf
ROOT
ATOM      1  C   UNL A   1      31.409  30.475  25.606  1.00  0.00     0.002 C 
ENDROOT
BRANCH   1   2
ATOM      2  C   UNL A   1      31.272  31.706  26.505  1.00  0.00     0.021 C 
BRANCH   2   3
ATOM      3  C   UNL A   1      32.592  32.311  26.960  1.00  0.00     0.116 C 
BRANCH   3   4
ATOM      4  N   UNL A   1      32.447  33.686  27.409  1.00  0.00    -0.352 N 
ATOM      5  O   UNL A   1      32.775  35.468  28.756  1.00  0.00    -0.269 OA
ATOM      6  C   UNL A   1      33.144  34.358  28.383  1.00  0.00     0.251 C 
ATOM      7  H   UNL A   1      31.750  34.209  26.950  1.00  0.00     0.163 HD
BRANCH   6   8
ATOM      8  C   UNL A   1      34.335  33.734  28.999  1.00  0.00     0.039 A 
ATOM      9  C   UNL A   1      34.203  32.626  29.841  1.00  0.00     0.014 A 
ATOM     10  C   UNL A   1      35.601  34.255  28.719  1.00  0.00     0.014 A 
ATOM     11  C   UNL A   1      35.319  32.126  30.504  1.00  0.00     0.010 A 
ATOM     12  C   UNL A   1      36.732  33.698  29.322  1.00  0.00     0.010 A 
ATOM     13  C   UNL A   1      36.597  32.645  30.241  1.00  0.00    -0.014 A 
BRANCH  13  14
ATOM     14  C   UNL A   1      37.779  32.024  30.891  1.00  0.00     0.031 A 
ATOM     15  C   UNL A   1      38.185  32.393  32.289  1.00  0.00     0.074 A 
ATOM     16  C   UNL A   1      38.471  31.092  30.208  1.00  0.00     0.049 A 
ATOM     17  N   UNL A   1      39.171  31.923  33.012  1.00  0.00    -0.248 NA
ATOM     18  C   UNL A   1      37.388  33.428  32.964  1.00  0.00     0.031 C 
ATOM     19  C   UNL A   1      38.178  30.665  28.839  1.00  0.00     0.029 A 
ATOM     20  N   UNL A   1      39.545  30.323  30.574  1.00  0.00    -0.354 N 
ATOM     21  C   UNL A   1      39.124  32.614  34.216  1.00  0.00     0.074 A 
ATOM     22  C   UNL A   1      38.028  33.555  34.119  1.00  0.00     0.031 C 
ATOM     23  C   UNL A   1      39.020  29.680  28.495  1.00  0.00     0.029 A 
ATOM     24  C   UNL A   1      39.946  29.445  29.597  1.00  0.00     0.049 A 
ATOM     25  H   UNL A   1      39.987  30.394  31.450  1.00  0.00     0.167 HD
ATOM     26  C   UNL A   1      39.920  32.466  35.304  1.00  0.00     0.037 A 
ATOM     27  C   UNL A   1      40.957  28.556  29.583  1.00  0.00     0.037 A 
ATOM     28  C   UNL A   1      41.000  31.518  35.398  1.00  0.00     0.049 A 
ATOM     29  C   UNL A   1      41.831  28.428  30.797  1.00  0.00     0.074 A 
ATOM     30  C   UNL A   1      41.840  31.268  36.471  1.00  0.00     0.029 A 
ATOM     31  N   UNL A   1      41.395  30.664  34.378  1.00  0.00    -0.354 N 
ATOM     32  N   UNL A   1      41.752  29.060  31.943  1.00  0.00    -0.248 NA
ATOM     33  C   UNL A   1      42.937  27.466  30.714  1.00  0.00     0.031 C 
ATOM     34  C   UNL A   1      42.770  30.295  36.085  1.00  0.00     0.029 A 
ATOM     35  C   UNL A   1      42.480  29.903  34.789  1.00  0.00     0.049 A 
ATOM     36  H   UNL A   1      40.968  30.607  33.493  1.00  0.00     0.167 HD
ATOM     37  C   UNL A   1      42.786  28.562  32.723  1.00  0.00     0.074 A 
ATOM     38  C   UNL A   1      43.463  27.560  31.927  1.00  0.00     0.031 C 
ATOM     39  C   UNL A   1      43.142  28.909  33.983  1.00  0.00     0.037 A 
BRANCH  26  40
ATOM     40  C   UNL A   1      39.665  33.363  36.481  1.00  0.00     0.064 A 
ATOM     41  C   UNL A   1      40.295  34.609  36.609  1.00  0.00     0.173 A 
ATOM     42  C   UNL A   1      38.739  32.993  37.469  1.00  0.00     0.173 A 
ATOM     43  F   UNL A   1      41.195  35.008  35.698  1.00  0.00    -0.203 F 
ATOM     44  C   UNL A   1      40.025  35.442  37.693  1.00  0.00     0.198 A 
ATOM     45  C   UNL A   1      38.451  33.838  38.538  1.00  0.00     0.198 A 
ATOM     46  F   UNL A   1      38.102  31.814  37.392  1.00  0.00    -0.203 F 
ATOM     47  F   UNL A   1      40.669  36.611  37.815  1.00  0.00    -0.200 F 
ATOM     48  C   UNL A   1      39.099  35.059  38.652  1.00  0.00     0.200 A 
ATOM     49  F   UNL A   1      37.547  33.473  39.456  1.00  0.00    -0.200 F 
ATOM     50  F   UNL A   1      38.834  35.866  39.690  1.00  0.00    -0.200 F 
ENDBRANCH  26  40
BRANCH  27  51
ATOM     51  C   UNL A   1      41.185  27.720  28.378  1.00  0.00     0.064 A 
ATOM     52  C   UNL A   1      40.501  26.510  28.201  1.00  0.00     0.173 A 
ATOM     53  C   UNL A   1      42.075  28.122  27.371  1.00  0.00     0.173 A 
ATOM     54  F   UNL A   1      39.653  26.075  29.145  1.00  0.00    -0.203 F 
ATOM     55  C   UNL A   1      40.708  25.727  27.067  1.00  0.00     0.198 A 
ATOM     56  C   UNL A   1      42.259  27.353  26.225  1.00  0.00     0.198 A 
ATOM     57  F   UNL A   1      42.748  29.275  27.492  1.00  0.00    -0.203 F 
ATOM     58  F   UNL A   1      40.071  24.556  26.939  1.00  0.00    -0.200 F 
ATOM     59  C   UNL A   1      41.582  26.153  26.077  1.00  0.00     0.200 A 
ATOM     60  F   UNL A   1      43.091  27.777  25.264  1.00  0.00    -0.200 F 
ATOM     61  F   UNL A   1      41.773  25.403  24.983  1.00  0.00    -0.200 F 
ENDBRANCH  27  51
BRANCH  39  62
ATOM     62  C   UNL A   1      44.306  28.176  34.585  1.00  0.00     0.064 A 
ATOM     63  C   UNL A   1      44.135  26.966  35.272  1.00  0.00     0.173 A 
ATOM     64  C   UNL A   1      45.607  28.683  34.455  1.00  0.00     0.173 A 
ATOM     65  F   UNL A   1      42.907  26.451  35.438  1.00  0.00    -0.203 F 
ATOM     66  C   UNL A   1      45.223  26.304  35.834  1.00  0.00     0.198 A 
ATOM     67  C   UNL A   1      46.696  28.003  34.993  1.00  0.00     0.198 A 
ATOM     68  F   UNL A   1      45.823  29.835  33.802  1.00  0.00    -0.203 F 
ATOM     69  F   UNL A   1      45.031  25.176  36.532  1.00  0.00    -0.200 F 
ATOM     70  C   UNL A   1      46.503  26.820  35.689  1.00  0.00     0.200 A 
ATOM     71  F   UNL A   1      47.933  28.497  34.844  1.00  0.00    -0.200 F 
ATOM     72  F   UNL A   1      47.549  26.180  36.230  1.00  0.00    -0.200 F 
ENDBRANCH  39  62
ENDBRANCH  13  14
ENDBRANCH   6   8
ENDBRANCH   3   4
ENDBRANCH   2   3
ENDBRANCH   1   2
BRANCH   1  73
ATOM     73  C   UNL A   1      31.803  29.176  26.321  1.00  0.00     0.002 C 
BRANCH  73  74
ATOM     74  C   UNL A   1      33.235  28.682  26.067  1.00  0.00     0.021 C 
BRANCH  74  75
ATOM     75  C   UNL A   1      33.359  27.169  25.906  1.00  0.00     0.116 C 
BRANCH  75  76
ATOM     76  N   UNL A   1      32.180  26.479  26.372  1.00  0.00    -0.356 N 
ATOM     77  C   UNL A   1      31.448  25.441  25.875  1.00  0.00     0.223 C 
ATOM     78  H   UNL A   1      31.833  26.828  27.224  1.00  0.00     0.163 HD
ATOM     79  O   UNL A   1      30.545  25.003  26.587  1.00  0.00    -0.275 OA
BRANCH  77  80
ATOM     80  C   UNL A   1      31.627  24.816  24.543  1.00  0.00     0.086 C 
ATOM     81  C   UNL A   1      30.636  24.303  23.547  1.00  0.00     0.023 C 
ATOM     82  C   UNL A   1      31.385  25.584  23.256  1.00  0.00     0.032 C 
BRANCH  82  83
ATOM     83  C   UNL A   1      30.669  26.914  23.194  1.00  0.00    -0.044 A 
ATOM     84  C   UNL A   1      29.321  27.046  23.558  1.00  0.00     0.004 A 
ATOM     85  C   UNL A   1      31.292  28.056  22.675  1.00  0.00     0.004 A 
ATOM     86  C   UNL A   1      28.630  28.253  23.387  1.00  0.00     0.004 A 
ATOM     87  C   UNL A   1      30.599  29.264  22.503  1.00  0.00     0.004 A 
ATOM     88  C   UNL A   1      29.242  29.389  22.834  1.00  0.00    -0.045 A 
BRANCH  88  89
ATOM     89  C   UNL A   1      28.418  30.640  22.585  1.00  0.00     0.019 C 
ATOM     90  C   UNL A   1      27.432  31.217  23.569  1.00  0.00     0.009 C 
ATOM     91  C   UNL A   1      28.760  31.886  23.375  1.00  0.00     0.009 C 
ENDBRANCH  88  89
ENDBRANCH  82  83
ENDBRANCH  77  80
ENDBRANCH  75  76
ENDBRANCH  74  75
ENDBRANCH  73  74
ENDBRANCH   1  73
TORSDOF 15
ENDMDL
MODEL 2
REMARK VINA RESULT:     -11.7      0.230      1.707
REMARK SMILES O=C(NCCCCCCNC(=O)[C@H]1C[C@H]1c1ccc(C2CC2)cc1)c1ccc(-c2c3nc(c(-c4c(F)c(F)c(F)c(F)c4F)c4ccc([nH]4)c(-c4c(F)c(F)c(F)c(F)c4F)c4nc(c(-c5c(F)c(F)c(F)c(F)c5F)c5ccc2[nH]5)C=C4)C=C3)cc1
REMARK SMILES IDX 6 1 5 2 4 3 3 4 1 5 2 6 25 8 26 9 87 10 27 11 86 12 28 13
REMARK SMILES IDX 29 14 30 15 80 16 31 17 85 18 79 19 81 20 32 21 84 22 78 23
REMARK SMILES IDX 77 24 33 26 65 27 45 28 64 29 46 30 49 31 63 32 82 33 47 34
REMARK SMILES IDX 48 35 62 37 83 38 50 39 34 40 35 41 43 42 36 43 37 44 41 45
REMARK SMILES IDX 44 46 38 47 39 48 42 49 40 50 66 51 67 52 75 53 68 54 69 55
REMARK SMILES IDX 73 56 76 57 70 58 71 59 74 60 72 61 51 62 52 63 60 64 53 65
REMARK SMILES IDX 54 66 58 67 61 68 55 69 56 70 59 71 57 72 7 73 8 74 9 75
REMARK SMILES IDX 10 76 11 77 12 79 13 80 14 81 15 82 16 83 17 84 24 85 18 86
REMARK SMILES IDX 23 87 19 88 20 89 21 90 22 91
REMARK H PARENT 3 7 81 25 49 36 10 78
REMARK Flexibility Score: inf
ROOT
ATOM      1  C   UNL A   1      31.398  30.621  25.668  1.00  0.00     0.002 C 
ENDROOT
BRANCH   1   2
ATOM      2  C   UNL A   1      31.224  31.889  26.508  1.00  0.00     0.021 C 
BRANCH   2   3
ATOM      3  C   UNL A   1      32.517  32.461  27.070  1.00  0.00     0.116 C 
BRANCH   3   4
ATOM      4  N   UNL A   1      32.383  33.854  27.463  1.00  0.00    -0.352 N 
ATOM      5  O   UNL A   1      32.708  35.682  28.747  1.00  0.00    -0.269 OA
ATOM      6  C   UNL A   1      33.069  34.554  28.425  1.00  0.00     0.251 C 
ATOM      7  H   UNL A   1      31.703  34.369  26.969  1.00  0.00     0.163 HD
BRANCH   6   8
ATOM      8  C   UNL A   1      34.236  33.938  29.091  1.00  0.00     0.039 A 
ATOM      9  C   UNL A   1      35.536  34.320  28.748  1.00  0.00     0.014 A 
ATOM     10  C   UNL A   1      34.027  32.977  30.084  1.00  0.00     0.014 A 
ATOM     11  C   UNL A   1      36.622  33.648  29.299  1.00  0.00     0.010 A 
ATOM     12  C   UNL A   1      35.121  32.360  30.697  1.00  0.00     0.010 A 
ATOM     13  C   UNL A   1      36.428  32.671  30.291  1.00  0.00    -0.014 A 
BRANCH  13  14
ATOM     14  C   UNL A   1      37.611  32.042  30.929  1.00  0.00     0.031 A 
ATOM     15  C   UNL A   1      38.033  32.409  32.323  1.00  0.00     0.074 A 
ATOM     16  C   UNL A   1      38.291  31.104  30.241  1.00  0.00     0.049 A 
ATOM     17  N   UNL A   1      39.022  31.932  33.038  1.00  0.00    -0.248 NA
ATOM     18  C   UNL A   1      37.250  33.450  33.005  1.00  0.00     0.031 C 
ATOM     19  C   UNL A   1      37.982  30.679  28.875  1.00  0.00     0.029 A 
ATOM     20  N   UNL A   1      39.362  30.328  30.597  1.00  0.00    -0.354 N 
ATOM     21  C   UNL A   1      38.991  32.624  34.242  1.00  0.00     0.074 A 
ATOM     22  C   UNL A   1      37.901  33.573  34.154  1.00  0.00     0.031 C 
ATOM     23  C   UNL A   1      38.813  29.687  28.524  1.00  0.00     0.029 A 
ATOM     24  C   UNL A   1      39.748  29.446  29.618  1.00  0.00     0.049 A 
ATOM     25  H   UNL A   1      39.813  30.396  31.469  1.00  0.00     0.167 HD
ATOM     26  C   UNL A   1      39.796  32.472  35.322  1.00  0.00     0.037 A 
ATOM     27  C   UNL A   1      40.752  28.551  29.595  1.00  0.00     0.037 A 
ATOM     28  C   UNL A   1      40.871  31.515  35.407  1.00  0.00     0.049 A 
ATOM     29  C   UNL A   1      41.636  28.417  30.800  1.00  0.00     0.074 A 
ATOM     30  C   UNL A   1      41.718  31.260  36.473  1.00  0.00     0.029 A 
ATOM     31  N   UNL A   1      41.250  30.658  34.384  1.00  0.00    -0.354 N 
ATOM     32  N   UNL A   1      41.573  29.051  31.946  1.00  0.00    -0.248 NA
ATOM     33  C   UNL A   1      42.734  27.447  30.708  1.00  0.00     0.031 C 
ATOM     34  C   UNL A   1      42.637  30.281  36.078  1.00  0.00     0.029 A 
ATOM     35  C   UNL A   1      42.333  29.890  34.785  1.00  0.00     0.049 A 
ATOM     36  H   UNL A   1      40.814  30.604  33.503  1.00  0.00     0.167 HD
ATOM     37  C   UNL A   1      42.610  28.546  32.717  1.00  0.00     0.074 A 
ATOM     38  C   UNL A   1      43.272  27.538  31.916  1.00  0.00     0.031 C 
ATOM     39  C   UNL A   1      42.980  28.890  33.974  1.00  0.00     0.037 A 
BRANCH  26  40
ATOM     40  C   UNL A   1      39.558  33.371  36.501  1.00  0.00     0.064 A 
ATOM     41  C   UNL A   1      38.728  32.989  37.565  1.00  0.00     0.173 A 
ATOM     42  C   UNL A   1      40.209  34.611  36.592  1.00  0.00     0.173 A 
ATOM     43  F   UNL A   1      38.074  31.818  37.524  1.00  0.00    -0.203 F 
ATOM     44  C   UNL A   1      38.541  33.823  38.665  1.00  0.00     0.198 A 
ATOM     45  C   UNL A   1      40.042  35.432  37.704  1.00  0.00     0.198 A 
ATOM     46  F   UNL A   1      41.020  35.023  35.605  1.00  0.00    -0.203 F 
ATOM     47  F   UNL A   1      37.712  33.454  39.651  1.00  0.00    -0.200 F 
ATOM     48  C   UNL A   1      39.203  35.040  38.737  1.00  0.00     0.200 A 
ATOM     49  F   UNL A   1      40.692  36.601  37.779  1.00  0.00    -0.200 F 
ATOM     50  F   UNL A   1      39.029  35.837  39.800  1.00  0.00    -0.200 F 
ENDBRANCH  26  40
BRANCH  27  51
ATOM     51  C   UNL A   1      40.963  27.712  28.388  1.00  0.00     0.064 A 
ATOM     52  C   UNL A   1      40.317  26.476  28.248  1.00  0.00     0.173 A 
ATOM     53  C   UNL A   1      41.797  28.137  27.344  1.00  0.00     0.173 A 
ATOM     54  F   UNL A   1      39.524  26.020  29.228  1.00  0.00    -0.203 F 
ATOM     55  C   UNL A   1      40.508  25.691  27.113  1.00  0.00     0.198 A 
ATOM     56  C   UNL A   1      41.964  27.365  26.197  1.00  0.00     0.198 A 
ATOM     57  F   UNL A   1      42.432  29.315  27.429  1.00  0.00    -0.203 F 
ATOM     58  F   UNL A   1      39.910  24.496  27.020  1.00  0.00    -0.200 F 
ATOM     59  C   UNL A   1      41.326  26.139  26.086  1.00  0.00     0.200 A 
ATOM     60  F   UNL A   1      42.741  27.809  25.201  1.00  0.00    -0.200 F 
ATOM     61  F   UNL A   1      41.502  25.387  24.991  1.00  0.00    -0.200 F 
ENDBRANCH  27  51
BRANCH  39  62
ATOM     62  C   UNL A   1      44.144  28.150  34.565  1.00  0.00     0.064 A 
ATOM     63  C   UNL A   1      45.454  28.637  34.461  1.00  0.00     0.173 A 
ATOM     64  C   UNL A   1      43.941  26.948  35.260  1.00  0.00     0.173 A 
ATOM     65  F   UNL A   1      45.701  29.773  33.791  1.00  0.00    -0.203 F 
ATOM     66  C   UNL A   1      46.524  27.933  35.006  1.00  0.00     0.198 A 
ATOM     67  C   UNL A   1      45.010  26.261  35.827  1.00  0.00     0.198 A 
ATOM     68  F   UNL A   1      42.706  26.442  35.391  1.00  0.00    -0.203 F 
ATOM     69  F   UNL A   1      47.775  28.390  34.850  1.00  0.00    -0.200 F 
ATOM     70  C   UNL A   1      46.301  26.749  35.693  1.00  0.00     0.200 A 
ATOM     71  F   UNL A   1      44.792  25.122  36.500  1.00  0.00    -0.200 F 
ATOM     72  F   UNL A   1      47.332  26.073  36.218  1.00  0.00    -0.200 F 
ENDBRANCH  39  62
ENDBRANCH  13  14
ENDBRANCH   6   8
ENDBRANCH   3   4
ENDBRANCH   2   3
ENDBRANCH   1   2
BRANCH   1  73
ATOM     73  C   UNL A   1      32.095  29.451  26.375  1.00  0.00     0.002 C 
BRANCH  73  74
ATOM     74  C   UNL A   1      33.183  28.734  25.562  1.00  0.00     0.021 C 
BRANCH  74  75
ATOM     75  C   UNL A   1      33.386  27.269  25.940  1.00  0.00     0.116 C 
BRANCH  75  76
ATOM     76  N   UNL A   1      32.155  26.644  26.359  1.00  0.00    -0.356 N 
ATOM     77  C   UNL A   1      31.393  25.640  25.840  1.00  0.00     0.223 C 
ATOM     78  H   UNL A   1      31.790  27.020  27.193  1.00  0.00     0.163 HD
ATOM     79  O   UNL A   1      30.439  25.255  26.516  1.00  0.00    -0.275 OA
BRANCH  77  80
ATOM     80  C   UNL A   1      31.597  24.992  24.522  1.00  0.00     0.086 C 
ATOM     81  C   UNL A   1      30.628  24.419  23.539  1.00  0.00     0.023 C 
ATOM     82  C   UNL A   1      31.326  25.721  23.219  1.00  0.00     0.032 C 
BRANCH  82  83
ATOM     83  C   UNL A   1      30.559  27.021  23.127  1.00  0.00    -0.044 A 
ATOM     84  C   UNL A   1      29.210  27.111  23.501  1.00  0.00     0.004 A 
ATOM     85  C   UNL A   1      31.133  28.171  22.569  1.00  0.00     0.004 A 
ATOM     86  C   UNL A   1      28.471  28.285  23.303  1.00  0.00     0.004 A 
ATOM     87  C   UNL A   1      30.391  29.345  22.371  1.00  0.00     0.004 A 
ATOM     88  C   UNL A   1      29.034  29.428  22.712  1.00  0.00    -0.045 A 
BRANCH  88  89
ATOM     89  C   UNL A   1      28.160  30.638  22.437  1.00  0.00     0.019 C 
ATOM     90  C   UNL A   1      27.653  31.579  23.500  1.00  0.00     0.009 C 
ATOM     91  C   UNL A   1      28.775  32.012  22.604  1.00  0.00     0.009 C 
ENDBRANCH  88  89
ENDBRANCH  82  83
ENDBRANCH  77  80
ENDBRANCH  75  76
ENDBRANCH  74  75
ENDBRANCH  73  74
ENDBRANCH   1  73
TORSDOF 15
ENDMDL
MODEL 3
REMARK VINA RESULT:     -11.6      5.616     11.126
REMARK SMILES O=C(NCCCCCCNC(=O)[C@H]1C[C@H]1c1ccc(C2CC2)cc1)c1ccc(-c2c3nc(c(-c4c(F)c(F)c(F)c(F)c4F)c4ccc([nH]4)c(-c4c(F)c(F)c(F)c(F)c4F)c4nc(c(-c5c(F)c(F)c(F)c(F)c5F)c5ccc2[nH]5)C=C4)C=C3)cc1
REMARK SMILES IDX 6 1 5 2 4 3 3 4 1 5 2 6 25 8 26 9 87 10 27 11 86 12 28 13
REMARK SMILES IDX 29 14 30 15 80 16 31 17 85 18 79 19 81 20 32 21 84 22 78 23
REMARK SMILES IDX 77 24 33 26 65 27 45 28 64 29 46 30 49 31 63 32 82 33 47 34
REMARK SMILES IDX 48 35 62 37 83 38 50 39 34 40 35 41 43 42 36 43 37 44 41 45
REMARK SMILES IDX 44 46 38 47 39 48 42 49 40 50 66 51 67 52 75 53 68 54 69 55
REMARK SMILES IDX 73 56 76 57 70 58 71 59 74 60 72 61 51 62 52 63 60 64 53 65
REMARK SMILES IDX 54 66 58 67 61 68 55 69 56 70 59 71 57 72 7 73 8 74 9 75
REMARK SMILES IDX 10 76 11 77 12 79 13 80 14 81 15 82 16 83 17 84 24 85 18 86
REMARK SMILES IDX 23 87 19 88 20 89 21 90 22 91
REMARK H PARENT 3 7 81 25 49 36 10 78
REMARK Flexibility Score: inf
ROOT
ATOM      1  C   UNL A   1      36.548  20.229  25.017  1.00  0.00     0.002 C 
ENDROOT
BRANCH   1   2
ATOM      2  C   UNL A   1      37.999  19.852  24.711  1.00  0.00     0.021 C 
BRANCH   2   3
ATOM      3  C   UNL A   1      38.993  20.205  25.809  1.00  0.00     0.116 C 
BRANCH   3   4
ATOM      4  N   UNL A   1      40.081  19.246  25.902  1.00  0.00    -0.352 N 
ATOM      5  O   UNL A   1      42.229  18.556  25.977  1.00  0.00    -0.269 OA
ATOM      6  C   UNL A   1      41.422  19.472  26.098  1.00  0.00     0.251 C 
ATOM      7  H   UNL A   1      39.820  18.301  25.813  1.00  0.00     0.163 HD
BRANCH   6   8
ATOM      8  C   UNL A   1      41.898  20.831  26.435  1.00  0.00     0.039 A 
ATOM      9  C   UNL A   1      42.151  21.189  27.762  1.00  0.00     0.014 A 
ATOM     10  C   UNL A   1      42.109  21.756  25.408  1.00  0.00     0.014 A 
ATOM     11  C   UNL A   1      42.484  22.503  28.072  1.00  0.00     0.010 A 
ATOM     12  C   UNL A   1      42.524  23.054  25.715  1.00  0.00     0.010 A 
ATOM     13  C   UNL A   1      42.689  23.447  27.052  1.00  0.00    -0.014 A 
BRANCH  13  14
ATOM     14  C   UNL A   1      43.140  24.815  27.411  1.00  0.00     0.031 A 
ATOM     15  C   UNL A   1      44.544  25.271  27.136  1.00  0.00     0.074 A 
ATOM     16  C   UNL A   1      42.249  25.660  27.966  1.00  0.00     0.049 A 
ATOM     17  N   UNL A   1      45.089  26.442  27.358  1.00  0.00    -0.248 NA
ATOM     18  C   UNL A   1      45.460  24.288  26.540  1.00  0.00     0.031 C 
ATOM     19  C   UNL A   1      40.863  25.321  28.294  1.00  0.00     0.029 A 
ATOM     20  N   UNL A   1      42.367  26.975  28.335  1.00  0.00    -0.354 N 
ATOM     21  C   UNL A   1      46.411  26.332  26.947  1.00  0.00     0.074 A 
ATOM     22  C   UNL A   1      46.596  24.972  26.485  1.00  0.00     0.031 C 
ATOM     23  C   UNL A   1      40.245  26.411  28.770  1.00  0.00     0.029 A 
ATOM     24  C   UNL A   1      41.204  27.508  28.835  1.00  0.00     0.049 A 
ATOM     25  H   UNL A   1      43.202  27.487  28.250  1.00  0.00     0.167 HD
ATOM     26  C   UNL A   1      47.377  27.283  26.950  1.00  0.00     0.037 A 
ATOM     27  C   UNL A   1      40.941  28.740  29.308  1.00  0.00     0.037 A 
ATOM     28  C   UNL A   1      47.181  28.638  27.399  1.00  0.00     0.049 A 
ATOM     29  C   UNL A   1      42.036  29.767  29.313  1.00  0.00     0.074 A 
ATOM     30  C   UNL A   1      48.088  29.686  27.406  1.00  0.00     0.029 A 
ATOM     31  N   UNL A   1      45.997  29.134  27.926  1.00  0.00    -0.354 N 
ATOM     32  N   UNL A   1      43.271  29.661  28.886  1.00  0.00    -0.248 NA
ATOM     33  C   UNL A   1      41.701  31.084  29.868  1.00  0.00     0.031 C 
ATOM     34  C   UNL A   1      47.465  30.802  27.978  1.00  0.00     0.029 A 
ATOM     35  C   UNL A   1      46.157  30.466  28.282  1.00  0.00     0.049 A 
ATOM     36  H   UNL A   1      45.166  28.617  28.031  1.00  0.00     0.167 HD
ATOM     37  C   UNL A   1      43.857  30.899  29.106  1.00  0.00     0.074 A 
ATOM     38  C   UNL A   1      42.834  31.747  29.683  1.00  0.00     0.031 C 
ATOM     39  C   UNL A   1      45.128  31.295  28.856  1.00  0.00     0.037 A 
BRANCH  26  40
ATOM     40  C   UNL A   1      48.743  26.891  26.465  1.00  0.00     0.064 A 
ATOM     41  C   UNL A   1      49.688  26.306  27.320  1.00  0.00     0.173 A 
ATOM     42  C   UNL A   1      49.094  27.058  25.117  1.00  0.00     0.173 A 
ATOM     43  F   UNL A   1      49.408  26.132  28.620  1.00  0.00    -0.203 F 
ATOM     44  C   UNL A   1      50.941  25.921  26.848  1.00  0.00     0.198 A 
ATOM     45  C   UNL A   1      50.337  26.650  24.641  1.00  0.00     0.198 A 
ATOM     46  F   UNL A   1      48.224  27.607  24.255  1.00  0.00    -0.203 F 
ATOM     47  F   UNL A   1      51.843  25.400  27.691  1.00  0.00    -0.200 F 
ATOM     48  C   UNL A   1      51.262  26.087  25.508  1.00  0.00     0.200 A 
ATOM     49  F   UNL A   1      50.640  26.798  23.344  1.00  0.00    -0.200 F 
ATOM     50  F   UNL A   1      52.465  25.708  25.054  1.00  0.00    -0.200 F 
ENDBRANCH  26  40
BRANCH  27  51
ATOM     51  C   UNL A   1      39.581  29.061  29.807  1.00  0.00     0.064 A 
ATOM     52  C   UNL A   1      38.621  29.636  28.964  1.00  0.00     0.173 A 
ATOM     53  C   UNL A   1      39.208  28.783  31.130  1.00  0.00     0.173 A 
ATOM     54  F   UNL A   1      38.937  29.936  27.695  1.00  0.00    -0.203 F 
ATOM     55  C   UNL A   1      37.341  29.933  29.428  1.00  0.00     0.198 A 
ATOM     56  C   UNL A   1      37.919  29.053  31.586  1.00  0.00     0.198 A 
ATOM     57  F   UNL A   1      40.089  28.228  31.974  1.00  0.00    -0.203 F 
ATOM     58  F   UNL A   1      36.454  30.517  28.613  1.00  0.00    -0.200 F 
ATOM     59  C   UNL A   1      36.990  29.634  30.737  1.00  0.00     0.200 A 
ATOM     60  F   UNL A   1      37.579  28.748  32.845  1.00  0.00    -0.200 F 
ATOM     61  F   UNL A   1      35.756  29.911  31.180  1.00  0.00    -0.200 F 
ENDBRANCH  27  51
BRANCH  39  62
ATOM     62  C   UNL A   1      45.473  32.718  29.185  1.00  0.00     0.064 A 
ATOM     63  C   UNL A   1      45.254  33.757  28.268  1.00  0.00     0.173 A 
ATOM     64  C   UNL A   1      46.011  33.047  30.438  1.00  0.00     0.173 A 
ATOM     65  F   UNL A   1      44.759  33.490  27.051  1.00  0.00    -0.203 F 
ATOM     66  C   UNL A   1      45.589  35.070  28.584  1.00  0.00     0.198 A 
ATOM     67  C   UNL A   1      46.318  34.365  30.760  1.00  0.00     0.198 A 
ATOM     68  F   UNL A   1      46.234  32.090  31.350  1.00  0.00    -0.203 F 
ATOM     69  F   UNL A   1      45.421  36.040  27.675  1.00  0.00    -0.200 F 
ATOM     70  C   UNL A   1      46.115  35.375  29.831  1.00  0.00     0.200 A 
ATOM     71  F   UNL A   1      46.817  34.659  31.970  1.00  0.00    -0.200 F 
ATOM     72  F   UNL A   1      46.436  36.640  30.134  1.00  0.00    -0.200 F 
ENDBRANCH  39  62
ENDBRANCH  13  14
ENDBRANCH   6   8
ENDBRANCH   3   4
ENDBRANCH   2   3
ENDBRANCH   1   2
BRANCH   1  73
ATOM     73  C   UNL A   1      36.130  21.642  24.590  1.00  0.00     0.002 C 
BRANCH  73  74
ATOM     74  C   UNL A   1      35.976  22.665  25.726  1.00  0.00     0.021 C 
BRANCH  74  75
ATOM     75  C   UNL A   1      35.234  23.938  25.329  1.00  0.00     0.116 C 
BRANCH  75  76
ATOM     76  N   UNL A   1      34.919  23.963  23.921  1.00  0.00    -0.356 N 
ATOM     77  C   UNL A   1      33.766  24.172  23.226  1.00  0.00     0.223 C 
ATOM     78  H   UNL A   1      35.699  23.796  23.343  1.00  0.00     0.163 HD
ATOM     79  O   UNL A   1      33.857  24.244  22.001  1.00  0.00    -0.275 OA
BRANCH  77  80
ATOM     80  C   UNL A   1      32.410  24.291  23.815  1.00  0.00     0.086 C 
ATOM     81  C   UNL A   1      31.081  23.789  23.351  1.00  0.00     0.023 C 
ATOM     82  C   UNL A   1      31.746  23.136  24.541  1.00  0.00     0.032 C 
BRANCH  82  83
ATOM     83  C   UNL A   1      32.241  21.709  24.479  1.00  0.00    -0.044 A 
ATOM     84  C   UNL A   1      32.239  20.978  23.282  1.00  0.00     0.004 A 
ATOM     85  C   UNL A   1      32.629  21.019  25.635  1.00  0.00     0.004 A 
ATOM     86  C   UNL A   1      32.585  19.620  23.252  1.00  0.00     0.004 A 
ATOM     87  C   UNL A   1      32.975  19.659  25.603  1.00  0.00     0.004 A 
ATOM     88  C   UNL A   1      32.941  18.917  24.414  1.00  0.00    -0.045 A 
BRANCH  88  89
ATOM     89  C   UNL A   1      33.216  17.426  24.334  1.00  0.00     0.019 C 
ATOM     90  C   UNL A   1      33.971  16.759  23.212  1.00  0.00     0.009 C 
ATOM     91  C   UNL A   1      34.639  16.952  24.541  1.00  0.00     0.009 C 
ENDBRANCH  88  89
ENDBRANCH  82  83
ENDBRANCH  77  80
ENDBRANCH  75  76
ENDBRANCH  74  75
ENDBRANCH  73  74
ENDBRANCH   1  73
TORSDOF 15
ENDMDL
