MODEL 1
REMARK VINA RESULT:     -11.5      0.000      0.000
REMARK SMILES CC[N@@H+](C[C@H]1CCCO1)[C@@H](C)c1ccc(C(=O)NCCCCCCNC(=O)c2ccc(-c3c4nc(c(-c5c(F)c(F)c(F)c(F)c5F)c5ccc([nH]5)c(-c5c(F)c(F)c(F)c(F)c5F)c5nc(c(-c6c(F)c(F)c(F)c(F)c6F)c6ccc3[nH]6)C=C5)C=C4)cc2)o1
REMARK SMILES IDX 20 1 19 2 18 3 16 4 17 5 15 7 12 8 13 9 91 10 14 11 10 12
REMARK SMILES IDX 11 13 3 14 2 16 1 17 4 18 5 19 6 20 9 21 7 22 8 23 21 24
REMARK SMILES IDX 22 25 23 26 24 27 25 28 26 29 27 31 28 32 29 33 90 34 30 35
REMARK SMILES IDX 89 36 31 37 32 38 33 39 83 40 34 41 88 42 82 43 84 44 35 45
REMARK SMILES IDX 87 46 81 47 80 48 36 50 68 51 48 52 67 53 49 54 52 55 66 56
REMARK SMILES IDX 85 57 50 58 51 59 65 61 86 62 53 63 37 64 38 65 46 66 39 67
REMARK SMILES IDX 40 68 44 69 47 70 41 71 42 72 45 73 43 74 69 75 70 76 78 77
REMARK SMILES IDX 71 78 72 79 76 80 79 81 73 82 74 83 77 84 75 85 54 86 55 87
REMARK SMILES IDX 63 88 56 89 57 90 61 91 64 92 58 93 59 94 62 95 60 96
REMARK H PARENT 18 6 3 15 25 30 84 49 52 60
REMARK Flexibility Score: inf
ROOT
ATOM      1  C   UNL A   1      36.043  22.933  25.972  1.00  0.00     0.021 C 
ENDROOT
BRANCH   1   2
ATOM      2  C   UNL A   1      34.666  22.834  25.321  1.00  0.00     0.116 C 
BRANCH   2   3
ATOM      3  N   UNL A   1      33.603  22.844  26.306  1.00  0.00    -0.349 N 
ATOM      4  C   UNL A   1      32.416  23.545  26.298  1.00  0.00     0.287 C 
ATOM      5  O   UNL A   1      31.780  23.562  27.357  1.00  0.00    -0.266 OA
ATOM      6  H   UNL A   1      33.748  22.269  27.091  1.00  0.00     0.163 HD
BRANCH   4   7
ATOM      7  C   UNL A   1      31.967  24.198  25.086  1.00  0.00     0.191 A 
ATOM      8  C   UNL A   1      31.803  25.914  23.700  1.00  0.00     0.161 A 
ATOM      9  C   UNL A   1      31.040  24.898  23.158  1.00  0.00     0.053 A 
ATOM     10  O   UNL A   1      32.365  25.494  24.870  1.00  0.00    -0.450 OA
ATOM     11  C   UNL A   1      31.126  23.813  24.056  1.00  0.00     0.057 A 
BRANCH   8  12
ATOM     12  C   UNL A   1      32.004  27.358  23.320  1.00  0.00     0.248 C 
ATOM     13  C   UNL A   1      33.438  27.488  22.780  1.00  0.00     0.084 C 
BRANCH  12  14
ATOM     14  N   UNL A   1      31.568  28.354  24.327  1.00  0.00    -0.324 N 
ATOM     15  H   UNL A   1      31.305  27.696  25.061  1.00  0.00     0.348 HD
BRANCH  14  16
ATOM     16  C   UNL A   1      32.585  29.185  24.975  1.00  0.00     0.259 C 
ATOM     17  C   UNL A   1      31.977  30.306  25.818  1.00  0.00     0.071 C 
ENDBRANCH  14  16
BRANCH  14  18
ATOM     18  C   UNL A   1      30.353  29.125  23.988  1.00  0.00     0.295 C 
BRANCH  18  19
ATOM     19  C   UNL A   1      29.509  28.748  22.729  1.00  0.00     0.173 C 
ATOM     20  C   UNL A   1      28.007  28.805  22.980  1.00  0.00     0.040 C 
ATOM     21  O   UNL A   1      29.751  29.636  21.623  1.00  0.00    -0.372 OA
ATOM     22  C   UNL A   1      27.654  30.210  22.564  1.00  0.00     0.031 C 
ATOM     23  C   UNL A   1      28.605  30.465  21.418  1.00  0.00     0.161 C 
ENDBRANCH  18  19
ENDBRANCH  14  18
ENDBRANCH  12  14
ENDBRANCH   8  12
ENDBRANCH   4   7
ENDBRANCH   2   3
ENDBRANCH   1   2
BRANCH   1  24
ATOM     24  C   UNL A   1      37.158  22.181  25.241  1.00  0.00     0.002 C 
BRANCH  24  25
ATOM     25  C   UNL A   1      36.806  20.767  24.766  1.00  0.00     0.002 C 
BRANCH  25  26
ATOM     26  C   UNL A   1      37.878  19.698  25.003  1.00  0.00     0.021 C 
BRANCH  26  27
ATOM     27  C   UNL A   1      39.121  20.178  25.748  1.00  0.00     0.116 C 
BRANCH  27  28
ATOM     28  N   UNL A   1      40.124  19.135  25.876  1.00  0.00    -0.352 N 
ATOM     29  C   UNL A   1      41.480  19.243  26.065  1.00  0.00     0.251 C 
ATOM     30  H   UNL A   1      39.781  18.214  25.819  1.00  0.00     0.163 HD
ATOM     31  O   UNL A   1      42.200  18.254  25.965  1.00  0.00    -0.269 OA
BRANCH  29  32
ATOM     32  C   UNL A   1      42.080  20.558  26.371  1.00  0.00     0.039 A 
ATOM     33  C   UNL A   1      42.482  21.378  25.313  1.00  0.00     0.014 A 
ATOM     34  C   UNL A   1      42.259  20.976  27.693  1.00  0.00     0.014 A 
ATOM     35  C   UNL A   1      43.002  22.647  25.579  1.00  0.00     0.010 A 
ATOM     36  C   UNL A   1      42.722  22.262  27.955  1.00  0.00     0.010 A 
ATOM     37  C   UNL A   1      43.092  23.112  26.901  1.00  0.00    -0.014 A 
BRANCH  37  38
ATOM     38  C   UNL A   1      43.551  24.490  27.203  1.00  0.00     0.031 A 
ATOM     39  C   UNL A   1      42.584  25.512  27.730  1.00  0.00     0.074 A 
ATOM     40  C   UNL A   1      44.821  24.841  26.925  1.00  0.00     0.049 A 
ATOM     41  N   UNL A   1      42.769  26.788  27.958  1.00  0.00    -0.248 NA
ATOM     42  C   UNL A   1      41.219  25.042  28.013  1.00  0.00     0.031 C 
ATOM     43  C   UNL A   1      45.842  23.948  26.374  1.00  0.00     0.029 A 
ATOM     44  N   UNL A   1      45.465  26.046  27.050  1.00  0.00    -0.354 N 
ATOM     45  C   UNL A   1      41.545  27.274  28.396  1.00  0.00     0.074 A 
ATOM     46  C   UNL A   1      40.612  26.168  28.361  1.00  0.00     0.031 C 
ATOM     47  C   UNL A   1      46.987  24.633  26.221  1.00  0.00     0.029 A 
ATOM     48  C   UNL A   1      46.770  26.019  26.623  1.00  0.00     0.049 A 
ATOM     49  H   UNL A   1      45.033  26.854  27.412  1.00  0.00     0.167 HD
ATOM     50  C   UNL A   1      41.234  28.527  28.809  1.00  0.00     0.037 A 
ATOM     51  C   UNL A   1      47.685  27.004  26.552  1.00  0.00     0.037 A 
ATOM     52  C   UNL A   1      42.172  29.617  28.865  1.00  0.00     0.049 A 
ATOM     53  C   UNL A   1      47.310  28.390  27.000  1.00  0.00     0.074 A 
ATOM     54  C   UNL A   1      41.973  30.904  29.333  1.00  0.00     0.029 A 
ATOM     55  N   UNL A   1      43.488  29.548  28.433  1.00  0.00    -0.354 N 
ATOM     56  N   UNL A   1      46.168  28.823  27.474  1.00  0.00    -0.248 NA
ATOM     57  C   UNL A   1      48.350  29.422  26.902  1.00  0.00     0.031 C 
ATOM     58  C   UNL A   1      43.154  31.627  29.142  1.00  0.00     0.029 A 
ATOM     59  C   UNL A   1      44.105  30.779  28.598  1.00  0.00     0.049 A 
ATOM     60  H   UNL A   1      43.921  28.745  28.064  1.00  0.00     0.167 HD
ATOM     61  C   UNL A   1      46.356  30.169  27.752  1.00  0.00     0.074 A 
ATOM     62  C   UNL A   1      47.728  30.479  27.406  1.00  0.00     0.031 C 
ATOM     63  C   UNL A   1      45.473  31.069  28.249  1.00  0.00     0.037 A 
BRANCH  50  64
ATOM     64  C   UNL A   1      39.819  28.784  29.235  1.00  0.00     0.064 A 
ATOM     65  C   UNL A   1      39.412  28.629  30.569  1.00  0.00     0.173 A 
ATOM     66  C   UNL A   1      38.866  29.229  28.306  1.00  0.00     0.173 A 
ATOM     67  F   UNL A   1      40.282  28.196  31.493  1.00  0.00    -0.203 F 
ATOM     68  C   UNL A   1      38.097  28.880  30.951  1.00  0.00     0.198 A 
ATOM     69  C   UNL A   1      37.558  29.508  28.698  1.00  0.00     0.198 A 
ATOM     70  F   UNL A   1      39.203  29.401  27.020  1.00  0.00    -0.203 F 
ATOM     71  F   UNL A   1      37.720  28.677  32.221  1.00  0.00    -0.200 F 
ATOM     72  C   UNL A   1      37.173  29.325  30.017  1.00  0.00     0.200 A 
ATOM     73  F   UNL A   1      36.670  29.949  27.797  1.00  0.00    -0.200 F 
ATOM     74  F   UNL A   1      35.909  29.572  30.389  1.00  0.00    -0.200 F 
ENDBRANCH  50  64
BRANCH  51  75
ATOM     75  C   UNL A   1      49.051  26.709  26.048  1.00  0.00     0.064 A 
ATOM     76  C   UNL A   1      50.010  26.118  26.881  1.00  0.00     0.173 A 
ATOM     77  C   UNL A   1      49.422  27.003  24.728  1.00  0.00     0.173 A 
ATOM     78  F   UNL A   1      49.708  25.839  28.157  1.00  0.00    -0.203 F 
ATOM     79  C   UNL A   1      51.296  25.845  26.417  1.00  0.00     0.198 A 
ATOM     80  C   UNL A   1      50.700  26.705  24.258  1.00  0.00     0.198 A 
ATOM     81  F   UNL A   1      48.539  27.565  23.890  1.00  0.00    -0.203 F 
ATOM     82  F   UNL A   1      52.205  25.315  27.246  1.00  0.00    -0.200 F 
ATOM     83  C   UNL A   1      51.637  26.133  25.104  1.00  0.00     0.200 A 
ATOM     84  F   UNL A   1      51.022  26.972  22.985  1.00  0.00    -0.200 F 
ATOM     85  F   UNL A   1      52.871  25.864  24.656  1.00  0.00    -0.200 F 
ENDBRANCH  51  75
BRANCH  63  86
ATOM     86  C   UNL A   1      45.966  32.469  28.469  1.00  0.00     0.064 A 
ATOM     87  C   UNL A   1      46.609  32.841  29.658  1.00  0.00     0.173 A 
ATOM     88  C   UNL A   1      45.834  33.435  27.461  1.00  0.00     0.173 A 
ATOM     89  F   UNL A   1      46.743  31.955  30.658  1.00  0.00    -0.203 F 
ATOM     90  C   UNL A   1      47.086  34.136  29.837  1.00  0.00     0.198 A 
ATOM     91  C   UNL A   1      46.338  34.721  27.632  1.00  0.00     0.198 A 
ATOM     92  F   UNL A   1      45.232  33.126  26.303  1.00  0.00    -0.203 F 
ATOM     93  F   UNL A   1      47.662  34.482  30.997  1.00  0.00    -0.200 F 
ATOM     94  C   UNL A   1      46.958  35.072  28.821  1.00  0.00     0.200 A 
ATOM     95  F   UNL A   1      46.223  35.621  26.646  1.00  0.00    -0.200 F 
ATOM     96  F   UNL A   1      47.427  36.316  28.993  1.00  0.00    -0.200 F 
ENDBRANCH  63  86
ENDBRANCH  37  38
ENDBRANCH  29  32
ENDBRANCH  27  28
ENDBRANCH  26  27
ENDBRANCH  25  26
ENDBRANCH  24  25
ENDBRANCH   1  24
TORSDOF 18
ENDMDL
MODEL 2
REMARK VINA RESULT:     -11.5      5.369     11.318
REMARK SMILES CC[N@@H+](C[C@H]1CCCO1)[C@@H](C)c1ccc(C(=O)NCCCCCCNC(=O)c2ccc(-c3c4nc(c(-c5c(F)c(F)c(F)c(F)c5F)c5ccc([nH]5)c(-c5c(F)c(F)c(F)c(F)c5F)c5nc(c(-c6c(F)c(F)c(F)c(F)c6F)c6ccc3[nH]6)C=C5)C=C4)cc2)o1
REMARK SMILES IDX 20 1 19 2 18 3 16 4 17 5 15 7 12 8 13 9 91 10 14 11 10 12
REMARK SMILES IDX 11 13 3 14 2 16 1 17 4 18 5 19 6 20 9 21 7 22 8 23 21 24
REMARK SMILES IDX 22 25 23 26 24 27 25 28 26 29 27 31 28 32 29 33 90 34 30 35
REMARK SMILES IDX 89 36 31 37 32 38 33 39 83 40 34 41 88 42 82 43 84 44 35 45
REMARK SMILES IDX 87 46 81 47 80 48 36 50 68 51 48 52 67 53 49 54 52 55 66 56
REMARK SMILES IDX 85 57 50 58 51 59 65 61 86 62 53 63 37 64 38 65 46 66 39 67
REMARK SMILES IDX 40 68 44 69 47 70 41 71 42 72 45 73 43 74 69 75 70 76 78 77
REMARK SMILES IDX 71 78 72 79 76 80 79 81 73 82 74 83 77 84 75 85 54 86 55 87
REMARK SMILES IDX 63 88 56 89 57 90 61 91 64 92 58 93 59 94 62 95 60 96
REMARK H PARENT 18 6 3 15 25 30 84 49 52 60
REMARK Flexibility Score: inf
ROOT
ATOM      1  C   UNL A   1      31.794  28.109  26.029  1.00  0.00     0.021 C 
ENDROOT
BRANCH   1   2
ATOM      2  C   UNL A   1      31.144  28.201  24.651  1.00  0.00     0.116 C 
BRANCH   2   3
ATOM      3  N   UNL A   1      32.114  28.042  23.587  1.00  0.00    -0.349 N 
ATOM      4  C   UNL A   1      32.693  26.889  23.101  1.00  0.00     0.287 C 
ATOM      5  O   UNL A   1      33.659  27.034  22.346  1.00  0.00    -0.266 OA
ATOM      6  H   UNL A   1      32.401  28.876  23.148  1.00  0.00     0.163 HD
BRANCH   4   7
ATOM      7  C   UNL A   1      32.153  25.596  23.468  1.00  0.00     0.191 A 
ATOM      8  C   UNL A   1      32.187  23.664  24.544  1.00  0.00     0.161 A 
ATOM      9  C   UNL A   1      31.060  23.649  23.748  1.00  0.00     0.053 A 
ATOM     10  O   UNL A   1      32.854  24.843  24.376  1.00  0.00    -0.450 OA
ATOM     11  C   UNL A   1      31.052  24.872  23.044  1.00  0.00     0.057 A 
BRANCH   8  12
ATOM     12  C   UNL A   1      32.843  22.621  25.411  1.00  0.00     0.248 C 
ATOM     13  C   UNL A   1      33.428  23.350  26.631  1.00  0.00     0.084 C 
BRANCH  12  14
ATOM     14  N   UNL A   1      33.729  21.665  24.706  1.00  0.00    -0.324 N 
ATOM     15  H   UNL A   1      33.270  21.702  23.796  1.00  0.00     0.348 HD
BRANCH  14  16
ATOM     16  C   UNL A   1      35.102  22.076  24.402  1.00  0.00     0.259 C 
ATOM     17  C   UNL A   1      36.145  21.184  25.074  1.00  0.00     0.071 C 
ENDBRANCH  14  16
BRANCH  14  18
ATOM     18  C   UNL A   1      33.658  20.261  25.164  1.00  0.00     0.295 C 
BRANCH  18  19
ATOM     19  C   UNL A   1      32.442  19.365  24.766  1.00  0.00     0.173 C 
ATOM     20  C   UNL A   1      32.575  18.765  23.372  1.00  0.00     0.040 C 
ATOM     21  O   UNL A   1      32.274  18.246  25.655  1.00  0.00    -0.372 OA
ATOM     22  C   UNL A   1      33.227  17.433  23.644  1.00  0.00     0.031 C 
ATOM     23  C   UNL A   1      32.633  17.040  24.977  1.00  0.00     0.161 C 
ENDBRANCH  18  19
ENDBRANCH  14  18
ENDBRANCH  12  14
ENDBRANCH   8  12
ENDBRANCH   4   7
ENDBRANCH   2   3
ENDBRANCH   1   2
BRANCH   1  24
ATOM     24  C   UNL A   1      31.844  29.425  26.809  1.00  0.00     0.002 C 
BRANCH  24  25
ATOM     25  C   UNL A   1      31.636  30.697  25.980  1.00  0.00     0.002 C 
BRANCH  25  26
ATOM     26  C   UNL A   1      31.413  31.984  26.780  1.00  0.00     0.021 C 
BRANCH  26  27
ATOM     27  C   UNL A   1      32.682  32.740  27.164  1.00  0.00     0.116 C 
BRANCH  27  28
ATOM     28  N   UNL A   1      32.410  34.114  27.552  1.00  0.00    -0.352 N 
ATOM     29  C   UNL A   1      32.975  34.870  28.549  1.00  0.00     0.251 C 
ATOM     30  H   UNL A   1      31.718  34.571  27.021  1.00  0.00     0.163 HD
ATOM     31  O   UNL A   1      32.491  35.956  28.853  1.00  0.00    -0.269 OA
BRANCH  29  32
ATOM     32  C   UNL A   1      34.161  34.368  29.274  1.00  0.00     0.039 A 
ATOM     33  C   UNL A   1      33.971  33.603  30.428  1.00  0.00     0.014 A 
ATOM     34  C   UNL A   1      35.453  34.661  28.828  1.00  0.00     0.014 A 
ATOM     35  C   UNL A   1      35.077  33.074  31.099  1.00  0.00     0.010 A 
ATOM     36  C   UNL A   1      36.550  34.085  29.462  1.00  0.00     0.010 A 
ATOM     37  C   UNL A   1      36.372  33.282  30.599  1.00  0.00    -0.014 A 
BRANCH  37  38
ATOM     38  C   UNL A   1      37.554  32.651  31.238  1.00  0.00     0.031 A 
ATOM     39  C   UNL A   1      38.253  31.502  30.569  1.00  0.00     0.074 A 
ATOM     40  C   UNL A   1      37.945  33.063  32.459  1.00  0.00     0.049 A 
ATOM     41  N   UNL A   1      39.235  30.758  31.014  1.00  0.00    -0.248 NA
ATOM     42  C   UNL A   1      37.766  31.122  29.235  1.00  0.00     0.031 C 
ATOM     43  C   UNL A   1      37.321  34.143  33.225  1.00  0.00     0.029 A 
ATOM     44  N   UNL A   1      38.950  32.612  33.277  1.00  0.00    -0.354 N 
ATOM     45  C   UNL A   1      39.472  29.816  30.022  1.00  0.00     0.074 A 
ATOM     46  C   UNL A   1      38.504  30.052  28.972  1.00  0.00     0.031 C 
ATOM     47  C   UNL A   1      37.964  34.278  34.396  1.00  0.00     0.029 A 
ATOM     48  C   UNL A   1      39.017  33.272  34.480  1.00  0.00     0.049 A 
ATOM     49  H   UNL A   1      39.564  31.884  33.027  1.00  0.00     0.167 HD
ATOM     50  C   UNL A   1      40.425  28.853  29.984  1.00  0.00     0.037 A 
ATOM     51  C   UNL A   1      39.828  33.076  35.537  1.00  0.00     0.037 A 
ATOM     52  C   UNL A   1      41.400  28.638  31.021  1.00  0.00     0.049 A 
ATOM     53  C   UNL A   1      40.866  31.990  35.477  1.00  0.00     0.074 A 
ATOM     54  C   UNL A   1      42.449  27.735  31.045  1.00  0.00     0.029 A 
ATOM     55  N   UNL A   1      41.443  29.333  32.220  1.00  0.00    -0.354 N 
ATOM     56  N   UNL A   1      41.124  31.148  34.507  1.00  0.00    -0.248 NA
ATOM     57  C   UNL A   1      41.724  31.828  36.658  1.00  0.00     0.031 C 
ATOM     58  C   UNL A   1      43.098  27.852  32.278  1.00  0.00     0.029 A 
ATOM     59  C   UNL A   1      42.484  28.859  33.004  1.00  0.00     0.049 A 
ATOM     60  H   UNL A   1      40.826  30.055  32.477  1.00  0.00     0.167 HD
ATOM     61  C   UNL A   1      42.186  30.371  34.949  1.00  0.00     0.074 A 
ATOM     62  C   UNL A   1      42.533  30.851  36.270  1.00  0.00     0.031 C 
ATOM     63  C   UNL A   1      42.816  29.351  34.318  1.00  0.00     0.037 A 
BRANCH  50  64
ATOM     64  C   UNL A   1      40.459  27.959  28.780  1.00  0.00     0.064 A 
ATOM     65  C   UNL A   1      41.206  28.290  27.639  1.00  0.00     0.173 A 
ATOM     66  C   UNL A   1      39.768  26.738  28.780  1.00  0.00     0.173 A 
ATOM     67  F   UNL A   1      41.875  29.451  27.585  1.00  0.00    -0.203 F 
ATOM     68  C   UNL A   1      41.234  27.446  26.531  1.00  0.00     0.198 A 
ATOM     69  C   UNL A   1      39.823  25.883  27.681  1.00  0.00     0.198 A 
ATOM     70  F   UNL A   1      39.045  26.370  29.847  1.00  0.00    -0.203 F 
ATOM     71  F   UNL A   1      41.915  27.807  25.434  1.00  0.00    -0.200 F 
ATOM     72  C   UNL A   1      40.549  26.241  26.556  1.00  0.00     0.200 A 
ATOM     73  F   UNL A   1      39.170  24.713  27.711  1.00  0.00    -0.200 F 
ATOM     74  F   UNL A   1      40.584  25.427  25.491  1.00  0.00    -0.200 F 
ENDBRANCH  50  64
BRANCH  51  75
ATOM     75  C   UNL A   1      39.698  33.943  36.737  1.00  0.00     0.064 A 
ATOM     76  C   UNL A   1      38.888  33.560  37.814  1.00  0.00     0.173 A 
ATOM     77  C   UNL A   1      40.383  35.162  36.835  1.00  0.00     0.173 A 
ATOM     78  F   UNL A   1      38.197  32.411  37.756  1.00  0.00    -0.203 F 
ATOM     79  C   UNL A   1      38.757  34.370  38.940  1.00  0.00     0.198 A 
ATOM     80  C   UNL A   1      40.271  35.960  37.972  1.00  0.00     0.198 A 
ATOM     81  F   UNL A   1      41.174  35.572  35.833  1.00  0.00    -0.203 F 
ATOM     82  F   UNL A   1      37.946  33.997  39.939  1.00  0.00    -0.200 F 
ATOM     83  C   UNL A   1      39.453  35.566  39.021  1.00  0.00     0.200 A 
ATOM     84  F   UNL A   1      40.957  37.109  38.053  1.00  0.00    -0.200 F 
ATOM     85  F   UNL A   1      39.332  36.342  40.106  1.00  0.00    -0.200 F 
ENDBRANCH  51  75
BRANCH  63  86
ATOM     86  C   UNL A   1      43.959  28.698  35.037  1.00  0.00     0.064 A 
ATOM     87  C   UNL A   1      43.769  27.563  35.838  1.00  0.00     0.173 A 
ATOM     88  C   UNL A   1      45.265  29.188  34.887  1.00  0.00     0.173 A 
ATOM     89  F   UNL A   1      42.535  27.069  36.025  1.00  0.00    -0.203 F 
ATOM     90  C   UNL A   1      44.843  26.952  36.477  1.00  0.00     0.198 A 
ATOM     91  C   UNL A   1      46.341  28.557  35.506  1.00  0.00     0.198 A 
ATOM     92  F   UNL A   1      45.500  30.267  34.127  1.00  0.00    -0.203 F 
ATOM     93  F   UNL A   1      44.634  25.891  37.271  1.00  0.00    -0.200 F 
ATOM     94  C   UNL A   1      46.128  27.444  36.304  1.00  0.00     0.200 A 
ATOM     95  F   UNL A   1      47.584  29.027  35.329  1.00  0.00    -0.200 F 
ATOM     96  F   UNL A   1      47.163  26.847  36.914  1.00  0.00    -0.200 F 
ENDBRANCH  63  86
ENDBRANCH  37  38
ENDBRANCH  29  32
ENDBRANCH  27  28
ENDBRANCH  26  27
ENDBRANCH  25  26
ENDBRANCH  24  25
ENDBRANCH   1  24
TORSDOF 18
ENDMDL
MODEL 3
REMARK VINA RESULT:     -11.3      1.382      2.114
REMARK SMILES CC[N@@H+](C[C@H]1CCCO1)[C@@H](C)c1ccc(C(=O)NCCCCCCNC(=O)c2ccc(-c3c4nc(c(-c5c(F)c(F)c(F)c(F)c5F)c5ccc([nH]5)c(-c5c(F)c(F)c(F)c(F)c5F)c5nc(c(-c6c(F)c(F)c(F)c(F)c6F)c6ccc3[nH]6)C=C5)C=C4)cc2)o1
REMARK SMILES IDX 20 1 19 2 18 3 16 4 17 5 15 7 12 8 13 9 91 10 14 11 10 12
REMARK SMILES IDX 11 13 3 14 2 16 1 17 4 18 5 19 6 20 9 21 7 22 8 23 21 24
REMARK SMILES IDX 22 25 23 26 24 27 25 28 26 29 27 31 28 32 29 33 90 34 30 35
REMARK SMILES IDX 89 36 31 37 32 38 33 39 83 40 34 41 88 42 82 43 84 44 35 45
REMARK SMILES IDX 87 46 81 47 80 48 36 50 68 51 48 52 67 53 49 54 52 55 66 56
REMARK SMILES IDX 85 57 50 58 51 59 65 61 86 62 53 63 37 64 38 65 46 66 39 67
REMARK SMILES IDX 40 68 44 69 47 70 41 71 42 72 45 73 43 74 69 75 70 76 78 77
REMARK SMILES IDX 71 78 72 79 76 80 79 81 73 82 74 83 77 84 75 85 54 86 55 87
REMARK SMILES IDX 63 88 56 89 57 90 61 91 64 92 58 93 59 94 62 95 60 96
REMARK H PARENT 18 6 3 15 25 30 84 49 52 60
REMARK Flexibility Score: inf
ROOT
ATOM      1  C   UNL A   1      36.857  23.343  24.685  1.00  0.00     0.021 C 
ENDROOT
BRANCH   1   2
ATOM      2  C   UNL A   1      36.027  23.958  25.808  1.00  0.00     0.116 C 
BRANCH   2   3
ATOM      3  N   UNL A   1      35.140  22.987  26.416  1.00  0.00    -0.349 N 
ATOM      4  C   UNL A   1      33.911  22.538  25.982  1.00  0.00     0.287 C 
ATOM      5  O   UNL A   1      33.249  21.879  26.789  1.00  0.00    -0.266 OA
ATOM      6  H   UNL A   1      35.461  22.590  27.258  1.00  0.00     0.163 HD
BRANCH   4   7
ATOM      7  C   UNL A   1      33.466  22.832  24.635  1.00  0.00     0.191 A 
ATOM      8  C   UNL A   1      32.687  24.160  23.048  1.00  0.00     0.161 A 
ATOM      9  C   UNL A   1      32.781  22.900  22.492  1.00  0.00     0.053 A 
ATOM     10  O   UNL A   1      33.101  24.123  24.348  1.00  0.00    -0.450 OA
ATOM     11  C   UNL A   1      33.255  22.048  23.513  1.00  0.00     0.057 A 
BRANCH   8  12
ATOM     12  C   UNL A   1      32.120  25.462  22.544  1.00  0.00     0.248 C 
ATOM     13  C   UNL A   1      32.525  25.591  21.067  1.00  0.00     0.084 C 
BRANCH  12  14
ATOM     14  N   UNL A   1      32.348  26.641  23.414  1.00  0.00    -0.324 N 
ATOM     15  H   UNL A   1      33.241  26.345  23.809  1.00  0.00     0.348 HD
BRANCH  14  16
ATOM     16  C   UNL A   1      32.672  27.923  22.783  1.00  0.00     0.259 C 
ATOM     17  C   UNL A   1      34.025  28.472  23.232  1.00  0.00     0.071 C 
ENDBRANCH  14  16
BRANCH  14  18
ATOM     18  C   UNL A   1      31.410  26.799  24.545  1.00  0.00     0.295 C 
BRANCH  18  19
ATOM     19  C   UNL A   1      31.882  26.502  26.004  1.00  0.00     0.173 C 
ATOM     20  C   UNL A   1      33.284  27.022  26.294  1.00  0.00     0.040 C 
ATOM     21  O   UNL A   1      31.030  27.114  26.990  1.00  0.00    -0.372 OA
ATOM     22  C   UNL A   1      33.020  28.394  26.860  1.00  0.00     0.031 C 
ATOM     23  C   UNL A   1      31.724  28.199  27.612  1.00  0.00     0.161 C 
ENDBRANCH  18  19
ENDBRANCH  14  18
ENDBRANCH  12  14
ENDBRANCH   8  12
ENDBRANCH   4   7
ENDBRANCH   2   3
ENDBRANCH   1   2
BRANCH   1  24
ATOM     24  C   UNL A   1      37.745  22.169  25.106  1.00  0.00     0.002 C 
BRANCH  24  25
ATOM     25  C   UNL A   1      37.291  20.788  24.622  1.00  0.00     0.002 C 
BRANCH  25  26
ATOM     26  C   UNL A   1      38.199  19.616  25.010  1.00  0.00     0.021 C 
BRANCH  26  27
ATOM     27  C   UNL A   1      39.341  19.965  25.961  1.00  0.00     0.116 C 
BRANCH  27  28
ATOM     28  N   UNL A   1      40.396  18.965  25.946  1.00  0.00    -0.352 N 
ATOM     29  C   UNL A   1      41.757  19.128  26.026  1.00  0.00     0.251 C 
ATOM     30  H   UNL A   1      40.089  18.033  25.868  1.00  0.00     0.163 HD
ATOM     31  O   UNL A   1      42.508  18.181  25.812  1.00  0.00    -0.269 OA
BRANCH  29  32
ATOM     32  C   UNL A   1      42.324  20.453  26.353  1.00  0.00     0.039 A 
ATOM     33  C   UNL A   1      42.911  21.205  25.332  1.00  0.00     0.014 A 
ATOM     34  C   UNL A   1      42.291  20.946  27.660  1.00  0.00     0.014 A 
ATOM     35  C   UNL A   1      43.405  22.482  25.608  1.00  0.00     0.010 A 
ATOM     36  C   UNL A   1      42.730  22.240  27.923  1.00  0.00     0.010 A 
ATOM     37  C   UNL A   1      43.285  23.023  26.898  1.00  0.00    -0.014 A 
BRANCH  37  38
ATOM     38  C   UNL A   1      43.715  24.412  27.195  1.00  0.00     0.031 A 
ATOM     39  C   UNL A   1      42.725  25.417  27.712  1.00  0.00     0.074 A 
ATOM     40  C   UNL A   1      44.978  24.787  26.918  1.00  0.00     0.049 A 
ATOM     41  N   UNL A   1      42.883  26.697  27.934  1.00  0.00    -0.248 NA
ATOM     42  C   UNL A   1      41.369  24.920  27.993  1.00  0.00     0.031 C 
ATOM     43  C   UNL A   1      46.019  23.912  26.377  1.00  0.00     0.029 A 
ATOM     44  N   UNL A   1      45.597  26.006  27.040  1.00  0.00    -0.354 N 
ATOM     45  C   UNL A   1      41.648  27.161  28.365  1.00  0.00     0.074 A 
ATOM     46  C   UNL A   1      40.738  26.036  28.333  1.00  0.00     0.031 C 
ATOM     47  C   UNL A   1      47.150  24.619  26.223  1.00  0.00     0.029 A 
ATOM     48  C   UNL A   1      46.904  26.002  26.617  1.00  0.00     0.049 A 
ATOM     49  H   UNL A   1      45.148  26.806  27.395  1.00  0.00     0.167 HD
ATOM     50  C   UNL A   1      41.310  28.409  28.770  1.00  0.00     0.037 A 
ATOM     51  C   UNL A   1      47.799  27.006  26.543  1.00  0.00     0.037 A 
ATOM     52  C   UNL A   1      42.226  29.518  28.822  1.00  0.00     0.049 A 
ATOM     53  C   UNL A   1      47.393  28.386  26.983  1.00  0.00     0.074 A 
ATOM     54  C   UNL A   1      41.998  30.804  29.283  1.00  0.00     0.029 A 
ATOM     55  N   UNL A   1      43.544  29.474  28.396  1.00  0.00    -0.354 N 
ATOM     56  N   UNL A   1      46.241  28.798  27.450  1.00  0.00    -0.248 NA
ATOM     57  C   UNL A   1      48.413  29.439  26.882  1.00  0.00     0.031 C 
ATOM     58  C   UNL A   1      43.166  31.550  29.092  1.00  0.00     0.029 A 
ATOM     59  C   UNL A   1      44.135  30.718  28.556  1.00  0.00     0.049 A 
ATOM     60  H   UNL A   1      43.994  28.678  28.032  1.00  0.00     0.167 HD
ATOM     61  C   UNL A   1      46.402  30.150  27.721  1.00  0.00     0.074 A 
ATOM     62  C   UNL A   1      47.768  30.486  27.378  1.00  0.00     0.031 C 
ATOM     63  C   UNL A   1      45.498  31.034  28.210  1.00  0.00     0.037 A 
BRANCH  50  64
ATOM     64  C   UNL A   1      39.889  28.640  29.190  1.00  0.00     0.064 A 
ATOM     65  C   UNL A   1      39.470  28.437  30.513  1.00  0.00     0.173 A 
ATOM     66  C   UNL A   1      38.941  29.107  28.266  1.00  0.00     0.173 A 
ATOM     67  F   UNL A   1      40.335  27.981  31.431  1.00  0.00    -0.203 F 
ATOM     68  C   UNL A   1      38.149  28.664  30.890  1.00  0.00     0.198 A 
ATOM     69  C   UNL A   1      37.627  29.361  28.654  1.00  0.00     0.198 A 
ATOM     70  F   UNL A   1      39.289  29.325  26.990  1.00  0.00    -0.203 F 
ATOM     71  F   UNL A   1      37.761  28.416  32.149  1.00  0.00    -0.200 F 
ATOM     72  C   UNL A   1      37.230  29.131  29.962  1.00  0.00     0.200 A 
ATOM     73  F   UNL A   1      36.743  29.825  27.758  1.00  0.00    -0.200 F 
ATOM     74  F   UNL A   1      35.960  29.355  30.328  1.00  0.00    -0.200 F 
ENDBRANCH  50  64
BRANCH  51  75
ATOM     75  C   UNL A   1      49.172  26.736  26.046  1.00  0.00     0.064 A 
ATOM     76  C   UNL A   1      49.508  26.966  24.705  1.00  0.00     0.173 A 
ATOM     77  C   UNL A   1      50.175  26.251  26.897  1.00  0.00     0.173 A 
ATOM     78  F   UNL A   1      48.575  27.409  23.848  1.00  0.00    -0.203 F 
ATOM     79  C   UNL A   1      50.792  26.708  24.230  1.00  0.00     0.198 A 
ATOM     80  C   UNL A   1      51.466  26.018  26.427  1.00  0.00     0.198 A 
ATOM     81  F   UNL A   1      49.906  26.018  28.190  1.00  0.00    -0.203 F 
ATOM     82  F   UNL A   1      51.076  26.901  22.935  1.00  0.00    -0.200 F 
ATOM     83  C   UNL A   1      51.772  26.240  25.093  1.00  0.00     0.200 A 
ATOM     84  F   UNL A   1      52.414  25.579  27.267  1.00  0.00    -0.200 F 
ATOM     85  F   UNL A   1      53.009  25.999  24.638  1.00  0.00    -0.200 F 
ENDBRANCH  51  75
BRANCH  63  86
ATOM     86  C   UNL A   1      45.962  32.445  28.424  1.00  0.00     0.064 A 
ATOM     87  C   UNL A   1      46.565  32.844  29.625  1.00  0.00     0.173 A 
ATOM     88  C   UNL A   1      45.843  33.395  27.398  1.00  0.00     0.173 A 
ATOM     89  F   UNL A   1      46.685  31.975  30.641  1.00  0.00    -0.203 F 
ATOM     90  C   UNL A   1      47.016  34.149  29.798  1.00  0.00     0.198 A 
ATOM     91  C   UNL A   1      46.321  34.691  27.566  1.00  0.00     0.198 A 
ATOM     92  F   UNL A   1      45.279  33.060  26.229  1.00  0.00    -0.203 F 
ATOM     93  F   UNL A   1      47.553  34.521  30.970  1.00  0.00    -0.200 F 
ATOM     94  C   UNL A   1      46.901  35.069  28.767  1.00  0.00     0.200 A 
ATOM     95  F   UNL A   1      46.218  35.576  26.564  1.00  0.00    -0.200 F 
ATOM     96  F   UNL A   1      47.344  36.323  28.934  1.00  0.00    -0.200 F 
ENDBRANCH  63  86
ENDBRANCH  37  38
ENDBRANCH  29  32
ENDBRANCH  27  28
ENDBRANCH  26  27
ENDBRANCH  25  26
ENDBRANCH  24  25
ENDBRANCH   1  24
TORSDOF 18
ENDMDL
