MODEL 1
REMARK VINA RESULT:     -13.2      0.000      0.000
REMARK SMILES O=C(NCCCCCCNC(=O)c1ccc(-c2c3nc(c(-c4c(F)c(F)c(F)c(F)c4F)c4ccc([nH]4)c(-c4c(F)c(F)c(F)c(F)c4F)c4nc(c(-c5c(F)c(F)c(F)c(F)c5F)c5ccc2[nH]5)C=C4)C=C3)cc1)C1=Cc2cc(Cl)cc(-c3ccc(O)cc3)c2O[C@@H]1C(F)(F)F
REMARK SMILES IDX 6 1 5 2 4 3 3 4 1 5 2 6 76 8 77 9 93 10 78 11 92 12 79 13
REMARK SMILES IDX 91 14 80 15 83 16 81 17 82 18 94 19 95 20 96 21 97 22 84 23
REMARK SMILES IDX 85 24 90 25 86 26 89 27 87 28 88 29 7 31 8 32 9 33 10 34
REMARK SMILES IDX 11 35 12 37 13 38 14 39 75 40 15 41 74 42 16 43 17 44 18 45
REMARK SMILES IDX 68 46 19 47 73 48 67 49 69 50 20 51 72 52 66 53 65 54 21 56
REMARK SMILES IDX 53 57 33 58 52 59 34 60 37 61 51 62 70 63 35 64 36 65 50 67
REMARK SMILES IDX 71 68 38 69 22 70 23 71 31 72 24 73 25 74 29 75 32 76 26 77
REMARK SMILES IDX 27 78 30 79 28 80 54 81 55 82 63 83 56 84 57 85 61 86 64 87
REMARK SMILES IDX 58 88 59 89 62 90 60 91 39 92 40 93 48 94 41 95 42 96 46 97
REMARK SMILES IDX 49 98 43 99 44 100 47 101 45 102
REMARK H PARENT 3 7 88 30 10 36 69 55 37 66
REMARK Flexibility Score: inf
ROOT
ATOM      1  C   UNL A   1      30.437  27.086  23.804  1.00  0.00     0.002 C 
ENDROOT
BRANCH   1   2
ATOM      2  C   UNL A   1      30.044  26.246  25.020  1.00  0.00     0.021 C 
BRANCH   2   3
ATOM      3  C   UNL A   1      30.925  26.345  26.264  1.00  0.00     0.116 C 
BRANCH   3   4
ATOM      4  N   UNL A   1      31.214  25.100  26.954  1.00  0.00    -0.352 N 
ATOM      5  O   UNL A   1      32.360  23.234  27.463  1.00  0.00    -0.270 OA
ATOM      6  C   UNL A   1      32.137  24.131  26.651  1.00  0.00     0.251 C 
ATOM      7  H   UNL A   1      30.669  24.926  27.755  1.00  0.00     0.163 HD
BRANCH   6   8
ATOM      8  C   UNL A   1      32.956  24.167  25.400  1.00  0.00     0.067 C 
ATOM      9  C   UNL A   1      34.281  24.387  25.435  1.00  0.00     0.025 C 
ATOM     10  C   UNL A   1      32.410  23.277  24.308  1.00  0.00     0.314 C 
ATOM     11  C   UNL A   1      35.071  23.185  25.078  1.00  0.00     0.019 A 
ATOM     12  O   UNL A   1      33.085  21.993  24.312  1.00  0.00    -0.475 OA
ATOM     13  C   UNL A   1      36.415  23.158  25.466  1.00  0.00     0.032 A 
ATOM     14  C   UNL A   1      34.414  22.002  24.679  1.00  0.00     0.135 A 
ATOM     15  C   UNL A   1      37.078  21.939  25.528  1.00  0.00     0.042 A 
ATOM     16  C   UNL A   1      35.071  20.764  24.786  1.00  0.00     0.026 A 
ATOM     17  Cl  UNL A   1      38.673  21.871  26.172  1.00  0.00    -0.084 Cl
ATOM     18  C   UNL A   1      36.417  20.756  25.202  1.00  0.00     0.033 A 
BRANCH  10  19
ATOM     19  C   UNL A   1      32.461  23.967  22.929  1.00  0.00     0.429 C 
ATOM     20  F   UNL A   1      33.067  23.187  22.004  1.00  0.00    -0.167 F 
ATOM     21  F   UNL A   1      31.217  24.237  22.463  1.00  0.00    -0.167 F 
ATOM     22  F   UNL A   1      33.131  25.144  22.958  1.00  0.00    -0.167 F 
ENDBRANCH  10  19
BRANCH  16  23
ATOM     23  C   UNL A   1      34.368  19.472  24.718  1.00  0.00    -0.014 A 
ATOM     24  C   UNL A   1      33.052  19.381  25.202  1.00  0.00     0.012 A 
ATOM     25  C   UNL A   1      35.011  18.292  24.326  1.00  0.00     0.012 A 
ATOM     26  C   UNL A   1      32.420  18.150  25.370  1.00  0.00     0.047 A 
ATOM     27  C   UNL A   1      34.373  17.053  24.471  1.00  0.00     0.047 A 
ATOM     28  C   UNL A   1      33.094  16.992  25.018  1.00  0.00     0.115 A 
BRANCH  28  29
ATOM     29  O   UNL A   1      32.463  15.806  25.240  1.00  0.00    -0.508 OA
ATOM     30  H   UNL A   1      31.630  15.638  24.846  1.00  0.00     0.293 HD
ENDBRANCH  28  29
ENDBRANCH  16  23
ENDBRANCH   6   8
ENDBRANCH   3   4
ENDBRANCH   2   3
ENDBRANCH   1   2
BRANCH   1  31
ATOM     31  C   UNL A   1      31.234  28.373  24.052  1.00  0.00     0.002 C 
BRANCH  31  32
ATOM     32  C   UNL A   1      32.752  28.316  23.850  1.00  0.00     0.021 C 
BRANCH  32  33
ATOM     33  C   UNL A   1      33.603  29.077  24.863  1.00  0.00     0.116 C 
BRANCH  33  34
ATOM     34  N   UNL A   1      32.899  30.205  25.448  1.00  0.00    -0.352 N 
ATOM     35  C   UNL A   1      33.114  30.878  26.623  1.00  0.00     0.251 C 
ATOM     36  H   UNL A   1      32.144  30.542  24.914  1.00  0.00     0.163 HD
ATOM     37  O   UNL A   1      32.284  31.712  26.995  1.00  0.00    -0.269 OA
BRANCH  35  38
ATOM     38  C   UNL A   1      34.310  30.632  27.465  1.00  0.00     0.039 A 
ATOM     39  C   UNL A   1      35.227  31.676  27.643  1.00  0.00     0.014 A 
ATOM     40  C   UNL A   1      34.590  29.375  28.009  1.00  0.00     0.014 A 
ATOM     41  C   UNL A   1      36.397  31.472  28.381  1.00  0.00     0.010 A 
ATOM     42  C   UNL A   1      35.725  29.189  28.800  1.00  0.00     0.010 A 
ATOM     43  C   UNL A   1      36.651  30.228  28.978  1.00  0.00    -0.014 A 
BRANCH  43  44
ATOM     44  C   UNL A   1      37.894  29.983  29.755  1.00  0.00     0.031 A 
ATOM     45  C   UNL A   1      38.969  29.090  29.194  1.00  0.00     0.074 A 
ATOM     46  C   UNL A   1      38.036  30.515  30.984  1.00  0.00     0.049 A 
ATOM     47  N   UNL A   1      40.088  28.688  29.745  1.00  0.00    -0.248 NA
ATOM     48  C   UNL A   1      38.742  28.555  27.843  1.00  0.00     0.031 C 
ATOM     49  C   UNL A   1      37.055  31.370  31.652  1.00  0.00     0.029 A 
ATOM     50  N   UNL A   1      39.057  30.404  31.894  1.00  0.00    -0.354 N 
ATOM     51  C   UNL A   1      40.679  27.834  28.823  1.00  0.00     0.074 A 
ATOM     52  C   UNL A   1      39.779  27.744  27.694  1.00  0.00     0.031 C 
ATOM     53  C   UNL A   1      37.531  31.724  32.856  1.00  0.00     0.029 A 
ATOM     54  C   UNL A   1      38.832  31.093  33.061  1.00  0.00     0.049 A 
ATOM     55  H   UNL A   1      39.874  29.881  31.727  1.00  0.00     0.167 HD
ATOM     56  C   UNL A   1      41.872  27.197  28.904  1.00  0.00     0.037 A 
ATOM     57  C   UNL A   1      39.587  31.200  34.170  1.00  0.00     0.037 A 
ATOM     58  C   UNL A   1      42.786  27.324  30.008  1.00  0.00     0.049 A 
ATOM     59  C   UNL A   1      40.912  30.488  34.231  1.00  0.00     0.074 A 
ATOM     60  C   UNL A   1      44.053  26.786  30.148  1.00  0.00     0.029 A 
ATOM     61  N   UNL A   1      42.528  28.044  31.165  1.00  0.00    -0.354 N 
ATOM     62  N   UNL A   1      41.490  29.736  33.326  1.00  0.00    -0.248 NA
ATOM     63  C   UNL A   1      41.691  30.645  35.468  1.00  0.00     0.031 C 
ATOM     64  C   UNL A   1      44.544  27.146  31.408  1.00  0.00     0.029 A 
ATOM     65  C   UNL A   1      43.602  27.945  32.034  1.00  0.00     0.049 A 
ATOM     66  H   UNL A   1      41.702  28.551  31.343  1.00  0.00     0.167 HD
ATOM     67  C   UNL A   1      42.710  29.356  33.869  1.00  0.00     0.074 A 
ATOM     68  C   UNL A   1      42.793  29.968  35.179  1.00  0.00     0.031 C 
ATOM     69  C   UNL A   1      43.674  28.570  33.330  1.00  0.00     0.037 A 
BRANCH  56  70
ATOM     70  C   UNL A   1      42.259  26.297  27.765  1.00  0.00     0.064 A 
ATOM     71  C   UNL A   1      43.087  26.738  26.722  1.00  0.00     0.173 A 
ATOM     72  C   UNL A   1      41.821  24.964  27.734  1.00  0.00     0.173 A 
ATOM     73  F   UNL A   1      43.525  28.006  26.698  1.00  0.00    -0.203 F 
ATOM     74  C   UNL A   1      43.435  25.889  25.674  1.00  0.00     0.198 A 
ATOM     75  C   UNL A   1      42.195  24.109  26.700  1.00  0.00     0.198 A 
ATOM     76  F   UNL A   1      41.034  24.486  28.710  1.00  0.00    -0.203 F 
ATOM     77  F   UNL A   1      44.184  26.349  24.662  1.00  0.00    -0.200 F 
ATOM     78  C   UNL A   1      42.994  24.574  25.667  1.00  0.00     0.200 A 
ATOM     79  F   UNL A   1      41.779  22.835  26.701  1.00  0.00    -0.200 F 
ATOM     80  F   UNL A   1      43.334  23.758  24.659  1.00  0.00    -0.200 F 
ENDBRANCH  56  70
BRANCH  57  81
ATOM     81  C   UNL A   1      39.126  32.043  35.304  1.00  0.00     0.064 A 
ATOM     82  C   UNL A   1      38.405  31.479  36.366  1.00  0.00     0.173 A 
ATOM     83  C   UNL A   1      39.395  33.417  35.353  1.00  0.00     0.173 A 
ATOM     84  F   UNL A   1      38.106  30.172  36.352  1.00  0.00    -0.203 F 
ATOM     85  C   UNL A   1      37.957  32.262  37.427  1.00  0.00     0.198 A 
ATOM     86  C   UNL A   1      38.969  34.195  36.429  1.00  0.00     0.198 A 
ATOM     87  F   UNL A   1      40.083  34.004  34.363  1.00  0.00    -0.203 F 
ATOM     88  F   UNL A   1      37.236  31.704  38.410  1.00  0.00    -0.200 F 
ATOM     89  C   UNL A   1      38.245  33.617  37.461  1.00  0.00     0.200 A 
ATOM     90  F   UNL A   1      39.258  35.503  36.464  1.00  0.00    -0.200 F 
ATOM     91  F   UNL A   1      37.819  34.369  38.485  1.00  0.00    -0.200 F 
ENDBRANCH  57  81
BRANCH  69  92
ATOM     92  C   UNL A   1      44.920  28.357  34.140  1.00  0.00     0.064 A 
ATOM     93  C   UNL A   1      45.050  27.268  35.015  1.00  0.00     0.173 A 
ATOM     94  C   UNL A   1      46.009  29.230  34.007  1.00  0.00     0.173 A 
ATOM     95  F   UNL A   1      44.030  26.415  35.188  1.00  0.00    -0.203 F 
ATOM     96  C   UNL A   1      46.220  27.077  35.746  1.00  0.00     0.198 A 
ATOM     97  C   UNL A   1      47.186  29.020  34.719  1.00  0.00     0.198 A 
ATOM     98  F   UNL A   1      45.935  30.282  33.179  1.00  0.00    -0.203 F 
ATOM     99  F   UNL A   1      46.307  26.056  36.610  1.00  0.00    -0.200 F 
ATOM    100  C   UNL A   1      47.289  27.947  35.592  1.00  0.00     0.200 A 
ATOM    101  F   UNL A   1      48.222  29.854  34.559  1.00  0.00    -0.200 F 
ATOM    102  F   UNL A   1      48.416  27.757  36.291  1.00  0.00    -0.200 F 
ENDBRANCH  69  92
ENDBRANCH  43  44
ENDBRANCH  35  38
ENDBRANCH  33  34
ENDBRANCH  32  33
ENDBRANCH  31  32
ENDBRANCH   1  31
TORSDOF 16
ENDMDL
MODEL 2
REMARK VINA RESULT:     -13.2      2.253      7.252
REMARK SMILES O=C(NCCCCCCNC(=O)c1ccc(-c2c3nc(c(-c4c(F)c(F)c(F)c(F)c4F)c4ccc([nH]4)c(-c4c(F)c(F)c(F)c(F)c4F)c4nc(c(-c5c(F)c(F)c(F)c(F)c5F)c5ccc2[nH]5)C=C4)C=C3)cc1)C1=Cc2cc(Cl)cc(-c3ccc(O)cc3)c2O[C@@H]1C(F)(F)F
REMARK SMILES IDX 6 1 5 2 4 3 3 4 1 5 2 6 76 8 77 9 93 10 78 11 92 12 79 13
REMARK SMILES IDX 91 14 80 15 83 16 81 17 82 18 94 19 95 20 96 21 97 22 84 23
REMARK SMILES IDX 85 24 90 25 86 26 89 27 87 28 88 29 7 31 8 32 9 33 10 34
REMARK SMILES IDX 11 35 12 37 13 38 14 39 75 40 15 41 74 42 16 43 17 44 18 45
REMARK SMILES IDX 68 46 19 47 73 48 67 49 69 50 20 51 72 52 66 53 65 54 21 56
REMARK SMILES IDX 53 57 33 58 52 59 34 60 37 61 51 62 70 63 35 64 36 65 50 67
REMARK SMILES IDX 71 68 38 69 22 70 23 71 31 72 24 73 25 74 29 75 32 76 26 77
REMARK SMILES IDX 27 78 30 79 28 80 54 81 55 82 63 83 56 84 57 85 61 86 64 87
REMARK SMILES IDX 58 88 59 89 62 90 60 91 39 92 40 93 48 94 41 95 42 96 46 97
REMARK SMILES IDX 49 98 43 99 44 100 47 101 45 102
REMARK H PARENT 3 7 88 30 10 36 69 55 37 66
REMARK Flexibility Score: inf
ROOT
ATOM      1  C   UNL A   1      30.915  27.967  23.915  1.00  0.00     0.002 C 
ENDROOT
BRANCH   1   2
ATOM      2  C   UNL A   1      30.438  26.867  24.865  1.00  0.00     0.021 C 
BRANCH   2   3
ATOM      3  C   UNL A   1      31.025  26.844  26.275  1.00  0.00     0.116 C 
BRANCH   3   4
ATOM      4  N   UNL A   1      31.213  25.535  26.877  1.00  0.00    -0.352 N 
ATOM      5  O   UNL A   1      32.228  23.571  27.283  1.00  0.00    -0.270 OA
ATOM      6  C   UNL A   1      32.092  24.538  26.535  1.00  0.00     0.251 C 
ATOM      7  H   UNL A   1      30.626  25.335  27.641  1.00  0.00     0.163 HD
BRANCH   6   8
ATOM      8  C   UNL A   1      32.963  24.618  25.323  1.00  0.00     0.067 C 
ATOM      9  C   UNL A   1      34.280  24.865  25.420  1.00  0.00     0.025 C 
ATOM     10  C   UNL A   1      32.484  23.741  24.189  1.00  0.00     0.314 C 
ATOM     11  C   UNL A   1      35.111  23.688  25.073  1.00  0.00     0.019 A 
ATOM     12  O   UNL A   1      33.187  22.471  24.196  1.00  0.00    -0.475 OA
ATOM     13  C   UNL A   1      36.437  23.680  25.519  1.00  0.00     0.032 A 
ATOM     14  C   UNL A   1      34.497  22.500  24.621  1.00  0.00     0.135 A 
ATOM     15  C   UNL A   1      37.123  22.474  25.585  1.00  0.00     0.042 A 
ATOM     16  C   UNL A   1      35.176  21.274  24.731  1.00  0.00     0.026 A 
ATOM     17  Cl  UNL A   1      38.690  22.425  26.297  1.00  0.00    -0.084 Cl
ATOM     18  C   UNL A   1      36.503  21.285  25.206  1.00  0.00     0.033 A 
BRANCH  10  19
ATOM     19  C   UNL A   1      32.581  24.461  22.828  1.00  0.00     0.429 C 
ATOM     20  F   UNL A   1      31.363  24.842  22.378  1.00  0.00    -0.167 F 
ATOM     21  F   UNL A   1      33.338  25.583  22.914  1.00  0.00    -0.167 F 
ATOM     22  F   UNL A   1      33.137  23.687  21.866  1.00  0.00    -0.167 F 
ENDBRANCH  10  19
BRANCH  16  23
ATOM     23  C   UNL A   1      34.505  19.969  24.605  1.00  0.00    -0.014 A 
ATOM     24  C   UNL A   1      35.278  18.796  24.626  1.00  0.00     0.012 A 
ATOM     25  C   UNL A   1      33.140  19.857  24.316  1.00  0.00     0.012 A 
ATOM     26  C   UNL A   1      34.732  17.558  24.290  1.00  0.00     0.047 A 
ATOM     27  C   UNL A   1      32.580  18.612  24.000  1.00  0.00     0.047 A 
ATOM     28  C   UNL A   1      33.389  17.479  23.963  1.00  0.00     0.115 A 
BRANCH  28  29
ATOM     29  O   UNL A   1      32.903  16.261  23.595  1.00  0.00    -0.508 OA
ATOM     30  H   UNL A   1      33.320  15.479  23.897  1.00  0.00     0.293 HD
ENDBRANCH  28  29
ENDBRANCH  16  23
ENDBRANCH   6   8
ENDBRANCH   3   4
ENDBRANCH   2   3
ENDBRANCH   1   2
BRANCH   1  31
ATOM     31  C   UNL A   1      31.756  29.105  24.507  1.00  0.00     0.002 C 
BRANCH  31  32
ATOM     32  C   UNL A   1      33.279  28.933  24.514  1.00  0.00     0.021 C 
BRANCH  32  33
ATOM     33  C   UNL A   1      33.958  28.933  25.880  1.00  0.00     0.116 C 
BRANCH  33  34
ATOM     34  N   UNL A   1      33.746  30.172  26.609  1.00  0.00    -0.352 N 
ATOM     35  C   UNL A   1      34.469  30.744  27.623  1.00  0.00     0.251 C 
ATOM     36  H   UNL A   1      32.954  30.685  26.329  1.00  0.00     0.163 HD
ATOM     37  O   UNL A   1      34.009  31.731  28.203  1.00  0.00    -0.269 OA
BRANCH  35  38
ATOM     38  C   UNL A   1      35.787  30.212  28.050  1.00  0.00     0.039 A 
ATOM     39  C   UNL A   1      35.898  29.654  29.330  1.00  0.00     0.014 A 
ATOM     40  C   UNL A   1      36.928  30.328  27.250  1.00  0.00     0.014 A 
ATOM     41  C   UNL A   1      37.134  29.192  29.794  1.00  0.00     0.010 A 
ATOM     42  C   UNL A   1      38.147  29.808  27.688  1.00  0.00     0.010 A 
ATOM     43  C   UNL A   1      38.268  29.253  28.972  1.00  0.00    -0.014 A 
BRANCH  43  44
ATOM     44  C   UNL A   1      39.595  28.781  29.449  1.00  0.00     0.031 A 
ATOM     45  C   UNL A   1      40.386  29.615  30.422  1.00  0.00     0.074 A 
ATOM     46  C   UNL A   1      40.115  27.636  28.968  1.00  0.00     0.049 A 
ATOM     47  N   UNL A   1      41.591  29.420  30.897  1.00  0.00    -0.248 NA
ATOM     48  C   UNL A   1      39.745  30.848  30.905  1.00  0.00     0.031 C 
ATOM     49  C   UNL A   1      39.465  26.755  27.998  1.00  0.00     0.029 A 
ATOM     50  N   UNL A   1      41.317  27.023  29.222  1.00  0.00    -0.354 N 
ATOM     51  C   UNL A   1      41.861  30.516  31.706  1.00  0.00     0.074 A 
ATOM     52  C   UNL A   1      40.712  31.391  31.630  1.00  0.00     0.031 C 
ATOM     53  C   UNL A   1      40.264  25.704  27.756  1.00  0.00     0.029 A 
ATOM     54  C   UNL A   1      41.497  25.854  28.523  1.00  0.00     0.049 A 
ATOM     55  H   UNL A   1      41.985  27.386  29.847  1.00  0.00     0.167 HD
ATOM     56  C   UNL A   1      42.961  30.761  32.459  1.00  0.00     0.037 A 
ATOM     57  C   UNL A   1      42.541  25.004  28.502  1.00  0.00     0.037 A 
ATOM     58  C   UNL A   1      44.084  29.867  32.570  1.00  0.00     0.049 A 
ATOM     59  C   UNL A   1      43.747  25.296  29.353  1.00  0.00     0.074 A 
ATOM     60  C   UNL A   1      45.207  29.984  33.368  1.00  0.00     0.029 A 
ATOM     61  N   UNL A   1      44.222  28.685  31.857  1.00  0.00    -0.354 N 
ATOM     62  N   UNL A   1      43.964  26.302  30.165  1.00  0.00    -0.248 NA
ATOM     63  C   UNL A   1      44.853  24.329  29.287  1.00  0.00     0.031 C 
ATOM     64  C   UNL A   1      46.046  28.895  33.107  1.00  0.00     0.029 A 
ATOM     65  C   UNL A   1      45.424  28.076  32.180  1.00  0.00     0.049 A 
ATOM     66  H   UNL A   1      43.564  28.331  31.215  1.00  0.00     0.167 HD
ATOM     67  C   UNL A   1      45.212  26.075  30.728  1.00  0.00     0.074 A 
ATOM     68  C   UNL A   1      45.702  24.831  30.172  1.00  0.00     0.031 C 
ATOM     69  C   UNL A   1      45.891  26.831  31.626  1.00  0.00     0.037 A 
BRANCH  56  70
ATOM     70  C   UNL A   1      43.008  32.053  33.223  1.00  0.00     0.064 A 
ATOM     71  C   UNL A   1      42.496  32.162  34.525  1.00  0.00     0.173 A 
ATOM     72  C   UNL A   1      43.602  33.191  32.656  1.00  0.00     0.173 A 
ATOM     73  F   UNL A   1      41.908  31.107  35.110  1.00  0.00    -0.203 F 
ATOM     74  C   UNL A   1      42.548  33.369  35.218  1.00  0.00     0.198 A 
ATOM     75  C   UNL A   1      43.679  34.389  33.363  1.00  0.00     0.198 A 
ATOM     76  F   UNL A   1      44.115  33.142  31.417  1.00  0.00    -0.203 F 
ATOM     77  F   UNL A   1      42.006  33.462  36.440  1.00  0.00    -0.200 F 
ATOM     78  C   UNL A   1      43.144  34.479  34.639  1.00  0.00     0.200 A 
ATOM     79  F   UNL A   1      44.267  35.457  32.807  1.00  0.00    -0.200 F 
ATOM     80  F   UNL A   1      43.197  35.638  35.310  1.00  0.00    -0.200 F 
ENDBRANCH  56  70
BRANCH  57  81
ATOM     81  C   UNL A   1      42.479  23.774  27.670  1.00  0.00     0.064 A 
ATOM     82  C   UNL A   1      42.018  22.567  28.213  1.00  0.00     0.173 A 
ATOM     83  C   UNL A   1      42.871  23.778  26.324  1.00  0.00     0.173 A 
ATOM     84  F   UNL A   1      41.652  22.510  29.501  1.00  0.00    -0.203 F 
ATOM     85  C   UNL A   1      41.967  21.406  27.446  1.00  0.00     0.198 A 
ATOM     86  C   UNL A   1      42.795  22.621  25.550  1.00  0.00     0.198 A 
ATOM     87  F   UNL A   1      43.316  24.908  25.756  1.00  0.00    -0.203 F 
ATOM     88  F   UNL A   1      41.560  20.256  28.001  1.00  0.00    -0.200 F 
ATOM     89  C   UNL A   1      42.350  21.435  26.114  1.00  0.00     0.200 A 
ATOM     90  F   UNL A   1      43.154  22.656  24.259  1.00  0.00    -0.200 F 
ATOM     91  F   UNL A   1      42.295  20.319  25.374  1.00  0.00    -0.200 F 
ENDBRANCH  57  81
BRANCH  69  92
ATOM     92  C   UNL A   1      47.221  26.315  32.093  1.00  0.00     0.064 A 
ATOM     93  C   UNL A   1      47.329  25.452  33.193  1.00  0.00     0.173 A 
ATOM     94  C   UNL A   1      48.395  26.657  31.405  1.00  0.00     0.173 A 
ATOM     95  F   UNL A   1      46.237  25.109  33.892  1.00  0.00    -0.203 F 
ATOM     96  C   UNL A   1      48.570  24.969  33.601  1.00  0.00     0.198 A 
ATOM     97  C   UNL A   1      49.629  26.150  31.800  1.00  0.00     0.198 A 
ATOM     98  F   UNL A   1      48.343  27.474  30.343  1.00  0.00    -0.203 F 
ATOM     99  F   UNL A   1      48.657  24.181  34.682  1.00  0.00    -0.200 F 
ATOM    100  C   UNL A   1      49.717  25.311  32.902  1.00  0.00     0.200 A 
ATOM    101  F   UNL A   1      50.735  26.471  31.115  1.00  0.00    -0.200 F 
ATOM    102  F   UNL A   1      50.908  24.840  33.292  1.00  0.00    -0.200 F 
ENDBRANCH  69  92
ENDBRANCH  43  44
ENDBRANCH  35  38
ENDBRANCH  33  34
ENDBRANCH  32  33
ENDBRANCH  31  32
ENDBRANCH   1  31
TORSDOF 16
ENDMDL
MODEL 3
REMARK VINA RESULT:     -13.1      0.228      1.943
REMARK SMILES O=C(NCCCCCCNC(=O)c1ccc(-c2c3nc(c(-c4c(F)c(F)c(F)c(F)c4F)c4ccc([nH]4)c(-c4c(F)c(F)c(F)c(F)c4F)c4nc(c(-c5c(F)c(F)c(F)c(F)c5F)c5ccc2[nH]5)C=C4)C=C3)cc1)C1=Cc2cc(Cl)cc(-c3ccc(O)cc3)c2O[C@@H]1C(F)(F)F
REMARK SMILES IDX 6 1 5 2 4 3 3 4 1 5 2 6 76 8 77 9 93 10 78 11 92 12 79 13
REMARK SMILES IDX 91 14 80 15 83 16 81 17 82 18 94 19 95 20 96 21 97 22 84 23
REMARK SMILES IDX 85 24 90 25 86 26 89 27 87 28 88 29 7 31 8 32 9 33 10 34
REMARK SMILES IDX 11 35 12 37 13 38 14 39 75 40 15 41 74 42 16 43 17 44 18 45
REMARK SMILES IDX 68 46 19 47 73 48 67 49 69 50 20 51 72 52 66 53 65 54 21 56
REMARK SMILES IDX 53 57 33 58 52 59 34 60 37 61 51 62 70 63 35 64 36 65 50 67
REMARK SMILES IDX 71 68 38 69 22 70 23 71 31 72 24 73 25 74 29 75 32 76 26 77
REMARK SMILES IDX 27 78 30 79 28 80 54 81 55 82 63 83 56 84 57 85 61 86 64 87
REMARK SMILES IDX 58 88 59 89 62 90 60 91 39 92 40 93 48 94 41 95 42 96 46 97
REMARK SMILES IDX 49 98 43 99 44 100 47 101 45 102
REMARK H PARENT 3 7 88 30 10 36 69 55 37 66
REMARK Flexibility Score: inf
ROOT
ATOM      1  C   UNL A   1      30.349  27.296  23.835  1.00  0.00     0.002 C 
ENDROOT
BRANCH   1   2
ATOM      2  C   UNL A   1      30.132  26.253  24.932  1.00  0.00     0.021 C 
BRANCH   2   3
ATOM      3  C   UNL A   1      30.997  26.353  26.186  1.00  0.00     0.116 C 
BRANCH   3   4
ATOM      4  N   UNL A   1      31.267  25.110  26.888  1.00  0.00    -0.352 N 
ATOM      5  O   UNL A   1      32.381  23.229  27.413  1.00  0.00    -0.270 OA
ATOM      6  C   UNL A   1      32.172  24.122  26.592  1.00  0.00     0.251 C 
ATOM      7  H   UNL A   1      30.721  24.954  27.692  1.00  0.00     0.163 HD
BRANCH   6   8
ATOM      8  C   UNL A   1      32.987  24.130  25.339  1.00  0.00     0.067 C 
ATOM      9  C   UNL A   1      34.314  24.337  25.367  1.00  0.00     0.025 C 
ATOM     10  C   UNL A   1      32.428  23.231  24.262  1.00  0.00     0.314 C 
ATOM     11  C   UNL A   1      35.091  23.122  25.026  1.00  0.00     0.019 A 
ATOM     12  O   UNL A   1      33.090  21.939  24.282  1.00  0.00    -0.475 OA
ATOM     13  C   UNL A   1      36.436  23.085  25.411  1.00  0.00     0.032 A 
ATOM     14  C   UNL A   1      34.420  21.939  24.646  1.00  0.00     0.135 A 
ATOM     15  C   UNL A   1      37.086  21.861  25.489  1.00  0.00     0.042 A 
ATOM     16  C   UNL A   1      35.064  20.696  24.770  1.00  0.00     0.026 A 
ATOM     17  Cl  UNL A   1      38.682  21.785  26.130  1.00  0.00    -0.084 Cl
ATOM     18  C   UNL A   1      36.411  20.680  25.183  1.00  0.00     0.033 A 
BRANCH  10  19
ATOM     19  C   UNL A   1      32.484  23.899  22.873  1.00  0.00     0.429 C 
ATOM     20  F   UNL A   1      32.928  23.043  21.924  1.00  0.00    -0.167 F 
ATOM     21  F   UNL A   1      31.258  24.323  22.477  1.00  0.00    -0.167 F 
ATOM     22  F   UNL A   1      33.299  24.982  22.845  1.00  0.00    -0.167 F 
ENDBRANCH  10  19
BRANCH  16  23
ATOM     23  C   UNL A   1      34.347  19.411  24.723  1.00  0.00    -0.014 A 
ATOM     24  C   UNL A   1      33.075  19.313  25.312  1.00  0.00     0.012 A 
ATOM     25  C   UNL A   1      34.945  18.239  24.244  1.00  0.00     0.012 A 
ATOM     26  C   UNL A   1      32.450  18.081  25.496  1.00  0.00     0.047 A 
ATOM     27  C   UNL A   1      34.312  17.000  24.405  1.00  0.00     0.047 A 
ATOM     28  C   UNL A   1      33.082  16.931  25.055  1.00  0.00     0.115 A 
BRANCH  28  29
ATOM     29  O   UNL A   1      32.462  15.742  25.293  1.00  0.00    -0.508 OA
ATOM     30  H   UNL A   1      32.919  15.056  25.738  1.00  0.00     0.293 HD
ENDBRANCH  28  29
ENDBRANCH  16  23
ENDBRANCH   6   8
ENDBRANCH   3   4
ENDBRANCH   2   3
ENDBRANCH   1   2
BRANCH   1  31
ATOM     31  C   UNL A   1      31.040  28.609  24.224  1.00  0.00     0.002 C 
BRANCH  31  32
ATOM     32  C   UNL A   1      32.554  28.706  24.004  1.00  0.00     0.021 C 
BRANCH  32  33
ATOM     33  C   UNL A   1      33.380  29.234  25.174  1.00  0.00     0.116 C 
BRANCH  33  34
ATOM     34  N   UNL A   1      32.850  30.472  25.718  1.00  0.00    -0.352 N 
ATOM     35  C   UNL A   1      33.258  31.222  26.791  1.00  0.00     0.251 C 
ATOM     36  H   UNL A   1      32.070  30.833  25.238  1.00  0.00     0.163 HD
ATOM     37  O   UNL A   1      32.553  32.163  27.166  1.00  0.00    -0.269 OA
BRANCH  35  38
ATOM     38  C   UNL A   1      34.519  30.935  27.517  1.00  0.00     0.039 A 
ATOM     39  C   UNL A   1      34.738  29.633  27.987  1.00  0.00     0.014 A 
ATOM     40  C   UNL A   1      35.446  31.938  27.819  1.00  0.00     0.014 A 
ATOM     41  C   UNL A   1      35.886  29.332  28.726  1.00  0.00     0.010 A 
ATOM     42  C   UNL A   1      36.623  31.623  28.500  1.00  0.00     0.010 A 
ATOM     43  C   UNL A   1      36.847  30.323  28.979  1.00  0.00    -0.014 A 
BRANCH  43  44
ATOM     44  C   UNL A   1      38.068  30.030  29.775  1.00  0.00     0.031 A 
ATOM     45  C   UNL A   1      39.122  29.106  29.225  1.00  0.00     0.074 A 
ATOM     46  C   UNL A   1      38.206  30.546  31.010  1.00  0.00     0.049 A 
ATOM     47  N   UNL A   1      40.217  28.662  29.791  1.00  0.00    -0.248 NA
ATOM     48  C   UNL A   1      38.900  28.590  27.865  1.00  0.00     0.031 C 
ATOM     49  C   UNL A   1      37.243  31.428  31.669  1.00  0.00     0.029 A 
ATOM     50  N   UNL A   1      39.206  30.394  31.937  1.00  0.00    -0.354 N 
ATOM     51  C   UNL A   1      40.795  27.796  28.872  1.00  0.00     0.074 A 
ATOM     52  C   UNL A   1      39.912  27.745  27.726  1.00  0.00     0.031 C 
ATOM     53  C   UNL A   1      37.709  31.757  32.885  1.00  0.00     0.029 A 
ATOM     54  C   UNL A   1      38.984  31.081  33.106  1.00  0.00     0.049 A 
ATOM     55  H   UNL A   1      40.008  29.845  31.780  1.00  0.00     0.167 HD
ATOM     56  C   UNL A   1      41.964  27.119  28.967  1.00  0.00     0.037 A 
ATOM     57  C   UNL A   1      39.724  31.153  34.229  1.00  0.00     0.037 A 
ATOM     58  C   UNL A   1      42.863  27.206  30.088  1.00  0.00     0.049 A 
ATOM     59  C   UNL A   1      41.023  30.397  34.305  1.00  0.00     0.074 A 
ATOM     60  C   UNL A   1      44.109  26.625  30.245  1.00  0.00     0.029 A 
ATOM     61  N   UNL A   1      42.609  27.926  31.247  1.00  0.00    -0.354 N 
ATOM     62  N   UNL A   1      41.591  29.633  33.404  1.00  0.00    -0.248 NA
ATOM     63  C   UNL A   1      41.785  30.517  35.557  1.00  0.00     0.031 C 
ATOM     64  C   UNL A   1      44.590  26.958  31.516  1.00  0.00     0.029 A 
ATOM     65  C   UNL A   1      43.664  27.783  32.133  1.00  0.00     0.049 A 
ATOM     66  H   UNL A   1      41.797  28.458  31.415  1.00  0.00     0.167 HD
ATOM     67  C   UNL A   1      42.787  29.208  33.965  1.00  0.00     0.074 A 
ATOM     68  C   UNL A   1      42.868  29.806  35.281  1.00  0.00     0.031 C 
ATOM     69  C   UNL A   1      43.734  28.394  33.435  1.00  0.00     0.037 A 
BRANCH  56  70
ATOM     70  C   UNL A   1      42.341  26.216  27.828  1.00  0.00     0.064 A 
ATOM     71  C   UNL A   1      41.821  24.917  27.711  1.00  0.00     0.173 A 
ATOM     72  C   UNL A   1      43.209  26.666  26.822  1.00  0.00     0.173 A 
ATOM     73  F   UNL A   1      40.995  24.434  28.651  1.00  0.00    -0.203 F 
ATOM     74  C   UNL A   1      42.182  24.093  26.647  1.00  0.00     0.198 A 
ATOM     75  C   UNL A   1      43.545  25.850  25.744  1.00  0.00     0.198 A 
ATOM     76  F   UNL A   1      43.729  27.901  26.880  1.00  0.00    -0.203 F 
ATOM     77  F   UNL A   1      41.713  22.839  26.585  1.00  0.00    -0.200 F 
ATOM     78  C   UNL A   1      43.038  24.562  25.662  1.00  0.00     0.200 A 
ATOM     79  F   UNL A   1      44.362  26.309  24.786  1.00  0.00    -0.200 F 
ATOM     80  F   UNL A   1      43.380  23.769  24.638  1.00  0.00    -0.200 F 
ENDBRANCH  56  70
BRANCH  57  81
ATOM     81  C   UNL A   1      39.271  32.002  35.361  1.00  0.00     0.064 A 
ATOM     82  C   UNL A   1      39.624  33.357  35.424  1.00  0.00     0.173 A 
ATOM     83  C   UNL A   1      38.480  31.484  36.396  1.00  0.00     0.173 A 
ATOM     84  F   UNL A   1      40.397  33.892  34.469  1.00  0.00    -0.203 F 
ATOM     85  C   UNL A   1      39.216  34.159  36.487  1.00  0.00     0.198 A 
ATOM     86  C   UNL A   1      38.050  32.293  37.446  1.00  0.00     0.198 A 
ATOM     87  F   UNL A   1      38.113  30.195  36.381  1.00  0.00    -0.203 F 
ATOM     88  F   UNL A   1      39.601  35.441  36.543  1.00  0.00    -0.200 F 
ATOM     89  C   UNL A   1      38.424  33.628  37.494  1.00  0.00     0.200 A 
ATOM     90  F   UNL A   1      37.275  31.780  38.412  1.00  0.00    -0.200 F 
ATOM     91  F   UNL A   1      38.026  34.400  38.514  1.00  0.00    -0.200 F 
ENDBRANCH  57  81
BRANCH  69  92
ATOM     92  C   UNL A   1      44.958  28.133  34.264  1.00  0.00     0.064 A 
ATOM     93  C   UNL A   1      46.073  28.983  34.217  1.00  0.00     0.173 A 
ATOM     94  C   UNL A   1      44.997  27.042  35.145  1.00  0.00     0.173 A 
ATOM     95  F   UNL A   1      46.089  30.029  33.378  1.00  0.00    -0.203 F 
ATOM     96  C   UNL A   1      47.193  28.734  35.006  1.00  0.00     0.198 A 
ATOM     97  C   UNL A   1      46.107  26.814  35.952  1.00  0.00     0.198 A 
ATOM     98  F   UNL A   1      43.954  26.205  35.232  1.00  0.00    -0.203 F 
ATOM     99  F   UNL A   1      48.265  29.533  34.913  1.00  0.00    -0.200 F 
ATOM    100  C   UNL A   1      47.207  27.656  35.878  1.00  0.00     0.200 A 
ATOM    101  F   UNL A   1      46.114  25.779  36.803  1.00  0.00    -0.200 F 
ATOM    102  F   UNL A   1      48.283  27.424  36.641  1.00  0.00    -0.200 F 
ENDBRANCH  69  92
ENDBRANCH  43  44
ENDBRANCH  35  38
ENDBRANCH  33  34
ENDBRANCH  32  33
ENDBRANCH  31  32
ENDBRANCH   1  31
TORSDOF 16
ENDMDL
