MODEL 1
REMARK VINA RESULT:     -11.7      0.000      0.000
REMARK SMILES Cn1nccc1/C=C/C(=O)N[C@H](CO)C(=O)NCCCCCCNC(=O)c1ccc(-c2c3nc(c(-c4c(F)c(F)c(F)c(F)c4F)c4ccc([nH]4)c(-c4c(F)c(F)c(F)c(F)c4F)c4nc(c(-c5c(F)c(F)c(F)c(F)c5F)c5ccc2[nH]5)C=C4)C=C3)cc1
REMARK SMILES IDX 20 1 19 2 18 3 17 4 15 5 16 6 12 8 11 9 9 10 10 11 8 13 7 14
REMARK SMILES IDX 6 15 1 16 2 17 3 18 4 19 5 20 13 21 14 22 21 24 22 25 23 26
REMARK SMILES IDX 24 27 25 28 26 30 27 31 28 32 89 33 29 34 88 35 30 36 31 37
REMARK SMILES IDX 32 38 82 39 33 40 87 41 81 42 83 43 34 44 86 45 80 46 79 47
REMARK SMILES IDX 35 49 67 50 47 51 66 52 48 53 51 54 65 55 84 56 49 57 50 58
REMARK SMILES IDX 64 60 85 61 52 62 36 63 37 64 45 65 38 66 39 67 43 68 46 69
REMARK SMILES IDX 40 70 41 71 44 72 42 73 68 74 69 75 77 76 70 77 71 78 75 79
REMARK SMILES IDX 78 80 72 81 73 82 76 83 74 84 53 85 54 86 62 87 55 88 56 89
REMARK SMILES IDX 60 90 63 91 57 92 58 93 61 94 59 95
REMARK H PARENT 17 7 11 12 14 23 24 29 83 48 51 59
REMARK Flexibility Score: inf
ROOT
ATOM      1  C   UNL A   1      32.290  29.938  26.851  1.00  0.00     0.002 C 
ENDROOT
BRANCH   1   2
ATOM      2  C   UNL A   1      32.135  28.436  26.605  1.00  0.00     0.021 C 
BRANCH   2   3
ATOM      3  C   UNL A   1      33.341  27.774  25.928  1.00  0.00     0.116 C 
BRANCH   3   4
ATOM      4  N   UNL A   1      33.807  28.590  24.820  1.00  0.00    -0.354 N 
ATOM      5  C   UNL A   1      33.499  28.631  23.501  1.00  0.00     0.244 C 
ATOM      6  O   UNL A   1      34.273  29.294  22.791  1.00  0.00    -0.273 OA
ATOM      7  H   UNL A   1      34.488  29.251  25.082  1.00  0.00     0.163 HD
BRANCH   5   8
ATOM      8  C   UNL A   1      32.269  27.964  22.826  1.00  0.00     0.197 C 
BRANCH   8   9
ATOM      9  N   UNL A   1      32.359  27.030  21.700  1.00  0.00    -0.339 N 
ATOM     10  C   UNL A   1      32.992  25.866  21.437  1.00  0.00     0.244 C 
ATOM     11  O   UNL A   1      32.952  25.459  20.273  1.00  0.00    -0.270 OA
ATOM     12  H   UNL A   1      31.816  27.328  20.935  1.00  0.00     0.164 HD
BRANCH  10  13
ATOM     13  C   UNL A   1      33.657  25.004  22.438  1.00  0.00     0.073 C 
ATOM     14  C   UNL A   1      33.386  23.733  22.753  1.00  0.00     0.033 C 
BRANCH  14  15
ATOM     15  C   UNL A   1      34.266  22.961  23.555  1.00  0.00     0.061 A 
ATOM     16  C   UNL A   1      32.519  21.206  24.170  1.00  0.00     0.174 C 
ATOM     17  N   UNL A   1      33.847  21.781  24.139  1.00  0.00    -0.269 N 
ATOM     18  N   UNL A   1      34.842  21.116  24.761  1.00  0.00    -0.181 NA
ATOM     19  C   UNL A   1      35.904  21.906  24.614  1.00  0.00     0.136 A 
ATOM     20  C   UNL A   1      35.606  23.066  23.882  1.00  0.00     0.050 A 
ENDBRANCH  14  15
ENDBRANCH  10  13
ENDBRANCH   8   9
BRANCH   8  21
ATOM     21  C   UNL A   1      31.038  28.913  22.754  1.00  0.00     0.191 C 
BRANCH  21  22
ATOM     22  O   UNL A   1      31.134  29.929  21.757  1.00  0.00    -0.394 OA
ATOM     23  H   UNL A   1      30.274  30.039  21.323  1.00  0.00     0.210 HD
ENDBRANCH  21  22
ENDBRANCH   8  21
ENDBRANCH   5   8
ENDBRANCH   3   4
ENDBRANCH   2   3
ENDBRANCH   1   2
BRANCH   1  24
ATOM     24  C   UNL A   1      31.392  30.826  25.982  1.00  0.00     0.002 C 
BRANCH  24  25
ATOM     25  C   UNL A   1      31.302  32.297  26.405  1.00  0.00     0.021 C 
BRANCH  25  26
ATOM     26  C   UNL A   1      32.436  32.787  27.303  1.00  0.00     0.116 C 
BRANCH  26  27
ATOM     27  N   UNL A   1      32.314  34.205  27.611  1.00  0.00    -0.352 N 
ATOM     28  C   UNL A   1      32.963  34.962  28.551  1.00  0.00     0.251 C 
ATOM     29  H   UNL A   1      31.664  34.697  27.058  1.00  0.00     0.163 HD
ATOM     30  O   UNL A   1      32.558  36.097  28.815  1.00  0.00    -0.269 OA
BRANCH  28  31
ATOM     31  C   UNL A   1      34.141  34.430  29.264  1.00  0.00     0.039 A 
ATOM     32  C   UNL A   1      33.965  33.835  30.518  1.00  0.00     0.014 A 
ATOM     33  C   UNL A   1      35.424  34.549  28.721  1.00  0.00     0.014 A 
ATOM     34  C   UNL A   1      35.062  33.298  31.194  1.00  0.00     0.010 A 
ATOM     35  C   UNL A   1      36.509  33.959  29.367  1.00  0.00     0.010 A 
ATOM     36  C   UNL A   1      36.338  33.324  30.608  1.00  0.00    -0.014 A 
BRANCH  36  37
ATOM     37  C   UNL A   1      37.504  32.682  31.266  1.00  0.00     0.031 A 
ATOM     38  C   UNL A   1      38.220  31.543  30.598  1.00  0.00     0.074 A 
ATOM     39  C   UNL A   1      37.872  33.078  32.498  1.00  0.00     0.049 A 
ATOM     40  N   UNL A   1      39.195  30.798  31.051  1.00  0.00    -0.248 NA
ATOM     41  C   UNL A   1      37.762  31.181  29.247  1.00  0.00     0.031 C 
ATOM     42  C   UNL A   1      37.239  34.153  33.264  1.00  0.00     0.029 A 
ATOM     43  N   UNL A   1      38.860  32.615  33.330  1.00  0.00    -0.354 N 
ATOM     44  C   UNL A   1      39.462  29.874  30.050  1.00  0.00     0.074 A 
ATOM     45  C   UNL A   1      38.512  30.120  28.985  1.00  0.00     0.031 C 
ATOM     46  C   UNL A   1      37.867  34.281  34.443  1.00  0.00     0.029 A 
ATOM     47  C   UNL A   1      38.917  33.271  34.536  1.00  0.00     0.049 A 
ATOM     48  H   UNL A   1      39.471  31.882  33.087  1.00  0.00     0.167 HD
ATOM     49  C   UNL A   1      40.424  28.920  30.013  1.00  0.00     0.037 A 
ATOM     50  C   UNL A   1      39.717  33.072  35.599  1.00  0.00     0.037 A 
ATOM     51  C   UNL A   1      41.375  28.686  31.067  1.00  0.00     0.049 A 
ATOM     52  C   UNL A   1      40.746  31.976  35.552  1.00  0.00     0.074 A 
ATOM     53  C   UNL A   1      42.425  27.784  31.101  1.00  0.00     0.029 A 
ATOM     54  N   UNL A   1      41.390  29.359  32.281  1.00  0.00    -0.354 N 
ATOM     55  N   UNL A   1      41.027  31.146  34.579  1.00  0.00    -0.248 NA
ATOM     56  C   UNL A   1      41.565  31.787  36.758  1.00  0.00     0.031 C 
ATOM     57  C   UNL A   1      43.045  27.878  32.351  1.00  0.00     0.029 A 
ATOM     58  C   UNL A   1      42.410  28.870  33.082  1.00  0.00     0.049 A 
ATOM     59  H   UNL A   1      40.766  30.077  32.536  1.00  0.00     0.167 HD
ATOM     60  C   UNL A   1      42.067  30.351  35.042  1.00  0.00     0.074 A 
ATOM     61  C   UNL A   1      42.377  30.808  36.380  1.00  0.00     0.031 C 
ATOM     62  C   UNL A   1      42.705  29.334  34.413  1.00  0.00     0.037 A 
BRANCH  49  63
ATOM     63  C   UNL A   1      40.490  28.056  28.787  1.00  0.00     0.064 A 
ATOM     64  C   UNL A   1      41.253  28.423  27.669  1.00  0.00     0.173 A 
ATOM     65  C   UNL A   1      39.796  26.836  28.735  1.00  0.00     0.173 A 
ATOM     66  F   UNL A   1      41.928  29.583  27.665  1.00  0.00    -0.203 F 
ATOM     67  C   UNL A   1      41.293  27.621  26.532  1.00  0.00     0.198 A 
ATOM     68  C   UNL A   1      39.861  26.023  27.606  1.00  0.00     0.198 A 
ATOM     69  F   UNL A   1      39.056  26.434  29.779  1.00  0.00    -0.203 F 
ATOM     70  F   UNL A   1      41.986  28.019  25.457  1.00  0.00    -0.200 F 
ATOM     71  C   UNL A   1      40.600  26.420  26.503  1.00  0.00     0.200 A 
ATOM     72  F   UNL A   1      39.202  24.856  27.585  1.00  0.00    -0.200 F 
ATOM     73  F   UNL A   1      40.639  25.649  25.408  1.00  0.00    -0.200 F 
ENDBRANCH  49  63
BRANCH  50  74
ATOM     74  C   UNL A   1      39.592  33.947  36.793  1.00  0.00     0.064 A 
ATOM     75  C   UNL A   1      38.809  33.554  37.887  1.00  0.00     0.173 A 
ATOM     76  C   UNL A   1      40.255  35.180  36.872  1.00  0.00     0.173 A 
ATOM     77  F   UNL A   1      38.139  32.393  37.847  1.00  0.00    -0.203 F 
ATOM     78  C   UNL A   1      38.684  34.368  39.010  1.00  0.00     0.198 A 
ATOM     79  C   UNL A   1      40.148  35.982  38.006  1.00  0.00     0.198 A 
ATOM     80  F   UNL A   1      41.018  35.599  35.852  1.00  0.00    -0.203 F 
ATOM     81  F   UNL A   1      37.899  33.984  40.028  1.00  0.00    -0.200 F 
ATOM     82  C   UNL A   1      39.359  35.578  39.072  1.00  0.00     0.200 A 
ATOM     83  F   UNL A   1      40.811  37.145  38.067  1.00  0.00    -0.200 F 
ATOM     84  F   UNL A   1      39.243  36.357  40.157  1.00  0.00    -0.200 F 
ENDBRANCH  50  74
BRANCH  62  85
ATOM     85  C   UNL A   1      43.818  28.658  35.161  1.00  0.00     0.064 A 
ATOM     86  C   UNL A   1      45.144  29.105  35.062  1.00  0.00     0.173 A 
ATOM     87  C   UNL A   1      43.548  27.579  36.017  1.00  0.00     0.173 A 
ATOM     88  F   UNL A   1      45.454  30.120  34.242  1.00  0.00    -0.203 F 
ATOM     89  C   UNL A   1      46.162  28.483  35.778  1.00  0.00     0.198 A 
ATOM     90  C   UNL A   1      44.565  26.978  36.752  1.00  0.00     0.198 A 
ATOM     91  F   UNL A   1      42.296  27.118  36.148  1.00  0.00    -0.203 F 
ATOM     92  F   UNL A   1      47.428  28.899  35.638  1.00  0.00    -0.200 F 
ATOM     93  C   UNL A   1      45.871  27.427  36.629  1.00  0.00     0.200 A 
ATOM     94  F   UNL A   1      44.281  25.964  37.581  1.00  0.00    -0.200 F 
ATOM     95  F   UNL A   1      46.853  26.835  37.324  1.00  0.00    -0.200 F 
ENDBRANCH  62  85
ENDBRANCH  36  37
ENDBRANCH  28  31
ENDBRANCH  26  27
ENDBRANCH  25  26
ENDBRANCH  24  25
ENDBRANCH   1  24
TORSDOF 18
ENDMDL
MODEL 2
REMARK VINA RESULT:     -11.6      6.130     11.265
REMARK SMILES Cn1nccc1/C=C/C(=O)N[C@H](CO)C(=O)NCCCCCCNC(=O)c1ccc(-c2c3nc(c(-c4c(F)c(F)c(F)c(F)c4F)c4ccc([nH]4)c(-c4c(F)c(F)c(F)c(F)c4F)c4nc(c(-c5c(F)c(F)c(F)c(F)c5F)c5ccc2[nH]5)C=C4)C=C3)cc1
REMARK SMILES IDX 20 1 19 2 18 3 17 4 15 5 16 6 12 8 11 9 9 10 10 11 8 13 7 14
REMARK SMILES IDX 6 15 1 16 2 17 3 18 4 19 5 20 13 21 14 22 21 24 22 25 23 26
REMARK SMILES IDX 24 27 25 28 26 30 27 31 28 32 89 33 29 34 88 35 30 36 31 37
REMARK SMILES IDX 32 38 82 39 33 40 87 41 81 42 83 43 34 44 86 45 80 46 79 47
REMARK SMILES IDX 35 49 67 50 47 51 66 52 48 53 51 54 65 55 84 56 49 57 50 58
REMARK SMILES IDX 64 60 85 61 52 62 36 63 37 64 45 65 38 66 39 67 43 68 46 69
REMARK SMILES IDX 40 70 41 71 44 72 42 73 68 74 69 75 77 76 70 77 71 78 75 79
REMARK SMILES IDX 78 80 72 81 73 82 76 83 74 84 53 85 54 86 62 87 55 88 56 89
REMARK SMILES IDX 60 90 63 91 57 92 58 93 61 94 59 95
REMARK H PARENT 17 7 11 12 14 23 24 29 83 48 51 59
REMARK Flexibility Score: inf
ROOT
ATOM      1  C   UNL A   1      36.773  21.823  24.934  1.00  0.00     0.002 C 
ENDROOT
BRANCH   1   2
ATOM      2  C   UNL A   1      35.729  22.485  24.033  1.00  0.00     0.021 C 
BRANCH   2   3
ATOM      3  C   UNL A   1      34.757  23.420  24.764  1.00  0.00     0.116 C 
BRANCH   3   4
ATOM      4  N   UNL A   1      34.514  22.938  26.113  1.00  0.00    -0.354 N 
ATOM      5  C   UNL A   1      33.397  22.541  26.771  1.00  0.00     0.244 C 
ATOM      6  O   UNL A   1      33.517  22.422  28.002  1.00  0.00    -0.273 OA
ATOM      7  H   UNL A   1      35.329  22.890  26.663  1.00  0.00     0.163 HD
BRANCH   5   8
ATOM      8  C   UNL A   1      32.027  22.196  26.126  1.00  0.00     0.197 C 
BRANCH   8   9
ATOM      9  N   UNL A   1      31.870  21.710  24.751  1.00  0.00    -0.339 N 
ATOM     10  C   UNL A   1      32.382  20.715  23.995  1.00  0.00     0.244 C 
ATOM     11  O   UNL A   1      32.119  20.736  22.791  1.00  0.00    -0.270 OA
ATOM     12  H   UNL A   1      31.221  22.251  24.246  1.00  0.00     0.164 HD
BRANCH  10  13
ATOM     13  C   UNL A   1      33.160  19.564  24.503  1.00  0.00     0.073 C 
ATOM     14  C   UNL A   1      32.820  18.271  24.519  1.00  0.00     0.033 C 
BRANCH  14  15
ATOM     15  C   UNL A   1      33.767  17.255  24.809  1.00  0.00     0.061 A 
ATOM     16  C   UNL A   1      32.047  15.604  25.718  1.00  0.00     0.174 C 
ATOM     17  N   UNL A   1      33.367  16.029  25.303  1.00  0.00    -0.269 N 
ATOM     18  N   UNL A   1      34.380  15.142  25.404  1.00  0.00    -0.181 NA
ATOM     19  C   UNL A   1      35.452  15.829  25.014  1.00  0.00     0.136 A 
ATOM     20  C   UNL A   1      35.135  17.145  24.642  1.00  0.00     0.050 A 
ENDBRANCH  14  15
ENDBRANCH  10  13
ENDBRANCH   8   9
BRANCH   8  21
ATOM     21  C   UNL A   1      30.891  23.153  26.585  1.00  0.00     0.191 C 
BRANCH  21  22
ATOM     22  O   UNL A   1      29.986  22.583  27.529  1.00  0.00    -0.394 OA
ATOM     23  H   UNL A   1      29.076  22.696  27.214  1.00  0.00     0.210 HD
ENDBRANCH  21  22
ENDBRANCH   8  21
ENDBRANCH   5   8
ENDBRANCH   3   4
ENDBRANCH   2   3
ENDBRANCH   1   2
BRANCH   1  24
ATOM     24  C   UNL A   1      36.691  20.293  24.993  1.00  0.00     0.002 C 
BRANCH  24  25
ATOM     25  C   UNL A   1      38.026  19.551  24.851  1.00  0.00     0.021 C 
BRANCH  25  26
ATOM     26  C   UNL A   1      39.168  20.094  25.706  1.00  0.00     0.116 C 
BRANCH  26  27
ATOM     27  N   UNL A   1      40.207  19.099  25.927  1.00  0.00    -0.352 N 
ATOM     28  C   UNL A   1      41.551  19.259  26.138  1.00  0.00     0.251 C 
ATOM     29  H   UNL A   1      39.896  18.164  25.922  1.00  0.00     0.163 HD
ATOM     30  O   UNL A   1      42.305  18.285  26.073  1.00  0.00    -0.269 OA
BRANCH  28  31
ATOM     31  C   UNL A   1      42.114  20.592  26.433  1.00  0.00     0.039 A 
ATOM     32  C   UNL A   1      42.584  21.379  25.377  1.00  0.00     0.014 A 
ATOM     33  C   UNL A   1      42.216  21.053  27.749  1.00  0.00     0.014 A 
ATOM     34  C   UNL A   1      43.092  22.655  25.632  1.00  0.00     0.010 A 
ATOM     35  C   UNL A   1      42.665  22.349  27.996  1.00  0.00     0.010 A 
ATOM     36  C   UNL A   1      43.103  23.164  26.940  1.00  0.00    -0.014 A 
BRANCH  36  37
ATOM     37  C   UNL A   1      43.553  24.550  27.226  1.00  0.00     0.031 A 
ATOM     38  C   UNL A   1      42.578  25.577  27.727  1.00  0.00     0.074 A 
ATOM     39  C   UNL A   1      44.826  24.900  26.965  1.00  0.00     0.049 A 
ATOM     40  N   UNL A   1      42.760  26.855  27.945  1.00  0.00    -0.248 NA
ATOM     41  C   UNL A   1      41.211  25.108  27.998  1.00  0.00     0.031 C 
ATOM     42  C   UNL A   1      45.861  24.003  26.450  1.00  0.00     0.029 A 
ATOM     43  N   UNL A   1      45.465  26.109  27.085  1.00  0.00    -0.354 N 
ATOM     44  C   UNL A   1      41.532  27.344  28.368  1.00  0.00     0.074 A 
ATOM     45  C   UNL A   1      40.600  26.237  28.328  1.00  0.00     0.031 C 
ATOM     46  C   UNL A   1      47.009  24.686  26.318  1.00  0.00     0.029 A 
ATOM     47  C   UNL A   1      46.782  26.077  26.697  1.00  0.00     0.049 A 
ATOM     48  H   UNL A   1      45.021  26.923  27.417  1.00  0.00     0.167 HD
ATOM     49  C   UNL A   1      41.215  28.598  28.772  1.00  0.00     0.037 A 
ATOM     50  C   UNL A   1      47.698  27.061  26.642  1.00  0.00     0.037 A 
ATOM     51  C   UNL A   1      42.146  29.694  28.824  1.00  0.00     0.049 A 
ATOM     52  C   UNL A   1      47.309  28.455  27.051  1.00  0.00     0.074 A 
ATOM     53  C   UNL A   1      41.938  30.987  29.274  1.00  0.00     0.029 A 
ATOM     54  N   UNL A   1      43.468  29.627  28.406  1.00  0.00    -0.354 N 
ATOM     55  N   UNL A   1      46.161  28.894  27.503  1.00  0.00    -0.248 NA
ATOM     56  C   UNL A   1      48.345  29.491  26.936  1.00  0.00     0.031 C 
ATOM     57  C   UNL A   1      43.118  31.713  29.085  1.00  0.00     0.029 A 
ATOM     58  C   UNL A   1      44.077  30.862  28.558  1.00  0.00     0.049 A 
ATOM     59  H   UNL A   1      43.908  28.820  28.052  1.00  0.00     0.167 HD
ATOM     60  C   UNL A   1      46.339  30.249  27.747  1.00  0.00     0.074 A 
ATOM     61  C   UNL A   1      47.712  30.557  27.406  1.00  0.00     0.031 C 
ATOM     62  C   UNL A   1      45.444  31.155  28.211  1.00  0.00     0.037 A 
BRANCH  49  63
ATOM     63  C   UNL A   1      39.794  28.848  29.190  1.00  0.00     0.064 A 
ATOM     64  C   UNL A   1      39.376  28.671  30.517  1.00  0.00     0.173 A 
ATOM     65  C   UNL A   1      38.843  29.288  28.256  1.00  0.00     0.173 A 
ATOM     66  F   UNL A   1      40.245  28.243  31.446  1.00  0.00    -0.203 F 
ATOM     67  C   UNL A   1      38.052  28.889  30.888  1.00  0.00     0.198 A 
ATOM     68  C   UNL A   1      37.526  29.534  28.636  1.00  0.00     0.198 A 
ATOM     69  F   UNL A   1      39.191  29.481  26.975  1.00  0.00    -0.203 F 
ATOM     70  F   UNL A   1      37.665  28.662  32.150  1.00  0.00    -0.200 F 
ATOM     71  C   UNL A   1      37.129  29.325  29.949  1.00  0.00     0.200 A 
ATOM     72  F   UNL A   1      36.638  29.967  27.731  1.00  0.00    -0.200 F 
ATOM     73  F   UNL A   1      35.856  29.536  30.306  1.00  0.00    -0.200 F 
ENDBRANCH  49  63
BRANCH  50  74
ATOM     74  C   UNL A   1      49.085  26.757  26.201  1.00  0.00     0.064 A 
ATOM     75  C   UNL A   1      49.461  26.927  24.863  1.00  0.00     0.173 A 
ATOM     76  C   UNL A   1      50.058  26.302  27.103  1.00  0.00     0.173 A 
ATOM     77  F   UNL A   1      48.559  27.339  23.960  1.00  0.00    -0.203 F 
ATOM     78  C   UNL A   1      50.758  26.644  24.440  1.00  0.00     0.198 A 
ATOM     79  C   UNL A   1      51.361  26.042  26.683  1.00  0.00     0.198 A 
ATOM     80  F   UNL A   1      49.746  26.124  28.395  1.00  0.00    -0.203 F 
ATOM     81  F   UNL A   1      51.083  26.782  23.146  1.00  0.00    -0.200 F 
ATOM     82  C   UNL A   1      51.708  26.208  25.351  1.00  0.00     0.200 A 
ATOM     83  F   UNL A   1      52.278  25.632  27.568  1.00  0.00    -0.200 F 
ATOM     84  F   UNL A   1      52.957  25.942  24.944  1.00  0.00    -0.200 F 
ENDBRANCH  50  74
BRANCH  62  85
ATOM     85  C   UNL A   1      45.928  32.564  28.395  1.00  0.00     0.064 A 
ATOM     86  C   UNL A   1      45.799  33.521  27.378  1.00  0.00     0.173 A 
ATOM     87  C   UNL A   1      46.489  32.970  29.615  1.00  0.00     0.173 A 
ATOM     88  F   UNL A   1      45.286  33.175  26.188  1.00  0.00    -0.203 F 
ATOM     89  C   UNL A   1      46.231  34.830  27.570  1.00  0.00     0.198 A 
ATOM     90  C   UNL A   1      46.895  34.287  29.813  1.00  0.00     0.198 A 
ATOM     91  F   UNL A   1      46.631  32.093  30.619  1.00  0.00    -0.203 F 
ATOM     92  F   UNL A   1      46.135  35.719  26.572  1.00  0.00    -0.200 F 
ATOM     93  C   UNL A   1      46.770  35.214  28.789  1.00  0.00     0.200 A 
ATOM     94  F   UNL A   1      47.407  34.659  30.994  1.00  0.00    -0.200 F 
ATOM     95  F   UNL A   1      47.178  36.478  28.974  1.00  0.00    -0.200 F 
ENDBRANCH  62  85
ENDBRANCH  36  37
ENDBRANCH  28  31
ENDBRANCH  26  27
ENDBRANCH  25  26
ENDBRANCH  24  25
ENDBRANCH   1  24
TORSDOF 18
ENDMDL
MODEL 3
REMARK VINA RESULT:     -11.6      1.522      3.502
REMARK SMILES Cn1nccc1/C=C/C(=O)N[C@H](CO)C(=O)NCCCCCCNC(=O)c1ccc(-c2c3nc(c(-c4c(F)c(F)c(F)c(F)c4F)c4ccc([nH]4)c(-c4c(F)c(F)c(F)c(F)c4F)c4nc(c(-c5c(F)c(F)c(F)c(F)c5F)c5ccc2[nH]5)C=C4)C=C3)cc1
REMARK SMILES IDX 20 1 19 2 18 3 17 4 15 5 16 6 12 8 11 9 9 10 10 11 8 13 7 14
REMARK SMILES IDX 6 15 1 16 2 17 3 18 4 19 5 20 13 21 14 22 21 24 22 25 23 26
REMARK SMILES IDX 24 27 25 28 26 30 27 31 28 32 89 33 29 34 88 35 30 36 31 37
REMARK SMILES IDX 32 38 82 39 33 40 87 41 81 42 83 43 34 44 86 45 80 46 79 47
REMARK SMILES IDX 35 49 67 50 47 51 66 52 48 53 51 54 65 55 84 56 49 57 50 58
REMARK SMILES IDX 64 60 85 61 52 62 36 63 37 64 45 65 38 66 39 67 43 68 46 69
REMARK SMILES IDX 40 70 41 71 44 72 42 73 68 74 69 75 77 76 70 77 71 78 75 79
REMARK SMILES IDX 78 80 72 81 73 82 76 83 74 84 53 85 54 86 62 87 55 88 56 89
REMARK SMILES IDX 60 90 63 91 57 92 58 93 61 94 59 95
REMARK H PARENT 17 7 11 12 14 23 24 29 83 48 51 59
REMARK Flexibility Score: inf
ROOT
ATOM      1  C   UNL A   1      32.168  29.649  26.820  1.00  0.00     0.002 C 
ENDROOT
BRANCH   1   2
ATOM      2  C   UNL A   1      31.673  28.218  26.599  1.00  0.00     0.021 C 
BRANCH   2   3
ATOM      3  C   UNL A   1      32.674  27.301  25.884  1.00  0.00     0.116 C 
BRANCH   3   4
ATOM      4  N   UNL A   1      33.235  27.975  24.725  1.00  0.00    -0.354 N 
ATOM      5  C   UNL A   1      33.117  27.781  23.389  1.00  0.00     0.244 C 
ATOM      6  O   UNL A   1      33.936  28.396  22.685  1.00  0.00    -0.273 OA
ATOM      7  H   UNL A   1      33.822  28.730  24.959  1.00  0.00     0.163 HD
BRANCH   5   8
ATOM      8  C   UNL A   1      32.047  26.905  22.682  1.00  0.00     0.197 C 
BRANCH   8   9
ATOM      9  N   UNL A   1      30.661  26.774  23.143  1.00  0.00    -0.339 N 
ATOM     10  C   UNL A   1      29.667  27.608  23.518  1.00  0.00     0.244 C 
ATOM     11  O   UNL A   1      28.665  27.093  24.020  1.00  0.00    -0.270 OA
ATOM     12  H   UNL A   1      30.382  25.831  23.194  1.00  0.00     0.164 HD
BRANCH  10  13
ATOM     13  C   UNL A   1      29.646  29.071  23.303  1.00  0.00     0.073 C 
ATOM     14  C   UNL A   1      28.865  29.780  22.482  1.00  0.00     0.033 C 
BRANCH  14  15
ATOM     15  C   UNL A   1      28.788  31.195  22.565  1.00  0.00     0.061 A 
ATOM     16  C   UNL A   1      27.886  31.505  20.198  1.00  0.00     0.174 C 
ATOM     17  N   UNL A   1      28.281  31.943  21.520  1.00  0.00    -0.269 N 
ATOM     18  N   UNL A   1      28.166  33.255  21.815  1.00  0.00    -0.181 NA
ATOM     19  C   UNL A   1      28.652  33.354  23.050  1.00  0.00     0.136 A 
ATOM     20  C   UNL A   1      29.060  32.113  23.563  1.00  0.00     0.050 A 
ENDBRANCH  14  15
ENDBRANCH  10  13
ENDBRANCH   8   9
BRANCH   8  21
ATOM     21  C   UNL A   1      32.639  25.590  22.099  1.00  0.00     0.191 C 
BRANCH  21  22
ATOM     22  O   UNL A   1      33.490  25.776  20.969  1.00  0.00    -0.394 OA
ATOM     23  H   UNL A   1      34.351  25.364  21.141  1.00  0.00     0.210 HD
ENDBRANCH  21  22
ENDBRANCH   8  21
ENDBRANCH   5   8
ENDBRANCH   3   4
ENDBRANCH   2   3
ENDBRANCH   1   2
BRANCH   1  24
ATOM     24  C   UNL A   1      31.507  30.700  25.921  1.00  0.00     0.002 C 
BRANCH  24  25
ATOM     25  C   UNL A   1      31.328  32.090  26.544  1.00  0.00     0.021 C 
BRANCH  25  26
ATOM     26  C   UNL A   1      32.558  32.648  27.257  1.00  0.00     0.116 C 
BRANCH  26  27
ATOM     27  N   UNL A   1      32.400  34.054  27.601  1.00  0.00    -0.352 N 
ATOM     28  C   UNL A   1      33.028  34.803  28.560  1.00  0.00     0.251 C 
ATOM     29  H   UNL A   1      31.737  34.542  27.060  1.00  0.00     0.163 HD
ATOM     30  O   UNL A   1      32.593  35.919  28.853  1.00  0.00    -0.269 OA
BRANCH  28  31
ATOM     31  C   UNL A   1      34.219  34.284  29.261  1.00  0.00     0.039 A 
ATOM     32  C   UNL A   1      34.048  33.543  30.435  1.00  0.00     0.014 A 
ATOM     33  C   UNL A   1      35.506  34.556  28.787  1.00  0.00     0.014 A 
ATOM     34  C   UNL A   1      35.160  33.018  31.096  1.00  0.00     0.010 A 
ATOM     35  C   UNL A   1      36.612  33.980  29.412  1.00  0.00     0.010 A 
ATOM     36  C   UNL A   1      36.449  33.202  30.569  1.00  0.00    -0.014 A 
BRANCH  36  37
ATOM     37  C   UNL A   1      37.639  32.579  31.203  1.00  0.00     0.031 A 
ATOM     38  C   UNL A   1      38.348  31.440  30.528  1.00  0.00     0.074 A 
ATOM     39  C   UNL A   1      38.035  32.993  32.420  1.00  0.00     0.049 A 
ATOM     40  N   UNL A   1      39.343  30.709  30.964  1.00  0.00    -0.248 NA
ATOM     41  C   UNL A   1      37.859  31.058  29.195  1.00  0.00     0.031 C 
ATOM     42  C   UNL A   1      37.412  34.070  33.191  1.00  0.00     0.029 A 
ATOM     43  N   UNL A   1      39.050  32.549  33.231  1.00  0.00    -0.354 N 
ATOM     44  C   UNL A   1      39.592  29.777  29.965  1.00  0.00     0.074 A 
ATOM     45  C   UNL A   1      38.612  30.001  28.924  1.00  0.00     0.031 C 
ATOM     46  C   UNL A   1      38.070  34.217  34.352  1.00  0.00     0.029 A 
ATOM     47  C   UNL A   1      39.132  33.219  34.427  1.00  0.00     0.049 A 
ATOM     48  H   UNL A   1      39.662  31.819  32.979  1.00  0.00     0.167 HD
ATOM     49  C   UNL A   1      40.563  28.832  29.914  1.00  0.00     0.037 A 
ATOM     50  C   UNL A   1      39.962  33.040  35.471  1.00  0.00     0.037 A 
ATOM     51  C   UNL A   1      41.545  28.620  30.944  1.00  0.00     0.049 A 
ATOM     52  C   UNL A   1      41.001  31.954  35.408  1.00  0.00     0.074 A 
ATOM     53  C   UNL A   1      42.605  27.729  30.960  1.00  0.00     0.029 A 
ATOM     54  N   UNL A   1      41.585  29.307  32.150  1.00  0.00    -0.354 N 
ATOM     55  N   UNL A   1      41.265  31.116  34.437  1.00  0.00    -0.248 NA
ATOM     56  C   UNL A   1      41.854  31.787  36.594  1.00  0.00     0.031 C 
ATOM     57  C   UNL A   1      43.256  27.844  32.192  1.00  0.00     0.029 A 
ATOM     58  C   UNL A   1      42.631  28.838  32.929  1.00  0.00     0.049 A 
ATOM     59  H   UNL A   1      40.961  30.021  32.414  1.00  0.00     0.167 HD
ATOM     60  C   UNL A   1      42.324  30.337  34.881  1.00  0.00     0.074 A 
ATOM     61  C   UNL A   1      42.665  30.812  36.205  1.00  0.00     0.031 C 
ATOM     62  C   UNL A   1      42.956  29.319  34.246  1.00  0.00     0.037 A 
BRANCH  49  63
ATOM     63  C   UNL A   1      40.605  27.955  28.696  1.00  0.00     0.064 A 
ATOM     64  C   UNL A   1      41.324  28.324  27.549  1.00  0.00     0.173 A 
ATOM     65  C   UNL A   1      39.934  26.723  28.681  1.00  0.00     0.173 A 
ATOM     66  F   UNL A   1      41.976  29.496  27.510  1.00  0.00    -0.203 F 
ATOM     67  C   UNL A   1      41.342  27.510  26.420  1.00  0.00     0.198 A 
ATOM     68  C   UNL A   1      39.978  25.897  27.560  1.00  0.00     0.198 A 
ATOM     69  F   UNL A   1      39.238  26.318  29.753  1.00  0.00    -0.203 F 
ATOM     70  F   UNL A   1      41.991  27.909  25.318  1.00  0.00    -0.200 F 
ATOM     71  C   UNL A   1      40.672  26.296  26.427  1.00  0.00     0.200 A 
ATOM     72  F   UNL A   1      39.341  24.718  27.573  1.00  0.00    -0.200 F 
ATOM     73  F   UNL A   1      40.690  25.512  25.341  1.00  0.00    -0.200 F 
ENDBRANCH  49  63
BRANCH  50  74
ATOM     74  C   UNL A   1      39.860  33.927  36.658  1.00  0.00     0.064 A 
ATOM     75  C   UNL A   1      38.998  33.607  37.716  1.00  0.00     0.173 A 
ATOM     76  C   UNL A   1      40.622  35.100  36.766  1.00  0.00     0.173 A 
ATOM     77  F   UNL A   1      38.234  32.507  37.647  1.00  0.00    -0.203 F 
ATOM     78  C   UNL A   1      38.894  34.433  38.833  1.00  0.00     0.198 A 
ATOM     79  C   UNL A   1      40.534  35.912  37.895  1.00  0.00     0.198 A 
ATOM     80  F   UNL A   1      41.462  35.448  35.781  1.00  0.00    -0.203 F 
ATOM     81  F   UNL A   1      38.036  34.121  39.815  1.00  0.00    -0.200 F 
ATOM     82  C   UNL A   1      39.667  35.581  38.924  1.00  0.00     0.200 A 
ATOM     83  F   UNL A   1      41.290  37.014  37.985  1.00  0.00    -0.200 F 
ATOM     84  F   UNL A   1      39.570  36.371  40.003  1.00  0.00    -0.200 F 
ENDBRANCH  50  74
BRANCH  62  85
ATOM     85  C   UNL A   1      44.095  28.663  34.971  1.00  0.00     0.064 A 
ATOM     86  C   UNL A   1      45.403  29.164  34.887  1.00  0.00     0.173 A 
ATOM     87  C   UNL A   1      43.869  27.547  35.791  1.00  0.00     0.173 A 
ATOM     88  F   UNL A   1      45.672  30.217  34.101  1.00  0.00    -0.203 F 
ATOM     89  C   UNL A   1      46.446  28.560  35.582  1.00  0.00     0.198 A 
ATOM     90  C   UNL A   1      44.910  26.962  36.507  1.00  0.00     0.198 A 
ATOM     91  F   UNL A   1      42.636  27.033  35.907  1.00  0.00    -0.203 F 
ATOM     92  F   UNL A   1      47.695  29.029  35.456  1.00  0.00    -0.200 F 
ATOM     93  C   UNL A   1      46.197  27.465  36.398  1.00  0.00     0.200 A 
ATOM     94  F   UNL A   1      44.667  25.911  37.302  1.00  0.00    -0.200 F 
ATOM     95  F   UNL A   1      47.202  26.890  37.074  1.00  0.00    -0.200 F 
ENDBRANCH  62  85
ENDBRANCH  36  37
ENDBRANCH  28  31
ENDBRANCH  26  27
ENDBRANCH  25  26
ENDBRANCH  24  25
ENDBRANCH   1  24
TORSDOF 18
ENDMDL
