MODEL 1
REMARK VINA RESULT:     -11.5      0.000      0.000
REMARK SMILES CC[C@@H](C)SCc1cc(F)cc(/C=C/C(=O)NCCCCCCNC(=O)c2ccc(-c3c4nc(c(-c5c(F)c(F)c(F)c(F)c5F)c5ccc([nH]5)c(-c5c(F)c(F)c(F)c(F)c5F)c5nc(c(-c6c(F)c(F)c(F)c(F)c6F)c6ccc3[nH]6)C=C5)C=C4)cc2)c1
REMARK SMILES IDX 19 1 18 2 17 3 15 4 16 5 14 7 13 8 12 9 7 10 8 11 90 12 9 13
REMARK SMILES IDX 10 14 11 15 6 16 5 17 3 18 4 19 2 20 1 21 20 22 21 23 22 24
REMARK SMILES IDX 23 25 24 26 25 27 26 29 27 30 28 31 89 32 29 33 88 34 30 35
REMARK SMILES IDX 31 36 32 37 82 38 33 39 87 40 81 41 83 42 34 43 86 44 80 45
REMARK SMILES IDX 79 46 35 48 67 49 47 50 66 51 48 52 51 53 65 54 84 55 49 56
REMARK SMILES IDX 50 57 64 59 85 60 52 61 36 62 37 63 45 64 38 65 39 66 43 67
REMARK SMILES IDX 46 68 40 69 41 70 44 71 42 72 68 73 69 74 77 75 70 76 71 77
REMARK SMILES IDX 75 78 78 79 72 80 73 81 76 82 74 83 53 84 54 85 62 86 55 87
REMARK SMILES IDX 56 88 60 89 63 90 57 91 58 92 61 93 59 94
REMARK H PARENT 17 6 24 28 83 47 51 58
REMARK Flexibility Score: inf
ROOT
ATOM      1  C   UNL A   1      35.329  21.528  26.134  1.00  0.00     0.021 C 
ENDROOT
BRANCH   1   2
ATOM      2  C   UNL A   1      34.821  22.963  26.295  1.00  0.00     0.116 C 
BRANCH   2   3
ATOM      3  N   UNL A   1      33.556  22.983  27.010  1.00  0.00    -0.353 N 
ATOM      4  C   UNL A   1      32.437  23.736  26.839  1.00  0.00     0.243 C 
ATOM      5  O   UNL A   1      31.438  23.500  27.514  1.00  0.00    -0.270 OA
ATOM      6  H   UNL A   1      33.499  22.335  27.749  1.00  0.00     0.163 HD
BRANCH   4   7
ATOM      7  C   UNL A   1      32.374  24.788  25.802  1.00  0.00     0.072 C 
ATOM      8  C   UNL A   1      32.934  25.994  25.948  1.00  0.00     0.014 C 
BRANCH   8   9
ATOM      9  C   UNL A   1      32.871  27.071  24.957  1.00  0.00    -0.022 A 
ATOM     10  C   UNL A   1      31.475  28.798  23.923  1.00  0.00    -0.035 A 
ATOM     11  C   UNL A   1      32.424  28.919  22.899  1.00  0.00     0.043 A 
ATOM     12  C   UNL A   1      31.754  27.921  24.985  1.00  0.00     0.013 A 
ATOM     13  C   UNL A   1      33.568  28.125  22.911  1.00  0.00     0.124 A 
ATOM     14  F   UNL A   1      34.448  28.234  21.907  1.00  0.00    -0.207 F 
ATOM     15  C   UNL A   1      33.790  27.188  23.915  1.00  0.00     0.047 A 
BRANCH  10  16
ATOM     16  C   UNL A   1      30.197  29.596  23.866  1.00  0.00     0.105 C 
BRANCH  16  17
ATOM     17  S   UNL A   1      28.826  28.842  22.912  1.00  0.00    -0.154 SA
BRANCH  17  18
ATOM     18  C   UNL A   1      27.784  30.281  22.403  1.00  0.00     0.043 C 
ATOM     19  C   UNL A   1      28.102  30.787  20.997  1.00  0.00     0.019 C 
BRANCH  18  20
ATOM     20  C   UNL A   1      27.761  31.394  23.460  1.00  0.00     0.011 C 
ATOM     21  C   UNL A   1      28.441  32.672  22.982  1.00  0.00     0.005 C 
ENDBRANCH  18  20
ENDBRANCH  17  18
ENDBRANCH  16  17
ENDBRANCH  10  16
ENDBRANCH   8   9
ENDBRANCH   4   7
ENDBRANCH   2   3
ENDBRANCH   1   2
BRANCH   1  22
ATOM     22  C   UNL A   1      35.771  21.187  24.705  1.00  0.00     0.002 C 
BRANCH  22  23
ATOM     23  C   UNL A   1      37.287  21.208  24.471  1.00  0.00     0.002 C 
BRANCH  23  24
ATOM     24  C   UNL A   1      38.033  19.944  24.910  1.00  0.00     0.021 C 
BRANCH  24  25
ATOM     25  C   UNL A   1      39.038  20.159  26.039  1.00  0.00     0.116 C 
BRANCH  25  26
ATOM     26  N   UNL A   1      40.116  19.184  25.999  1.00  0.00    -0.352 N 
ATOM     27  C   UNL A   1      41.473  19.380  26.025  1.00  0.00     0.251 C 
ATOM     28  H   UNL A   1      39.829  18.243  25.947  1.00  0.00     0.163 HD
ATOM     29  O   UNL A   1      42.234  18.450  25.773  1.00  0.00    -0.269 OA
BRANCH  27  30
ATOM     30  C   UNL A   1      42.027  20.714  26.343  1.00  0.00     0.039 A 
ATOM     31  C   UNL A   1      42.308  21.591  25.292  1.00  0.00     0.014 A 
ATOM     32  C   UNL A   1      42.297  21.088  27.662  1.00  0.00     0.014 A 
ATOM     33  C   UNL A   1      42.812  22.863  25.569  1.00  0.00     0.010 A 
ATOM     34  C   UNL A   1      42.738  22.380  27.941  1.00  0.00     0.010 A 
ATOM     35  C   UNL A   1      43.002  23.278  26.898  1.00  0.00    -0.014 A 
BRANCH  35  36
ATOM     36  C   UNL A   1      43.464  24.655  27.205  1.00  0.00     0.031 A 
ATOM     37  C   UNL A   1      42.512  25.674  27.764  1.00  0.00     0.074 A 
ATOM     38  C   UNL A   1      44.739  24.997  26.937  1.00  0.00     0.049 A 
ATOM     39  N   UNL A   1      42.729  26.930  28.065  1.00  0.00    -0.248 NA
ATOM     40  C   UNL A   1      41.128  25.233  27.995  1.00  0.00     0.031 C 
ATOM     41  C   UNL A   1      45.744  24.111  26.351  1.00  0.00     0.029 A 
ATOM     42  N   UNL A   1      45.409  26.182  27.123  1.00  0.00    -0.354 N 
ATOM     43  C   UNL A   1      41.513  27.426  28.514  1.00  0.00     0.074 A 
ATOM     44  C   UNL A   1      40.548  26.354  28.398  1.00  0.00     0.031 C 
ATOM     45  C   UNL A   1      46.910  24.769  26.255  1.00  0.00     0.029 A 
ATOM     46  C   UNL A   1      46.726  26.134  26.740  1.00  0.00     0.049 A 
ATOM     47  H   UNL A   1      44.984  26.989  27.495  1.00  0.00     0.167 HD
ATOM     48  C   UNL A   1      41.234  28.658  29.003  1.00  0.00     0.037 A 
ATOM     49  C   UNL A   1      47.680  27.083  26.776  1.00  0.00     0.037 A 
ATOM     50  C   UNL A   1      42.204  29.713  29.142  1.00  0.00     0.049 A 
ATOM     51  C   UNL A   1      47.344  28.444  27.322  1.00  0.00     0.074 A 
ATOM     52  C   UNL A   1      42.030  30.976  29.681  1.00  0.00     0.029 A 
ATOM     53  N   UNL A   1      43.529  29.629  28.739  1.00  0.00    -0.354 N 
ATOM     54  N   UNL A   1      46.205  28.884  27.796  1.00  0.00    -0.248 NA
ATOM     55  C   UNL A   1      48.427  29.437  27.341  1.00  0.00     0.031 C 
ATOM     56  C   UNL A   1      43.238  31.672  29.564  1.00  0.00     0.029 A 
ATOM     57  C   UNL A   1      44.177  30.826  28.998  1.00  0.00     0.049 A 
ATOM     58  H   UNL A   1      43.946  28.837  28.331  1.00  0.00     0.167 HD
ATOM     59  C   UNL A   1      46.434  30.197  28.182  1.00  0.00     0.074 A 
ATOM     60  C   UNL A   1      47.828  30.475  27.907  1.00  0.00     0.031 C 
ATOM     61  C   UNL A   1      45.565  31.091  28.713  1.00  0.00     0.037 A 
BRANCH  48  62
ATOM     62  C   UNL A   1      39.826  28.935  29.444  1.00  0.00     0.064 A 
ATOM     63  C   UNL A   1      39.420  28.646  30.756  1.00  0.00     0.173 A 
ATOM     64  C   UNL A   1      38.861  29.417  28.548  1.00  0.00     0.173 A 
ATOM     65  F   UNL A   1      40.302  28.177  31.650  1.00  0.00    -0.203 F 
ATOM     66  C   UNL A   1      38.095  28.820  31.149  1.00  0.00     0.198 A 
ATOM     67  C   UNL A   1      37.543  29.616  28.953  1.00  0.00     0.198 A 
ATOM     68  F   UNL A   1      39.202  29.717  27.286  1.00  0.00    -0.203 F 
ATOM     69  F   UNL A   1      37.722  28.509  32.398  1.00  0.00    -0.200 F 
ATOM     70  C   UNL A   1      37.160  29.308  30.249  1.00  0.00     0.200 A 
ATOM     71  F   UNL A   1      36.647  30.110  28.088  1.00  0.00    -0.200 F 
ATOM     72  F   UNL A   1      35.887  29.484  30.632  1.00  0.00    -0.200 F 
ENDBRANCH  48  62
BRANCH  49  73
ATOM     73  C   UNL A   1      49.055  26.758  26.316  1.00  0.00     0.064 A 
ATOM     74  C   UNL A   1      50.016  26.235  27.195  1.00  0.00     0.173 A 
ATOM     75  C   UNL A   1      49.444  26.998  24.991  1.00  0.00     0.173 A 
ATOM     76  F   UNL A   1      49.695  25.994  28.474  1.00  0.00    -0.203 F 
ATOM     77  C   UNL A   1      51.318  25.984  26.769  1.00  0.00     0.198 A 
ATOM     78  C   UNL A   1      50.738  26.722  24.560  1.00  0.00     0.198 A 
ATOM     79  F   UNL A   1      48.553  27.478  24.110  1.00  0.00    -0.203 F 
ATOM     80  F   UNL A   1      52.226  25.518  27.637  1.00  0.00    -0.200 F 
ATOM     81  C   UNL A   1      51.678  26.223  25.451  1.00  0.00     0.200 A 
ATOM     82  F   UNL A   1      51.075  26.932  23.280  1.00  0.00    -0.200 F 
ATOM     83  F   UNL A   1      52.927  25.972  25.039  1.00  0.00    -0.200 F 
ENDBRANCH  49  73
BRANCH  61  84
ATOM     84  C   UNL A   1      46.092  32.458  29.039  1.00  0.00     0.064 A 
ATOM     85  C   UNL A   1      46.055  33.484  28.083  1.00  0.00     0.173 A 
ATOM     86  C   UNL A   1      46.692  32.733  30.277  1.00  0.00     0.173 A 
ATOM     87  F   UNL A   1      45.498  33.269  26.882  1.00  0.00    -0.203 F 
ATOM     88  C   UNL A   1      46.608  34.733  28.351  1.00  0.00     0.198 A 
ATOM     89  C   UNL A   1      47.219  33.991  30.551  1.00  0.00     0.198 A 
ATOM     90  F   UNL A   1      46.741  31.788  31.228  1.00  0.00    -0.203 F 
ATOM     91  F   UNL A   1      46.588  35.688  27.412  1.00  0.00    -0.200 F 
ATOM     92  C   UNL A   1      47.186  34.987  29.585  1.00  0.00     0.200 A 
ATOM     93  F   UNL A   1      47.755  34.243  31.753  1.00  0.00    -0.200 F 
ATOM     94  F   UNL A   1      47.707  36.193  29.847  1.00  0.00    -0.200 F 
ENDBRANCH  61  84
ENDBRANCH  35  36
ENDBRANCH  27  30
ENDBRANCH  25  26
ENDBRANCH  24  25
ENDBRANCH  23  24
ENDBRANCH  22  23
ENDBRANCH   1  22
TORSDOF 18
ENDMDL
MODEL 2
REMARK VINA RESULT:     -11.3      3.036      8.138
REMARK SMILES CC[C@@H](C)SCc1cc(F)cc(/C=C/C(=O)NCCCCCCNC(=O)c2ccc(-c3c4nc(c(-c5c(F)c(F)c(F)c(F)c5F)c5ccc([nH]5)c(-c5c(F)c(F)c(F)c(F)c5F)c5nc(c(-c6c(F)c(F)c(F)c(F)c6F)c6ccc3[nH]6)C=C5)C=C4)cc2)c1
REMARK SMILES IDX 19 1 18 2 17 3 15 4 16 5 14 7 13 8 12 9 7 10 8 11 90 12 9 13
REMARK SMILES IDX 10 14 11 15 6 16 5 17 3 18 4 19 2 20 1 21 20 22 21 23 22 24
REMARK SMILES IDX 23 25 24 26 25 27 26 29 27 30 28 31 89 32 29 33 88 34 30 35
REMARK SMILES IDX 31 36 32 37 82 38 33 39 87 40 81 41 83 42 34 43 86 44 80 45
REMARK SMILES IDX 79 46 35 48 67 49 47 50 66 51 48 52 51 53 65 54 84 55 49 56
REMARK SMILES IDX 50 57 64 59 85 60 52 61 36 62 37 63 45 64 38 65 39 66 43 67
REMARK SMILES IDX 46 68 40 69 41 70 44 71 42 72 68 73 69 74 77 75 70 76 71 77
REMARK SMILES IDX 75 78 78 79 72 80 73 81 76 82 74 83 53 84 54 85 62 86 55 87
REMARK SMILES IDX 56 88 60 89 63 90 57 91 58 92 61 93 59 94
REMARK H PARENT 17 6 24 28 83 47 51 58
REMARK Flexibility Score: inf
ROOT
ATOM      1  C   UNL A   1      33.000  21.490  24.934  1.00  0.00     0.021 C 
ENDROOT
BRANCH   1   2
ATOM      2  C   UNL A   1      33.208  22.165  26.292  1.00  0.00     0.116 C 
BRANCH   2   3
ATOM      3  N   UNL A   1      31.944  22.305  26.995  1.00  0.00    -0.353 N 
ATOM      4  C   UNL A   1      30.950  23.226  26.887  1.00  0.00     0.243 C 
ATOM      5  O   UNL A   1      29.913  23.078  27.529  1.00  0.00    -0.270 OA
ATOM      6  H   UNL A   1      31.777  21.607  27.670  1.00  0.00     0.163 HD
BRANCH   4   7
ATOM      7  C   UNL A   1      31.063  24.367  25.953  1.00  0.00     0.072 C 
ATOM      8  C   UNL A   1      31.832  25.436  26.193  1.00  0.00     0.014 C 
BRANCH   8   9
ATOM      9  C   UNL A   1      31.950  26.596  25.306  1.00  0.00    -0.022 A 
ATOM     10  C   UNL A   1      30.791  28.077  23.738  1.00  0.00    -0.035 A 
ATOM     11  C   UNL A   1      32.034  28.559  23.309  1.00  0.00     0.043 A 
ATOM     12  C   UNL A   1      30.767  27.149  24.792  1.00  0.00     0.013 A 
ATOM     13  C   UNL A   1      33.207  28.061  23.872  1.00  0.00     0.124 A 
ATOM     14  F   UNL A   1      34.387  28.512  23.427  1.00  0.00    -0.207 F 
ATOM     15  C   UNL A   1      33.179  27.070  24.848  1.00  0.00     0.047 A 
BRANCH  10  16
ATOM     16  C   UNL A   1      29.526  28.554  23.069  1.00  0.00     0.105 C 
BRANCH  16  17
ATOM     17  S   UNL A   1      29.707  29.987  21.943  1.00  0.00    -0.154 SA
BRANCH  17  18
ATOM     18  C   UNL A   1      28.829  31.361  22.814  1.00  0.00     0.043 C 
ATOM     19  C   UNL A   1      27.603  30.893  23.594  1.00  0.00     0.019 C 
BRANCH  18  20
ATOM     20  C   UNL A   1      28.546  32.555  21.892  1.00  0.00     0.011 C 
ATOM     21  C   UNL A   1      27.990  32.131  20.537  1.00  0.00     0.005 C 
ENDBRANCH  18  20
ENDBRANCH  17  18
ENDBRANCH  16  17
ENDBRANCH  10  16
ENDBRANCH   8   9
ENDBRANCH   4   7
ENDBRANCH   2   3
ENDBRANCH   1   2
BRANCH   1  22
ATOM     22  C   UNL A   1      33.567  22.291  23.754  1.00  0.00     0.002 C 
BRANCH  22  23
ATOM     23  C   UNL A   1      34.339  23.559  24.141  1.00  0.00     0.002 C 
BRANCH  23  24
ATOM     24  C   UNL A   1      35.862  23.461  24.011  1.00  0.00     0.021 C 
BRANCH  24  25
ATOM     25  C   UNL A   1      36.630  23.743  25.300  1.00  0.00     0.116 C 
BRANCH  25  26
ATOM     26  N   UNL A   1      37.624  22.718  25.575  1.00  0.00    -0.352 N 
ATOM     27  C   UNL A   1      38.878  22.840  26.117  1.00  0.00     0.251 C 
ATOM     28  H   UNL A   1      37.358  21.800  25.336  1.00  0.00     0.163 HD
ATOM     29  O   UNL A   1      39.658  21.893  26.082  1.00  0.00    -0.269 OA
BRANCH  27  30
ATOM     30  C   UNL A   1      39.302  24.115  26.734  1.00  0.00     0.039 A 
ATOM     31  C   UNL A   1      38.946  24.370  28.062  1.00  0.00     0.014 A 
ATOM     32  C   UNL A   1      40.015  25.070  26.004  1.00  0.00     0.014 A 
ATOM     33  C   UNL A   1      39.353  25.557  28.672  1.00  0.00     0.010 A 
ATOM     34  C   UNL A   1      40.476  26.225  26.632  1.00  0.00     0.010 A 
ATOM     35  C   UNL A   1      40.146  26.481  27.970  1.00  0.00    -0.014 A 
BRANCH  35  36
ATOM     36  C   UNL A   1      40.647  27.711  28.634  1.00  0.00     0.031 A 
ATOM     37  C   UNL A   1      42.096  27.839  29.011  1.00  0.00     0.074 A 
ATOM     38  C   UNL A   1      39.780  28.697  28.935  1.00  0.00     0.049 A 
ATOM     39  N   UNL A   1      42.706  28.824  29.621  1.00  0.00    -0.248 NA
ATOM     40  C   UNL A   1      42.972  26.705  28.680  1.00  0.00     0.031 C 
ATOM     41  C   UNL A   1      38.344  28.668  28.663  1.00  0.00     0.029 A 
ATOM     42  N   UNL A   1      39.980  29.915  29.537  1.00  0.00    -0.354 N 
ATOM     43  C   UNL A   1      44.030  28.427  29.750  1.00  0.00     0.074 A 
ATOM     44  C   UNL A   1      44.126  27.090  29.204  1.00  0.00     0.031 C 
ATOM     45  C   UNL A   1      37.796  29.825  29.064  1.00  0.00     0.029 A 
ATOM     46  C   UNL A   1      38.836  30.663  29.653  1.00  0.00     0.049 A 
ATOM     47  H   UNL A   1      40.860  30.222  29.855  1.00  0.00     0.167 HD
ATOM     48  C   UNL A   1      45.074  29.124  30.256  1.00  0.00     0.037 A 
ATOM     49  C   UNL A   1      38.645  31.890  30.176  1.00  0.00     0.037 A 
ATOM     50  C   UNL A   1      44.979  30.464  30.774  1.00  0.00     0.049 A 
ATOM     51  C   UNL A   1      39.821  32.643  30.734  1.00  0.00     0.074 A 
ATOM     52  C   UNL A   1      45.992  31.276  31.255  1.00  0.00     0.029 A 
ATOM     53  N   UNL A   1      43.801  31.190  30.881  1.00  0.00    -0.354 N 
ATOM     54  N   UNL A   1      41.078  32.279  30.799  1.00  0.00    -0.248 NA
ATOM     55  C   UNL A   1      39.553  33.978  31.286  1.00  0.00     0.031 C 
ATOM     56  C   UNL A   1      45.422  32.475  31.692  1.00  0.00     0.029 A 
ATOM     57  C   UNL A   1      44.060  32.431  31.439  1.00  0.00     0.049 A 
ATOM     58  H   UNL A   1      42.914  30.871  30.599  1.00  0.00     0.167 HD
ATOM     59  C   UNL A   1      41.753  33.341  31.385  1.00  0.00     0.074 A 
ATOM     60  C   UNL A   1      40.769  34.373  31.636  1.00  0.00     0.031 C 
ATOM     61  C   UNL A   1      43.069  33.447  31.689  1.00  0.00     0.037 A 
BRANCH  48  62
ATOM     62  C   UNL A   1      46.422  28.464  30.261  1.00  0.00     0.064 A 
ATOM     63  C   UNL A   1      46.833  27.690  31.357  1.00  0.00     0.173 A 
ATOM     64  C   UNL A   1      47.335  28.657  29.214  1.00  0.00     0.173 A 
ATOM     65  F   UNL A   1      46.001  27.479  32.387  1.00  0.00    -0.203 F 
ATOM     66  C   UNL A   1      48.114  27.144  31.407  1.00  0.00     0.198 A 
ATOM     67  C   UNL A   1      48.604  28.087  29.255  1.00  0.00     0.198 A 
ATOM     68  F   UNL A   1      46.986  29.380  28.140  1.00  0.00    -0.203 F 
ATOM     69  F   UNL A   1      48.495  26.433  32.478  1.00  0.00    -0.200 F 
ATOM     70  C   UNL A   1      48.996  27.339  30.356  1.00  0.00     0.200 A 
ATOM     71  F   UNL A   1      49.447  28.257  28.227  1.00  0.00    -0.200 F 
ATOM     72  F   UNL A   1      50.224  26.805  30.402  1.00  0.00    -0.200 F 
ENDBRANCH  48  62
BRANCH  49  73
ATOM     73  C   UNL A   1      37.287  32.492  30.155  1.00  0.00     0.064 A 
ATOM     74  C   UNL A   1      36.347  32.211  31.158  1.00  0.00     0.173 A 
ATOM     75  C   UNL A   1      36.894  33.338  29.109  1.00  0.00     0.173 A 
ATOM     76  F   UNL A   1      36.672  31.404  32.177  1.00  0.00    -0.203 F 
ATOM     77  C   UNL A   1      35.058  32.738  31.102  1.00  0.00     0.198 A 
ATOM     78  C   UNL A   1      35.614  33.884  29.068  1.00  0.00     0.198 A 
ATOM     79  F   UNL A   1      37.765  33.651  28.139  1.00  0.00    -0.203 F 
ATOM     80  F   UNL A   1      34.167  32.426  32.053  1.00  0.00    -0.200 F 
ATOM     81  C   UNL A   1      34.693  33.577  30.060  1.00  0.00     0.200 A 
ATOM     82  F   UNL A   1      35.273  34.713  28.072  1.00  0.00    -0.200 F 
ATOM     83  F   UNL A   1      33.457  34.091  30.012  1.00  0.00    -0.200 F 
ENDBRANCH  49  73
BRANCH  61  84
ATOM     84  C   UNL A   1      43.530  34.725  32.326  1.00  0.00     0.064 A 
ATOM     85  C   UNL A   1      43.931  35.813  31.535  1.00  0.00     0.173 A 
ATOM     86  C   UNL A   1      43.636  34.851  33.719  1.00  0.00     0.173 A 
ATOM     87  F   UNL A   1      43.856  35.740  30.198  1.00  0.00    -0.203 F 
ATOM     88  C   UNL A   1      44.430  36.975  32.116  1.00  0.00     0.198 A 
ATOM     89  C   UNL A   1      44.109  36.025  34.297  1.00  0.00     0.198 A 
ATOM     90  F   UNL A   1      43.254  33.843  34.518  1.00  0.00    -0.203 F 
ATOM     91  F   UNL A   1      44.835  37.990  31.339  1.00  0.00    -0.200 F 
ATOM     92  C   UNL A   1      44.514  37.082  33.495  1.00  0.00     0.200 A 
ATOM     93  F   UNL A   1      44.167  36.137  35.631  1.00  0.00    -0.200 F 
ATOM     94  F   UNL A   1      44.983  38.207  34.053  1.00  0.00    -0.200 F 
ENDBRANCH  61  84
ENDBRANCH  35  36
ENDBRANCH  27  30
ENDBRANCH  25  26
ENDBRANCH  24  25
ENDBRANCH  23  24
ENDBRANCH  22  23
ENDBRANCH   1  22
TORSDOF 18
ENDMDL
MODEL 3
REMARK VINA RESULT:     -11.1      4.186      8.618
REMARK SMILES CC[C@@H](C)SCc1cc(F)cc(/C=C/C(=O)NCCCCCCNC(=O)c2ccc(-c3c4nc(c(-c5c(F)c(F)c(F)c(F)c5F)c5ccc([nH]5)c(-c5c(F)c(F)c(F)c(F)c5F)c5nc(c(-c6c(F)c(F)c(F)c(F)c6F)c6ccc3[nH]6)C=C5)C=C4)cc2)c1
REMARK SMILES IDX 19 1 18 2 17 3 15 4 16 5 14 7 13 8 12 9 7 10 8 11 90 12 9 13
REMARK SMILES IDX 10 14 11 15 6 16 5 17 3 18 4 19 2 20 1 21 20 22 21 23 22 24
REMARK SMILES IDX 23 25 24 26 25 27 26 29 27 30 28 31 89 32 29 33 88 34 30 35
REMARK SMILES IDX 31 36 32 37 82 38 33 39 87 40 81 41 83 42 34 43 86 44 80 45
REMARK SMILES IDX 79 46 35 48 67 49 47 50 66 51 48 52 51 53 65 54 84 55 49 56
REMARK SMILES IDX 50 57 64 59 85 60 52 61 36 62 37 63 45 64 38 65 39 66 43 67
REMARK SMILES IDX 46 68 40 69 41 70 44 71 42 72 68 73 69 74 77 75 70 76 71 77
REMARK SMILES IDX 75 78 78 79 72 80 73 81 76 82 74 83 53 84 54 85 62 86 55 87
REMARK SMILES IDX 56 88 60 89 63 90 57 91 58 92 61 93 59 94
REMARK H PARENT 17 6 24 28 83 47 51 58
REMARK Flexibility Score: inf
ROOT
ATOM      1  C   UNL A   1      31.917  28.411  23.523  1.00  0.00     0.021 C 
ENDROOT
BRANCH   1   2
ATOM      2  C   UNL A   1      31.244  27.281  22.740  1.00  0.00     0.116 C 
BRANCH   2   3
ATOM      3  N   UNL A   1      32.053  26.895  21.596  1.00  0.00    -0.353 N 
ATOM      4  C   UNL A   1      32.735  25.752  21.320  1.00  0.00     0.243 C 
ATOM      5  O   UNL A   1      33.274  25.616  20.224  1.00  0.00    -0.270 OA
ATOM      6  H   UNL A   1      32.118  27.584  20.895  1.00  0.00     0.163 HD
BRANCH   4   7
ATOM      7  C   UNL A   1      32.780  24.635  22.289  1.00  0.00     0.072 C 
ATOM      8  C   UNL A   1      33.709  24.533  23.246  1.00  0.00     0.014 C 
BRANCH   8   9
ATOM      9  C   UNL A   1      33.802  23.430  24.206  1.00  0.00    -0.022 A 
ATOM     10  C   UNL A   1      33.168  21.119  24.709  1.00  0.00    -0.035 A 
ATOM     11  C   UNL A   1      33.559  21.325  26.038  1.00  0.00     0.043 A 
ATOM     12  C   UNL A   1      33.368  22.163  23.790  1.00  0.00     0.013 A 
ATOM     13  C   UNL A   1      34.059  22.563  26.434  1.00  0.00     0.124 A 
ATOM     14  F   UNL A   1      34.399  22.750  27.716  1.00  0.00    -0.207 F 
ATOM     15  C   UNL A   1      34.162  23.623  25.539  1.00  0.00     0.047 A 
BRANCH  10  16
ATOM     16  C   UNL A   1      32.549  19.806  24.299  1.00  0.00     0.105 C 
BRANCH  16  17
ATOM     17  S   UNL A   1      32.853  18.393  25.423  1.00  0.00    -0.154 SA
BRANCH  17  18
ATOM     18  C   UNL A   1      34.054  17.331  24.502  1.00  0.00     0.043 C 
ATOM     19  C   UNL A   1      33.753  17.240  23.008  1.00  0.00     0.019 C 
BRANCH  18  20
ATOM     20  C   UNL A   1      34.260  15.963  25.167  1.00  0.00     0.011 C 
ATOM     21  C   UNL A   1      32.950  15.212  25.381  1.00  0.00     0.005 C 
ENDBRANCH  18  20
ENDBRANCH  17  18
ENDBRANCH  16  17
ENDBRANCH  10  16
ENDBRANCH   8   9
ENDBRANCH   4   7
ENDBRANCH   2   3
ENDBRANCH   1   2
BRANCH   1  22
ATOM     22  C   UNL A   1      31.103  28.894  24.731  1.00  0.00     0.002 C 
BRANCH  22  23
ATOM     23  C   UNL A   1      31.697  28.536  26.099  1.00  0.00     0.002 C 
BRANCH  23  24
ATOM     24  C   UNL A   1      32.983  27.704  26.055  1.00  0.00     0.021 C 
BRANCH  24  25
ATOM     25  C   UNL A   1      34.233  28.438  26.533  1.00  0.00     0.116 C 
BRANCH  25  26
ATOM     26  N   UNL A   1      33.923  29.766  27.036  1.00  0.00    -0.352 N 
ATOM     27  C   UNL A   1      34.632  30.562  27.900  1.00  0.00     0.251 C 
ATOM     28  H   UNL A   1      33.079  30.153  26.708  1.00  0.00     0.163 HD
ATOM     29  O   UNL A   1      34.115  31.568  28.376  1.00  0.00    -0.269 OA
BRANCH  27  30
ATOM     30  C   UNL A   1      36.018  30.205  28.273  1.00  0.00     0.039 A 
ATOM     31  C   UNL A   1      36.255  29.674  29.544  1.00  0.00     0.014 A 
ATOM     32  C   UNL A   1      37.082  30.419  27.392  1.00  0.00     0.014 A 
ATOM     33  C   UNL A   1      37.552  29.310  29.911  1.00  0.00     0.010 A 
ATOM     34  C   UNL A   1      38.364  29.996  27.734  1.00  0.00     0.010 A 
ATOM     35  C   UNL A   1      38.612  29.441  28.997  1.00  0.00    -0.014 A 
BRANCH  35  36
ATOM     36  C   UNL A   1      39.980  28.986  29.351  1.00  0.00     0.031 A 
ATOM     37  C   UNL A   1      40.871  29.841  30.207  1.00  0.00     0.074 A 
ATOM     38  C   UNL A   1      40.432  27.815  28.863  1.00  0.00     0.049 A 
ATOM     39  N   UNL A   1      42.103  29.621  30.593  1.00  0.00    -0.248 NA
ATOM     40  C   UNL A   1      40.317  31.121  30.672  1.00  0.00     0.031 C 
ATOM     41  C   UNL A   1      39.678  26.921  27.985  1.00  0.00     0.029 A 
ATOM     42  N   UNL A   1      41.636  27.176  29.034  1.00  0.00    -0.354 N 
ATOM     43  C   UNL A   1      42.470  30.733  31.339  1.00  0.00     0.074 A 
ATOM     44  C   UNL A   1      41.351  31.651  31.308  1.00  0.00     0.031 C 
ATOM     45  C   UNL A   1      40.420  25.834  27.721  1.00  0.00     0.029 A 
ATOM     46  C   UNL A   1      41.715  25.971  28.381  1.00  0.00     0.049 A 
ATOM     47  H   UNL A   1      42.371  27.547  29.573  1.00  0.00     0.167 HD
ATOM     48  C   UNL A   1      43.625  30.956  32.008  1.00  0.00     0.037 A 
ATOM     49  C   UNL A   1      42.718  25.075  28.322  1.00  0.00     0.037 A 
ATOM     50  C   UNL A   1      44.725  30.028  32.057  1.00  0.00     0.049 A 
ATOM     51  C   UNL A   1      43.993  25.348  29.073  1.00  0.00     0.074 A 
ATOM     52  C   UNL A   1      45.914  30.139  32.757  1.00  0.00     0.029 A 
ATOM     53  N   UNL A   1      44.772  28.818  31.379  1.00  0.00    -0.354 N 
ATOM     54  N   UNL A   1      44.306  26.377  29.821  1.00  0.00    -0.248 NA
ATOM     55  C   UNL A   1      45.051  24.332  28.975  1.00  0.00     0.031 C 
ATOM     56  C   UNL A   1      46.698  29.017  32.468  1.00  0.00     0.029 A 
ATOM     57  C   UNL A   1      45.978  28.184  31.627  1.00  0.00     0.049 A 
ATOM     58  H   UNL A   1      44.053  28.463  30.808  1.00  0.00     0.167 HD
ATOM     59  C   UNL A   1      45.587  26.130  30.293  1.00  0.00     0.074 A 
ATOM     60  C   UNL A   1      45.985  24.841  29.765  1.00  0.00     0.031 C 
ATOM     61  C   UNL A   1      46.363  26.904  31.090  1.00  0.00     0.037 A 
BRANCH  48  62
ATOM     62  C   UNL A   1      43.761  32.247  32.762  1.00  0.00     0.064 A 
ATOM     63  C   UNL A   1      43.331  32.344  34.094  1.00  0.00     0.173 A 
ATOM     64  C   UNL A   1      44.250  33.407  32.143  1.00  0.00     0.173 A 
ATOM     65  F   UNL A   1      42.849  31.267  34.730  1.00  0.00    -0.203 F 
ATOM     66  C   UNL A   1      43.374  33.560  34.773  1.00  0.00     0.198 A 
ATOM     67  C   UNL A   1      44.318  34.614  32.834  1.00  0.00     0.198 A 
ATOM     68  F   UNL A   1      44.683  33.363  30.874  1.00  0.00    -0.203 F 
ATOM     69  F   UNL A   1      42.929  33.636  36.035  1.00  0.00    -0.200 F 
ATOM     70  C   UNL A   1      43.871  34.691  34.145  1.00  0.00     0.200 A 
ATOM     71  F   UNL A   1      44.821  35.700  32.232  1.00  0.00    -0.200 F 
ATOM     72  F   UNL A   1      43.921  35.857  34.803  1.00  0.00    -0.200 F 
ENDBRANCH  48  62
BRANCH  49  73
ATOM     73  C   UNL A   1      42.535  23.818  27.552  1.00  0.00     0.064 A 
ATOM     74  C   UNL A   1      42.009  22.664  28.151  1.00  0.00     0.173 A 
ATOM     75  C   UNL A   1      42.915  23.740  26.205  1.00  0.00     0.173 A 
ATOM     76  F   UNL A   1      41.636  22.685  29.438  1.00  0.00    -0.203 F 
ATOM     77  C   UNL A   1      41.890  21.474  27.435  1.00  0.00     0.198 A 
ATOM     78  C   UNL A   1      42.771  22.558  25.484  1.00  0.00     0.198 A 
ATOM     79  F   UNL A   1      43.403  24.825  25.584  1.00  0.00    -0.203 F 
ATOM     80  F   UNL A   1      41.418  20.376  28.041  1.00  0.00    -0.200 F 
ATOM     81  C   UNL A   1      42.267  21.423  26.102  1.00  0.00     0.200 A 
ATOM     82  F   UNL A   1      43.114  22.519  24.189  1.00  0.00    -0.200 F 
ATOM     83  F   UNL A   1      42.142  20.281  25.412  1.00  0.00    -0.200 F 
ENDBRANCH  49  73
BRANCH  61  84
ATOM     84  C   UNL A   1      47.724  26.382  31.447  1.00  0.00     0.064 A 
ATOM     85  C   UNL A   1      48.819  26.601  30.598  1.00  0.00     0.173 A 
ATOM     86  C   UNL A   1      47.930  25.609  32.600  1.00  0.00     0.173 A 
ATOM     87  F   UNL A   1      48.672  27.327  29.479  1.00  0.00    -0.203 F 
ATOM     88  C   UNL A   1      50.068  26.057  30.885  1.00  0.00     0.198 A 
ATOM     89  C   UNL A   1      49.186  25.091  32.898  1.00  0.00     0.198 A 
ATOM     90  F   UNL A   1      46.917  25.382  33.450  1.00  0.00    -0.203 F 
ATOM     91  F   UNL A   1      51.092  26.254  30.043  1.00  0.00    -0.200 F 
ATOM     92  C   UNL A   1      50.252  25.307  32.035  1.00  0.00     0.200 A 
ATOM     93  F   UNL A   1      49.369  24.387  34.023  1.00  0.00    -0.200 F 
ATOM     94  F   UNL A   1      51.457  24.794  32.317  1.00  0.00    -0.200 F 
ENDBRANCH  61  84
ENDBRANCH  35  36
ENDBRANCH  27  30
ENDBRANCH  25  26
ENDBRANCH  24  25
ENDBRANCH  23  24
ENDBRANCH  22  23
ENDBRANCH   1  22
TORSDOF 18
ENDMDL
