MODEL 1
REMARK VINA RESULT:      -9.8      0.000      0.000
REMARK SMILES C#CC[NH2+]CC(=O)N(C)CCCC(=O)NCCCCCCNC(=O)c1ccc(-c2c3nc(c(-c4c(F)c(F)c(F)c(F)c4F)c4ccc([nH]4)c(-c4c(F)c(F)c(F)c(F)c4F)c4nc(c(-c5c(F)c(F)c(F)c(F)c5F)c5ccc2[nH]5)C=C4)C=C3)cc1
REMARK SMILES IDX 13 1 14 2 15 3 12 5 11 6 10 7 8 8 9 9 6 10 7 11 5 12 4 13
REMARK SMILES IDX 3 16 2 17 1 18 16 19 17 20 18 21 19 22 20 23 21 24 22 25
REMARK SMILES IDX 23 26 24 28 25 29 26 30 87 31 27 32 86 33 28 34 29 35 30 36
REMARK SMILES IDX 80 37 31 38 85 39 79 40 81 41 32 42 84 43 78 44 77 45 33 47
REMARK SMILES IDX 65 48 45 49 64 50 46 51 49 52 63 53 82 54 47 55 48 56 62 58
REMARK SMILES IDX 83 59 50 60 34 61 35 62 43 63 36 64 37 65 41 66 44 67 38 68
REMARK SMILES IDX 39 69 42 70 40 71 66 72 67 73 75 74 68 75 69 76 73 77 76 78
REMARK SMILES IDX 70 79 71 80 74 81 72 82 51 83 52 84 60 85 53 86 54 87 58 88
REMARK SMILES IDX 61 89 55 90 56 91 59 92 57 93
REMARK H PARENT 15 4 4 14 4 15 22 27 81 46 49 57
REMARK Flexibility Score: inf
ROOT
ATOM      1  C   UNL A   1      32.045  25.458  26.056  1.00  0.00     0.220 C 
ATOM      2  O   UNL A   1      31.107  24.835  26.566  1.00  0.00    -0.275 OA
ATOM      3  N   UNL A   1      32.246  26.716  26.519  1.00  0.00    -0.356 N 
ATOM      4  H   UNL A   1      31.573  27.011  27.174  1.00  0.00     0.163 HD
ENDROOT
BRANCH   1   5
ATOM      5  C   UNL A   1      32.952  24.761  25.061  1.00  0.00     0.102 C 
BRANCH   5   6
ATOM      6  C   UNL A   1      32.441  24.206  23.728  1.00  0.00     0.031 C 
BRANCH   6   7
ATOM      7  C   UNL A   1      31.682  25.051  22.705  1.00  0.00     0.120 C 
BRANCH   7   8
ATOM      8  N   UNL A   1      32.320  26.054  21.824  1.00  0.00    -0.341 N 
ATOM      9  C   UNL A   1      32.382  25.624  20.421  1.00  0.00     0.147 C 
BRANCH   8  10
ATOM     10  C   UNL A   1      32.917  27.231  22.309  1.00  0.00     0.277 C 
ATOM     11  O   UNL A   1      34.082  27.544  22.069  1.00  0.00    -0.268 OA
BRANCH  10  12
ATOM     12  C   UNL A   1      32.065  28.309  23.008  1.00  0.00     0.362 C 
BRANCH  12  13
ATOM     13  N   UNL A   1      30.964  28.711  22.097  1.00  0.00    -0.328 N 
ATOM     14  H   UNL A   1      31.166  29.618  21.678  1.00  0.00     0.347 HD
ATOM     15  H   UNL A   1      30.850  28.042  21.335  1.00  0.00     0.347 HD
BRANCH  13  16
ATOM     16  C   UNL A   1      29.777  28.788  22.911  1.00  0.00     0.352 C 
BRANCH  16  17
ATOM     17  C   UNL A   1      29.346  30.174  23.361  1.00  0.00    -0.047 C 
ATOM     18  C   UNL A   1      28.976  31.364  23.748  1.00  0.00     0.010 C 
ENDBRANCH  16  17
ENDBRANCH  13  16
ENDBRANCH  12  13
ENDBRANCH  10  12
ENDBRANCH   8  10
ENDBRANCH   7   8
ENDBRANCH   6   7
ENDBRANCH   5   6
ENDBRANCH   1   5
BRANCH   3  19
ATOM     19  C   UNL A   1      33.259  27.707  26.239  1.00  0.00     0.116 C 
BRANCH  19  20
ATOM     20  C   UNL A   1      33.215  28.850  27.259  1.00  0.00     0.021 C 
BRANCH  20  21
ATOM     21  C   UNL A   1      33.106  30.234  26.628  1.00  0.00     0.002 C 
BRANCH  21  22
ATOM     22  C   UNL A   1      31.671  30.768  26.531  1.00  0.00     0.002 C 
BRANCH  22  23
ATOM     23  C   UNL A   1      31.483  32.259  26.835  1.00  0.00     0.021 C 
BRANCH  23  24
ATOM     24  C   UNL A   1      32.763  33.037  27.136  1.00  0.00     0.116 C 
BRANCH  24  25
ATOM     25  N   UNL A   1      32.489  34.369  27.652  1.00  0.00    -0.352 N 
ATOM     26  C   UNL A   1      32.999  35.024  28.743  1.00  0.00     0.251 C 
ATOM     27  H   UNL A   1      31.829  34.883  27.133  1.00  0.00     0.163 HD
ATOM     28  O   UNL A   1      32.478  36.062  29.133  1.00  0.00    -0.269 OA
BRANCH  26  29
ATOM     29  C   UNL A   1      34.171  34.480  29.459  1.00  0.00     0.039 A 
ATOM     30  C   UNL A   1      33.978  33.867  30.700  1.00  0.00     0.014 A 
ATOM     31  C   UNL A   1      35.457  34.604  28.929  1.00  0.00     0.014 A 
ATOM     32  C   UNL A   1      35.067  33.323  31.381  1.00  0.00     0.010 A 
ATOM     33  C   UNL A   1      36.533  34.001  29.575  1.00  0.00     0.010 A 
ATOM     34  C   UNL A   1      36.349  33.354  30.807  1.00  0.00    -0.014 A 
BRANCH  34  35
ATOM     35  C   UNL A   1      37.505  32.703  31.473  1.00  0.00     0.031 A 
ATOM     36  C   UNL A   1      38.197  31.539  30.825  1.00  0.00     0.074 A 
ATOM     37  C   UNL A   1      37.882  33.119  32.698  1.00  0.00     0.049 A 
ATOM     38  N   UNL A   1      39.167  30.790  31.286  1.00  0.00    -0.248 NA
ATOM     39  C   UNL A   1      37.716  31.144  29.492  1.00  0.00     0.031 C 
ATOM     40  C   UNL A   1      37.257  34.209  33.448  1.00  0.00     0.029 A 
ATOM     41  N   UNL A   1      38.871  32.664  33.533  1.00  0.00    -0.354 N 
ATOM     42  C   UNL A   1      39.403  29.833  30.308  1.00  0.00     0.074 A 
ATOM     43  C   UNL A   1      38.438  30.059  29.254  1.00  0.00     0.031 C 
ATOM     44  C   UNL A   1      37.885  34.347  34.626  1.00  0.00     0.029 A 
ATOM     45  C   UNL A   1      38.927  33.332  34.733  1.00  0.00     0.049 A 
ATOM     46  H   UNL A   1      39.481  31.929  33.297  1.00  0.00     0.167 HD
ATOM     47  C   UNL A   1      40.353  28.867  30.283  1.00  0.00     0.037 A 
ATOM     48  C   UNL A   1      39.719  33.136  35.805  1.00  0.00     0.037 A 
ATOM     49  C   UNL A   1      41.320  28.658  31.330  1.00  0.00     0.049 A 
ATOM     50  C   UNL A   1      40.755  32.045  35.760  1.00  0.00     0.074 A 
ATOM     51  C   UNL A   1      42.362  27.749  31.374  1.00  0.00     0.029 A 
ATOM     52  N   UNL A   1      41.357  29.365  32.524  1.00  0.00    -0.354 N 
ATOM     53  N   UNL A   1      41.018  31.194  34.799  1.00  0.00    -0.248 NA
ATOM     54  C   UNL A   1      41.608  31.894  36.946  1.00  0.00     0.031 C 
ATOM     55  C   UNL A   1      42.992  27.865  32.617  1.00  0.00     0.029 A 
ATOM     56  C   UNL A   1      42.384  28.890  33.325  1.00  0.00     0.049 A 
ATOM     57  H   UNL A   1      40.744  30.096  32.767  1.00  0.00     0.167 HD
ATOM     58  C   UNL A   1      42.081  30.423  35.251  1.00  0.00     0.074 A 
ATOM     59  C   UNL A   1      42.425  30.921  36.567  1.00  0.00     0.031 C 
ATOM     60  C   UNL A   1      42.714  29.397  34.633  1.00  0.00     0.037 A 
BRANCH  47  61
ATOM     61  C   UNL A   1      40.390  27.957  29.088  1.00  0.00     0.064 A 
ATOM     62  C   UNL A   1      39.656  26.762  29.045  1.00  0.00     0.173 A 
ATOM     63  C   UNL A   1      41.147  28.300  27.956  1.00  0.00     0.173 A 
ATOM     64  F   UNL A   1      38.924  26.381  30.102  1.00  0.00    -0.203 F 
ATOM     65  C   UNL A   1      39.706  25.927  27.932  1.00  0.00     0.198 A 
ATOM     66  C   UNL A   1      41.168  27.480  26.831  1.00  0.00     0.198 A 
ATOM     67  F   UNL A   1      41.863  29.434  27.939  1.00  0.00    -0.203 F 
ATOM     68  F   UNL A   1      39.042  24.763  27.938  1.00  0.00    -0.200 F 
ATOM     69  C   UNL A   1      40.455  26.290  26.823  1.00  0.00     0.200 A 
ATOM     70  F   UNL A   1      41.881  27.839  25.754  1.00  0.00    -0.200 F 
ATOM     71  F   UNL A   1      40.499  25.489  25.749  1.00  0.00    -0.200 F 
ENDBRANCH  47  61
BRANCH  48  72
ATOM     72  C   UNL A   1      39.565  33.999  37.005  1.00  0.00     0.064 A 
ATOM     73  C   UNL A   1      40.186  35.254  37.076  1.00  0.00     0.173 A 
ATOM     74  C   UNL A   1      38.793  33.592  38.102  1.00  0.00     0.173 A 
ATOM     75  F   UNL A   1      40.951  35.680  36.060  1.00  0.00    -0.203 F 
ATOM     76  C   UNL A   1      40.059  36.058  38.207  1.00  0.00     0.198 A 
ATOM     77  C   UNL A   1      38.640  34.409  39.220  1.00  0.00     0.198 A 
ATOM     78  F   UNL A   1      38.171  32.403  38.082  1.00  0.00    -0.203 F 
ATOM     79  F   UNL A   1      40.702  37.231  38.267  1.00  0.00    -0.200 F 
ATOM     80  C   UNL A   1      39.280  35.637  39.275  1.00  0.00     0.200 A 
ATOM     81  F   UNL A   1      37.872  34.007  40.242  1.00  0.00    -0.200 F 
ATOM     82  F   UNL A   1      39.151  36.414  40.359  1.00  0.00    -0.200 F 
ENDBRANCH  48  72
BRANCH  60  83
ATOM     83  C   UNL A   1      43.864  28.759  35.359  1.00  0.00     0.064 A 
ATOM     84  C   UNL A   1      45.183  29.200  35.184  1.00  0.00     0.173 A 
ATOM     85  C   UNL A   1      43.635  27.722  36.277  1.00  0.00     0.173 A 
ATOM     86  F   UNL A   1      45.457  30.178  34.306  1.00  0.00    -0.203 F 
ATOM     87  C   UNL A   1      46.234  28.610  35.881  1.00  0.00     0.198 A 
ATOM     88  C   UNL A   1      44.684  27.156  36.997  1.00  0.00     0.198 A 
ATOM     89  F   UNL A   1      42.390  27.266  36.488  1.00  0.00    -0.203 F 
ATOM     90  F   UNL A   1      47.493  29.015  35.661  1.00  0.00    -0.200 F 
ATOM     91  C   UNL A   1      45.983  27.596  36.793  1.00  0.00     0.200 A 
ATOM     92  F   UNL A   1      44.437  26.188  37.890  1.00  0.00    -0.200 F 
ATOM     93  F   UNL A   1      46.994  27.037  37.472  1.00  0.00    -0.200 F 
ENDBRANCH  60  83
ENDBRANCH  34  35
ENDBRANCH  26  29
ENDBRANCH  24  25
ENDBRANCH  23  24
ENDBRANCH  22  23
ENDBRANCH  21  22
ENDBRANCH  20  21
ENDBRANCH  19  20
ENDBRANCH   3  19
TORSDOF 21
ENDMDL
MODEL 2
REMARK VINA RESULT:      -9.7      1.017      7.564
REMARK SMILES C#CC[NH2+]CC(=O)N(C)CCCC(=O)NCCCCCCNC(=O)c1ccc(-c2c3nc(c(-c4c(F)c(F)c(F)c(F)c4F)c4ccc([nH]4)c(-c4c(F)c(F)c(F)c(F)c4F)c4nc(c(-c5c(F)c(F)c(F)c(F)c5F)c5ccc2[nH]5)C=C4)C=C3)cc1
REMARK SMILES IDX 13 1 14 2 15 3 12 5 11 6 10 7 8 8 9 9 6 10 7 11 5 12 4 13
REMARK SMILES IDX 3 16 2 17 1 18 16 19 17 20 18 21 19 22 20 23 21 24 22 25
REMARK SMILES IDX 23 26 24 28 25 29 26 30 87 31 27 32 86 33 28 34 29 35 30 36
REMARK SMILES IDX 80 37 31 38 85 39 79 40 81 41 32 42 84 43 78 44 77 45 33 47
REMARK SMILES IDX 65 48 45 49 64 50 46 51 49 52 63 53 82 54 47 55 48 56 62 58
REMARK SMILES IDX 83 59 50 60 34 61 35 62 43 63 36 64 37 65 41 66 44 67 38 68
REMARK SMILES IDX 39 69 42 70 40 71 66 72 67 73 75 74 68 75 69 76 73 77 76 78
REMARK SMILES IDX 70 79 71 80 74 81 72 82 51 83 52 84 60 85 53 86 54 87 58 88
REMARK SMILES IDX 61 89 55 90 56 91 59 92 57 93
REMARK H PARENT 15 4 4 14 4 15 22 27 81 46 49 57
REMARK Flexibility Score: inf
ROOT
ATOM      1  C   UNL A   1      30.933  24.886  26.462  1.00  0.00     0.220 C 
ATOM      2  O   UNL A   1      31.130  23.925  27.215  1.00  0.00    -0.275 OA
ATOM      3  N   UNL A   1      31.368  26.090  26.907  1.00  0.00    -0.356 N 
ATOM      4  H   UNL A   1      31.740  26.067  27.818  1.00  0.00     0.163 HD
ENDROOT
BRANCH   1   5
ATOM      5  C   UNL A   1      30.342  24.648  25.085  1.00  0.00     0.102 C 
BRANCH   5   6
ATOM      6  C   UNL A   1      30.978  23.692  24.071  1.00  0.00     0.031 C 
BRANCH   6   7
ATOM      7  C   UNL A   1      31.879  24.163  22.929  1.00  0.00     0.120 C 
BRANCH   7   8
ATOM      8  N   UNL A   1      33.231  24.731  23.123  1.00  0.00    -0.341 N 
ATOM      9  C   UNL A   1      34.267  23.700  23.279  1.00  0.00     0.147 C 
BRANCH   8  10
ATOM     10  C   UNL A   1      33.469  26.108  23.271  1.00  0.00     0.277 C 
ATOM     11  O   UNL A   1      34.000  26.597  24.267  1.00  0.00    -0.268 OA
BRANCH  10  12
ATOM     12  C   UNL A   1      33.261  27.070  22.084  1.00  0.00     0.362 C 
BRANCH  12  13
ATOM     13  N   UNL A   1      32.482  28.244  22.553  1.00  0.00    -0.328 N 
ATOM     14  H   UNL A   1      32.755  28.493  23.503  1.00  0.00     0.347 HD
ATOM     15  H   UNL A   1      32.652  29.060  21.965  1.00  0.00     0.347 HD
BRANCH  13  16
ATOM     16  C   UNL A   1      31.097  27.848  22.516  1.00  0.00     0.352 C 
BRANCH  16  17
ATOM     17  C   UNL A   1      30.073  28.905  22.898  1.00  0.00    -0.047 C 
ATOM     18  C   UNL A   1      29.196  29.812  23.225  1.00  0.00     0.010 C 
ENDBRANCH  16  17
ENDBRANCH  13  16
ENDBRANCH  12  13
ENDBRANCH  10  12
ENDBRANCH   8  10
ENDBRANCH   7   8
ENDBRANCH   6   7
ENDBRANCH   5   6
ENDBRANCH   1   5
BRANCH   3  19
ATOM     19  C   UNL A   1      31.391  27.401  26.302  1.00  0.00     0.116 C 
BRANCH  19  20
ATOM     20  C   UNL A   1      31.469  28.502  27.366  1.00  0.00     0.021 C 
BRANCH  20  21
ATOM     21  C   UNL A   1      32.285  29.716  26.935  1.00  0.00     0.002 C 
BRANCH  21  22
ATOM     22  C   UNL A   1      31.478  30.779  26.178  1.00  0.00     0.002 C 
BRANCH  22  23
ATOM     23  C   UNL A   1      31.392  32.160  26.839  1.00  0.00     0.021 C 
BRANCH  23  24
ATOM     24  C   UNL A   1      32.727  32.868  27.062  1.00  0.00     0.116 C 
BRANCH  24  25
ATOM     25  N   UNL A   1      32.557  34.196  27.631  1.00  0.00    -0.352 N 
ATOM     26  C   UNL A   1      33.128  34.771  28.737  1.00  0.00     0.251 C 
ATOM     27  H   UNL A   1      31.929  34.776  27.142  1.00  0.00     0.163 HD
ATOM     28  O   UNL A   1      32.690  35.828  29.174  1.00  0.00    -0.269 OA
BRANCH  26  29
ATOM     29  C   UNL A   1      34.268  34.117  29.412  1.00  0.00     0.039 A 
ATOM     30  C   UNL A   1      34.012  33.247  30.475  1.00  0.00     0.014 A 
ATOM     31  C   UNL A   1      35.583  34.386  29.026  1.00  0.00     0.014 A 
ATOM     32  C   UNL A   1      35.071  32.598  31.110  1.00  0.00     0.010 A 
ATOM     33  C   UNL A   1      36.634  33.687  29.613  1.00  0.00     0.010 A 
ATOM     34  C   UNL A   1      36.389  32.785  30.661  1.00  0.00    -0.014 A 
BRANCH  34  35
ATOM     35  C   UNL A   1      37.521  32.038  31.264  1.00  0.00     0.031 A 
ATOM     36  C   UNL A   1      38.018  32.390  32.635  1.00  0.00     0.074 A 
ATOM     37  C   UNL A   1      38.145  31.088  30.540  1.00  0.00     0.049 A 
ATOM     38  N   UNL A   1      39.043  31.911  33.294  1.00  0.00    -0.248 NA
ATOM     39  C   UNL A   1      37.285  33.446  33.352  1.00  0.00     0.031 C 
ATOM     40  C   UNL A   1      37.782  30.690  29.179  1.00  0.00     0.029 A 
ATOM     41  N   UNL A   1      39.225  30.298  30.841  1.00  0.00    -0.354 N 
ATOM     42  C   UNL A   1      39.083  32.610  34.493  1.00  0.00     0.074 A 
ATOM     43  C   UNL A   1      38.016  33.586  34.448  1.00  0.00     0.031 C 
ATOM     44  C   UNL A   1      38.616  29.721  28.769  1.00  0.00     0.029 A 
ATOM     45  C   UNL A   1      39.596  29.460  29.817  1.00  0.00     0.049 A 
ATOM     46  H   UNL A   1      39.691  30.328  31.707  1.00  0.00     0.167 HD
ATOM     47  C   UNL A   1      39.921  32.437  35.544  1.00  0.00     0.037 A 
ATOM     48  C   UNL A   1      40.621  28.590  29.728  1.00  0.00     0.037 A 
ATOM     49  C   UNL A   1      40.970  31.452  35.587  1.00  0.00     0.049 A 
ATOM     50  C   UNL A   1      41.547  28.429  30.902  1.00  0.00     0.074 A 
ATOM     51  C   UNL A   1      41.833  31.154  36.627  1.00  0.00     0.029 A 
ATOM     52  N   UNL A   1      41.306  30.608  34.537  1.00  0.00    -0.354 N 
ATOM     53  N   UNL A   1      41.531  29.043  32.060  1.00  0.00    -0.248 NA
ATOM     54  C   UNL A   1      42.632  27.448  30.760  1.00  0.00     0.031 C 
ATOM     55  C   UNL A   1      42.727  30.173  36.187  1.00  0.00     0.029 A 
ATOM     56  C   UNL A   1      42.384  29.813  34.893  1.00  0.00     0.049 A 
ATOM     57  H   UNL A   1      40.846  30.579  33.667  1.00  0.00     0.167 HD
ATOM     58  C   UNL A   1      42.582  28.508  32.793  1.00  0.00     0.074 A 
ATOM     59  C   UNL A   1      43.206  27.506  31.954  1.00  0.00     0.031 C 
ATOM     60  C   UNL A   1      42.993  28.819  34.046  1.00  0.00     0.037 A 
BRANCH  47  61
ATOM     61  C   UNL A   1      39.740  33.338  36.734  1.00  0.00     0.064 A 
ATOM     62  C   UNL A   1      40.457  34.536  36.870  1.00  0.00     0.173 A 
ATOM     63  C   UNL A   1      38.814  33.013  37.738  1.00  0.00     0.173 A 
ATOM     64  F   UNL A   1      41.362  34.889  35.945  1.00  0.00    -0.203 F 
ATOM     65  C   UNL A   1      40.283  35.356  37.982  1.00  0.00     0.198 A 
ATOM     66  C   UNL A   1      38.616  33.852  38.831  1.00  0.00     0.198 A 
ATOM     67  F   UNL A   1      38.095  31.883  37.656  1.00  0.00    -0.203 F 
ATOM     68  F   UNL A   1      41.022  36.465  38.117  1.00  0.00    -0.200 F 
ATOM     69  C   UNL A   1      39.358  35.017  38.957  1.00  0.00     0.200 A 
ATOM     70  F   UNL A   1      37.711  33.531  39.765  1.00  0.00    -0.200 F 
ATOM     71  F   UNL A   1      39.185  35.810  40.024  1.00  0.00    -0.200 F 
ENDBRANCH  47  61
BRANCH  48  72
ATOM     72  C   UNL A   1      40.815  27.802  28.483  1.00  0.00     0.064 A 
ATOM     73  C   UNL A   1      40.216  26.545  28.323  1.00  0.00     0.173 A 
ATOM     74  C   UNL A   1      41.599  28.288  27.427  1.00  0.00     0.173 A 
ATOM     75  F   UNL A   1      39.471  26.028  29.313  1.00  0.00    -0.203 F 
ATOM     76  C   UNL A   1      40.410  25.795  27.165  1.00  0.00     0.198 A 
ATOM     77  C   UNL A   1      41.768  27.552  26.256  1.00  0.00     0.198 A 
ATOM     78  F   UNL A   1      42.189  29.489  27.525  1.00  0.00    -0.203 F 
ATOM     79  F   UNL A   1      39.864  24.577  27.059  1.00  0.00    -0.200 F 
ATOM     80  C   UNL A   1      41.181  26.303  26.129  1.00  0.00     0.200 A 
ATOM     81  F   UNL A   1      42.499  28.054  25.251  1.00  0.00    -0.200 F 
ATOM     82  F   UNL A   1      41.362  25.586  25.013  1.00  0.00    -0.200 F 
ENDBRANCH  48  72
BRANCH  60  83
ATOM     83  C   UNL A   1      44.156  28.047  34.601  1.00  0.00     0.064 A 
ATOM     84  C   UNL A   1      45.473  28.518  34.493  1.00  0.00     0.173 A 
ATOM     85  C   UNL A   1      43.945  26.842  35.290  1.00  0.00     0.173 A 
ATOM     86  F   UNL A   1      45.730  29.657  33.830  1.00  0.00    -0.203 F 
ATOM     87  C   UNL A   1      46.537  27.800  35.031  1.00  0.00     0.198 A 
ATOM     88  C   UNL A   1      45.008  26.143  35.855  1.00  0.00     0.198 A 
ATOM     89  F   UNL A   1      42.704  26.350  35.428  1.00  0.00    -0.203 F 
ATOM     90  F   UNL A   1      47.792  28.244  34.873  1.00  0.00    -0.200 F 
ATOM     91  C   UNL A   1      46.303  26.619  35.719  1.00  0.00     0.200 A 
ATOM     92  F   UNL A   1      44.777  25.011  36.535  1.00  0.00    -0.200 F 
ATOM     93  F   UNL A   1      47.327  25.934  36.247  1.00  0.00    -0.200 F 
ENDBRANCH  60  83
ENDBRANCH  34  35
ENDBRANCH  26  29
ENDBRANCH  24  25
ENDBRANCH  23  24
ENDBRANCH  22  23
ENDBRANCH  21  22
ENDBRANCH  20  21
ENDBRANCH  19  20
ENDBRANCH   3  19
TORSDOF 21
ENDMDL
MODEL 3
REMARK VINA RESULT:      -9.7      3.623      9.101
REMARK SMILES C#CC[NH2+]CC(=O)N(C)CCCC(=O)NCCCCCCNC(=O)c1ccc(-c2c3nc(c(-c4c(F)c(F)c(F)c(F)c4F)c4ccc([nH]4)c(-c4c(F)c(F)c(F)c(F)c4F)c4nc(c(-c5c(F)c(F)c(F)c(F)c5F)c5ccc2[nH]5)C=C4)C=C3)cc1
REMARK SMILES IDX 13 1 14 2 15 3 12 5 11 6 10 7 8 8 9 9 6 10 7 11 5 12 4 13
REMARK SMILES IDX 3 16 2 17 1 18 16 19 17 20 18 21 19 22 20 23 21 24 22 25
REMARK SMILES IDX 23 26 24 28 25 29 26 30 87 31 27 32 86 33 28 34 29 35 30 36
REMARK SMILES IDX 80 37 31 38 85 39 79 40 81 41 32 42 84 43 78 44 77 45 33 47
REMARK SMILES IDX 65 48 45 49 64 50 46 51 49 52 63 53 82 54 47 55 48 56 62 58
REMARK SMILES IDX 83 59 50 60 34 61 35 62 43 63 36 64 37 65 41 66 44 67 38 68
REMARK SMILES IDX 39 69 42 70 40 71 66 72 67 73 75 74 68 75 69 76 73 77 76 78
REMARK SMILES IDX 70 79 71 80 74 81 72 82 51 83 52 84 60 85 53 86 54 87 58 88
REMARK SMILES IDX 61 89 55 90 56 91 59 92 57 93
REMARK H PARENT 15 4 4 14 4 15 22 27 81 46 49 57
REMARK Flexibility Score: inf
ROOT
ATOM      1  C   UNL A   1      32.762  26.329  21.948  1.00  0.00     0.220 C 
ATOM      2  O   UNL A   1      33.715  26.779  21.303  1.00  0.00    -0.275 OA
ATOM      3  N   UNL A   1      31.751  27.196  22.200  1.00  0.00    -0.356 N 
ATOM      4  H   UNL A   1      31.926  28.113  21.889  1.00  0.00     0.163 HD
ENDROOT
BRANCH   1   5
ATOM      5  C   UNL A   1      32.730  24.855  22.303  1.00  0.00     0.102 C 
BRANCH   5   6
ATOM      6  C   UNL A   1      33.648  24.243  23.365  1.00  0.00     0.031 C 
BRANCH   6   7
ATOM      7  C   UNL A   1      34.155  22.802  23.304  1.00  0.00     0.120 C 
BRANCH   7   8
ATOM      8  N   UNL A   1      35.375  22.324  23.990  1.00  0.00    -0.341 N 
ATOM      9  C   UNL A   1      36.610  22.840  23.383  1.00  0.00     0.147 C 
BRANCH   8  10
ATOM     10  C   UNL A   1      35.349  21.377  25.028  1.00  0.00     0.277 C 
ATOM     11  O   UNL A   1      36.363  20.970  25.594  1.00  0.00    -0.268 OA
BRANCH  10  12
ATOM     12  C   UNL A   1      34.011  20.945  25.660  1.00  0.00     0.362 C 
BRANCH  12  13
ATOM     13  N   UNL A   1      34.055  21.238  27.114  1.00  0.00    -0.328 N 
ATOM     14  H   UNL A   1      33.601  20.491  27.640  1.00  0.00     0.347 HD
ATOM     15  H   UNL A   1      35.016  21.306  27.450  1.00  0.00     0.347 HD
BRANCH  13  16
ATOM     16  C   UNL A   1      33.346  22.480  27.295  1.00  0.00     0.352 C 
BRANCH  16  17
ATOM     17  C   UNL A   1      32.044  22.642  26.528  1.00  0.00    -0.047 C 
ATOM     18  C   UNL A   1      30.926  22.780  25.870  1.00  0.00     0.010 C 
ENDBRANCH  16  17
ENDBRANCH  13  16
ENDBRANCH  12  13
ENDBRANCH  10  12
ENDBRANCH   8  10
ENDBRANCH   7   8
ENDBRANCH   6   7
ENDBRANCH   5   6
ENDBRANCH   1   5
BRANCH   3  19
ATOM     19  C   UNL A   1      30.466  27.034  22.839  1.00  0.00     0.116 C 
BRANCH  19  20
ATOM     20  C   UNL A   1      30.500  27.527  24.290  1.00  0.00     0.021 C 
BRANCH  20  21
ATOM     21  C   UNL A   1      30.704  26.415  25.312  1.00  0.00     0.002 C 
BRANCH  21  22
ATOM     22  C   UNL A   1      31.951  26.588  26.188  1.00  0.00     0.002 C 
BRANCH  22  23
ATOM     23  C   UNL A   1      33.111  27.374  25.564  1.00  0.00     0.021 C 
BRANCH  23  24
ATOM     24  C   UNL A   1      34.109  27.973  26.554  1.00  0.00     0.116 C 
BRANCH  24  25
ATOM     25  N   UNL A   1      33.796  29.355  26.881  1.00  0.00    -0.352 N 
ATOM     26  C   UNL A   1      34.462  30.257  27.671  1.00  0.00     0.251 C 
ATOM     27  H   UNL A   1      32.973  29.700  26.466  1.00  0.00     0.163 HD
ATOM     28  O   UNL A   1      33.920  31.307  27.993  1.00  0.00    -0.269 OA
BRANCH  26  29
ATOM     29  C   UNL A   1      35.830  29.963  28.147  1.00  0.00     0.039 A 
ATOM     30  C   UNL A   1      36.006  29.523  29.461  1.00  0.00     0.014 A 
ATOM     31  C   UNL A   1      36.935  30.155  27.316  1.00  0.00     0.014 A 
ATOM     32  C   UNL A   1      37.286  29.215  29.923  1.00  0.00     0.010 A 
ATOM     33  C   UNL A   1      38.203  29.782  27.754  1.00  0.00     0.010 A 
ATOM     34  C   UNL A   1      38.392  29.308  29.062  1.00  0.00    -0.014 A 
BRANCH  34  35
ATOM     35  C   UNL A   1      39.749  28.901  29.505  1.00  0.00     0.031 A 
ATOM     36  C   UNL A   1      40.559  29.802  30.391  1.00  0.00     0.074 A 
ATOM     37  C   UNL A   1      40.276  27.749  29.046  1.00  0.00     0.049 A 
ATOM     38  N   UNL A   1      41.790  29.660  30.814  1.00  0.00    -0.248 NA
ATOM     39  C   UNL A   1      39.912  31.045  30.839  1.00  0.00     0.031 C 
ATOM     40  C   UNL A   1      39.602  26.814  28.143  1.00  0.00     0.029 A 
ATOM     41  N   UNL A   1      41.504  27.178  29.262  1.00  0.00    -0.354 N 
ATOM     42  C   UNL A   1      42.066  30.794  31.565  1.00  0.00     0.074 A 
ATOM     43  C   UNL A   1      40.896  31.642  31.494  1.00  0.00     0.031 C 
ATOM     44  C   UNL A   1      40.420  25.779  27.894  1.00  0.00     0.029 A 
ATOM     45  C   UNL A   1      41.688  25.997  28.583  1.00  0.00     0.049 A 
ATOM     46  H   UNL A   1      42.188  27.574  29.847  1.00  0.00     0.167 HD
ATOM     47  C   UNL A   1      43.186  31.091  32.268  1.00  0.00     0.037 A 
ATOM     48  C   UNL A   1      42.763  25.190  28.511  1.00  0.00     0.037 A 
ATOM     49  C   UNL A   1      44.340  30.233  32.347  1.00  0.00     0.049 A 
ATOM     50  C   UNL A   1      44.001  25.550  29.287  1.00  0.00     0.074 A 
ATOM     51  C   UNL A   1      45.500  30.412  33.081  1.00  0.00     0.029 A 
ATOM     52  N   UNL A   1      44.485  29.037  31.658  1.00  0.00    -0.354 N 
ATOM     53  N   UNL A   1      44.224  26.589  30.054  1.00  0.00    -0.248 NA
ATOM     54  C   UNL A   1      45.135  24.620  29.193  1.00  0.00     0.031 C 
ATOM     55  C   UNL A   1      46.368  29.354  32.791  1.00  0.00     0.029 A 
ATOM     56  C   UNL A   1      45.727  28.483  31.925  1.00  0.00     0.049 A 
ATOM     57  H   UNL A   1      43.804  28.640  31.067  1.00  0.00     0.167 HD
ATOM     58  C   UNL A   1      45.510  26.427  30.554  1.00  0.00     0.074 A 
ATOM     59  C   UNL A   1      46.011  25.179  30.015  1.00  0.00     0.031 C 
ATOM     60  C   UNL A   1      46.211  27.239  31.382  1.00  0.00     0.037 A 
BRANCH  47  61
ATOM     61  C   UNL A   1      43.220  32.400  33.005  1.00  0.00     0.064 A 
ATOM     62  C   UNL A   1      43.740  33.565  32.419  1.00  0.00     0.173 A 
ATOM     63  C   UNL A   1      42.697  32.500  34.304  1.00  0.00     0.173 A 
ATOM     64  F   UNL A   1      44.261  33.524  31.184  1.00  0.00    -0.203 F 
ATOM     65  C   UNL A   1      43.769  34.769  33.118  1.00  0.00     0.198 A 
ATOM     66  C   UNL A   1      42.696  33.713  34.987  1.00  0.00     0.198 A 
ATOM     67  F   UNL A   1      42.181  31.420  34.910  1.00  0.00    -0.203 F 
ATOM     68  F   UNL A   1      44.324  35.853  32.558  1.00  0.00    -0.200 F 
ATOM     69  C   UNL A   1      43.241  34.844  34.397  1.00  0.00     0.200 A 
ATOM     70  F   UNL A   1      42.172  33.787  36.218  1.00  0.00    -0.200 F 
ATOM     71  F   UNL A   1      43.264  36.005  35.067  1.00  0.00    -0.200 F 
ENDBRANCH  47  61
BRANCH  48  72
ATOM     72  C   UNL A   1      42.710  23.959  27.679  1.00  0.00     0.064 A 
ATOM     73  C   UNL A   1      42.392  22.717  28.246  1.00  0.00     0.173 A 
ATOM     74  C   UNL A   1      42.971  23.998  26.302  1.00  0.00     0.173 A 
ATOM     75  F   UNL A   1      42.152  22.625  29.563  1.00  0.00    -0.203 F 
ATOM     76  C   UNL A   1      42.358  21.559  27.472  1.00  0.00     0.198 A 
ATOM     77  C   UNL A   1      42.907  22.845  25.522  1.00  0.00     0.198 A 
ATOM     78  F   UNL A   1      43.273  25.162  25.708  1.00  0.00    -0.203 F 
ATOM     79  F   UNL A   1      42.098  20.379  28.049  1.00  0.00    -0.200 F 
ATOM     80  C   UNL A   1      42.609  21.625  26.110  1.00  0.00     0.200 A 
ATOM     81  F   UNL A   1      43.132  22.917  24.204  1.00  0.00    -0.200 F 
ATOM     82  F   UNL A   1      42.569  20.513  25.365  1.00  0.00    -0.200 F 
ENDBRANCH  48  72
BRANCH  60  83
ATOM     83  C   UNL A   1      47.587  26.791  31.783  1.00  0.00     0.064 A 
ATOM     84  C   UNL A   1      48.730  27.197  31.079  1.00  0.00     0.173 A 
ATOM     85  C   UNL A   1      47.769  25.980  32.914  1.00  0.00     0.173 A 
ATOM     86  F   UNL A   1      48.611  27.960  29.980  1.00  0.00    -0.203 F 
ATOM     87  C   UNL A   1      50.000  26.789  31.477  1.00  0.00     0.198 A 
ATOM     88  C   UNL A   1      49.042  25.600  33.329  1.00  0.00     0.198 A 
ATOM     89  F   UNL A   1      46.709  25.568  33.628  1.00  0.00    -0.203 F 
ATOM     90  F   UNL A   1      51.074  27.150  30.760  1.00  0.00    -0.200 F 
ATOM     91  C   UNL A   1      50.156  25.999  32.606  1.00  0.00     0.200 A 
ATOM     92  F   UNL A   1      49.191  24.851  34.430  1.00  0.00    -0.200 F 
ATOM     93  F   UNL A   1      51.380  25.616  32.995  1.00  0.00    -0.200 F 
ENDBRANCH  60  83
ENDBRANCH  34  35
ENDBRANCH  26  29
ENDBRANCH  24  25
ENDBRANCH  23  24
ENDBRANCH  22  23
ENDBRANCH  21  22
ENDBRANCH  20  21
ENDBRANCH  19  20
ENDBRANCH   3  19
TORSDOF 21
ENDMDL
