MODEL 1
REMARK VINA RESULT:     -12.7      0.000      0.000
REMARK SMILES CCN1C(=O)C[C@@H](C(=O)Nc2cccc(C(=O)NCCCCCCNC(=O)c3ccc(-c4c5nc(c(-c6c(F)c(F)c(F)c(F)c6F)c6ccc([nH]6)c(-c6c(F)c(F)c(F)c(F)c6F)c6nc(c(-c7c(F)c(F)c(F)c(F)c7F)c7ccc4[nH]7)C=C6)C=C5)cc3)c2)S/C1=[NH+]/c1ccccc1
REMARK SMILES IDX 21 1 20 2 19 3 18 4 16 5 17 6 15 8 11 9 12 10 91 11 13 12
REMARK SMILES IDX 14 13 10 14 8 15 9 16 7 18 3 19 4 20 93 21 5 22 6 23 92 24
REMARK SMILES IDX 94 25 2 27 1 28 95 29 96 30 100 31 97 32 99 33 98 34 22 35
REMARK SMILES IDX 23 36 24 37 25 38 26 39 27 41 28 42 29 43 90 44 30 45 89 46
REMARK SMILES IDX 31 47 32 48 33 49 83 50 34 51 88 52 82 53 84 54 35 55 87 56
REMARK SMILES IDX 81 57 80 58 36 60 68 61 48 62 67 63 49 64 52 65 66 66 85 67
REMARK SMILES IDX 50 68 51 69 65 71 86 72 53 73 37 74 38 75 46 76 39 77 40 78
REMARK SMILES IDX 44 79 47 80 41 81 42 82 45 83 43 84 69 85 70 86 78 87 71 88
REMARK SMILES IDX 72 89 76 90 79 91 73 92 74 93 77 94 75 95 54 96 55 97 63 98
REMARK SMILES IDX 56 99 57 100 61 101 64 102 58 103 59 104 62 105 60 106
REMARK H PARENT 18 7 10 17 94 26 25 40 84 59 52 70
REMARK Flexibility Score: inf
ROOT
ATOM      1  C   UNL A   1      40.112  22.144  27.147  1.00  0.00     0.002 C 
ENDROOT
BRANCH   1   2
ATOM      2  C   UNL A   1      39.351  23.379  26.663  1.00  0.00     0.021 C 
BRANCH   2   3
ATOM      3  C   UNL A   1      37.936  23.172  26.136  1.00  0.00     0.116 C 
BRANCH   3   4
ATOM      4  N   UNL A   1      37.732  23.345  24.707  1.00  0.00    -0.352 N 
ATOM      5  C   UNL A   1      36.657  22.984  23.917  1.00  0.00     0.251 C 
ATOM      6  O   UNL A   1      36.653  23.300  22.729  1.00  0.00    -0.269 OA
ATOM      7  H   UNL A   1      38.471  23.787  24.230  1.00  0.00     0.163 HD
BRANCH   5   8
ATOM      8  C   UNL A   1      35.513  22.185  24.447  1.00  0.00     0.041 A 
ATOM      9  C   UNL A   1      33.354  22.047  25.555  1.00  0.00     0.041 A 
ATOM     10  C   UNL A   1      33.537  20.672  25.721  1.00  0.00     0.026 A 
ATOM     11  C   UNL A   1      34.322  22.776  24.874  1.00  0.00     0.040 A 
ATOM     12  C   UNL A   1      34.656  20.039  25.171  1.00  0.00     0.003 A 
ATOM     13  C   UNL A   1      35.648  20.796  24.544  1.00  0.00     0.014 A 
BRANCH   9  14
ATOM     14  N   UNL A   1      32.268  22.660  26.199  1.00  0.00    -0.325 N 
ATOM     15  C   UNL A   1      31.813  23.950  26.232  1.00  0.00     0.238 C 
ATOM     16  O   UNL A   1      31.200  24.292  27.252  1.00  0.00    -0.273 OA
ATOM     17  H   UNL A   1      31.724  22.037  26.735  1.00  0.00     0.169 HD
BRANCH  15  18
ATOM     18  C   UNL A   1      31.911  24.920  25.040  1.00  0.00     0.160 C 
ATOM     19  N   UNL A   1      31.350  27.758  24.461  1.00  0.00    -0.191 N 
ATOM     20  C   UNL A   1      32.632  27.254  24.395  1.00  0.00     0.311 C 
ATOM     21  C   UNL A   1      30.255  27.013  24.081  1.00  0.00     0.319 C 
ATOM     22  O   UNL A   1      33.551  27.814  23.803  1.00  0.00    -0.247 OA
ATOM     23  C   UNL A   1      32.897  26.043  25.230  1.00  0.00     0.153 C 
ATOM     24  S   UNL A   1      30.290  25.278  24.348  1.00  0.00    -0.024 SA
ATOM     25  N   UNL A   1      29.143  27.421  23.559  1.00  0.00    -0.235 N 
ATOM     26  H   UNL A   1      28.370  26.813  23.601  1.00  0.00     0.313 HD
BRANCH  19  27
ATOM     27  C   UNL A   1      31.198  29.095  25.039  1.00  0.00     0.243 C 
ATOM     28  C   UNL A   1      31.760  29.290  26.436  1.00  0.00     0.054 C 
ENDBRANCH  19  27
BRANCH  25  29
ATOM     29  C   UNL A   1      28.960  28.662  22.936  1.00  0.00     0.125 A 
ATOM     30  C   UNL A   1      29.878  29.144  21.998  1.00  0.00     0.051 A 
ATOM     31  C   UNL A   1      27.967  29.531  23.401  1.00  0.00     0.051 A 
ATOM     32  C   UNL A   1      29.816  30.464  21.543  1.00  0.00     0.004 A 
ATOM     33  C   UNL A   1      27.883  30.843  22.928  1.00  0.00     0.004 A 
ATOM     34  C   UNL A   1      28.817  31.314  22.009  1.00  0.00     0.000 A 
ENDBRANCH  25  29
ENDBRANCH  15  18
ENDBRANCH   9  14
ENDBRANCH   5   8
ENDBRANCH   3   4
ENDBRANCH   2   3
ENDBRANCH   1   2
BRANCH   1  35
ATOM     35  C   UNL A   1      41.140  21.548  26.188  1.00  0.00     0.002 C 
BRANCH  35  36
ATOM     36  C   UNL A   1      41.170  20.030  26.027  1.00  0.00     0.021 C 
BRANCH  36  37
ATOM     37  C   UNL A   1      42.434  19.336  26.502  1.00  0.00     0.116 C 
BRANCH  37  38
ATOM     38  N   UNL A   1      43.250  18.822  25.414  1.00  0.00    -0.352 N 
ATOM     39  C   UNL A   1      44.167  19.478  24.625  1.00  0.00     0.251 C 
ATOM     40  H   UNL A   1      43.128  17.867  25.212  1.00  0.00     0.163 HD
ATOM     41  O   UNL A   1      44.677  18.913  23.667  1.00  0.00    -0.269 OA
BRANCH  39  42
ATOM     42  C   UNL A   1      44.515  20.886  24.920  1.00  0.00     0.039 A 
ATOM     43  C   UNL A   1      44.212  21.870  23.974  1.00  0.00     0.014 A 
ATOM     44  C   UNL A   1      45.121  21.239  26.127  1.00  0.00     0.014 A 
ATOM     45  C   UNL A   1      44.448  23.215  24.271  1.00  0.00     0.010 A 
ATOM     46  C   UNL A   1      45.274  22.581  26.458  1.00  0.00     0.010 A 
ATOM     47  C   UNL A   1      44.940  23.583  25.533  1.00  0.00    -0.014 A 
BRANCH  47  48
ATOM     48  C   UNL A   1      45.118  25.007  25.917  1.00  0.00     0.031 A 
ATOM     49  C   UNL A   1      46.481  25.638  25.847  1.00  0.00     0.074 A 
ATOM     50  C   UNL A   1      44.078  25.702  26.415  1.00  0.00     0.049 A 
ATOM     51  N   UNL A   1      46.872  26.821  26.252  1.00  0.00    -0.248 NA
ATOM     52  C   UNL A   1      47.558  24.812  25.278  1.00  0.00     0.031 C 
ATOM     53  C   UNL A   1      42.719  25.185  26.581  1.00  0.00     0.029 A 
ATOM     54  N   UNL A   1      44.008  26.985  26.899  1.00  0.00    -0.354 N 
ATOM     55  C   UNL A   1      48.237  26.870  26.004  1.00  0.00     0.074 A 
ATOM     56  C   UNL A   1      48.618  25.580  25.473  1.00  0.00     0.031 C 
ATOM     57  C   UNL A   1      41.949  26.140  27.122  1.00  0.00     0.029 A 
ATOM     58  C   UNL A   1      42.767  27.321  27.384  1.00  0.00     0.049 A 
ATOM     59  H   UNL A   1      44.772  27.604  26.899  1.00  0.00     0.167 HD
ATOM     60  C   UNL A   1      49.090  27.907  26.181  1.00  0.00     0.037 A 
ATOM     61  C   UNL A   1      42.343  28.445  27.992  1.00  0.00     0.037 A 
ATOM     62  C   UNL A   1      48.701  29.192  26.701  1.00  0.00     0.049 A 
ATOM     63  C   UNL A   1      43.309  29.581  28.191  1.00  0.00     0.074 A 
ATOM     64  C   UNL A   1      49.474  30.327  26.868  1.00  0.00     0.029 A 
ATOM     65  N   UNL A   1      47.425  29.508  27.150  1.00  0.00    -0.354 N 
ATOM     66  N   UNL A   1      44.583  29.646  27.888  1.00  0.00    -0.248 NA
ATOM     67  C   UNL A   1      42.778  30.804  28.809  1.00  0.00     0.031 C 
ATOM     68  C   UNL A   1      48.682  31.311  27.472  1.00  0.00     0.029 A 
ATOM     69  C   UNL A   1      47.397  30.812  27.619  1.00  0.00     0.049 A 
ATOM     70  H   UNL A   1      46.654  28.895  27.136  1.00  0.00     0.167 HD
ATOM     71  C   UNL A   1      44.999  30.921  28.251  1.00  0.00     0.074 A 
ATOM     72  C   UNL A   1      43.837  31.600  28.785  1.00  0.00     0.031 C 
ATOM     73  C   UNL A   1      46.231  31.478  28.146  1.00  0.00     0.037 A 
BRANCH  60  74
ATOM     74  C   UNL A   1      50.532  27.683  25.818  1.00  0.00     0.064 A 
ATOM     75  C   UNL A   1      51.491  27.328  26.781  1.00  0.00     0.173 A 
ATOM     76  C   UNL A   1      50.963  27.820  24.489  1.00  0.00     0.173 A 
ATOM     77  F   UNL A   1      51.137  27.191  28.068  1.00  0.00    -0.203 F 
ATOM     78  C   UNL A   1      52.831  27.169  26.437  1.00  0.00     0.198 A 
ATOM     79  C   UNL A   1      52.297  27.621  24.143  1.00  0.00     0.198 A 
ATOM     80  F   UNL A   1      50.090  28.148  23.525  1.00  0.00    -0.203 F 
ATOM     81  F   UNL A   1      53.737  26.901  27.387  1.00  0.00    -0.200 F 
ATOM     82  C   UNL A   1      53.232  27.310  25.118  1.00  0.00     0.200 A 
ATOM     83  F   UNL A   1      52.680  27.742  22.864  1.00  0.00    -0.200 F 
ATOM     84  F   UNL A   1      54.522  27.156  24.788  1.00  0.00    -0.200 F 
ENDBRANCH  60  74
BRANCH  61  85
ATOM     85  C   UNL A   1      40.930  28.546  28.447  1.00  0.00     0.064 A 
ATOM     86  C   UNL A   1      40.567  28.212  29.757  1.00  0.00     0.173 A 
ATOM     87  C   UNL A   1      39.920  28.999  27.584  1.00  0.00     0.173 A 
ATOM     88  F   UNL A   1      41.492  27.755  30.613  1.00  0.00    -0.203 F 
ATOM     89  C   UNL A   1      39.244  28.311  30.185  1.00  0.00     0.198 A 
ATOM     90  C   UNL A   1      38.604  29.128  28.022  1.00  0.00     0.198 A 
ATOM     91  F   UNL A   1      40.216  29.337  26.321  1.00  0.00    -0.203 F 
ATOM     92  F   UNL A   1      38.916  27.945  31.432  1.00  0.00    -0.200 F 
ATOM     93  C   UNL A   1      38.265  28.777  29.321  1.00  0.00     0.200 A 
ATOM     94  F   UNL A   1      37.664  29.594  27.188  1.00  0.00    -0.200 F 
ATOM     95  F   UNL A   1      36.996  28.883  29.735  1.00  0.00    -0.200 F 
ENDBRANCH  61  85
BRANCH  73  96
ATOM     96  C   UNL A   1      46.383  32.907  28.583  1.00  0.00     0.064 A 
ATOM     97  C   UNL A   1      46.762  33.247  29.890  1.00  0.00     0.173 A 
ATOM     98  C   UNL A   1      46.196  33.950  27.662  1.00  0.00     0.173 A 
ATOM     99  F   UNL A   1      46.939  32.289  30.812  1.00  0.00    -0.203 F 
ATOM    100  C   UNL A   1      46.922  34.578  30.265  1.00  0.00     0.198 A 
ATOM    101  C   UNL A   1      46.391  35.278  28.031  1.00  0.00     0.198 A 
ATOM    102  F   UNL A   1      45.841  33.680  26.397  1.00  0.00    -0.203 F 
ATOM    103  F   UNL A   1      47.237  34.883  31.532  1.00  0.00    -0.200 F 
ATOM    104  C   UNL A   1      46.747  35.591  29.334  1.00  0.00     0.200 A 
ATOM    105  F   UNL A   1      46.237  36.253  27.125  1.00  0.00    -0.200 F 
ATOM    106  F   UNL A   1      46.914  36.871  29.693  1.00  0.00    -0.200 F 
ENDBRANCH  73  96
ENDBRANCH  47  48
ENDBRANCH  39  42
ENDBRANCH  37  38
ENDBRANCH  36  37
ENDBRANCH  35  36
ENDBRANCH   1  35
TORSDOF 17
ENDMDL
MODEL 2
REMARK VINA RESULT:     -12.5      5.599     12.366
REMARK SMILES CCN1C(=O)C[C@@H](C(=O)Nc2cccc(C(=O)NCCCCCCNC(=O)c3ccc(-c4c5nc(c(-c6c(F)c(F)c(F)c(F)c6F)c6ccc([nH]6)c(-c6c(F)c(F)c(F)c(F)c6F)c6nc(c(-c7c(F)c(F)c(F)c(F)c7F)c7ccc4[nH]7)C=C6)C=C5)cc3)c2)S/C1=[NH+]/c1ccccc1
REMARK SMILES IDX 21 1 20 2 19 3 18 4 16 5 17 6 15 8 11 9 12 10 91 11 13 12
REMARK SMILES IDX 14 13 10 14 8 15 9 16 7 18 3 19 4 20 93 21 5 22 6 23 92 24
REMARK SMILES IDX 94 25 2 27 1 28 95 29 96 30 100 31 97 32 99 33 98 34 22 35
REMARK SMILES IDX 23 36 24 37 25 38 26 39 27 41 28 42 29 43 90 44 30 45 89 46
REMARK SMILES IDX 31 47 32 48 33 49 83 50 34 51 88 52 82 53 84 54 35 55 87 56
REMARK SMILES IDX 81 57 80 58 36 60 68 61 48 62 67 63 49 64 52 65 66 66 85 67
REMARK SMILES IDX 50 68 51 69 65 71 86 72 53 73 37 74 38 75 46 76 39 77 40 78
REMARK SMILES IDX 44 79 47 80 41 81 42 82 45 83 43 84 69 85 70 86 78 87 71 88
REMARK SMILES IDX 72 89 76 90 79 91 73 92 74 93 77 94 75 95 54 96 55 97 63 98
REMARK SMILES IDX 56 99 57 100 61 101 64 102 58 103 59 104 62 105 60 106
REMARK H PARENT 18 7 10 17 94 26 25 40 84 59 52 70
REMARK Flexibility Score: inf
ROOT
ATOM      1  C   UNL A   1      37.319  32.981  31.049  1.00  0.00     0.002 C 
ENDROOT
BRANCH   1   2
ATOM      2  C   UNL A   1      37.970  34.008  31.975  1.00  0.00     0.021 C 
BRANCH   2   3
ATOM      3  C   UNL A   1      38.855  33.482  33.099  1.00  0.00     0.116 C 
BRANCH   3   4
ATOM      4  N   UNL A   1      38.186  33.001  34.296  1.00  0.00    -0.352 N 
ATOM      5  C   UNL A   1      38.180  31.739  34.859  1.00  0.00     0.251 C 
ATOM      6  O   UNL A   1      37.607  31.564  35.933  1.00  0.00    -0.269 OA
ATOM      7  H   UNL A   1      37.657  33.676  34.779  1.00  0.00     0.163 HD
BRANCH   5   8
ATOM      8  C   UNL A   1      38.813  30.565  34.188  1.00  0.00     0.041 A 
ATOM      9  C   UNL A   1      40.780  29.392  33.374  1.00  0.00     0.041 A 
ATOM     10  C   UNL A   1      39.955  28.528  32.651  1.00  0.00     0.026 A 
ATOM     11  C   UNL A   1      40.195  30.367  34.174  1.00  0.00     0.040 A 
ATOM     12  C   UNL A   1      38.565  28.620  32.768  1.00  0.00     0.003 A 
ATOM     13  C   UNL A   1      37.994  29.644  33.528  1.00  0.00     0.014 A 
BRANCH   9  14
ATOM     14  N   UNL A   1      42.166  29.330  33.159  1.00  0.00    -0.325 N 
ATOM     15  C   UNL A   1      43.141  28.481  33.608  1.00  0.00     0.238 C 
ATOM     16  O   UNL A   1      44.282  28.953  33.701  1.00  0.00    -0.273 OA
ATOM     17  H   UNL A   1      42.504  30.040  32.567  1.00  0.00     0.169 HD
BRANCH  15  18
ATOM     18  C   UNL A   1      42.912  26.980  33.866  1.00  0.00     0.160 C 
ATOM     19  N   UNL A   1      43.975  24.864  35.625  1.00  0.00    -0.191 N 
ATOM     20  C   UNL A   1      42.659  25.268  35.706  1.00  0.00     0.311 C 
ATOM     21  C   UNL A   1      44.646  24.806  34.422  1.00  0.00     0.319 C 
ATOM     22  O   UNL A   1      41.778  24.602  36.244  1.00  0.00    -0.247 OA
ATOM     23  C   UNL A   1      42.377  26.658  35.238  1.00  0.00     0.153 C 
ATOM     24  S   UNL A   1      44.246  25.985  33.185  1.00  0.00    -0.024 SA
ATOM     25  N   UNL A   1      45.587  23.995  34.061  1.00  0.00    -0.235 N 
ATOM     26  H   UNL A   1      46.142  24.255  33.290  1.00  0.00     0.313 HD
BRANCH  19  27
ATOM     27  C   UNL A   1      44.656  24.582  36.890  1.00  0.00     0.243 C 
ATOM     28  C   UNL A   1      45.675  25.612  37.347  1.00  0.00     0.054 C 
ENDBRANCH  19  27
BRANCH  25  29
ATOM     29  C   UNL A   1      45.874  22.774  34.684  1.00  0.00     0.125 A 
ATOM     30  C   UNL A   1      47.146  22.506  35.202  1.00  0.00     0.051 A 
ATOM     31  C   UNL A   1      44.953  21.724  34.610  1.00  0.00     0.051 A 
ATOM     32  C   UNL A   1      47.495  21.220  35.622  1.00  0.00     0.004 A 
ATOM     33  C   UNL A   1      45.288  20.442  35.055  1.00  0.00     0.004 A 
ATOM     34  C   UNL A   1      46.564  20.188  35.549  1.00  0.00     0.000 A 
ENDBRANCH  25  29
ENDBRANCH  15  18
ENDBRANCH   9  14
ENDBRANCH   5   8
ENDBRANCH   3   4
ENDBRANCH   2   3
ENDBRANCH   1   2
BRANCH   1  35
ATOM     35  C   UNL A   1      36.070  32.276  31.573  1.00  0.00     0.002 C 
BRANCH  35  36
ATOM     36  C   UNL A   1      34.750  32.532  30.850  1.00  0.00     0.021 C 
BRANCH  36  37
ATOM     37  C   UNL A   1      34.842  32.735  29.348  1.00  0.00     0.116 C 
BRANCH  37  38
ATOM     38  N   UNL A   1      34.073  31.764  28.589  1.00  0.00    -0.352 N 
ATOM     39  C   UNL A   1      34.481  30.578  28.023  1.00  0.00     0.251 C 
ATOM     40  H   UNL A   1      33.123  31.987  28.460  1.00  0.00     0.163 HD
ATOM     41  O   UNL A   1      33.721  29.938  27.307  1.00  0.00    -0.269 OA
BRANCH  39  42
ATOM     42  C   UNL A   1      35.858  30.087  28.256  1.00  0.00     0.039 A 
ATOM     43  C   UNL A   1      36.832  30.316  27.280  1.00  0.00     0.014 A 
ATOM     44  C   UNL A   1      36.194  29.422  29.437  1.00  0.00     0.014 A 
ATOM     45  C   UNL A   1      38.157  29.944  27.521  1.00  0.00     0.010 A 
ATOM     46  C   UNL A   1      37.525  29.132  29.713  1.00  0.00     0.010 A 
ATOM     47  C   UNL A   1      38.521  29.388  28.757  1.00  0.00    -0.014 A 
BRANCH  47  48
ATOM     48  C   UNL A   1      39.934  29.064  29.083  1.00  0.00     0.031 A 
ATOM     49  C   UNL A   1      40.805  30.092  29.748  1.00  0.00     0.074 A 
ATOM     50  C   UNL A   1      40.457  27.885  28.696  1.00  0.00     0.049 A 
ATOM     51  N   UNL A   1      42.089  30.055  30.003  1.00  0.00    -0.248 NA
ATOM     52  C   UNL A   1      40.149  31.347  30.148  1.00  0.00     0.031 C 
ATOM     53  C   UNL A   1      39.727  26.827  27.996  1.00  0.00     0.029 A 
ATOM     54  N   UNL A   1      41.732  27.390  28.812  1.00  0.00    -0.354 N 
ATOM     55  C   UNL A   1      42.395  31.283  30.573  1.00  0.00     0.074 A 
ATOM     56  C   UNL A   1      41.178  32.065  30.570  1.00  0.00     0.031 C 
ATOM     57  C   UNL A   1      40.563  25.807  27.750  1.00  0.00     0.029 A 
ATOM     58  C   UNL A   1      41.896  26.155  28.233  1.00  0.00     0.049 A 
ATOM     59  H   UNL A   1      42.459  27.873  29.267  1.00  0.00     0.167 HD
ATOM     60  C   UNL A   1      43.578  31.711  31.076  1.00  0.00     0.037 A 
ATOM     61  C   UNL A   1      43.002  25.400  28.087  1.00  0.00     0.037 A 
ATOM     62  C   UNL A   1      44.782  30.921  31.085  1.00  0.00     0.049 A 
ATOM     63  C   UNL A   1      44.309  25.897  28.641  1.00  0.00     0.074 A 
ATOM     64  C   UNL A   1      46.018  31.237  31.619  1.00  0.00     0.029 A 
ATOM     65  N   UNL A   1      44.902  29.658  30.519  1.00  0.00    -0.354 N 
ATOM     66  N   UNL A   1      44.574  27.031  29.243  1.00  0.00    -0.248 NA
ATOM     67  C   UNL A   1      45.470  25.007  28.503  1.00  0.00     0.031 C 
ATOM     68  C   UNL A   1      46.902  30.192  31.325  1.00  0.00     0.029 A 
ATOM     69  C   UNL A   1      46.199  29.194  30.669  1.00  0.00     0.049 A 
ATOM     70  H   UNL A   1      44.172  29.166  30.078  1.00  0.00     0.167 HD
ATOM     71  C   UNL A   1      45.921  26.980  29.580  1.00  0.00     0.074 A 
ATOM     72  C   UNL A   1      46.414  25.697  29.126  1.00  0.00     0.031 C 
ATOM     73  C   UNL A   1      46.677  27.912  30.213  1.00  0.00     0.037 A 
BRANCH  60  74
ATOM     74  C   UNL A   1      43.623  33.101  31.647  1.00  0.00     0.064 A 
ATOM     75  C   UNL A   1      43.362  33.353  33.004  1.00  0.00     0.173 A 
ATOM     76  C   UNL A   1      43.934  34.198  30.829  1.00  0.00     0.173 A 
ATOM     77  F   UNL A   1      43.051  32.343  33.831  1.00  0.00    -0.203 F 
ATOM     78  C   UNL A   1      43.363  34.652  33.507  1.00  0.00     0.198 A 
ATOM     79  C   UNL A   1      43.972  35.491  31.345  1.00  0.00     0.198 A 
ATOM     80  F   UNL A   1      44.201  34.018  29.526  1.00  0.00    -0.203 F 
ATOM     81  F   UNL A   1      43.039  34.871  34.789  1.00  0.00    -0.200 F 
ATOM     82  C   UNL A   1      43.673  35.719  32.679  1.00  0.00     0.200 A 
ATOM     83  F   UNL A   1      44.288  36.520  30.546  1.00  0.00    -0.200 F 
ATOM     84  F   UNL A   1      43.672  36.968  33.165  1.00  0.00    -0.200 F 
ENDBRANCH  60  74
BRANCH  61  85
ATOM     85  C   UNL A   1      42.908  24.089  27.390  1.00  0.00     0.064 A 
ATOM     86  C   UNL A   1      43.206  23.971  26.027  1.00  0.00     0.173 A 
ATOM     87  C   UNL A   1      42.539  22.924  28.081  1.00  0.00     0.173 A 
ATOM     88  F   UNL A   1      43.544  25.058  25.319  1.00  0.00    -0.203 F 
ATOM     89  C   UNL A   1      43.124  22.742  25.375  1.00  0.00     0.198 A 
ATOM     90  C   UNL A   1      42.487  21.690  27.436  1.00  0.00     0.198 A 
ATOM     91  F   UNL A   1      42.249  22.981  29.388  1.00  0.00    -0.203 F 
ATOM     92  F   UNL A   1      43.374  22.665  24.061  1.00  0.00    -0.200 F 
ATOM     93  C   UNL A   1      42.773  21.601  26.081  1.00  0.00     0.200 A 
ATOM     94  F   UNL A   1      42.164  20.588  28.125  1.00  0.00    -0.200 F 
ATOM     95  F   UNL A   1      42.705  20.418  25.457  1.00  0.00    -0.200 F 
ENDBRANCH  61  85
BRANCH  73  96
ATOM     96  C   UNL A   1      48.112  27.565  30.489  1.00  0.00     0.064 A 
ATOM     97  C   UNL A   1      49.140  27.897  29.593  1.00  0.00     0.173 A 
ATOM     98  C   UNL A   1      48.469  26.937  31.693  1.00  0.00     0.173 A 
ATOM     99  F   UNL A   1      48.853  28.485  28.422  1.00  0.00    -0.203 F 
ATOM    100  C   UNL A   1      50.467  27.589  29.882  1.00  0.00     0.198 A 
ATOM    101  C   UNL A   1      49.800  26.663  31.993  1.00  0.00     0.198 A 
ATOM    102  F   UNL A   1      47.526  26.605  32.587  1.00  0.00    -0.203 F 
ATOM    103  F   UNL A   1      51.428  27.871  28.990  1.00  0.00    -0.200 F 
ATOM    104  C   UNL A   1      50.797  26.982  31.084  1.00  0.00     0.200 A 
ATOM    105  F   UNL A   1      50.117  26.091  33.163  1.00  0.00    -0.200 F 
ATOM    106  F   UNL A   1      52.076  26.699  31.366  1.00  0.00    -0.200 F 
ENDBRANCH  73  96
ENDBRANCH  47  48
ENDBRANCH  39  42
ENDBRANCH  37  38
ENDBRANCH  36  37
ENDBRANCH  35  36
ENDBRANCH   1  35
TORSDOF 17
ENDMDL
MODEL 3
REMARK VINA RESULT:     -12.5      3.222      9.437
REMARK SMILES CCN1C(=O)C[C@@H](C(=O)Nc2cccc(C(=O)NCCCCCCNC(=O)c3ccc(-c4c5nc(c(-c6c(F)c(F)c(F)c(F)c6F)c6ccc([nH]6)c(-c6c(F)c(F)c(F)c(F)c6F)c6nc(c(-c7c(F)c(F)c(F)c(F)c7F)c7ccc4[nH]7)C=C6)C=C5)cc3)c2)S/C1=[NH+]/c1ccccc1
REMARK SMILES IDX 21 1 20 2 19 3 18 4 16 5 17 6 15 8 11 9 12 10 91 11 13 12
REMARK SMILES IDX 14 13 10 14 8 15 9 16 7 18 3 19 4 20 93 21 5 22 6 23 92 24
REMARK SMILES IDX 94 25 2 27 1 28 95 29 96 30 100 31 97 32 99 33 98 34 22 35
REMARK SMILES IDX 23 36 24 37 25 38 26 39 27 41 28 42 29 43 90 44 30 45 89 46
REMARK SMILES IDX 31 47 32 48 33 49 83 50 34 51 88 52 82 53 84 54 35 55 87 56
REMARK SMILES IDX 81 57 80 58 36 60 68 61 48 62 67 63 49 64 52 65 66 66 85 67
REMARK SMILES IDX 50 68 51 69 65 71 86 72 53 73 37 74 38 75 46 76 39 77 40 78
REMARK SMILES IDX 44 79 47 80 41 81 42 82 45 83 43 84 69 85 70 86 78 87 71 88
REMARK SMILES IDX 72 89 76 90 79 91 73 92 74 93 77 94 75 95 54 96 55 97 63 98
REMARK SMILES IDX 56 99 57 100 61 101 64 102 58 103 59 104 62 105 60 106
REMARK H PARENT 18 7 10 17 94 26 25 40 84 59 52 70
REMARK Flexibility Score: inf
ROOT
ATOM      1  C   UNL A   1      33.665  33.827  27.871  1.00  0.00     0.002 C 
ENDROOT
BRANCH   1   2
ATOM      2  C   UNL A   1      32.451  33.069  27.333  1.00  0.00     0.021 C 
BRANCH   2   3
ATOM      3  C   UNL A   1      32.625  31.585  27.031  1.00  0.00     0.116 C 
BRANCH   3   4
ATOM      4  N   UNL A   1      33.901  30.985  27.381  1.00  0.00    -0.352 N 
ATOM      5  C   UNL A   1      34.321  29.673  27.272  1.00  0.00     0.251 C 
ATOM      6  O   UNL A   1      35.484  29.391  27.555  1.00  0.00    -0.269 OA
ATOM      7  H   UNL A   1      34.568  31.608  27.751  1.00  0.00     0.163 HD
BRANCH   5   8
ATOM      8  C   UNL A   1      33.399  28.574  26.862  1.00  0.00     0.041 A 
ATOM      9  C   UNL A   1      32.738  26.828  25.305  1.00  0.00     0.041 A 
ATOM     10  C   UNL A   1      31.497  26.745  25.939  1.00  0.00     0.026 A 
ATOM     11  C   UNL A   1      33.692  27.707  25.808  1.00  0.00     0.040 A 
ATOM     12  C   UNL A   1      31.239  27.501  27.086  1.00  0.00     0.003 A 
ATOM     13  C   UNL A   1      32.185  28.423  27.541  1.00  0.00     0.014 A 
BRANCH   9  14
ATOM     14  N   UNL A   1      32.926  26.123  24.106  1.00  0.00    -0.325 N 
ATOM     15  C   UNL A   1      33.391  24.867  23.827  1.00  0.00     0.238 C 
ATOM     16  O   UNL A   1      33.935  24.713  22.725  1.00  0.00    -0.273 OA
ATOM     17  H   UNL A   1      32.672  26.637  23.304  1.00  0.00     0.169 HD
BRANCH  15  18
ATOM     18  C   UNL A   1      33.156  23.649  24.739  1.00  0.00     0.160 C 
ATOM     19  N   UNL A   1      34.356  20.997  25.220  1.00  0.00    -0.191 N 
ATOM     20  C   UNL A   1      34.345  21.966  26.200  1.00  0.00     0.311 C 
ATOM     21  C   UNL A   1      33.310  20.846  24.335  1.00  0.00     0.319 C 
ATOM     22  O   UNL A   1      34.518  21.726  27.393  1.00  0.00    -0.247 OA
ATOM     23  C   UNL A   1      34.270  23.378  25.717  1.00  0.00     0.153 C 
ATOM     24  S   UNL A   1      32.429  22.278  23.830  1.00  0.00    -0.024 SA
ATOM     25  N   UNL A   1      32.878  19.763  23.773  1.00  0.00    -0.235 N 
ATOM     26  H   UNL A   1      32.315  19.859  22.971  1.00  0.00     0.313 HD
BRANCH  19  27
ATOM     27  C   UNL A   1      35.572  20.190  25.105  1.00  0.00     0.243 C 
ATOM     28  C   UNL A   1      36.877  20.957  24.979  1.00  0.00     0.054 C 
ENDBRANCH  19  27
BRANCH  25  29
ATOM     29  C   UNL A   1      33.150  18.465  24.223  1.00  0.00     0.125 A 
ATOM     30  C   UNL A   1      33.867  17.560  23.432  1.00  0.00     0.051 A 
ATOM     31  C   UNL A   1      32.527  17.987  25.381  1.00  0.00     0.051 A 
ATOM     32  C   UNL A   1      33.949  16.209  23.780  1.00  0.00     0.004 A 
ATOM     33  C   UNL A   1      32.630  16.643  25.748  1.00  0.00     0.004 A 
ATOM     34  C   UNL A   1      33.330  15.751  24.940  1.00  0.00     0.000 A 
ENDBRANCH  25  29
ENDBRANCH  15  18
ENDBRANCH   9  14
ENDBRANCH   5   8
ENDBRANCH   3   4
ENDBRANCH   2   3
ENDBRANCH   1   2
BRANCH   1  35
ATOM     35  C   UNL A   1      33.424  34.762  29.054  1.00  0.00     0.002 C 
BRANCH  35  36
ATOM     36  C   UNL A   1      34.376  34.667  30.243  1.00  0.00     0.021 C 
BRANCH  36  37
ATOM     37  C   UNL A   1      34.956  33.292  30.523  1.00  0.00     0.116 C 
BRANCH  37  38
ATOM     38  N   UNL A   1      35.033  32.979  31.941  1.00  0.00    -0.352 N 
ATOM     39  C   UNL A   1      36.038  32.354  32.644  1.00  0.00     0.251 C 
ATOM     40  H   UNL A   1      34.254  33.254  32.475  1.00  0.00     0.163 HD
ATOM     41  O   UNL A   1      35.881  32.060  33.821  1.00  0.00    -0.269 OA
BRANCH  39  42
ATOM     42  C   UNL A   1      37.305  32.007  31.961  1.00  0.00     0.039 A 
ATOM     43  C   UNL A   1      38.391  31.577  32.730  1.00  0.00     0.014 A 
ATOM     44  C   UNL A   1      37.419  32.088  30.572  1.00  0.00     0.014 A 
ATOM     45  C   UNL A   1      39.565  31.157  32.099  1.00  0.00     0.010 A 
ATOM     46  C   UNL A   1      38.553  31.587  29.941  1.00  0.00     0.010 A 
ATOM     47  C   UNL A   1      39.638  31.118  30.698  1.00  0.00    -0.014 A 
BRANCH  47  48
ATOM     48  C   UNL A   1      40.836  30.593  29.993  1.00  0.00     0.031 A 
ATOM     49  C   UNL A   1      41.982  31.512  29.675  1.00  0.00     0.074 A 
ATOM     50  C   UNL A   1      40.852  29.319  29.557  1.00  0.00     0.049 A 
ATOM     51  N   UNL A   1      43.057  31.285  28.962  1.00  0.00    -0.248 NA
ATOM     52  C   UNL A   1      41.888  32.883  30.200  1.00  0.00     0.031 C 
ATOM     53  C   UNL A   1      39.778  28.345  29.757  1.00  0.00     0.029 A 
ATOM     54  N   UNL A   1      41.793  28.633  28.831  1.00  0.00    -0.354 N 
ATOM     55  C   UNL A   1      43.753  32.486  28.939  1.00  0.00     0.074 A 
ATOM     56  C   UNL A   1      42.951  33.453  29.655  1.00  0.00     0.031 C 
ATOM     57  C   UNL A   1      40.122  27.187  29.174  1.00  0.00     0.029 A 
ATOM     58  C   UNL A   1      41.418  27.348  28.521  1.00  0.00     0.049 A 
ATOM     59  H   UNL A   1      42.655  29.023  28.559  1.00  0.00     0.167 HD
ATOM     60  C   UNL A   1      44.964  32.750  28.392  1.00  0.00     0.037 A 
ATOM     61  C   UNL A   1      42.038  26.414  27.775  1.00  0.00     0.037 A 
ATOM     62  C   UNL A   1      45.761  31.778  27.690  1.00  0.00     0.049 A 
ATOM     63  C   UNL A   1      43.376  26.731  27.165  1.00  0.00     0.074 A 
ATOM     64  C   UNL A   1      47.023  31.927  27.146  1.00  0.00     0.029 A 
ATOM     65  N   UNL A   1      45.362  30.474  27.425  1.00  0.00    -0.354 N 
ATOM     66  N   UNL A   1      44.061  27.848  27.208  1.00  0.00    -0.248 NA
ATOM     67  C   UNL A   1      44.032  25.655  26.408  1.00  0.00     0.031 C 
ATOM     68  C   UNL A   1      47.365  30.733  26.501  1.00  0.00     0.029 A 
ATOM     69  C   UNL A   1      46.345  29.816  26.702  1.00  0.00     0.049 A 
ATOM     70  H   UNL A   1      44.508  30.076  27.711  1.00  0.00     0.167 HD
ATOM     71  C   UNL A   1      45.237  27.603  26.511  1.00  0.00     0.074 A 
ATOM     72  C   UNL A   1      45.177  26.227  26.066  1.00  0.00     0.031 C 
ATOM     73  C   UNL A   1      46.274  28.443  26.267  1.00  0.00     0.037 A 
BRANCH  60  74
ATOM     74  C   UNL A   1      45.488  34.154  28.524  1.00  0.00     0.064 A 
ATOM     75  C   UNL A   1      45.218  35.139  27.559  1.00  0.00     0.173 A 
ATOM     76  C   UNL A   1      46.268  34.523  29.631  1.00  0.00     0.173 A 
ATOM     77  F   UNL A   1      44.484  34.840  26.476  1.00  0.00    -0.203 F 
ATOM     78  C   UNL A   1      45.749  36.421  27.673  1.00  0.00     0.198 A 
ATOM     79  C   UNL A   1      46.765  35.817  29.760  1.00  0.00     0.198 A 
ATOM     80  F   UNL A   1      46.552  33.627  30.588  1.00  0.00    -0.203 F 
ATOM     81  F   UNL A   1      45.535  37.320  26.703  1.00  0.00    -0.200 F 
ATOM     82  C   UNL A   1      46.517  36.761  28.775  1.00  0.00     0.200 A 
ATOM     83  F   UNL A   1      47.494  36.149  30.835  1.00  0.00    -0.200 F 
ATOM     84  F   UNL A   1      47.028  37.995  28.883  1.00  0.00    -0.200 F 
ENDBRANCH  60  74
BRANCH  61  85
ATOM     85  C   UNL A   1      41.395  25.087  27.576  1.00  0.00     0.064 A 
ATOM     86  C   UNL A   1      41.855  23.951  28.253  1.00  0.00     0.173 A 
ATOM     87  C   UNL A   1      40.294  24.935  26.720  1.00  0.00     0.173 A 
ATOM     88  F   UNL A   1      42.917  24.041  29.067  1.00  0.00    -0.203 F 
ATOM     89  C   UNL A   1      41.250  22.709  28.071  1.00  0.00     0.198 A 
ATOM     90  C   UNL A   1      39.669  23.699  26.562  1.00  0.00     0.198 A 
ATOM     91  F   UNL A   1      39.810  25.992  26.051  1.00  0.00    -0.203 F 
ATOM     92  F   UNL A   1      41.737  21.630  28.700  1.00  0.00    -0.200 F 
ATOM     93  C   UNL A   1      40.153  22.585  27.233  1.00  0.00     0.200 A 
ATOM     94  F   UNL A   1      38.599  23.588  25.763  1.00  0.00    -0.200 F 
ATOM     95  F   UNL A   1      39.564  21.394  27.066  1.00  0.00    -0.200 F 
ENDBRANCH  61  85
BRANCH  73  96
ATOM     96  C   UNL A   1      47.450  27.889  25.515  1.00  0.00     0.064 A 
ATOM     97  C   UNL A   1      47.473  27.829  24.113  1.00  0.00     0.173 A 
ATOM     98  C   UNL A   1      48.592  27.459  26.209  1.00  0.00     0.173 A 
ATOM     99  F   UNL A   1      46.402  28.215  23.403  1.00  0.00    -0.203 F 
ATOM    100  C   UNL A   1      48.586  27.336  23.437  1.00  0.00     0.198 A 
ATOM    101  C   UNL A   1      49.716  26.999  25.528  1.00  0.00     0.198 A 
ATOM    102  F   UNL A   1      48.626  27.501  27.549  1.00  0.00    -0.203 F 
ATOM    103  F   UNL A   1      48.567  27.243  22.100  1.00  0.00    -0.200 F 
ATOM    104  C   UNL A   1      49.708  26.931  24.143  1.00  0.00     0.200 A 
ATOM    105  F   UNL A   1      50.805  26.623  26.211  1.00  0.00    -0.200 F 
ATOM    106  F   UNL A   1      50.783  26.468  23.489  1.00  0.00    -0.200 F 
ENDBRANCH  73  96
ENDBRANCH  47  48
ENDBRANCH  39  42
ENDBRANCH  37  38
ENDBRANCH  36  37
ENDBRANCH  35  36
ENDBRANCH   1  35
TORSDOF 17
ENDMDL
