MODEL 1
REMARK VINA RESULT:     -12.8      0.000      0.000
REMARK SMILES O=C(NCCCCCCNC(=O)[C@H]1CSCN1C(=O)c1cnc2ccccn2c1=O)c1ccc(-c2c3nc(c(-c4c(F)c(F)c(F)c(F)c4F)c4ccc([nH]4)c(-c4c(F)c(F)c(F)c(F)c4F)c4nc(c(-c5c(F)c(F)c(F)c(F)c5F)c5ccc2[nH]5)C=C4)C=C3)cc1
REMARK SMILES IDX 6 1 5 2 4 3 3 4 1 5 2 6 31 8 32 9 93 10 33 11 92 12 34 13
REMARK SMILES IDX 35 14 36 15 86 16 37 17 91 18 85 19 87 20 38 21 90 22 84 23
REMARK SMILES IDX 83 24 39 26 71 27 51 28 70 29 52 30 55 31 69 32 88 33 53 34
REMARK SMILES IDX 54 35 68 37 89 38 56 39 40 40 41 41 49 42 42 43 43 44 47 45
REMARK SMILES IDX 50 46 44 47 45 48 48 49 46 50 72 51 73 52 81 53 74 54 75 55
REMARK SMILES IDX 79 56 82 57 76 58 77 59 80 60 78 61 57 62 58 63 66 64 59 65
REMARK SMILES IDX 60 66 64 67 67 68 61 69 62 70 65 71 63 72 7 73 8 74 9 75
REMARK SMILES IDX 10 76 11 77 12 79 13 80 14 81 17 82 15 83 16 84 18 85 19 86
REMARK SMILES IDX 20 87 21 88 29 89 22 90 28 91 30 92 23 93 27 94 24 95 26 96
REMARK SMILES IDX 25 97
REMARK H PARENT 3 7 87 25 55 36 10 78
REMARK Flexibility Score: inf
ROOT
ATOM      1  C   UNL A   1      31.567  30.832  26.156  1.00  0.00     0.002 C 
ENDROOT
BRANCH   1   2
ATOM      2  C   UNL A   1      31.404  32.286  26.597  1.00  0.00     0.021 C 
BRANCH   2   3
ATOM      3  C   UNL A   1      32.638  32.874  27.267  1.00  0.00     0.116 C 
BRANCH   3   4
ATOM      4  N   UNL A   1      32.439  34.264  27.646  1.00  0.00    -0.352 N 
ATOM      5  O   UNL A   1      32.635  36.082  28.974  1.00  0.00    -0.269 OA
ATOM      6  C   UNL A   1      33.057  34.978  28.641  1.00  0.00     0.251 C 
ATOM      7  H   UNL A   1      31.772  34.758  27.118  1.00  0.00     0.163 HD
BRANCH   6   8
ATOM      8  C   UNL A   1      34.235  34.403  29.320  1.00  0.00     0.039 A 
ATOM      9  C   UNL A   1      34.072  33.614  30.463  1.00  0.00     0.014 A 
ATOM     10  C   UNL A   1      35.509  34.638  28.800  1.00  0.00     0.014 A 
ATOM     11  C   UNL A   1      35.188  33.153  31.149  1.00  0.00     0.010 A 
ATOM     12  C   UNL A   1      36.626  34.100  29.441  1.00  0.00     0.010 A 
ATOM     13  C   UNL A   1      36.474  33.360  30.625  1.00  0.00    -0.014 A 
BRANCH  13  14
ATOM     14  C   UNL A   1      37.632  32.686  31.258  1.00  0.00     0.031 A 
ATOM     15  C   UNL A   1      38.339  31.546  30.585  1.00  0.00     0.074 A 
ATOM     16  C   UNL A   1      38.026  33.114  32.474  1.00  0.00     0.049 A 
ATOM     17  N   UNL A   1      39.334  30.821  31.027  1.00  0.00    -0.248 NA
ATOM     18  C   UNL A   1      37.865  31.163  29.247  1.00  0.00     0.031 C 
ATOM     19  C   UNL A   1      37.399  34.206  33.224  1.00  0.00     0.029 A 
ATOM     20  N   UNL A   1      39.037  32.688  33.296  1.00  0.00    -0.354 N 
ATOM     21  C   UNL A   1      39.592  29.883  30.037  1.00  0.00     0.074 A 
ATOM     22  C   UNL A   1      38.640  30.120  28.973  1.00  0.00     0.031 C 
ATOM     23  C   UNL A   1      38.048  34.376  34.383  1.00  0.00     0.029 A 
ATOM     24  C   UNL A   1      39.088  33.361  34.492  1.00  0.00     0.049 A 
ATOM     25  H   UNL A   1      39.666  31.971  33.052  1.00  0.00     0.167 HD
ATOM     26  C   UNL A   1      40.541  28.916  30.028  1.00  0.00     0.037 A 
ATOM     27  C   UNL A   1      39.856  33.157  35.578  1.00  0.00     0.037 A 
ATOM     28  C   UNL A   1      41.492  28.706  31.090  1.00  0.00     0.049 A 
ATOM     29  C   UNL A   1      40.867  32.047  35.549  1.00  0.00     0.074 A 
ATOM     30  C   UNL A   1      42.541  27.803  31.139  1.00  0.00     0.029 A 
ATOM     31  N   UNL A   1      41.500  29.392  32.295  1.00  0.00    -0.354 N 
ATOM     32  N   UNL A   1      41.152  31.215  34.578  1.00  0.00    -0.248 NA
ATOM     33  C   UNL A   1      41.658  31.840  36.768  1.00  0.00     0.031 C 
ATOM     34  C   UNL A   1      43.136  27.893  32.400  1.00  0.00     0.029 A 
ATOM     35  C   UNL A   1      42.503  28.898  33.114  1.00  0.00     0.049 A 
ATOM     36  H   UNL A   1      40.884  30.122  32.534  1.00  0.00     0.167 HD
ATOM     37  C   UNL A   1      42.163  30.398  35.060  1.00  0.00     0.074 A 
ATOM     38  C   UNL A   1      42.461  30.851  36.402  1.00  0.00     0.031 C 
ATOM     39  C   UNL A   1      42.785  29.361  34.449  1.00  0.00     0.037 A 
BRANCH  26  40
ATOM     40  C   UNL A   1      40.594  27.984  28.851  1.00  0.00     0.064 A 
ATOM     41  C   UNL A   1      39.845  26.799  28.807  1.00  0.00     0.173 A 
ATOM     42  C   UNL A   1      41.340  28.331  27.713  1.00  0.00     0.173 A 
ATOM     43  F   UNL A   1      39.119  26.419  29.870  1.00  0.00    -0.203 F 
ATOM     44  C   UNL A   1      39.850  25.990  27.672  1.00  0.00     0.198 A 
ATOM     45  C   UNL A   1      41.320  27.534  26.571  1.00  0.00     0.198 A 
ATOM     46  F   UNL A   1      42.068  29.457  27.698  1.00  0.00    -0.203 F 
ATOM     47  F   UNL A   1      39.149  24.848  27.663  1.00  0.00    -0.200 F 
ATOM     48  C   UNL A   1      40.579  26.364  26.552  1.00  0.00     0.200 A 
ATOM     49  F   UNL A   1      42.012  27.906  25.484  1.00  0.00    -0.200 F 
ATOM     50  F   UNL A   1      40.566  25.594  25.455  1.00  0.00    -0.200 F 
ENDBRANCH  26  40
BRANCH  27  51
ATOM     51  C   UNL A   1      39.662  33.991  36.792  1.00  0.00     0.064 A 
ATOM     52  C   UNL A   1      38.854  33.556  37.850  1.00  0.00     0.173 A 
ATOM     53  C   UNL A   1      40.272  35.250  36.914  1.00  0.00     0.173 A 
ATOM     54  F   UNL A   1      38.234  32.368  37.775  1.00  0.00    -0.203 F 
ATOM     55  C   UNL A   1      38.640  34.358  38.969  1.00  0.00     0.198 A 
ATOM     56  C   UNL A   1      40.089  36.033  38.049  1.00  0.00     0.198 A 
ATOM     57  F   UNL A   1      41.062  35.712  35.933  1.00  0.00    -0.203 F 
ATOM     58  F   UNL A   1      37.817  33.941  39.941  1.00  0.00    -0.200 F 
ATOM     59  C   UNL A   1      39.263  35.593  39.071  1.00  0.00     0.200 A 
ATOM     60  F   UNL A   1      40.709  37.217  38.151  1.00  0.00    -0.200 F 
ATOM     61  F   UNL A   1      39.059  36.362  40.149  1.00  0.00    -0.200 F 
ENDBRANCH  27  51
BRANCH  39  62
ATOM     62  C   UNL A   1      43.863  28.657  35.220  1.00  0.00     0.064 A 
ATOM     63  C   UNL A   1      45.198  29.084  35.173  1.00  0.00     0.173 A 
ATOM     64  C   UNL A   1      43.550  27.571  36.053  1.00  0.00     0.173 A 
ATOM     65  F   UNL A   1      45.552  30.105  34.377  1.00  0.00    -0.203 F 
ATOM     66  C   UNL A   1      46.182  28.440  35.916  1.00  0.00     0.198 A 
ATOM     67  C   UNL A   1      44.530  26.951  36.821  1.00  0.00     0.198 A 
ATOM     68  F   UNL A   1      42.287  27.125  36.136  1.00  0.00    -0.203 F 
ATOM     69  F   UNL A   1      47.458  28.837  35.822  1.00  0.00    -0.200 F 
ATOM     70  C   UNL A   1      45.846  27.382  36.748  1.00  0.00     0.200 A 
ATOM     71  F   UNL A   1      44.200  25.938  37.634  1.00  0.00    -0.200 F 
ATOM     72  F   UNL A   1      46.792  26.772  37.475  1.00  0.00    -0.200 F 
ENDBRANCH  39  62
ENDBRANCH  13  14
ENDBRANCH   6   8
ENDBRANCH   3   4
ENDBRANCH   2   3
ENDBRANCH   1   2
BRANCH   1  73
ATOM     73  C   UNL A   1      32.743  30.094  26.803  1.00  0.00     0.002 C 
BRANCH  73  74
ATOM     74  C   UNL A   1      32.411  28.698  27.345  1.00  0.00     0.021 C 
BRANCH  74  75
ATOM     75  C   UNL A   1      31.374  27.938  26.518  1.00  0.00     0.116 C 
BRANCH  75  76
ATOM     76  N   UNL A   1      31.248  26.562  26.957  1.00  0.00    -0.354 N 
ATOM     77  C   UNL A   1      31.669  25.409  26.354  1.00  0.00     0.243 C 
ATOM     78  H   UNL A   1      30.790  26.438  27.820  1.00  0.00     0.163 HD
ATOM     79  O   UNL A   1      31.292  24.339  26.835  1.00  0.00    -0.273 OA
BRANCH  77  80
ATOM     80  C   UNL A   1      32.657  25.480  25.175  1.00  0.00     0.185 C 
ATOM     81  C   UNL A   1      34.037  25.126  25.736  1.00  0.00     0.106 C 
ATOM     82  N   UNL A   1      32.301  24.583  24.073  1.00  0.00    -0.316 N 
ATOM     83  S   UNL A   1      34.782  23.902  24.640  1.00  0.00    -0.138 SA
ATOM     84  C   UNL A   1      33.435  23.934  23.456  1.00  0.00     0.190 C 
BRANCH  82  85
ATOM     85  C   UNL A   1      31.078  24.778  23.453  1.00  0.00     0.262 C 
ATOM     86  O   UNL A   1      30.310  23.835  23.246  1.00  0.00    -0.269 OA
BRANCH  85  87
ATOM     87  C   UNL A   1      30.629  26.150  23.123  1.00  0.00     0.124 A 
ATOM     88  C   UNL A   1      31.452  26.899  22.377  1.00  0.00     0.133 A 
ATOM     89  C   UNL A   1      29.392  26.789  23.614  1.00  0.00     0.270 A 
ATOM     90  N   UNL A   1      31.199  28.173  21.951  1.00  0.00    -0.237 NA
ATOM     91  N   UNL A   1      29.118  28.048  23.087  1.00  0.00    -0.267 N 
ATOM     92  O   UNL A   1      28.674  26.213  24.430  1.00  0.00    -0.268 OA
ATOM     93  C   UNL A   1      30.060  28.692  22.292  1.00  0.00     0.139 A 
ATOM     94  C   UNL A   1      27.904  28.657  23.389  1.00  0.00     0.096 A 
ATOM     95  C   UNL A   1      29.720  30.059  21.811  1.00  0.00     0.048 A 
ATOM     96  C   UNL A   1      27.591  29.874  22.927  1.00  0.00     0.019 A 
ATOM     97  C   UNL A   1      28.534  30.599  22.117  1.00  0.00     0.005 A 
ENDBRANCH  85  87
ENDBRANCH  82  85
ENDBRANCH  77  80
ENDBRANCH  75  76
ENDBRANCH  74  75
ENDBRANCH  73  74
ENDBRANCH   1  73
TORSDOF 15
ENDMDL
MODEL 2
REMARK VINA RESULT:     -12.8      0.188      1.916
REMARK SMILES O=C(NCCCCCCNC(=O)[C@H]1CSCN1C(=O)c1cnc2ccccn2c1=O)c1ccc(-c2c3nc(c(-c4c(F)c(F)c(F)c(F)c4F)c4ccc([nH]4)c(-c4c(F)c(F)c(F)c(F)c4F)c4nc(c(-c5c(F)c(F)c(F)c(F)c5F)c5ccc2[nH]5)C=C4)C=C3)cc1
REMARK SMILES IDX 6 1 5 2 4 3 3 4 1 5 2 6 31 8 32 9 93 10 33 11 92 12 34 13
REMARK SMILES IDX 35 14 36 15 86 16 37 17 91 18 85 19 87 20 38 21 90 22 84 23
REMARK SMILES IDX 83 24 39 26 71 27 51 28 70 29 52 30 55 31 69 32 88 33 53 34
REMARK SMILES IDX 54 35 68 37 89 38 56 39 40 40 41 41 49 42 42 43 43 44 47 45
REMARK SMILES IDX 50 46 44 47 45 48 48 49 46 50 72 51 73 52 81 53 74 54 75 55
REMARK SMILES IDX 79 56 82 57 76 58 77 59 80 60 78 61 57 62 58 63 66 64 59 65
REMARK SMILES IDX 60 66 64 67 67 68 61 69 62 70 65 71 63 72 7 73 8 74 9 75
REMARK SMILES IDX 10 76 11 77 12 79 13 80 14 81 17 82 15 83 16 84 18 85 19 86
REMARK SMILES IDX 20 87 21 88 29 89 22 90 28 91 30 92 23 93 27 94 24 95 26 96
REMARK SMILES IDX 25 97
REMARK H PARENT 3 7 87 25 55 36 10 78
REMARK Flexibility Score: inf
ROOT
ATOM      1  C   UNL A   1      31.534  30.873  26.173  1.00  0.00     0.002 C 
ENDROOT
BRANCH   1   2
ATOM      2  C   UNL A   1      31.376  32.328  26.611  1.00  0.00     0.021 C 
BRANCH   2   3
ATOM      3  C   UNL A   1      32.610  32.913  27.281  1.00  0.00     0.116 C 
BRANCH   3   4
ATOM      4  N   UNL A   1      32.405  34.294  27.688  1.00  0.00    -0.352 N 
ATOM      5  O   UNL A   1      32.592  36.087  29.051  1.00  0.00    -0.269 OA
ATOM      6  C   UNL A   1      33.020  34.992  28.696  1.00  0.00     0.251 C 
ATOM      7  H   UNL A   1      31.733  34.795  27.171  1.00  0.00     0.163 HD
BRANCH   6   8
ATOM      8  C   UNL A   1      34.202  34.410  29.361  1.00  0.00     0.039 A 
ATOM      9  C   UNL A   1      34.053  33.659  30.531  1.00  0.00     0.014 A 
ATOM     10  C   UNL A   1      35.468  34.602  28.802  1.00  0.00     0.014 A 
ATOM     11  C   UNL A   1      35.176  33.194  31.202  1.00  0.00     0.010 A 
ATOM     12  C   UNL A   1      36.589  34.058  29.430  1.00  0.00     0.010 A 
ATOM     13  C   UNL A   1      36.452  33.356  30.639  1.00  0.00    -0.014 A 
BRANCH  13  14
ATOM     14  C   UNL A   1      37.612  32.676  31.262  1.00  0.00     0.031 A 
ATOM     15  C   UNL A   1      38.288  31.514  30.596  1.00  0.00     0.074 A 
ATOM     16  C   UNL A   1      38.036  33.119  32.462  1.00  0.00     0.049 A 
ATOM     17  N   UNL A   1      39.281  30.781  31.032  1.00  0.00    -0.248 NA
ATOM     18  C   UNL A   1      37.783  31.114  29.274  1.00  0.00     0.031 C 
ATOM     19  C   UNL A   1      37.439  34.233  33.204  1.00  0.00     0.029 A 
ATOM     20  N   UNL A   1      39.056  32.691  33.272  1.00  0.00    -0.354 N 
ATOM     21  C   UNL A   1      39.505  29.822  30.053  1.00  0.00     0.074 A 
ATOM     22  C   UNL A   1      38.536  30.055  29.004  1.00  0.00     0.031 C 
ATOM     23  C   UNL A   1      38.113  34.413  34.347  1.00  0.00     0.029 A 
ATOM     24  C   UNL A   1      39.139  33.384  34.455  1.00  0.00     0.049 A 
ATOM     25  H   UNL A   1      39.668  31.960  33.029  1.00  0.00     0.167 HD
ATOM     26  C   UNL A   1      40.439  28.840  30.043  1.00  0.00     0.037 A 
ATOM     27  C   UNL A   1      39.925  33.187  35.529  1.00  0.00     0.037 A 
ATOM     28  C   UNL A   1      41.407  28.633  31.091  1.00  0.00     0.049 A 
ATOM     29  C   UNL A   1      40.918  32.061  35.501  1.00  0.00     0.074 A 
ATOM     30  C   UNL A   1      42.443  27.715  31.136  1.00  0.00     0.029 A 
ATOM     31  N   UNL A   1      41.448  29.341  32.283  1.00  0.00    -0.354 N 
ATOM     32  N   UNL A   1      41.172  31.207  34.539  1.00  0.00    -0.248 NA
ATOM     33  C   UNL A   1      41.729  31.863  36.709  1.00  0.00     0.031 C 
ATOM     34  C   UNL A   1      43.063  27.818  32.384  1.00  0.00     0.029 A 
ATOM     35  C   UNL A   1      42.459  28.845  33.092  1.00  0.00     0.049 A 
ATOM     36  H   UNL A   1      40.849  30.084  32.521  1.00  0.00     0.167 HD
ATOM     37  C   UNL A   1      42.180  30.384  35.017  1.00  0.00     0.074 A 
ATOM     38  C   UNL A   1      42.510  30.855  36.346  1.00  0.00     0.031 C 
ATOM     39  C   UNL A   1      42.774  29.326  34.413  1.00  0.00     0.037 A 
BRANCH  26  40
ATOM     40  C   UNL A   1      40.455  27.887  28.883  1.00  0.00     0.064 A 
ATOM     41  C   UNL A   1      41.240  28.116  27.743  1.00  0.00     0.173 A 
ATOM     42  C   UNL A   1      39.740  26.680  28.955  1.00  0.00     0.173 A 
ATOM     43  F   UNL A   1      41.938  29.255  27.621  1.00  0.00    -0.203 F 
ATOM     44  C   UNL A   1      41.298  27.179  26.714  1.00  0.00     0.198 A 
ATOM     45  C   UNL A   1      39.824  25.733  27.937  1.00  0.00     0.198 A 
ATOM     46  F   UNL A   1      38.980  26.406  30.026  1.00  0.00    -0.203 F 
ATOM     47  F   UNL A   1      42.032  27.431  25.621  1.00  0.00    -0.200 F 
ATOM     48  C   UNL A   1      40.599  25.984  26.816  1.00  0.00     0.200 A 
ATOM     49  F   UNL A   1      39.161  24.573  28.046  1.00  0.00    -0.200 F 
ATOM     50  F   UNL A   1      40.673  25.076  25.833  1.00  0.00    -0.200 F 
ENDBRANCH  26  40
BRANCH  27  51
ATOM     51  C   UNL A   1      39.767  34.045  36.732  1.00  0.00     0.064 A 
ATOM     52  C   UNL A   1      40.448  35.264  36.848  1.00  0.00     0.173 A 
ATOM     53  C   UNL A   1      38.941  33.656  37.799  1.00  0.00     0.173 A 
ATOM     54  F   UNL A   1      41.263  35.672  35.863  1.00  0.00    -0.203 F 
ATOM     55  C   UNL A   1      40.331  36.047  37.994  1.00  0.00     0.198 A 
ATOM     56  C   UNL A   1      38.795  34.458  38.927  1.00  0.00     0.198 A 
ATOM     57  F   UNL A   1      38.260  32.502  37.736  1.00  0.00    -0.203 F 
ATOM     58  F   UNL A   1      41.038  37.180  38.103  1.00  0.00    -0.200 F 
ATOM     59  C   UNL A   1      39.500  35.647  39.030  1.00  0.00     0.200 A 
ATOM     60  F   UNL A   1      37.975  34.076  39.916  1.00  0.00    -0.200 F 
ATOM     61  F   UNL A   1      39.387  36.402  40.131  1.00  0.00    -0.200 F 
ENDBRANCH  27  51
BRANCH  39  62
ATOM     62  C   UNL A   1      43.855  28.619  35.176  1.00  0.00     0.064 A 
ATOM     63  C   UNL A   1      43.577  27.509  35.986  1.00  0.00     0.173 A 
ATOM     64  C   UNL A   1      45.193  29.027  35.058  1.00  0.00     0.173 A 
ATOM     65  F   UNL A   1      42.311  27.093  36.147  1.00  0.00    -0.203 F 
ATOM     66  C   UNL A   1      44.593  26.845  36.664  1.00  0.00     0.198 A 
ATOM     67  C   UNL A   1      46.212  28.340  35.710  1.00  0.00     0.198 A 
ATOM     68  F   UNL A   1      45.514  30.082  34.292  1.00  0.00    -0.203 F 
ATOM     69  F   UNL A   1      44.298  25.815  37.469  1.00  0.00    -0.200 F 
ATOM     70  C   UNL A   1      45.911  27.254  36.518  1.00  0.00     0.200 A 
ATOM     71  F   UNL A   1      47.485  28.728  35.555  1.00  0.00    -0.200 F 
ATOM     72  F   UNL A   1      46.891  26.604  37.160  1.00  0.00    -0.200 F 
ENDBRANCH  39  62
ENDBRANCH  13  14
ENDBRANCH   6   8
ENDBRANCH   3   4
ENDBRANCH   2   3
ENDBRANCH   1   2
BRANCH   1  73
ATOM     73  C   UNL A   1      32.741  30.148  26.780  1.00  0.00     0.002 C 
BRANCH  73  74
ATOM     74  C   UNL A   1      32.454  28.730  27.290  1.00  0.00     0.021 C 
BRANCH  74  75
ATOM     75  C   UNL A   1      31.302  28.029  26.569  1.00  0.00     0.116 C 
BRANCH  75  76
ATOM     76  N   UNL A   1      31.187  26.641  26.974  1.00  0.00    -0.354 N 
ATOM     77  C   UNL A   1      31.626  25.508  26.348  1.00  0.00     0.243 C 
ATOM     78  H   UNL A   1      30.723  26.493  27.829  1.00  0.00     0.163 HD
ATOM     79  O   UNL A   1      31.256  24.422  26.800  1.00  0.00    -0.273 OA
BRANCH  77  80
ATOM     80  C   UNL A   1      32.624  25.617  25.180  1.00  0.00     0.185 C 
ATOM     81  C   UNL A   1      34.007  25.288  25.752  1.00  0.00     0.106 C 
ATOM     82  N   UNL A   1      32.301  24.726  24.063  1.00  0.00    -0.316 N 
ATOM     83  S   UNL A   1      34.791  24.097  24.648  1.00  0.00    -0.138 SA
ATOM     84  C   UNL A   1      33.456  24.112  23.450  1.00  0.00     0.190 C 
BRANCH  82  85
ATOM     85  C   UNL A   1      31.080  24.900  23.433  1.00  0.00     0.262 C 
ATOM     86  O   UNL A   1      30.334  23.943  23.212  1.00  0.00    -0.269 OA
BRANCH  85  87
ATOM     87  C   UNL A   1      30.606  26.265  23.109  1.00  0.00     0.124 A 
ATOM     88  C   UNL A   1      31.425  27.040  22.387  1.00  0.00     0.133 A 
ATOM     89  C   UNL A   1      29.345  26.869  23.583  1.00  0.00     0.270 A 
ATOM     90  N   UNL A   1      31.150  28.313  21.969  1.00  0.00    -0.237 NA
ATOM     91  N   UNL A   1      29.052  28.128  23.064  1.00  0.00    -0.267 N 
ATOM     92  O   UNL A   1      28.625  26.269  24.380  1.00  0.00    -0.268 OA
ATOM     93  C   UNL A   1      29.993  28.802  22.295  1.00  0.00     0.139 A 
ATOM     94  C   UNL A   1      27.819  28.706  23.349  1.00  0.00     0.096 A 
ATOM     95  C   UNL A   1      29.631  30.166  21.821  1.00  0.00     0.048 A 
ATOM     96  C   UNL A   1      27.486  29.920  22.895  1.00  0.00     0.019 A 
ATOM     97  C   UNL A   1      28.427  30.675  22.110  1.00  0.00     0.005 A 
ENDBRANCH  85  87
ENDBRANCH  82  85
ENDBRANCH  77  80
ENDBRANCH  75  76
ENDBRANCH  74  75
ENDBRANCH  73  74
ENDBRANCH   1  73
TORSDOF 15
ENDMDL
MODEL 3
REMARK VINA RESULT:     -12.7      5.479     10.848
REMARK SMILES O=C(NCCCCCCNC(=O)[C@H]1CSCN1C(=O)c1cnc2ccccn2c1=O)c1ccc(-c2c3nc(c(-c4c(F)c(F)c(F)c(F)c4F)c4ccc([nH]4)c(-c4c(F)c(F)c(F)c(F)c4F)c4nc(c(-c5c(F)c(F)c(F)c(F)c5F)c5ccc2[nH]5)C=C4)C=C3)cc1
REMARK SMILES IDX 6 1 5 2 4 3 3 4 1 5 2 6 31 8 32 9 93 10 33 11 92 12 34 13
REMARK SMILES IDX 35 14 36 15 86 16 37 17 91 18 85 19 87 20 38 21 90 22 84 23
REMARK SMILES IDX 83 24 39 26 71 27 51 28 70 29 52 30 55 31 69 32 88 33 53 34
REMARK SMILES IDX 54 35 68 37 89 38 56 39 40 40 41 41 49 42 42 43 43 44 47 45
REMARK SMILES IDX 50 46 44 47 45 48 48 49 46 50 72 51 73 52 81 53 74 54 75 55
REMARK SMILES IDX 79 56 82 57 76 58 77 59 80 60 78 61 57 62 58 63 66 64 59 65
REMARK SMILES IDX 60 66 64 67 67 68 61 69 62 70 65 71 63 72 7 73 8 74 9 75
REMARK SMILES IDX 10 76 11 77 12 79 13 80 14 81 17 82 15 83 16 84 18 85 19 86
REMARK SMILES IDX 20 87 21 88 29 89 22 90 28 91 30 92 23 93 27 94 24 95 26 96
REMARK SMILES IDX 25 97
REMARK H PARENT 3 7 87 25 55 36 10 78
REMARK Flexibility Score: inf
ROOT
ATOM      1  C   UNL A   1      36.703  20.649  25.008  1.00  0.00     0.002 C 
ENDROOT
BRANCH   1   2
ATOM      2  C   UNL A   1      37.902  19.702  25.004  1.00  0.00     0.021 C 
BRANCH   2   3
ATOM      3  C   UNL A   1      39.095  20.205  25.803  1.00  0.00     0.116 C 
BRANCH   3   4
ATOM      4  N   UNL A   1      40.132  19.194  25.927  1.00  0.00    -0.352 N 
ATOM      5  O   UNL A   1      42.254  18.417  25.972  1.00  0.00    -0.269 OA
ATOM      6  C   UNL A   1      41.482  19.366  26.091  1.00  0.00     0.251 C 
ATOM      7  H   UNL A   1      39.823  18.260  25.889  1.00  0.00     0.163 HD
BRANCH   6   8
ATOM      8  C   UNL A   1      42.008  20.709  26.403  1.00  0.00     0.039 A 
ATOM      9  C   UNL A   1      42.234  21.632  25.377  1.00  0.00     0.014 A 
ATOM     10  C   UNL A   1      42.260  21.056  27.733  1.00  0.00     0.014 A 
ATOM     11  C   UNL A   1      42.815  22.860  25.667  1.00  0.00     0.010 A 
ATOM     12  C   UNL A   1      42.761  22.323  28.032  1.00  0.00     0.010 A 
ATOM     13  C   UNL A   1      43.049  23.232  27.000  1.00  0.00    -0.014 A 
BRANCH  13  14
ATOM     14  C   UNL A   1      43.475  24.619  27.303  1.00  0.00     0.031 A 
ATOM     15  C   UNL A   1      42.511  25.632  27.847  1.00  0.00     0.074 A 
ATOM     16  C   UNL A   1      44.756  24.956  27.055  1.00  0.00     0.049 A 
ATOM     17  N   UNL A   1      42.713  26.897  28.116  1.00  0.00    -0.248 NA
ATOM     18  C   UNL A   1      41.140  25.173  28.118  1.00  0.00     0.031 C 
ATOM     19  C   UNL A   1      45.772  24.051  26.511  1.00  0.00     0.029 A 
ATOM     20  N   UNL A   1      45.424  26.143  27.219  1.00  0.00    -0.354 N 
ATOM     21  C   UNL A   1      41.496  27.390  28.565  1.00  0.00     0.074 A 
ATOM     22  C   UNL A   1      40.554  26.293  28.521  1.00  0.00     0.031 C 
ATOM     23  C   UNL A   1      46.936  24.706  26.405  1.00  0.00     0.029 A 
ATOM     24  C   UNL A   1      46.732  26.094  26.801  1.00  0.00     0.049 A 
ATOM     25  H   UNL A   1      45.007  26.949  27.599  1.00  0.00     0.167 HD
ATOM     26  C   UNL A   1      41.205  28.649  28.975  1.00  0.00     0.037 A 
ATOM     27  C   UNL A   1      47.654  27.068  26.705  1.00  0.00     0.037 A 
ATOM     28  C   UNL A   1      42.162  29.725  29.028  1.00  0.00     0.049 A 
ATOM     29  C   UNL A   1      47.282  28.460  27.126  1.00  0.00     0.074 A 
ATOM     30  C   UNL A   1      41.981  31.013  29.503  1.00  0.00     0.029 A 
ATOM     31  N   UNL A   1      43.471  29.645  28.578  1.00  0.00    -0.354 N 
ATOM     32  N   UNL A   1      46.150  28.899  27.620  1.00  0.00    -0.248 NA
ATOM     33  C   UNL A   1      48.310  29.497  26.970  1.00  0.00     0.031 C 
ATOM     34  C   UNL A   1      43.157  31.732  29.272  1.00  0.00     0.029 A 
ATOM     35  C   UNL A   1      44.094  30.875  28.715  1.00  0.00     0.049 A 
ATOM     36  H   UNL A   1      43.895  28.835  28.214  1.00  0.00     0.167 HD
ATOM     37  C   UNL A   1      46.334  30.254  27.848  1.00  0.00     0.074 A 
ATOM     38  C   UNL A   1      47.695  30.561  27.464  1.00  0.00     0.031 C 
ATOM     39  C   UNL A   1      45.451  31.164  28.327  1.00  0.00     0.037 A 
BRANCH  26  40
ATOM     40  C   UNL A   1      39.790  28.955  29.376  1.00  0.00     0.064 A 
ATOM     41  C   UNL A   1      38.834  29.396  28.449  1.00  0.00     0.173 A 
ATOM     42  C   UNL A   1      39.364  28.716  30.693  1.00  0.00     0.173 A 
ATOM     43  F   UNL A   1      39.188  29.645  27.179  1.00  0.00    -0.203 F 
ATOM     44  C   UNL A   1      37.508  29.599  28.829  1.00  0.00     0.198 A 
ATOM     45  C   UNL A   1      38.033  28.892  31.062  1.00  0.00     0.198 A 
ATOM     46  F   UNL A   1      40.236  28.285  31.618  1.00  0.00    -0.203 F 
ATOM     47  F   UNL A   1      36.618  30.048  27.934  1.00  0.00    -0.200 F 
ATOM     48  C   UNL A   1      37.108  29.337  30.132  1.00  0.00     0.200 A 
ATOM     49  F   UNL A   1      37.645  28.622  32.316  1.00  0.00    -0.200 F 
ATOM     50  F   UNL A   1      35.828  29.513  30.489  1.00  0.00    -0.200 F 
ENDBRANCH  26  40
BRANCH  27  51
ATOM     51  C   UNL A   1      48.997  26.766  26.144  1.00  0.00     0.064 A 
ATOM     52  C   UNL A   1      50.025  26.266  26.954  1.00  0.00     0.173 A 
ATOM     53  C   UNL A   1      49.284  26.983  24.787  1.00  0.00     0.173 A 
ATOM     54  F   UNL A   1      49.807  26.057  28.261  1.00  0.00    -0.203 F 
ATOM     55  C   UNL A   1      51.295  26.023  26.435  1.00  0.00     0.198 A 
ATOM     56  C   UNL A   1      50.542  26.704  24.262  1.00  0.00     0.198 A 
ATOM     57  F   UNL A   1      48.333  27.454  23.966  1.00  0.00    -0.203 F 
ATOM     58  F   UNL A   1      52.276  25.600  27.244  1.00  0.00    -0.200 F 
ATOM     59  C   UNL A   1      51.551  26.235  25.089  1.00  0.00     0.200 A 
ATOM     60  F   UNL A   1      50.777  26.892  22.956  1.00  0.00    -0.200 F 
ATOM     61  F   UNL A   1      52.772  25.999  24.590  1.00  0.00    -0.200 F 
ENDBRANCH  27  51
BRANCH  39  62
ATOM     62  C   UNL A   1      45.937  32.576  28.480  1.00  0.00     0.064 A 
ATOM     63  C   UNL A   1      46.583  33.007  29.647  1.00  0.00     0.173 A 
ATOM     64  C   UNL A   1      45.797  33.494  27.428  1.00  0.00     0.173 A 
ATOM     65  F   UNL A   1      46.723  32.172  30.689  1.00  0.00    -0.203 F 
ATOM     66  C   UNL A   1      47.055  34.311  29.764  1.00  0.00     0.198 A 
ATOM     67  C   UNL A   1      46.301  34.787  27.535  1.00  0.00     0.198 A 
ATOM     68  F   UNL A   1      45.190  33.131  26.288  1.00  0.00    -0.203 F 
ATOM     69  F   UNL A   1      47.628  34.714  30.906  1.00  0.00    -0.200 F 
ATOM     70  C   UNL A   1      46.923  35.197  28.705  1.00  0.00     0.200 A 
ATOM     71  F   UNL A   1      46.185  35.636  26.504  1.00  0.00    -0.200 F 
ATOM     72  F   UNL A   1      47.391  36.447  28.813  1.00  0.00    -0.200 F 
ENDBRANCH  39  62
ENDBRANCH  13  14
ENDBRANCH   6   8
ENDBRANCH   3   4
ENDBRANCH   2   3
ENDBRANCH   1   2
BRANCH   1  73
ATOM     73  C   UNL A   1      36.918  21.959  24.245  1.00  0.00     0.002 C 
BRANCH  73  74
ATOM     74  C   UNL A   1      36.397  23.215  24.956  1.00  0.00     0.021 C 
BRANCH  74  75
ATOM     75  C   UNL A   1      34.901  23.464  24.765  1.00  0.00     0.116 C 
BRANCH  75  76
ATOM     76  N   UNL A   1      34.572  23.691  23.371  1.00  0.00    -0.354 N 
ATOM     77  C   UNL A   1      33.627  23.092  22.586  1.00  0.00     0.243 C 
ATOM     78  H   UNL A   1      35.112  24.381  22.921  1.00  0.00     0.163 HD
ATOM     79  O   UNL A   1      33.652  23.327  21.376  1.00  0.00    -0.273 OA
BRANCH  77  80
ATOM     80  C   UNL A   1      32.526  22.233  23.235  1.00  0.00     0.185 C 
ATOM     81  C   UNL A   1      33.209  20.966  23.758  1.00  0.00     0.106 C 
ATOM     82  N   UNL A   1      31.821  22.925  24.317  1.00  0.00    -0.316 N 
ATOM     83  S   UNL A   1      32.654  20.698  25.453  1.00  0.00    -0.138 SA
ATOM     84  C   UNL A   1      31.511  22.080  25.448  1.00  0.00     0.190 C 
BRANCH  82  85
ATOM     85  C   UNL A   1      31.146  24.092  24.003  1.00  0.00     0.262 C 
ATOM     86  O   UNL A   1      30.278  24.111  23.126  1.00  0.00    -0.269 OA
BRANCH  85  87
ATOM     87  C   UNL A   1      31.387  25.319  24.796  1.00  0.00     0.124 A 
ATOM     88  C   UNL A   1      30.588  25.533  25.849  1.00  0.00     0.133 A 
ATOM     89  C   UNL A   1      32.379  26.365  24.476  1.00  0.00     0.270 A 
ATOM     90  N   UNL A   1      30.675  26.591  26.711  1.00  0.00    -0.237 NA
ATOM     91  N   UNL A   1      32.508  27.378  25.423  1.00  0.00    -0.267 N 
ATOM     92  O   UNL A   1      33.034  26.308  23.436  1.00  0.00    -0.268 OA
ATOM     93  C   UNL A   1      31.620  27.452  26.491  1.00  0.00     0.139 A 
ATOM     94  C   UNL A   1      33.516  28.324  25.268  1.00  0.00     0.096 A 
ATOM     95  C   UNL A   1      31.785  28.594  27.431  1.00  0.00     0.048 A 
ATOM     96  C   UNL A   1      33.678  29.331  26.134  1.00  0.00     0.019 A 
ATOM     97  C   UNL A   1      32.778  29.472  27.248  1.00  0.00     0.005 A 
ENDBRANCH  85  87
ENDBRANCH  82  85
ENDBRANCH  77  80
ENDBRANCH  75  76
ENDBRANCH  74  75
ENDBRANCH  73  74
ENDBRANCH   1  73
TORSDOF 15
ENDMDL
