MODEL 1
REMARK VINA RESULT:     -12.1      0.000      0.000
REMARK SMILES COc1ccccc1N1CC[NH+]([C@@H](C(=O)NCCCCCCNC(=O)c2ccc(-c3c4nc(c(-c5c(F)c(F)c(F)c(F)c5F)c5ccc([nH]5)c(-c5c(F)c(F)c(F)c(F)c5F)c5nc(c(-c6c(F)c(F)c(F)c(F)c6F)c6ccc3[nH]6)C=C5)C=C4)cc2)c2c[nH]c3ccc(OCC#N)cc23)CC1
REMARK SMILES IDX 18 1 17 2 16 3 14 4 15 5 13 7 12 8 9 9 10 10 103 11 11 12
REMARK SMILES IDX 102 13 8 15 3 16 4 17 5 18 7 19 6 20 2 21 1 22 89 23 90 24
REMARK SMILES IDX 101 25 91 26 92 27 100 28 93 30 95 31 94 32 96 33 97 34
REMARK SMILES IDX 98 35 99 36 19 37 20 38 21 39 22 40 23 41 24 42 25 44 26 45
REMARK SMILES IDX 27 46 88 47 28 48 87 49 29 50 30 51 31 52 81 53 32 54 86 55
REMARK SMILES IDX 80 56 82 57 33 58 85 59 79 60 78 61 34 63 66 64 46 65 65 66
REMARK SMILES IDX 47 67 50 68 64 69 83 70 48 71 49 72 63 74 84 75 51 76 35 77
REMARK SMILES IDX 36 78 44 79 37 80 38 81 42 82 45 83 39 84 40 85 43 86 41 87
REMARK SMILES IDX 67 88 68 89 76 90 69 91 70 92 74 93 77 94 71 95 72 96 75 97
REMARK SMILES IDX 73 98 52 99 53 100 61 101 54 102 55 103 59 104 62 105 56 106
REMARK SMILES IDX 57 107 60 108 58 109
REMARK H PARENT 16 6 12 14 91 29 23 43 82 62 50 73
REMARK Flexibility Score: inf
ROOT
ATOM      1  C   UNL A   1      33.725  27.100  25.356  1.00  0.00     0.021 C 
ENDROOT
BRANCH   1   2
ATOM      2  C   UNL A   1      33.783  25.536  25.227  1.00  0.00     0.116 C 
BRANCH   2   3
ATOM      3  N   UNL A   1      33.073  24.730  26.257  1.00  0.00    -0.351 N 
ATOM      4  C   UNL A   1      32.237  23.638  26.416  1.00  0.00     0.283 C 
ATOM      5  O   UNL A   1      32.068  23.351  27.613  1.00  0.00    -0.268 OA
ATOM      6  H   UNL A   1      33.269  25.111  27.143  1.00  0.00     0.163 HD
BRANCH   4   7
ATOM      7  C   UNL A   1      31.587  22.730  25.298  1.00  0.00     0.307 C 
BRANCH   7   8
ATOM      8  N   UNL A   1      32.334  21.509  24.780  1.00  0.00    -0.318 N 
ATOM      9  N   UNL A   1      35.243  21.811  25.085  1.00  0.00    -0.357 N 
ATOM     10  C   UNL A   1      34.533  22.469  23.979  1.00  0.00     0.178 C 
ATOM     11  C   UNL A   1      34.406  21.464  26.237  1.00  0.00     0.178 C 
ATOM     12  C   UNL A   1      33.287  21.634  23.660  1.00  0.00     0.284 C 
ATOM     13  C   UNL A   1      33.095  20.765  25.788  1.00  0.00     0.284 C 
ATOM     14  H   UNL A   1      31.494  21.036  24.446  1.00  0.00     0.349 HD
BRANCH   9  15
ATOM     15  C   UNL A   1      36.498  22.289  25.462  1.00  0.00     0.080 A 
ATOM     16  C   UNL A   1      37.655  21.483  25.422  1.00  0.00     0.142 A 
ATOM     17  C   UNL A   1      38.869  22.000  25.900  1.00  0.00     0.048 A 
ATOM     18  C   UNL A   1      38.953  23.287  26.430  1.00  0.00     0.004 A 
ATOM     19  C   UNL A   1      36.605  23.582  26.020  1.00  0.00     0.030 A 
ATOM     20  C   UNL A   1      37.816  24.078  26.501  1.00  0.00     0.002 A 
BRANCH  16  21
ATOM     21  O   UNL A   1      37.779  20.183  24.999  1.00  0.00    -0.495 OA
ATOM     22  C   UNL A   1      38.920  19.428  25.377  1.00  0.00     0.278 C 
ENDBRANCH  16  21
ENDBRANCH   9  15
ENDBRANCH   7   8
BRANCH   7  23
ATOM     23  C   UNL A   1      30.774  23.531  24.122  1.00  0.00     0.044 A 
ATOM     24  C   UNL A   1      30.965  23.139  22.795  1.00  0.00     0.094 A 
ATOM     25  C   UNL A   1      30.511  24.970  23.857  1.00  0.00     0.013 A 
ATOM     26  N   UNL A   1      31.807  24.094  22.284  1.00  0.00    -0.361 N 
ATOM     27  C   UNL A   1      31.421  25.294  22.845  1.00  0.00     0.046 A 
ATOM     28  C   UNL A   1      29.523  25.997  24.098  1.00  0.00     0.057 A 
ATOM     29  H   UNL A   1      32.541  23.951  21.644  1.00  0.00     0.166 HD
ATOM     30  C   UNL A   1      31.772  26.605  22.522  1.00  0.00     0.030 A 
ATOM     31  C   UNL A   1      29.670  27.298  23.495  1.00  0.00     0.121 A 
ATOM     32  C   UNL A   1      30.882  27.613  22.891  1.00  0.00     0.048 A 
BRANCH  31  33
ATOM     33  O   UNL A   1      28.616  28.215  23.497  1.00  0.00    -0.479 OA
BRANCH  33  34
ATOM     34  C   UNL A   1      28.615  29.348  22.484  1.00  0.00     0.349 C 
BRANCH  34  35
ATOM     35  C   UNL A   1      27.884  30.548  23.063  1.00  0.00     0.104 C 
ATOM     36  N   UNL A   1      27.278  31.545  23.544  1.00  0.00    -0.195 NA
ENDBRANCH  34  35
ENDBRANCH  33  34
ENDBRANCH  31  33
ENDBRANCH   7  23
ENDBRANCH   4   7
ENDBRANCH   2   3
ENDBRANCH   1   2
BRANCH   1  37
ATOM     37  C   UNL A   1      33.064  27.685  26.622  1.00  0.00     0.002 C 
BRANCH  37  38
ATOM     38  C   UNL A   1      31.693  28.336  26.404  1.00  0.00     0.002 C 
BRANCH  38  39
ATOM     39  C   UNL A   1      31.689  29.866  26.287  1.00  0.00     0.021 C 
BRANCH  39  40
ATOM     40  C   UNL A   1      33.059  30.536  26.388  1.00  0.00     0.116 C 
BRANCH  40  41
ATOM     41  N   UNL A   1      32.957  31.956  26.696  1.00  0.00    -0.352 N 
ATOM     42  C   UNL A   1      33.654  32.697  27.628  1.00  0.00     0.251 C 
ATOM     43  H   UNL A   1      32.296  32.457  26.165  1.00  0.00     0.163 HD
ATOM     44  O   UNL A   1      33.296  33.817  27.936  1.00  0.00    -0.269 OA
BRANCH  42  45
ATOM     45  C   UNL A   1      34.853  32.103  28.264  1.00  0.00     0.039 A 
ATOM     46  C   UNL A   1      36.011  32.872  28.400  1.00  0.00     0.014 A 
ATOM     47  C   UNL A   1      34.825  30.782  28.719  1.00  0.00     0.014 A 
ATOM     48  C   UNL A   1      37.124  32.333  29.051  1.00  0.00     0.010 A 
ATOM     49  C   UNL A   1      35.906  30.274  29.432  1.00  0.00     0.010 A 
ATOM     50  C   UNL A   1      37.071  31.039  29.598  1.00  0.00    -0.014 A 
BRANCH  50  51
ATOM     51  C   UNL A   1      38.229  30.456  30.325  1.00  0.00     0.031 A 
ATOM     52  C   UNL A   1      38.492  30.852  31.752  1.00  0.00     0.074 A 
ATOM     53  C   UNL A   1      39.075  29.625  29.689  1.00  0.00     0.049 A 
ATOM     54  N   UNL A   1      39.487  30.518  32.537  1.00  0.00    -0.248 NA
ATOM     55  C   UNL A   1      37.524  31.770  32.371  1.00  0.00     0.031 C 
ATOM     56  C   UNL A   1      38.952  29.195  28.295  1.00  0.00     0.029 A 
ATOM     57  N   UNL A   1      40.216  28.998  30.128  1.00  0.00    -0.354 N 
ATOM     58  C   UNL A   1      39.267  31.192  33.731  1.00  0.00     0.074 A 
ATOM     59  C   UNL A   1      38.085  32.004  33.547  1.00  0.00     0.031 C 
ATOM     60  C   UNL A   1      39.959  28.357  28.002  1.00  0.00     0.029 A 
ATOM     61  C   UNL A   1      40.824  28.223  29.170  1.00  0.00     0.049 A 
ATOM     62  H   UNL A   1      40.565  29.095  31.043  1.00  0.00     0.167 HD
ATOM     63  C   UNL A   1      39.972  31.121  34.886  1.00  0.00     0.037 A 
ATOM     64  C   UNL A   1      41.955  27.495  29.227  1.00  0.00     0.037 A 
ATOM     65  C   UNL A   1      41.140  30.300  35.068  1.00  0.00     0.049 A 
ATOM     66  C   UNL A   1      42.737  27.453  30.514  1.00  0.00     0.074 A 
ATOM     67  C   UNL A   1      41.899  30.119  36.212  1.00  0.00     0.029 A 
ATOM     68  N   UNL A   1      41.722  29.523  34.076  1.00  0.00    -0.354 N 
ATOM     69  N   UNL A   1      42.485  28.044  31.657  1.00  0.00    -0.248 NA
ATOM     70  C   UNL A   1      43.961  26.638  30.519  1.00  0.00     0.031 C 
ATOM     71  C   UNL A   1      42.970  29.279  35.897  1.00  0.00     0.029 A 
ATOM     72  C   UNL A   1      42.845  28.881  34.575  1.00  0.00     0.049 A 
ATOM     73  H   UNL A   1      41.386  29.440  33.154  1.00  0.00     0.167 HD
ATOM     74  C   UNL A   1      43.492  27.644  32.525  1.00  0.00     0.074 A 
ATOM     75  C   UNL A   1      44.354  26.750  31.780  1.00  0.00     0.031 C 
ATOM     76  C   UNL A   1      43.686  27.984  33.823  1.00  0.00     0.037 A 
BRANCH  63  77
ATOM     77  C   UNL A   1      39.499  31.958  36.041  1.00  0.00     0.064 A 
ATOM     78  C   UNL A   1      40.089  33.195  36.346  1.00  0.00     0.173 A 
ATOM     79  C   UNL A   1      38.426  31.532  36.839  1.00  0.00     0.173 A 
ATOM     80  F   UNL A   1      41.124  33.647  35.622  1.00  0.00    -0.203 F 
ATOM     81  C   UNL A   1      39.647  33.954  37.427  1.00  0.00     0.198 A 
ATOM     82  C   UNL A   1      37.964  32.309  37.897  1.00  0.00     0.198 A 
ATOM     83  F   UNL A   1      37.820  30.360  36.589  1.00  0.00    -0.203 F 
ATOM     84  F   UNL A   1      40.265  35.103  37.734  1.00  0.00    -0.200 F 
ATOM     85  C   UNL A   1      38.581  33.515  38.197  1.00  0.00     0.200 A 
ATOM     86  F   UNL A   1      36.922  31.892  38.629  1.00  0.00    -0.200 F 
ATOM     87  F   UNL A   1      38.153  34.249  39.232  1.00  0.00    -0.200 F 
ENDBRANCH  63  77
BRANCH  64  88
ATOM     88  C   UNL A   1      42.406  26.723  28.038  1.00  0.00     0.064 A 
ATOM     89  C   UNL A   1      43.232  27.311  27.068  1.00  0.00     0.173 A 
ATOM     90  C   UNL A   1      42.015  25.392  27.836  1.00  0.00     0.173 A 
ATOM     91  F   UNL A   1      43.617  28.590  27.204  1.00  0.00    -0.203 F 
ATOM     92  C   UNL A   1      43.628  26.606  25.933  1.00  0.00     0.198 A 
ATOM     93  C   UNL A   1      42.438  24.677  26.717  1.00  0.00     0.198 A 
ATOM     94  F   UNL A   1      41.229  24.779  28.734  1.00  0.00    -0.203 F 
ATOM     95  F   UNL A   1      44.375  27.211  24.999  1.00  0.00    -0.200 F 
ATOM     96  C   UNL A   1      43.236  25.288  25.761  1.00  0.00     0.200 A 
ATOM     97  F   UNL A   1      42.069  23.398  26.562  1.00  0.00    -0.200 F 
ATOM     98  F   UNL A   1      43.619  24.609  24.672  1.00  0.00    -0.200 F 
ENDBRANCH  64  88
BRANCH  76  99
ATOM     99  C   UNL A   1      44.844  27.352  34.540  1.00  0.00     0.064 A 
ATOM    100  C   UNL A   1      46.102  27.968  34.604  1.00  0.00     0.173 A 
ATOM    101  C   UNL A   1      44.678  26.130  35.211  1.00  0.00     0.173 A 
ATOM    102  F   UNL A   1      46.319  29.130  33.969  1.00  0.00    -0.203 F 
ATOM    103  C   UNL A   1      47.158  27.372  35.290  1.00  0.00     0.198 A 
ATOM    104  C   UNL A   1      45.725  25.554  35.925  1.00  0.00     0.198 A 
ATOM    105  F   UNL A   1      43.494  25.500  35.188  1.00  0.00    -0.203 F 
ATOM    106  F   UNL A   1      48.365  27.955  35.294  1.00  0.00    -0.200 F 
ATOM    107  C   UNL A   1      46.966  26.170  35.957  1.00  0.00     0.200 A 
ATOM    108  F   UNL A   1      45.532  24.402  36.583  1.00  0.00    -0.200 F 
ATOM    109  F   UNL A   1      47.980  25.604  36.625  1.00  0.00    -0.200 F 
ENDBRANCH  76  99
ENDBRANCH  50  51
ENDBRANCH  42  45
ENDBRANCH  40  41
ENDBRANCH  39  40
ENDBRANCH  38  39
ENDBRANCH  37  38
ENDBRANCH   1  37
TORSDOF 20
ENDMDL
MODEL 2
REMARK VINA RESULT:     -11.4      1.416      6.963
REMARK SMILES COc1ccccc1N1CC[NH+]([C@@H](C(=O)NCCCCCCNC(=O)c2ccc(-c3c4nc(c(-c5c(F)c(F)c(F)c(F)c5F)c5ccc([nH]5)c(-c5c(F)c(F)c(F)c(F)c5F)c5nc(c(-c6c(F)c(F)c(F)c(F)c6F)c6ccc3[nH]6)C=C5)C=C4)cc2)c2c[nH]c3ccc(OCC#N)cc23)CC1
REMARK SMILES IDX 18 1 17 2 16 3 14 4 15 5 13 7 12 8 9 9 10 10 103 11 11 12
REMARK SMILES IDX 102 13 8 15 3 16 4 17 5 18 7 19 6 20 2 21 1 22 89 23 90 24
REMARK SMILES IDX 101 25 91 26 92 27 100 28 93 30 95 31 94 32 96 33 97 34
REMARK SMILES IDX 98 35 99 36 19 37 20 38 21 39 22 40 23 41 24 42 25 44 26 45
REMARK SMILES IDX 27 46 88 47 28 48 87 49 29 50 30 51 31 52 81 53 32 54 86 55
REMARK SMILES IDX 80 56 82 57 33 58 85 59 79 60 78 61 34 63 66 64 46 65 65 66
REMARK SMILES IDX 47 67 50 68 64 69 83 70 48 71 49 72 63 74 84 75 51 76 35 77
REMARK SMILES IDX 36 78 44 79 37 80 38 81 42 82 45 83 39 84 40 85 43 86 41 87
REMARK SMILES IDX 67 88 68 89 76 90 69 91 70 92 74 93 77 94 71 95 72 96 75 97
REMARK SMILES IDX 73 98 52 99 53 100 61 101 54 102 55 103 59 104 62 105 56 106
REMARK SMILES IDX 57 107 60 108 58 109
REMARK H PARENT 16 6 12 14 91 29 23 43 82 62 50 73
REMARK Flexibility Score: inf
ROOT
ATOM      1  C   UNL A   1      33.848  27.754  25.744  1.00  0.00     0.021 C 
ENDROOT
BRANCH   1   2
ATOM      2  C   UNL A   1      33.805  26.217  25.425  1.00  0.00     0.116 C 
BRANCH   2   3
ATOM      3  N   UNL A   1      33.107  25.329  26.393  1.00  0.00    -0.351 N 
ATOM      4  C   UNL A   1      32.208  24.279  26.474  1.00  0.00     0.283 C 
ATOM      5  O   UNL A   1      32.095  23.850  27.635  1.00  0.00    -0.268 OA
ATOM      6  H   UNL A   1      33.384  25.579  27.304  1.00  0.00     0.163 HD
BRANCH   4   7
ATOM      7  C   UNL A   1      31.426  23.566  25.300  1.00  0.00     0.307 C 
BRANCH   7   8
ATOM      8  N   UNL A   1      32.027  22.344  24.618  1.00  0.00    -0.318 N 
ATOM      9  N   UNL A   1      34.952  22.279  24.899  1.00  0.00    -0.357 N 
ATOM     10  C   UNL A   1      34.315  23.146  23.899  1.00  0.00     0.178 C 
ATOM     11  C   UNL A   1      34.089  21.884  26.015  1.00  0.00     0.178 C 
ATOM     12  C   UNL A   1      32.981  22.504  23.503  1.00  0.00     0.284 C 
ATOM     13  C   UNL A   1      32.705  21.398  25.509  1.00  0.00     0.284 C 
ATOM     14  H   UNL A   1      31.136  22.015  24.245  1.00  0.00     0.349 HD
BRANCH   9  15
ATOM     15  C   UNL A   1      36.256  22.561  25.307  1.00  0.00     0.080 A 
ATOM     16  C   UNL A   1      37.318  21.651  25.126  1.00  0.00     0.142 A 
ATOM     17  C   UNL A   1      38.586  21.962  25.640  1.00  0.00     0.048 A 
ATOM     18  C   UNL A   1      38.816  23.145  26.342  1.00  0.00     0.004 A 
ATOM     19  C   UNL A   1      36.510  23.744  26.036  1.00  0.00     0.030 A 
ATOM     20  C   UNL A   1      37.772  24.035  26.550  1.00  0.00     0.002 A 
BRANCH  16  21
ATOM     21  O   UNL A   1      37.294  20.417  24.523  1.00  0.00    -0.495 OA
ATOM     22  C   UNL A   1      36.372  19.436  24.969  1.00  0.00     0.278 C 
ENDBRANCH  16  21
ENDBRANCH   9  15
ENDBRANCH   7   8
BRANCH   7  23
ATOM     23  C   UNL A   1      30.650  24.565  24.259  1.00  0.00     0.044 A 
ATOM     24  C   UNL A   1      30.412  24.117  22.958  1.00  0.00     0.094 A 
ATOM     25  C   UNL A   1      30.780  26.011  23.938  1.00  0.00     0.013 A 
ATOM     26  N   UNL A   1      31.365  24.755  22.206  1.00  0.00    -0.361 N 
ATOM     27  C   UNL A   1      31.494  26.023  22.736  1.00  0.00     0.046 A 
ATOM     28  C   UNL A   1      30.226  27.298  24.296  1.00  0.00     0.057 A 
ATOM     29  H   UNL A   1      31.859  24.383  21.440  1.00  0.00     0.166 HD
ATOM     30  C   UNL A   1      32.141  27.155  22.240  1.00  0.00     0.030 A 
ATOM     31  C   UNL A   1      30.619  28.480  23.572  1.00  0.00     0.121 A 
ATOM     32  C   UNL A   1      31.702  28.395  22.704  1.00  0.00     0.048 A 
BRANCH  31  33
ATOM     33  O   UNL A   1      29.919  29.681  23.720  1.00  0.00    -0.479 OA
BRANCH  33  34
ATOM     34  C   UNL A   1      28.443  29.728  23.362  1.00  0.00     0.349 C 
BRANCH  34  35
ATOM     35  C   UNL A   1      28.285  30.140  21.907  1.00  0.00     0.104 C 
ATOM     36  N   UNL A   1      28.153  30.481  20.699  1.00  0.00    -0.195 NA
ENDBRANCH  34  35
ENDBRANCH  33  34
ENDBRANCH  31  33
ENDBRANCH   7  23
ENDBRANCH   4   7
ENDBRANCH   2   3
ENDBRANCH   1   2
BRANCH   1  37
ATOM     37  C   UNL A   1      33.302  28.212  27.112  1.00  0.00     0.002 C 
BRANCH  37  38
ATOM     38  C   UNL A   1      31.884  28.796  27.091  1.00  0.00     0.002 C 
BRANCH  38  39
ATOM     39  C   UNL A   1      31.780  30.290  26.756  1.00  0.00     0.021 C 
BRANCH  39  40
ATOM     40  C   UNL A   1      33.017  31.125  27.090  1.00  0.00     0.116 C 
BRANCH  40  41
ATOM     41  N   UNL A   1      32.699  32.538  27.252  1.00  0.00    -0.352 N 
ATOM     42  C   UNL A   1      33.259  33.462  28.110  1.00  0.00     0.251 C 
ATOM     43  H   UNL A   1      31.984  32.880  26.669  1.00  0.00     0.163 HD
ATOM     44  O   UNL A   1      32.734  34.542  28.301  1.00  0.00    -0.269 OA
BRANCH  42  45
ATOM     45  C   UNL A   1      34.518  33.118  28.810  1.00  0.00     0.039 A 
ATOM     46  C   UNL A   1      34.474  32.300  29.942  1.00  0.00     0.014 A 
ATOM     47  C   UNL A   1      35.739  33.613  28.344  1.00  0.00     0.014 A 
ATOM     48  C   UNL A   1      35.666  31.928  30.571  1.00  0.00     0.010 A 
ATOM     49  C   UNL A   1      36.927  33.181  28.926  1.00  0.00     0.010 A 
ATOM     50  C   UNL A   1      36.904  32.342  30.050  1.00  0.00    -0.014 A 
BRANCH  50  51
ATOM     51  C   UNL A   1      38.186  31.930  30.680  1.00  0.00     0.031 A 
ATOM     52  C   UNL A   1      39.061  30.912  30.001  1.00  0.00     0.074 A 
ATOM     53  C   UNL A   1      38.534  32.422  31.884  1.00  0.00     0.049 A 
ATOM     54  N   UNL A   1      40.176  30.364  30.417  1.00  0.00    -0.248 NA
ATOM     55  C   UNL A   1      38.605  30.420  28.692  1.00  0.00     0.031 C 
ATOM     56  C   UNL A   1      37.754  33.385  32.662  1.00  0.00     0.029 A 
ATOM     57  N   UNL A   1      39.631  32.171  32.672  1.00  0.00    -0.354 N 
ATOM     58  C   UNL A   1      40.544  29.461  29.429  1.00  0.00     0.074 A 
ATOM     59  C   UNL A   1      39.503  29.484  28.425  1.00  0.00     0.031 C 
ATOM     60  C   UNL A   1      38.407  33.662  33.802  1.00  0.00     0.029 A 
ATOM     61  C   UNL A   1      39.630  32.866  33.857  1.00  0.00     0.049 A 
ATOM     62  H   UNL A   1      40.350  31.551  32.412  1.00  0.00     0.167 HD
ATOM     63  C   UNL A   1      41.662  28.700  29.351  1.00  0.00     0.037 A 
ATOM     64  C   UNL A   1      40.512  32.855  34.875  1.00  0.00     0.037 A 
ATOM     65  C   UNL A   1      42.703  28.692  30.345  1.00  0.00     0.049 A 
ATOM     66  C   UNL A   1      41.734  31.980  34.778  1.00  0.00     0.074 A 
ATOM     67  C   UNL A   1      43.898  27.994  30.339  1.00  0.00     0.029 A 
ATOM     68  N   UNL A   1      42.669  29.416  31.529  1.00  0.00    -0.354 N 
ATOM     69  N   UNL A   1      42.104  31.178  33.809  1.00  0.00    -0.248 NA
ATOM     70  C   UNL A   1      42.664  32.012  35.916  1.00  0.00     0.031 C 
ATOM     71  C   UNL A   1      44.560  28.251  31.543  1.00  0.00     0.029 A 
ATOM     72  C   UNL A   1      43.812  29.161  32.272  1.00  0.00     0.049 A 
ATOM     73  H   UNL A   1      41.942  30.021  31.801  1.00  0.00     0.167 HD
ATOM     74  C   UNL A   1      43.323  30.642  34.201  1.00  0.00     0.074 A 
ATOM     75  C   UNL A   1      43.636  31.218  35.492  1.00  0.00     0.031 C 
ATOM     76  C   UNL A   1      44.114  29.753  33.551  1.00  0.00     0.037 A 
BRANCH  63  77
ATOM     77  C   UNL A   1      41.815  27.811  28.149  1.00  0.00     0.064 A 
ATOM     78  C   UNL A   1      42.207  28.320  26.901  1.00  0.00     0.173 A 
ATOM     79  C   UNL A   1      41.590  26.429  28.249  1.00  0.00     0.173 A 
ATOM     80  F   UNL A   1      42.426  29.635  26.745  1.00  0.00    -0.203 F 
ATOM     81  C   UNL A   1      42.333  27.486  25.793  1.00  0.00     0.198 A 
ATOM     82  C   UNL A   1      41.752  25.593  27.148  1.00  0.00     0.198 A 
ATOM     83  F   UNL A   1      41.220  25.887  29.420  1.00  0.00    -0.203 F 
ATOM     84  F   UNL A   1      42.651  28.005  24.598  1.00  0.00    -0.200 F 
ATOM     85  C   UNL A   1      42.113  26.123  25.918  1.00  0.00     0.200 A 
ATOM     86  F   UNL A   1      41.555  24.274  27.275  1.00  0.00    -0.200 F 
ATOM     87  F   UNL A   1      42.240  25.321  24.853  1.00  0.00    -0.200 F 
ENDBRANCH  63  77
BRANCH  64  88
ATOM     88  C   UNL A   1      40.288  33.719  36.065  1.00  0.00     0.064 A 
ATOM     89  C   UNL A   1      39.491  33.282  37.133  1.00  0.00     0.173 A 
ATOM     90  C   UNL A   1      40.851  35.000  36.157  1.00  0.00     0.173 A 
ATOM     91  F   UNL A   1      38.911  32.072  37.084  1.00  0.00    -0.203 F 
ATOM     92  C   UNL A   1      39.247  34.100  38.235  1.00  0.00     0.198 A 
ATOM     93  C   UNL A   1      40.632  35.805  37.274  1.00  0.00     0.198 A 
ATOM     94  F   UNL A   1      41.624  35.467  35.166  1.00  0.00    -0.203 F 
ATOM     95  F   UNL A   1      38.439  33.675  39.216  1.00  0.00    -0.200 F 
ATOM     96  C   UNL A   1      39.822  35.359  38.307  1.00  0.00     0.200 A 
ATOM     97  F   UNL A   1      41.204  37.015  37.347  1.00  0.00    -0.200 F 
ATOM     98  F   UNL A   1      39.590  36.145  39.367  1.00  0.00    -0.200 F 
ENDBRANCH  64  88
BRANCH  76  99
ATOM     99  C   UNL A   1      45.419  29.384  34.197  1.00  0.00     0.064 A 
ATOM    100  C   UNL A   1      46.585  30.137  33.995  1.00  0.00     0.173 A 
ATOM    101  C   UNL A   1      45.490  28.285  35.067  1.00  0.00     0.173 A 
ATOM    102  F   UNL A   1      46.575  31.188  33.162  1.00  0.00    -0.203 F 
ATOM    103  C   UNL A   1      47.780  29.787  34.619  1.00  0.00     0.198 A 
ATOM    104  C   UNL A   1      46.678  27.959  35.717  1.00  0.00     0.198 A 
ATOM    105  F   UNL A   1      44.403  27.535  35.301  1.00  0.00    -0.203 F 
ATOM    106  F   UNL A   1      48.894  30.490  34.371  1.00  0.00    -0.200 F 
ATOM    107  C   UNL A   1      47.823  28.704  35.486  1.00  0.00     0.200 A 
ATOM    108  F   UNL A   1      46.712  26.923  36.567  1.00  0.00    -0.200 F 
ATOM    109  F   UNL A   1      48.972  28.376  36.094  1.00  0.00    -0.200 F 
ENDBRANCH  76  99
ENDBRANCH  50  51
ENDBRANCH  42  45
ENDBRANCH  40  41
ENDBRANCH  39  40
ENDBRANCH  38  39
ENDBRANCH  37  38
ENDBRANCH   1  37
TORSDOF 20
ENDMDL
MODEL 3
REMARK VINA RESULT:     -11.0      1.528      7.227
REMARK SMILES COc1ccccc1N1CC[NH+]([C@@H](C(=O)NCCCCCCNC(=O)c2ccc(-c3c4nc(c(-c5c(F)c(F)c(F)c(F)c5F)c5ccc([nH]5)c(-c5c(F)c(F)c(F)c(F)c5F)c5nc(c(-c6c(F)c(F)c(F)c(F)c6F)c6ccc3[nH]6)C=C5)C=C4)cc2)c2c[nH]c3ccc(OCC#N)cc23)CC1
REMARK SMILES IDX 18 1 17 2 16 3 14 4 15 5 13 7 12 8 9 9 10 10 103 11 11 12
REMARK SMILES IDX 102 13 8 15 3 16 4 17 5 18 7 19 6 20 2 21 1 22 89 23 90 24
REMARK SMILES IDX 101 25 91 26 92 27 100 28 93 30 95 31 94 32 96 33 97 34
REMARK SMILES IDX 98 35 99 36 19 37 20 38 21 39 22 40 23 41 24 42 25 44 26 45
REMARK SMILES IDX 27 46 88 47 28 48 87 49 29 50 30 51 31 52 81 53 32 54 86 55
REMARK SMILES IDX 80 56 82 57 33 58 85 59 79 60 78 61 34 63 66 64 46 65 65 66
REMARK SMILES IDX 47 67 50 68 64 69 83 70 48 71 49 72 63 74 84 75 51 76 35 77
REMARK SMILES IDX 36 78 44 79 37 80 38 81 42 82 45 83 39 84 40 85 43 86 41 87
REMARK SMILES IDX 67 88 68 89 76 90 69 91 70 92 74 93 77 94 71 95 72 96 75 97
REMARK SMILES IDX 73 98 52 99 53 100 61 101 54 102 55 103 59 104 62 105 56 106
REMARK SMILES IDX 57 107 60 108 58 109
REMARK H PARENT 16 6 12 14 91 29 23 43 82 62 50 73
REMARK Flexibility Score: inf
ROOT
ATOM      1  C   UNL A   1      33.711  27.933  25.572  1.00  0.00     0.021 C 
ENDROOT
BRANCH   1   2
ATOM      2  C   UNL A   1      33.549  26.547  24.852  1.00  0.00     0.116 C 
BRANCH   2   3
ATOM      3  N   UNL A   1      32.468  25.642  25.327  1.00  0.00    -0.351 N 
ATOM      4  C   UNL A   1      31.443  24.824  24.883  1.00  0.00     0.283 C 
ATOM      5  O   UNL A   1      30.920  24.184  25.812  1.00  0.00    -0.268 OA
ATOM      6  H   UNL A   1      32.488  25.618  26.311  1.00  0.00     0.163 HD
BRANCH   4   7
ATOM      7  C   UNL A   1      30.960  24.576  23.399  1.00  0.00     0.307 C 
BRANCH   7   8
ATOM      8  N   UNL A   1      31.620  23.495  22.554  1.00  0.00    -0.318 N 
ATOM      9  N   UNL A   1      34.261  22.758  23.613  1.00  0.00    -0.357 N 
ATOM     10  C   UNL A   1      34.088  23.980  22.816  1.00  0.00     0.178 C 
ATOM     11  C   UNL A   1      33.039  22.255  24.246  1.00  0.00     0.178 C 
ATOM     12  C   UNL A   1      32.901  23.759  21.871  1.00  0.00     0.284 C 
ATOM     13  C   UNL A   1      31.858  22.221  23.239  1.00  0.00     0.284 C 
ATOM     14  H   UNL A   1      30.875  23.472  21.858  1.00  0.00     0.349 HD
BRANCH   9  15
ATOM     15  C   UNL A   1      35.377  22.643  24.443  1.00  0.00     0.080 A 
ATOM     16  C   UNL A   1      35.354  23.036  25.797  1.00  0.00     0.142 A 
ATOM     17  C   UNL A   1      36.537  22.978  26.550  1.00  0.00     0.048 A 
ATOM     18  C   UNL A   1      37.739  22.555  25.984  1.00  0.00     0.004 A 
ATOM     19  C   UNL A   1      36.610  22.236  23.888  1.00  0.00     0.030 A 
ATOM     20  C   UNL A   1      37.779  22.193  24.645  1.00  0.00     0.002 A 
BRANCH  16  21
ATOM     21  O   UNL A   1      34.302  23.533  26.527  1.00  0.00    -0.495 OA
ATOM     22  C   UNL A   1      33.796  22.789  27.624  1.00  0.00     0.278 C 
ENDBRANCH  16  21
ENDBRANCH   9  15
ENDBRANCH   7   8
BRANCH   7  23
ATOM     23  C   UNL A   1      30.590  25.924  22.543  1.00  0.00     0.044 A 
ATOM     24  C   UNL A   1      31.424  26.290  21.484  1.00  0.00     0.094 A 
ATOM     25  C   UNL A   1      30.159  27.294  22.925  1.00  0.00     0.013 A 
ATOM     26  N   UNL A   1      32.171  27.322  21.992  1.00  0.00    -0.361 N 
ATOM     27  C   UNL A   1      31.324  28.058  22.796  1.00  0.00     0.046 A 
ATOM     28  C   UNL A   1      28.965  28.086  23.119  1.00  0.00     0.057 A 
ATOM     29  H   UNL A   1      33.123  27.503  21.817  1.00  0.00     0.166 HD
ATOM     30  C   UNL A   1      31.482  29.318  23.373  1.00  0.00     0.030 A 
ATOM     31  C   UNL A   1      29.070  29.498  23.390  1.00  0.00     0.121 A 
ATOM     32  C   UNL A   1      30.321  30.020  23.698  1.00  0.00     0.048 A 
BRANCH  31  33
ATOM     33  O   UNL A   1      27.948  30.328  23.325  1.00  0.00    -0.479 OA
BRANCH  33  34
ATOM     34  C   UNL A   1      28.124  31.828  23.498  1.00  0.00     0.349 C 
BRANCH  34  35
ATOM     35  C   UNL A   1      28.025  32.511  22.143  1.00  0.00     0.104 C 
ATOM     36  N   UNL A   1      27.944  33.078  21.019  1.00  0.00    -0.195 NA
ENDBRANCH  34  35
ENDBRANCH  33  34
ENDBRANCH  31  33
ENDBRANCH   7  23
ENDBRANCH   4   7
ENDBRANCH   2   3
ENDBRANCH   1   2
BRANCH   1  37
ATOM     37  C   UNL A   1      33.081  28.084  26.973  1.00  0.00     0.002 C 
BRANCH  37  38
ATOM     38  C   UNL A   1      31.765  28.870  27.019  1.00  0.00     0.002 C 
BRANCH  38  39
ATOM     39  C   UNL A   1      31.861  30.358  26.658  1.00  0.00     0.021 C 
BRANCH  39  40
ATOM     40  C   UNL A   1      33.062  31.100  27.246  1.00  0.00     0.116 C 
BRANCH  40  41
ATOM     41  N   UNL A   1      32.837  32.538  27.323  1.00  0.00    -0.352 N 
ATOM     42  C   UNL A   1      33.407  33.463  28.173  1.00  0.00     0.251 C 
ATOM     43  H   UNL A   1      32.187  32.899  26.678  1.00  0.00     0.163 HD
ATOM     44  O   UNL A   1      32.949  34.584  28.280  1.00  0.00    -0.269 OA
BRANCH  42  45
ATOM     45  C   UNL A   1      34.591  33.069  28.971  1.00  0.00     0.039 A 
ATOM     46  C   UNL A   1      34.411  32.416  30.192  1.00  0.00     0.014 A 
ATOM     47  C   UNL A   1      35.878  33.353  28.505  1.00  0.00     0.014 A 
ATOM     48  C   UNL A   1      35.527  31.992  30.919  1.00  0.00     0.010 A 
ATOM     49  C   UNL A   1      36.985  32.865  29.192  1.00  0.00     0.010 A 
ATOM     50  C   UNL A   1      36.823  32.188  30.410  1.00  0.00    -0.014 A 
BRANCH  50  51
ATOM     51  C   UNL A   1      38.025  31.715  31.147  1.00  0.00     0.031 A 
ATOM     52  C   UNL A   1      38.884  30.629  30.559  1.00  0.00     0.074 A 
ATOM     53  C   UNL A   1      38.308  32.214  32.365  1.00  0.00     0.049 A 
ATOM     54  N   UNL A   1      39.928  30.026  31.073  1.00  0.00    -0.248 NA
ATOM     55  C   UNL A   1      38.502  30.134  29.228  1.00  0.00     0.031 C 
ATOM     56  C   UNL A   1      37.531  33.241  33.060  1.00  0.00     0.029 A 
ATOM     57  N   UNL A   1      39.322  31.917  33.242  1.00  0.00    -0.354 N 
ATOM     58  C   UNL A   1      40.314  29.079  30.135  1.00  0.00     0.074 A 
ATOM     59  C   UNL A   1      39.358  29.140  29.052  1.00  0.00     0.031 C 
ATOM     60  C   UNL A   1      38.110  33.507  34.243  1.00  0.00     0.029 A 
ATOM     61  C   UNL A   1      39.273  32.640  34.409  1.00  0.00     0.049 A 
ATOM     62  H   UNL A   1      40.020  31.249  33.052  1.00  0.00     0.167 HD
ATOM     63  C   UNL A   1      41.386  28.249  30.160  1.00  0.00     0.037 A 
ATOM     64  C   UNL A   1      40.071  32.601  35.494  1.00  0.00     0.037 A 
ATOM     65  C   UNL A   1      42.344  28.202  31.234  1.00  0.00     0.049 A 
ATOM     66  C   UNL A   1      41.240  31.651  35.511  1.00  0.00     0.074 A 
ATOM     67  C   UNL A   1      43.490  27.433  31.336  1.00  0.00     0.029 A 
ATOM     68  N   UNL A   1      42.264  28.956  32.397  1.00  0.00    -0.354 N 
ATOM     69  N   UNL A   1      41.634  30.805  34.590  1.00  0.00    -0.248 NA
ATOM     70  C   UNL A   1      42.079  31.655  36.717  1.00  0.00     0.031 C 
ATOM     71  C   UNL A   1      44.072  27.680  32.582  1.00  0.00     0.029 A 
ATOM     72  C   UNL A   1      43.327  28.651  33.232  1.00  0.00     0.049 A 
ATOM     73  H   UNL A   1      41.556  29.610  32.598  1.00  0.00     0.167 HD
ATOM     74  C   UNL A   1      42.783  30.205  35.088  1.00  0.00     0.074 A 
ATOM     75  C   UNL A   1      43.030  30.793  36.388  1.00  0.00     0.031 C 
ATOM     76  C   UNL A   1      43.566  29.254  34.519  1.00  0.00     0.037 A 
BRANCH  63  77
ATOM     77  C   UNL A   1      41.575  27.323  28.992  1.00  0.00     0.064 A 
ATOM     78  C   UNL A   1      40.720  26.232  28.770  1.00  0.00     0.173 A 
ATOM     79  C   UNL A   1      42.609  27.542  28.068  1.00  0.00     0.173 A 
ATOM     80  F   UNL A   1      39.722  25.970  29.627  1.00  0.00    -0.203 F 
ATOM     81  C   UNL A   1      40.916  25.376  27.690  1.00  0.00     0.198 A 
ATOM     82  C   UNL A   1      42.779  26.705  26.969  1.00  0.00     0.198 A 
ATOM     83  F   UNL A   1      43.452  28.575  28.227  1.00  0.00    -0.203 F 
ATOM     84  F   UNL A   1      40.122  24.306  27.532  1.00  0.00    -0.200 F 
ATOM     85  C   UNL A   1      41.939  25.616  26.785  1.00  0.00     0.200 A 
ATOM     86  F   UNL A   1      43.758  26.949  26.087  1.00  0.00    -0.200 F 
ATOM     87  F   UNL A   1      42.122  24.796  25.743  1.00  0.00    -0.200 F 
ENDBRANCH  63  77
BRANCH  64  88
ATOM     88  C   UNL A   1      39.809  33.505  36.645  1.00  0.00     0.064 A 
ATOM     89  C   UNL A   1      38.939  33.125  37.677  1.00  0.00     0.173 A 
ATOM     90  C   UNL A   1      40.409  34.769  36.735  1.00  0.00     0.173 A 
ATOM     91  F   UNL A   1      38.322  31.934  37.627  1.00  0.00    -0.203 F 
ATOM     92  C   UNL A   1      38.661  33.982  38.740  1.00  0.00     0.198 A 
ATOM     93  C   UNL A   1      40.156  35.613  37.815  1.00  0.00     0.198 A 
ATOM     94  F   UNL A   1      41.253  35.183  35.778  1.00  0.00    -0.203 F 
ATOM     95  F   UNL A   1      37.785  33.612  39.685  1.00  0.00    -0.200 F 
ATOM     96  C   UNL A   1      39.274  35.223  38.812  1.00  0.00     0.200 A 
ATOM     97  F   UNL A   1      40.763  36.806  37.888  1.00  0.00    -0.200 F 
ATOM     98  F   UNL A   1      39.009  36.046  39.835  1.00  0.00    -0.200 F 
ENDBRANCH  64  88
BRANCH  76  99
ATOM     99  C   UNL A   1      44.791  28.824  35.273  1.00  0.00     0.064 A 
ATOM    100  C   UNL A   1      44.784  27.708  36.123  1.00  0.00     0.173 A 
ATOM    101  C   UNL A   1      46.002  29.513  35.106  1.00  0.00     0.173 A 
ATOM    102  F   UNL A   1      43.650  27.022  36.329  1.00  0.00    -0.203 F 
ATOM    103  C   UNL A   1      45.937  27.315  36.799  1.00  0.00     0.198 A 
ATOM    104  C   UNL A   1      47.161  29.097  35.755  1.00  0.00     0.198 A 
ATOM    105  F   UNL A   1      46.066  30.583  34.300  1.00  0.00    -0.203 F 
ATOM    106  F   UNL A   1      45.895  26.277  37.645  1.00  0.00    -0.200 F 
ATOM    107  C   UNL A   1      47.126  28.005  36.607  1.00  0.00     0.200 A 
ATOM    108  F   UNL A   1      48.312  29.755  35.555  1.00  0.00    -0.200 F 
ATOM    109  F   UNL A   1      48.237  27.619  37.250  1.00  0.00    -0.200 F 
ENDBRANCH  76  99
ENDBRANCH  50  51
ENDBRANCH  42  45
ENDBRANCH  40  41
ENDBRANCH  39  40
ENDBRANCH  38  39
ENDBRANCH  37  38
ENDBRANCH   1  37
TORSDOF 20
ENDMDL
