MODEL 1
REMARK VINA RESULT:     -12.9      0.000      0.000
REMARK SMILES O=C(NCCCCCCNC(=O)[C@H]1C[NH2+]CCN1c1ncc(C(F)(F)F)cc1Cl)c1ccc(-c2c3nc(c(-c4c(F)c(F)c(F)c(F)c4F)c4ccc([nH]4)c(-c4c(F)c(F)c(F)c(F)c4F)c4nc(c(-c5c(F)c(F)c(F)c(F)c5F)c5ccc2[nH]5)C=C4)C=C3)cc1
REMARK SMILES IDX 6 1 5 2 4 3 3 4 1 5 2 6 30 8 31 9 92 10 32 11 91 12 33 13
REMARK SMILES IDX 34 14 35 15 85 16 36 17 90 18 84 19 86 20 37 21 89 22 83 23
REMARK SMILES IDX 82 24 38 26 70 27 50 28 69 29 51 30 54 31 68 32 87 33 52 34
REMARK SMILES IDX 53 35 67 37 88 38 55 39 39 40 40 41 48 42 41 43 42 44 46 45
REMARK SMILES IDX 49 46 43 47 44 48 47 49 45 50 71 51 72 52 80 53 73 54 74 55
REMARK SMILES IDX 78 56 81 57 75 58 76 59 79 60 77 61 56 62 57 63 65 64 58 65
REMARK SMILES IDX 59 66 63 67 66 68 60 69 61 70 64 71 62 72 7 73 8 74 9 75
REMARK SMILES IDX 10 76 11 77 12 79 13 80 14 81 18 82 15 83 17 84 16 85 19 88
REMARK SMILES IDX 20 89 28 90 21 91 27 92 29 93 22 94 23 95 24 96 25 97 26 98
REMARK H PARENT 3 7 86 25 54 36 10 78 15 86 15 87
REMARK Flexibility Score: inf
ROOT
ATOM      1  C   UNL A   1      31.585  30.730  26.101  1.00  0.00     0.002 C 
ENDROOT
BRANCH   1   2
ATOM      2  C   UNL A   1      31.391  32.190  26.507  1.00  0.00     0.021 C 
BRANCH   2   3
ATOM      3  C   UNL A   1      32.574  32.817  27.230  1.00  0.00     0.116 C 
BRANCH   3   4
ATOM      4  N   UNL A   1      32.332  34.190  27.640  1.00  0.00    -0.352 N 
ATOM      5  O   UNL A   1      32.594  36.034  28.926  1.00  0.00    -0.269 OA
ATOM      6  C   UNL A   1      32.993  34.920  28.600  1.00  0.00     0.251 C 
ATOM      7  H   UNL A   1      31.603  34.657  27.173  1.00  0.00     0.163 HD
BRANCH   6   8
ATOM      8  C   UNL A   1      34.179  34.335  29.264  1.00  0.00     0.039 A 
ATOM      9  C   UNL A   1      35.454  34.529  28.729  1.00  0.00     0.014 A 
ATOM     10  C   UNL A   1      34.011  33.568  30.421  1.00  0.00     0.014 A 
ATOM     11  C   UNL A   1      36.536  33.842  29.263  1.00  0.00     0.010 A 
ATOM     12  C   UNL A   1      35.118  32.950  31.012  1.00  0.00     0.010 A 
ATOM     13  C   UNL A   1      36.385  33.060  30.421  1.00  0.00    -0.014 A 
BRANCH  13  14
ATOM     14  C   UNL A   1      37.596  32.446  31.024  1.00  0.00     0.031 A 
ATOM     15  C   UNL A   1      38.056  32.805  32.408  1.00  0.00     0.074 A 
ATOM     16  C   UNL A   1      38.242  31.498  30.317  1.00  0.00     0.049 A 
ATOM     17  N   UNL A   1      39.045  32.298  33.101  1.00  0.00    -0.248 NA
ATOM     18  C   UNL A   1      37.323  33.872  33.105  1.00  0.00     0.031 C 
ATOM     19  C   UNL A   1      37.898  31.092  28.953  1.00  0.00     0.029 A 
ATOM     20  N   UNL A   1      39.293  30.685  30.651  1.00  0.00    -0.354 N 
ATOM     21  C   UNL A   1      39.061  32.986  34.307  1.00  0.00     0.074 A 
ATOM     22  C   UNL A   1      37.998  33.968  34.243  1.00  0.00     0.031 C 
ATOM     23  C   UNL A   1      38.678  30.065  28.590  1.00  0.00     0.029 A 
ATOM     24  C   UNL A   1      39.615  29.780  29.669  1.00  0.00     0.049 A 
ATOM     25  H   UNL A   1      39.769  30.742  31.511  1.00  0.00     0.167 HD
ATOM     26  C   UNL A   1      39.883  32.807  35.369  1.00  0.00     0.037 A 
ATOM     27  C   UNL A   1      40.565  28.829  29.638  1.00  0.00     0.037 A 
ATOM     28  C   UNL A   1      40.933  31.821  35.429  1.00  0.00     0.049 A 
ATOM     29  C   UNL A   1      41.447  28.645  30.837  1.00  0.00     0.074 A 
ATOM     30  C   UNL A   1      41.815  31.558  36.464  1.00  0.00     0.029 A 
ATOM     31  N   UNL A   1      41.244  30.934  34.408  1.00  0.00    -0.354 N 
ATOM     32  N   UNL A   1      41.436  29.291  31.977  1.00  0.00    -0.248 NA
ATOM     33  C   UNL A   1      42.476  27.601  30.744  1.00  0.00     0.031 C 
ATOM     34  C   UNL A   1      42.678  30.534  36.057  1.00  0.00     0.029 A 
ATOM     35  C   UNL A   1      42.308  30.131  34.785  1.00  0.00     0.049 A 
ATOM     36  H   UNL A   1      40.777  30.884  33.543  1.00  0.00     0.167 HD
ATOM     37  C   UNL A   1      42.455  28.737  32.738  1.00  0.00     0.074 A 
ATOM     38  C   UNL A   1      43.036  27.673  31.944  1.00  0.00     0.031 C 
ATOM     39  C   UNL A   1      42.881  29.087  33.975  1.00  0.00     0.037 A 
BRANCH  26  40
ATOM     40  C   UNL A   1      39.686  33.695  36.564  1.00  0.00     0.064 A 
ATOM     41  C   UNL A   1      40.276  34.965  36.638  1.00  0.00     0.173 A 
ATOM     42  C   UNL A   1      38.840  33.302  37.612  1.00  0.00     0.173 A 
ATOM     43  F   UNL A   1      41.102  35.383  35.667  1.00  0.00    -0.203 F 
ATOM     44  C   UNL A   1      40.037  35.804  37.723  1.00  0.00     0.198 A 
ATOM     45  C   UNL A   1      38.585  34.153  38.685  1.00  0.00     0.198 A 
ATOM     46  F   UNL A   1      38.245  32.100  37.587  1.00  0.00    -0.203 F 
ATOM     47  F   UNL A   1      40.635  37.002  37.788  1.00  0.00    -0.200 F 
ATOM     48  C   UNL A   1      39.186  35.402  38.741  1.00  0.00     0.200 A 
ATOM     49  F   UNL A   1      37.752  33.767  39.662  1.00  0.00    -0.200 F 
ATOM     50  F   UNL A   1      38.945  36.216  39.779  1.00  0.00    -0.200 F 
ENDBRANCH  26  40
BRANCH  27  51
ATOM     51  C   UNL A   1      40.723  27.986  28.426  1.00  0.00     0.064 A 
ATOM     52  C   UNL A   1      40.087  26.742  28.319  1.00  0.00     0.173 A 
ATOM     53  C   UNL A   1      41.503  28.417  27.343  1.00  0.00     0.173 A 
ATOM     54  F   UNL A   1      39.344  26.280  29.335  1.00  0.00    -0.203 F 
ATOM     55  C   UNL A   1      40.239  25.954  27.181  1.00  0.00     0.198 A 
ATOM     56  C   UNL A   1      41.629  27.643  26.193  1.00  0.00     0.198 A 
ATOM     57  F   UNL A   1      42.125  29.605  27.394  1.00  0.00    -0.203 F 
ATOM     58  F   UNL A   1      39.656  24.749  27.120  1.00  0.00    -0.200 F 
ATOM     59  C   UNL A   1      41.004  26.407  26.116  1.00  0.00     0.200 A 
ATOM     60  F   UNL A   1      42.352  28.095  25.160  1.00  0.00    -0.200 F 
ATOM     61  F   UNL A   1      41.143  25.653  25.018  1.00  0.00    -0.200 F 
ENDBRANCH  27  51
BRANCH  39  62
ATOM     62  C   UNL A   1      44.032  28.306  34.534  1.00  0.00     0.064 A 
ATOM     63  C   UNL A   1      45.357  28.740  34.367  1.00  0.00     0.173 A 
ATOM     64  C   UNL A   1      43.812  27.115  35.241  1.00  0.00     0.173 A 
ATOM     65  F   UNL A   1      45.617  29.864  33.683  1.00  0.00    -0.203 F 
ATOM     66  C   UNL A   1      46.421  27.990  34.859  1.00  0.00     0.198 A 
ATOM     67  C   UNL A   1      44.879  26.382  35.754  1.00  0.00     0.198 A 
ATOM     68  F   UNL A   1      42.565  26.661  35.430  1.00  0.00    -0.203 F 
ATOM     69  F   UNL A   1      47.679  28.393  34.637  1.00  0.00    -0.200 F 
ATOM     70  C   UNL A   1      46.181  26.814  35.554  1.00  0.00     0.200 A 
ATOM     71  F   UNL A   1      44.646  25.250  36.432  1.00  0.00    -0.200 F 
ATOM     72  F   UNL A   1      47.207  26.090  36.021  1.00  0.00    -0.200 F 
ENDBRANCH  39  62
ENDBRANCH  13  14
ENDBRANCH   6   8
ENDBRANCH   3   4
ENDBRANCH   2   3
ENDBRANCH   1   2
BRANCH   1  73
ATOM     73  C   UNL A   1      32.907  30.095  26.544  1.00  0.00     0.002 C 
BRANCH  73  74
ATOM     74  C   UNL A   1      32.791  28.740  27.257  1.00  0.00     0.021 C 
BRANCH  74  75
ATOM     75  C   UNL A   1      31.425  28.065  27.136  1.00  0.00     0.116 C 
BRANCH  75  76
ATOM     76  N   UNL A   1      31.569  26.644  26.899  1.00  0.00    -0.354 N 
ATOM     77  C   UNL A   1      31.979  25.966  25.786  1.00  0.00     0.248 C 
ATOM     78  H   UNL A   1      31.335  26.073  27.665  1.00  0.00     0.163 HD
ATOM     79  O   UNL A   1      32.023  24.737  25.889  1.00  0.00    -0.272 OA
BRANCH  77  80
ATOM     80  C   UNL A   1      32.461  26.746  24.539  1.00  0.00     0.228 C 
ATOM     81  C   UNL A   1      33.846  26.169  24.136  1.00  0.00     0.296 C 
ATOM     82  N   UNL A   1      31.547  26.628  23.388  1.00  0.00    -0.333 N 
ATOM     83  N   UNL A   1      33.798  24.800  23.562  1.00  0.00    -0.343 N 
ATOM     84  C   UNL A   1      31.427  25.320  22.749  1.00  0.00     0.180 C 
ATOM     85  C   UNL A   1      32.846  24.783  22.425  1.00  0.00     0.282 C 
ATOM     86  H   UNL A   1      33.489  24.141  24.276  1.00  0.00     0.346 HD
ATOM     87  H   UNL A   1      34.727  24.532  23.236  1.00  0.00     0.346 HD
BRANCH  82  88
ATOM     88  C   UNL A   1      30.690  27.636  23.020  1.00  0.00     0.148 A 
ATOM     89  N   UNL A   1      31.232  28.702  22.385  1.00  0.00    -0.237 NA
ATOM     90  C   UNL A   1      29.320  27.624  23.337  1.00  0.00     0.084 A 
ATOM     91  C   UNL A   1      30.430  29.737  22.034  1.00  0.00     0.126 A 
ATOM     92  C   UNL A   1      28.515  28.710  22.982  1.00  0.00     0.039 A 
ATOM     93  Cl  UNL A   1      28.571  26.365  24.256  1.00  0.00    -0.080 Cl
ATOM     94  C   UNL A   1      29.075  29.797  22.311  1.00  0.00     0.075 A 
BRANCH  94  95
ATOM     95  C   UNL A   1      28.272  30.991  21.902  1.00  0.00     0.417 C 
ATOM     96  F   UNL A   1      27.656  30.822  20.701  1.00  0.00    -0.166 F 
ATOM     97  F   UNL A   1      27.287  31.284  22.793  1.00  0.00    -0.166 F 
ATOM     98  F   UNL A   1      29.016  32.125  21.782  1.00  0.00    -0.166 F 
ENDBRANCH  94  95
ENDBRANCH  82  88
ENDBRANCH  77  80
ENDBRANCH  75  76
ENDBRANCH  74  75
ENDBRANCH  73  74
ENDBRANCH   1  73
TORSDOF 15
ENDMDL
MODEL 2
REMARK VINA RESULT:     -12.8      0.742      1.527
REMARK SMILES O=C(NCCCCCCNC(=O)[C@H]1C[NH2+]CCN1c1ncc(C(F)(F)F)cc1Cl)c1ccc(-c2c3nc(c(-c4c(F)c(F)c(F)c(F)c4F)c4ccc([nH]4)c(-c4c(F)c(F)c(F)c(F)c4F)c4nc(c(-c5c(F)c(F)c(F)c(F)c5F)c5ccc2[nH]5)C=C4)C=C3)cc1
REMARK SMILES IDX 6 1 5 2 4 3 3 4 1 5 2 6 30 8 31 9 92 10 32 11 91 12 33 13
REMARK SMILES IDX 34 14 35 15 85 16 36 17 90 18 84 19 86 20 37 21 89 22 83 23
REMARK SMILES IDX 82 24 38 26 70 27 50 28 69 29 51 30 54 31 68 32 87 33 52 34
REMARK SMILES IDX 53 35 67 37 88 38 55 39 39 40 40 41 48 42 41 43 42 44 46 45
REMARK SMILES IDX 49 46 43 47 44 48 47 49 45 50 71 51 72 52 80 53 73 54 74 55
REMARK SMILES IDX 78 56 81 57 75 58 76 59 79 60 77 61 56 62 57 63 65 64 58 65
REMARK SMILES IDX 59 66 63 67 66 68 60 69 61 70 64 71 62 72 7 73 8 74 9 75
REMARK SMILES IDX 10 76 11 77 12 79 13 80 14 81 18 82 15 83 17 84 16 85 19 88
REMARK SMILES IDX 20 89 28 90 21 91 27 92 29 93 22 94 23 95 24 96 25 97 26 98
REMARK H PARENT 3 7 86 25 54 36 10 78 15 86 15 87
REMARK Flexibility Score: inf
ROOT
ATOM      1  C   UNL A   1      31.404  30.429  25.756  1.00  0.00     0.002 C 
ENDROOT
BRANCH   1   2
ATOM      2  C   UNL A   1      31.186  31.798  26.399  1.00  0.00     0.021 C 
BRANCH   2   3
ATOM      3  C   UNL A   1      32.452  32.480  26.895  1.00  0.00     0.116 C 
BRANCH   3   4
ATOM      4  N   UNL A   1      32.221  33.829  27.386  1.00  0.00    -0.352 N 
ATOM      5  O   UNL A   1      32.527  35.606  28.753  1.00  0.00    -0.269 OA
ATOM      6  C   UNL A   1      32.916  34.513  28.354  1.00  0.00     0.251 C 
ATOM      7  H   UNL A   1      31.471  34.314  26.973  1.00  0.00     0.163 HD
BRANCH   6   8
ATOM      8  C   UNL A   1      34.132  33.903  28.938  1.00  0.00     0.039 A 
ATOM      9  C   UNL A   1      34.028  32.804  29.794  1.00  0.00     0.014 A 
ATOM     10  C   UNL A   1      35.385  34.448  28.643  1.00  0.00     0.014 A 
ATOM     11  C   UNL A   1      35.154  32.345  30.463  1.00  0.00     0.010 A 
ATOM     12  C   UNL A   1      36.532  33.924  29.249  1.00  0.00     0.010 A 
ATOM     13  C   UNL A   1      36.421  32.886  30.185  1.00  0.00    -0.014 A 
BRANCH  13  14
ATOM     14  C   UNL A   1      37.609  32.276  30.836  1.00  0.00     0.031 A 
ATOM     15  C   UNL A   1      38.017  32.643  32.234  1.00  0.00     0.074 A 
ATOM     16  C   UNL A   1      38.282  31.325  30.159  1.00  0.00     0.049 A 
ATOM     17  N   UNL A   1      38.980  32.140  32.966  1.00  0.00    -0.248 NA
ATOM     18  C   UNL A   1      37.257  33.712  32.898  1.00  0.00     0.031 C 
ATOM     19  C   UNL A   1      37.990  30.912  28.784  1.00  0.00     0.029 A 
ATOM     20  N   UNL A   1      39.320  30.515  30.536  1.00  0.00    -0.354 N 
ATOM     21  C   UNL A   1      38.950  32.834  34.168  1.00  0.00     0.074 A 
ATOM     22  C   UNL A   1      37.889  33.815  34.060  1.00  0.00     0.031 C 
ATOM     23  C   UNL A   1      38.784  29.885  28.456  1.00  0.00     0.029 A 
ATOM     24  C   UNL A   1      39.680  29.606  29.571  1.00  0.00     0.049 A 
ATOM     25  H   UNL A   1      39.765  30.577  31.412  1.00  0.00     0.167 HD
ATOM     26  C   UNL A   1      39.732  32.661  35.262  1.00  0.00     0.037 A 
ATOM     27  C   UNL A   1      40.632  28.656  29.580  1.00  0.00     0.037 A 
ATOM     28  C   UNL A   1      40.780  31.677  35.366  1.00  0.00     0.049 A 
ATOM     29  C   UNL A   1      41.469  28.479  30.812  1.00  0.00     0.074 A 
ATOM     30  C   UNL A   1      41.623  31.420  36.434  1.00  0.00     0.029 A 
ATOM     31  N   UNL A   1      41.130  30.785  34.361  1.00  0.00    -0.354 N 
ATOM     32  N   UNL A   1      41.415  29.131  31.947  1.00  0.00    -0.248 NA
ATOM     33  C   UNL A   1      42.502  27.436  30.763  1.00  0.00     0.031 C 
ATOM     34  C   UNL A   1      42.502  30.395  36.065  1.00  0.00     0.029 A 
ATOM     35  C   UNL A   1      42.180  29.985  34.781  1.00  0.00     0.049 A 
ATOM     36  H   UNL A   1      40.696  30.730  33.479  1.00  0.00     0.167 HD
ATOM     37  C   UNL A   1      42.405  28.582  32.748  1.00  0.00     0.074 A 
ATOM     38  C   UNL A   1      43.017  27.515  31.982  1.00  0.00     0.031 C 
ATOM     39  C   UNL A   1      42.784  28.938  33.999  1.00  0.00     0.037 A 
BRANCH  26  40
ATOM     40  C   UNL A   1      39.490  33.555  36.444  1.00  0.00     0.064 A 
ATOM     41  C   UNL A   1      38.700  33.141  37.526  1.00  0.00     0.173 A 
ATOM     42  C   UNL A   1      40.114  34.810  36.528  1.00  0.00     0.173 A 
ATOM     43  F   UNL A   1      38.074  31.955  37.490  1.00  0.00    -0.203 F 
ATOM     44  C   UNL A   1      38.533  33.955  38.644  1.00  0.00     0.198 A 
ATOM     45  C   UNL A   1      39.963  35.611  37.657  1.00  0.00     0.198 A 
ATOM     46  F   UNL A   1      40.885  35.251  35.523  1.00  0.00    -0.203 F 
ATOM     47  F   UNL A   1      37.750  33.551  39.654  1.00  0.00    -0.200 F 
ATOM     48  C   UNL A   1      39.170  35.184  38.712  1.00  0.00     0.200 A 
ATOM     49  F   UNL A   1      40.589  36.793  37.727  1.00  0.00    -0.200 F 
ATOM     50  F   UNL A   1      39.019  35.960  39.795  1.00  0.00    -0.200 F 
ENDBRANCH  26  40
BRANCH  27  51
ATOM     51  C   UNL A   1      40.836  27.808  28.379  1.00  0.00     0.064 A 
ATOM     52  C   UNL A   1      40.177  26.579  28.237  1.00  0.00     0.173 A 
ATOM     53  C   UNL A   1      41.684  28.217  27.340  1.00  0.00     0.173 A 
ATOM     54  F   UNL A   1      39.368  26.137  29.211  1.00  0.00    -0.203 F 
ATOM     55  C   UNL A   1      40.372  25.785  27.109  1.00  0.00     0.198 A 
ATOM     56  C   UNL A   1      41.855  27.438  26.199  1.00  0.00     0.198 A 
ATOM     57  F   UNL A   1      42.332  29.390  27.425  1.00  0.00    -0.203 F 
ATOM     58  F   UNL A   1      39.764  24.595  27.017  1.00  0.00    -0.200 F 
ATOM     59  C   UNL A   1      41.206  26.218  26.089  1.00  0.00     0.200 A 
ATOM     60  F   UNL A   1      42.645  27.871  25.207  1.00  0.00    -0.200 F 
ATOM     61  F   UNL A   1      41.386  25.459  25.000  1.00  0.00    -0.200 F 
ENDBRANCH  27  51
BRANCH  39  62
ATOM     62  C   UNL A   1      43.914  28.161  34.605  1.00  0.00     0.064 A 
ATOM     63  C   UNL A   1      45.243  28.597  34.487  1.00  0.00     0.173 A 
ATOM     64  C   UNL A   1      43.669  26.972  35.306  1.00  0.00     0.173 A 
ATOM     65  F   UNL A   1      45.528  29.720  33.809  1.00  0.00    -0.203 F 
ATOM     66  C   UNL A   1      46.289  27.852  35.022  1.00  0.00     0.198 A 
ATOM     67  C   UNL A   1      44.717  26.243  35.862  1.00  0.00     0.198 A 
ATOM     68  F   UNL A   1      42.417  26.516  35.448  1.00  0.00    -0.203 F 
ATOM     69  F   UNL A   1      47.555  28.257  34.848  1.00  0.00    -0.200 F 
ATOM     70  C   UNL A   1      46.025  26.677  35.711  1.00  0.00     0.200 A 
ATOM     71  F   UNL A   1      44.461  25.113  36.535  1.00  0.00    -0.200 F 
ATOM     72  F   UNL A   1      47.034  25.957  36.219  1.00  0.00    -0.200 F 
ENDBRANCH  39  62
ENDBRANCH  13  14
ENDBRANCH   6   8
ENDBRANCH   3   4
ENDBRANCH   2   3
ENDBRANCH   1   2
BRANCH   1  73
ATOM     73  C   UNL A   1      32.747  29.761  26.068  1.00  0.00     0.002 C 
BRANCH  73  74
ATOM     74  C   UNL A   1      32.699  28.601  27.071  1.00  0.00     0.021 C 
BRANCH  74  75
ATOM     75  C   UNL A   1      31.404  27.789  27.054  1.00  0.00     0.116 C 
BRANCH  75  76
ATOM     76  N   UNL A   1      31.683  26.369  27.070  1.00  0.00    -0.354 N 
ATOM     77  C   UNL A   1      32.188  25.552  26.098  1.00  0.00     0.248 C 
ATOM     78  H   UNL A   1      31.476  25.918  27.919  1.00  0.00     0.163 HD
ATOM     79  O   UNL A   1      32.338  24.369  26.413  1.00  0.00    -0.272 OA
BRANCH  77  80
ATOM     80  C   UNL A   1      32.638  26.148  24.743  1.00  0.00     0.228 C 
ATOM     81  C   UNL A   1      33.859  25.322  24.254  1.00  0.00     0.296 C 
ATOM     82  N   UNL A   1      31.591  26.101  23.707  1.00  0.00    -0.333 N 
ATOM     83  N   UNL A   1      33.531  23.942  23.813  1.00  0.00    -0.343 N 
ATOM     84  C   UNL A   1      31.193  24.789  23.204  1.00  0.00     0.180 C 
ATOM     85  C   UNL A   1      32.463  24.001  22.786  1.00  0.00     0.282 C 
ATOM     86  H   UNL A   1      33.206  23.397  24.612  1.00  0.00     0.346 HD
ATOM     87  H   UNL A   1      34.362  23.501  23.420  1.00  0.00     0.346 HD
BRANCH  82  88
ATOM     88  C   UNL A   1      30.866  27.209  23.339  1.00  0.00     0.148 A 
ATOM     89  N   UNL A   1      29.523  27.148  23.508  1.00  0.00    -0.237 NA
ATOM     90  C   UNL A   1      31.453  28.340  22.745  1.00  0.00     0.084 A 
ATOM     91  C   UNL A   1      28.764  28.205  23.126  1.00  0.00     0.126 A 
ATOM     92  C   UNL A   1      30.649  29.409  22.342  1.00  0.00     0.039 A 
ATOM     93  Cl  UNL A   1      33.140  28.448  22.376  1.00  0.00    -0.080 Cl
ATOM     94  C   UNL A   1      29.269  29.350  22.536  1.00  0.00     0.075 A 
BRANCH  94  95
ATOM     95  C   UNL A   1      28.351  30.458  22.129  1.00  0.00     0.417 C 
ATOM     96  F   UNL A   1      27.293  30.600  22.972  1.00  0.00    -0.166 F 
ATOM     97  F   UNL A   1      28.975  31.666  22.102  1.00  0.00    -0.166 F 
ATOM     98  F   UNL A   1      27.817  30.288  20.888  1.00  0.00    -0.166 F 
ENDBRANCH  94  95
ENDBRANCH  82  88
ENDBRANCH  77  80
ENDBRANCH  75  76
ENDBRANCH  74  75
ENDBRANCH  73  74
ENDBRANCH   1  73
TORSDOF 15
ENDMDL
MODEL 3
REMARK VINA RESULT:     -12.8      0.769      2.194
REMARK SMILES O=C(NCCCCCCNC(=O)[C@H]1C[NH2+]CCN1c1ncc(C(F)(F)F)cc1Cl)c1ccc(-c2c3nc(c(-c4c(F)c(F)c(F)c(F)c4F)c4ccc([nH]4)c(-c4c(F)c(F)c(F)c(F)c4F)c4nc(c(-c5c(F)c(F)c(F)c(F)c5F)c5ccc2[nH]5)C=C4)C=C3)cc1
REMARK SMILES IDX 6 1 5 2 4 3 3 4 1 5 2 6 30 8 31 9 92 10 32 11 91 12 33 13
REMARK SMILES IDX 34 14 35 15 85 16 36 17 90 18 84 19 86 20 37 21 89 22 83 23
REMARK SMILES IDX 82 24 38 26 70 27 50 28 69 29 51 30 54 31 68 32 87 33 52 34
REMARK SMILES IDX 53 35 67 37 88 38 55 39 39 40 40 41 48 42 41 43 42 44 46 45
REMARK SMILES IDX 49 46 43 47 44 48 47 49 45 50 71 51 72 52 80 53 73 54 74 55
REMARK SMILES IDX 78 56 81 57 75 58 76 59 79 60 77 61 56 62 57 63 65 64 58 65
REMARK SMILES IDX 59 66 63 67 66 68 60 69 61 70 64 71 62 72 7 73 8 74 9 75
REMARK SMILES IDX 10 76 11 77 12 79 13 80 14 81 18 82 15 83 17 84 16 85 19 88
REMARK SMILES IDX 20 89 28 90 21 91 27 92 29 93 22 94 23 95 24 96 25 97 26 98
REMARK H PARENT 3 7 86 25 54 36 10 78 15 86 15 87
REMARK Flexibility Score: inf
ROOT
ATOM      1  C   UNL A   1      31.422  30.427  25.750  1.00  0.00     0.002 C 
ENDROOT
BRANCH   1   2
ATOM      2  C   UNL A   1      31.207  31.806  26.372  1.00  0.00     0.021 C 
BRANCH   2   3
ATOM      3  C   UNL A   1      32.470  32.481  26.884  1.00  0.00     0.116 C 
BRANCH   3   4
ATOM      4  N   UNL A   1      32.238  33.826  27.383  1.00  0.00    -0.352 N 
ATOM      5  O   UNL A   1      32.538  35.592  28.767  1.00  0.00    -0.269 OA
ATOM      6  C   UNL A   1      32.929  34.501  28.362  1.00  0.00     0.251 C 
ATOM      7  H   UNL A   1      31.492  34.315  26.970  1.00  0.00     0.163 HD
BRANCH   6   8
ATOM      8  C   UNL A   1      34.140  33.884  28.949  1.00  0.00     0.039 A 
ATOM      9  C   UNL A   1      34.026  32.793  29.812  1.00  0.00     0.014 A 
ATOM     10  C   UNL A   1      35.397  34.416  28.648  1.00  0.00     0.014 A 
ATOM     11  C   UNL A   1      35.149  32.328  30.484  1.00  0.00     0.010 A 
ATOM     12  C   UNL A   1      36.540  33.885  29.256  1.00  0.00     0.010 A 
ATOM     13  C   UNL A   1      36.421  32.855  30.200  1.00  0.00    -0.014 A 
BRANCH  13  14
ATOM     14  C   UNL A   1      37.604  32.240  30.853  1.00  0.00     0.031 A 
ATOM     15  C   UNL A   1      37.998  32.587  32.260  1.00  0.00     0.074 A 
ATOM     16  C   UNL A   1      38.287  31.300  30.169  1.00  0.00     0.049 A 
ATOM     17  N   UNL A   1      38.955  32.077  32.995  1.00  0.00    -0.248 NA
ATOM     18  C   UNL A   1      37.229  33.645  32.932  1.00  0.00     0.031 C 
ATOM     19  C   UNL A   1      38.009  30.906  28.786  1.00  0.00     0.029 A 
ATOM     20  N   UNL A   1      39.324  30.487  30.545  1.00  0.00    -0.354 N 
ATOM     21  C   UNL A   1      38.912  32.753  34.206  1.00  0.00     0.074 A 
ATOM     22  C   UNL A   1      37.849  33.733  34.102  1.00  0.00     0.031 C 
ATOM     23  C   UNL A   1      38.809  29.885  28.451  1.00  0.00     0.029 A 
ATOM     24  C   UNL A   1      39.695  29.593  29.571  1.00  0.00     0.049 A 
ATOM     25  H   UNL A   1      39.759  30.538  31.426  1.00  0.00     0.167 HD
ATOM     26  C   UNL A   1      39.684  32.567  35.304  1.00  0.00     0.037 A 
ATOM     27  C   UNL A   1      40.649  28.645  29.575  1.00  0.00     0.037 A 
ATOM     28  C   UNL A   1      40.733  31.584  35.405  1.00  0.00     0.049 A 
ATOM     29  C   UNL A   1      41.475  28.454  30.812  1.00  0.00     0.074 A 
ATOM     30  C   UNL A   1      41.566  31.314  36.477  1.00  0.00     0.029 A 
ATOM     31  N   UNL A   1      41.095  30.708  34.391  1.00  0.00    -0.354 N 
ATOM     32  N   UNL A   1      41.408  29.089  31.957  1.00  0.00    -0.248 NA
ATOM     33  C   UNL A   1      42.511  27.414  30.759  1.00  0.00     0.031 C 
ATOM     34  C   UNL A   1      42.451  30.296  36.102  1.00  0.00     0.029 A 
ATOM     35  C   UNL A   1      42.144  29.904  34.810  1.00  0.00     0.049 A 
ATOM     36  H   UNL A   1      40.670  30.664  33.504  1.00  0.00     0.167 HD
ATOM     37  C   UNL A   1      42.392  28.531  32.759  1.00  0.00     0.074 A 
ATOM     38  C   UNL A   1      43.014  27.477  31.984  1.00  0.00     0.031 C 
ATOM     39  C   UNL A   1      42.758  28.870  34.018  1.00  0.00     0.037 A 
BRANCH  26  40
ATOM     40  C   UNL A   1      39.427  33.443  36.497  1.00  0.00     0.064 A 
ATOM     41  C   UNL A   1      38.574  33.039  37.534  1.00  0.00     0.173 A 
ATOM     42  C   UNL A   1      40.099  34.667  36.639  1.00  0.00     0.173 A 
ATOM     43  F   UNL A   1      37.901  31.882  37.441  1.00  0.00    -0.203 F 
ATOM     44  C   UNL A   1      38.392  33.833  38.663  1.00  0.00     0.198 A 
ATOM     45  C   UNL A   1      39.932  35.448  37.780  1.00  0.00     0.198 A 
ATOM     46  F   UNL A   1      40.932  35.098  35.679  1.00  0.00    -0.203 F 
ATOM     47  F   UNL A   1      37.549  33.441  39.628  1.00  0.00    -0.200 F 
ATOM     48  C   UNL A   1      39.077  35.032  38.789  1.00  0.00     0.200 A 
ATOM     49  F   UNL A   1      40.604  36.601  37.906  1.00  0.00    -0.200 F 
ATOM     50  F   UNL A   1      38.911  35.789  39.883  1.00  0.00    -0.200 F 
ENDBRANCH  26  40
BRANCH  27  51
ATOM     51  C   UNL A   1      40.868  27.815  28.364  1.00  0.00     0.064 A 
ATOM     52  C   UNL A   1      41.740  28.228  27.348  1.00  0.00     0.173 A 
ATOM     53  C   UNL A   1      40.219  26.582  28.206  1.00  0.00     0.173 A 
ATOM     54  F   UNL A   1      42.371  29.408  27.447  1.00  0.00    -0.203 F 
ATOM     55  C   UNL A   1      41.941  27.447  26.213  1.00  0.00     0.198 A 
ATOM     56  C   UNL A   1      40.444  25.787  27.086  1.00  0.00     0.198 A 
ATOM     57  F   UNL A   1      39.380  26.138  29.155  1.00  0.00    -0.203 F 
ATOM     58  F   UNL A   1      42.747  27.885  25.236  1.00  0.00    -0.200 F 
ATOM     59  C   UNL A   1      41.298  26.225  26.085  1.00  0.00     0.200 A 
ATOM     60  F   UNL A   1      39.837  24.598  26.977  1.00  0.00    -0.200 F 
ATOM     61  F   UNL A   1      41.500  25.469  24.997  1.00  0.00    -0.200 F 
ENDBRANCH  27  51
BRANCH  39  62
ATOM     62  C   UNL A   1      43.884  28.088  34.624  1.00  0.00     0.064 A 
ATOM     63  C   UNL A   1      43.648  26.893  35.323  1.00  0.00     0.173 A 
ATOM     64  C   UNL A   1      45.208  28.535  34.509  1.00  0.00     0.173 A 
ATOM     65  F   UNL A   1      42.397  26.436  35.474  1.00  0.00    -0.203 F 
ATOM     66  C   UNL A   1      44.697  26.192  35.912  1.00  0.00     0.198 A 
ATOM     67  C   UNL A   1      46.257  27.816  35.078  1.00  0.00     0.198 A 
ATOM     68  F   UNL A   1      45.485  29.669  33.848  1.00  0.00    -0.203 F 
ATOM     69  F   UNL A   1      44.442  25.086  36.623  1.00  0.00    -0.200 F 
ATOM     70  C   UNL A   1      45.999  26.652  35.786  1.00  0.00     0.200 A 
ATOM     71  F   UNL A   1      47.515  28.257  34.950  1.00  0.00    -0.200 F 
ATOM     72  F   UNL A   1      47.005  25.980  36.361  1.00  0.00    -0.200 F 
ENDBRANCH  39  62
ENDBRANCH  13  14
ENDBRANCH   6   8
ENDBRANCH   3   4
ENDBRANCH   2   3
ENDBRANCH   1   2
BRANCH   1  73
ATOM     73  C   UNL A   1      32.746  29.744  26.105  1.00  0.00     0.002 C 
BRANCH  73  74
ATOM     74  C   UNL A   1      32.654  28.592  27.115  1.00  0.00     0.021 C 
BRANCH  74  75
ATOM     75  C   UNL A   1      31.401  27.726  26.990  1.00  0.00     0.116 C 
BRANCH  75  76
ATOM     76  N   UNL A   1      31.737  26.320  27.029  1.00  0.00    -0.354 N 
ATOM     77  C   UNL A   1      32.281  25.510  26.072  1.00  0.00     0.248 C 
ATOM     78  H   UNL A   1      31.545  25.872  27.883  1.00  0.00     0.163 HD
ATOM     79  O   UNL A   1      32.478  24.338  26.405  1.00  0.00    -0.272 OA
BRANCH  77  80
ATOM     80  C   UNL A   1      32.713  26.104  24.709  1.00  0.00     0.228 C 
ATOM     81  C   UNL A   1      33.924  25.274  24.203  1.00  0.00     0.296 C 
ATOM     82  N   UNL A   1      31.650  26.060  23.689  1.00  0.00    -0.333 N 
ATOM     83  N   UNL A   1      33.584  23.895  23.767  1.00  0.00    -0.343 N 
ATOM     84  C   UNL A   1      31.241  24.749  23.193  1.00  0.00     0.180 C 
ATOM     85  C   UNL A   1      32.502  23.957  22.756  1.00  0.00     0.282 C 
ATOM     86  H   UNL A   1      33.270  23.351  24.571  1.00  0.00     0.346 HD
ATOM     87  H   UNL A   1      34.408  23.450  23.362  1.00  0.00     0.346 HD
BRANCH  82  88
ATOM     88  C   UNL A   1      30.924  27.170  23.332  1.00  0.00     0.148 A 
ATOM     89  N   UNL A   1      29.582  27.106  23.501  1.00  0.00    -0.237 NA
ATOM     90  C   UNL A   1      31.510  28.307  22.747  1.00  0.00     0.084 A 
ATOM     91  C   UNL A   1      28.821  28.165  23.129  1.00  0.00     0.126 A 
ATOM     92  C   UNL A   1      30.704  29.379  22.355  1.00  0.00     0.039 A 
ATOM     93  Cl  UNL A   1      33.196  28.421  22.379  1.00  0.00    -0.080 Cl
ATOM     94  C   UNL A   1      29.324  29.317  22.548  1.00  0.00     0.075 A 
BRANCH  94  95
ATOM     95  C   UNL A   1      28.404  30.428  22.152  1.00  0.00     0.417 C 
ATOM     96  F   UNL A   1      27.278  30.473  22.913  1.00  0.00    -0.166 F 
ATOM     97  F   UNL A   1      28.988  31.650  22.268  1.00  0.00    -0.166 F 
ATOM     98  F   UNL A   1      27.978  30.339  20.862  1.00  0.00    -0.166 F 
ENDBRANCH  94  95
ENDBRANCH  82  88
ENDBRANCH  77  80
ENDBRANCH  75  76
ENDBRANCH  74  75
ENDBRANCH  73  74
ENDBRANCH   1  73
TORSDOF 15
ENDMDL
