MODEL 1
REMARK VINA RESULT:     -12.4      0.000      0.000
REMARK SMILES Cc1cc(C(=O)NCCCCCCNC(=O)c2ccc(-c3c4nc(c(-c5c(F)c(F)c(F)c(F)c5F)c5ccc([nH]5)c(-c5c(F)c(F)c(F)c(F)c5F)c5nc(c(-c6c(F)c(F)c(F)c(F)c6F)c6ccc3[nH]6)C=C5)C=C4)cc2)cc(C)c1OC[C@H]1C[N@@H+](C)CCO1
REMARK SMILES IDX 10 1 9 2 8 3 7 4 5 5 6 6 4 8 1 9 2 10 3 11 83 12 81 13 80 14
REMARK SMILES IDX 82 15 84 16 85 17 86 18 87 19 92 20 88 21 91 22 89 23 90 24
REMARK SMILES IDX 11 26 12 27 13 28 14 29 15 30 16 32 17 33 18 34 79 35 19 36
REMARK SMILES IDX 78 37 20 38 21 39 22 40 72 41 23 42 77 43 71 44 73 45 24 46
REMARK SMILES IDX 76 47 70 48 69 49 25 51 57 52 37 53 56 54 38 55 41 56 55 57
REMARK SMILES IDX 74 58 39 59 40 60 54 62 75 63 42 64 26 65 27 66 35 67 28 68
REMARK SMILES IDX 29 69 33 70 36 71 30 72 31 73 34 74 32 75 58 76 59 77 67 78
REMARK SMILES IDX 60 79 61 80 65 81 68 82 62 83 63 84 66 85 64 86 43 87 44 88
REMARK SMILES IDX 52 89 45 90 46 91 50 92 53 93 47 94 48 95 51 96 49 97
REMARK H PARENT 7 7 88 25 14 31 73 50 41 61
REMARK Flexibility Score: inf
ROOT
ATOM      1  C   UNL A   1      32.199  29.771  27.216  1.00  0.00     0.002 C 
ENDROOT
BRANCH   1   2
ATOM      2  C   UNL A   1      33.720  29.616  27.199  1.00  0.00     0.021 C 
BRANCH   2   3
ATOM      3  C   UNL A   1      34.280  28.612  26.201  1.00  0.00     0.116 C 
BRANCH   3   4
ATOM      4  N   UNL A   1      34.170  29.045  24.825  1.00  0.00    -0.352 N 
ATOM      5  C   UNL A   1      33.553  28.442  23.759  1.00  0.00     0.251 C 
ATOM      6  O   UNL A   1      33.635  28.968  22.650  1.00  0.00    -0.269 OA
ATOM      7  H   UNL A   1      34.605  29.906  24.623  1.00  0.00     0.163 HD
BRANCH   5   8
ATOM      8  C   UNL A   1      32.860  27.139  23.901  1.00  0.00     0.040 A 
ATOM      9  C   UNL A   1      33.766  23.694  22.752  1.00  0.00     0.048 C 
ATOM     10  C   UNL A   1      32.917  24.737  23.406  1.00  0.00    -0.008 A 
ATOM     11  C   UNL A   1      33.433  26.044  23.263  1.00  0.00     0.021 A 
ATOM     12  C   UNL A   1      31.745  24.538  24.156  1.00  0.00     0.125 A 
ATOM     13  C   UNL A   1      31.190  25.647  24.844  1.00  0.00    -0.008 A 
ATOM     14  C   UNL A   1      31.715  26.942  24.664  1.00  0.00     0.021 A 
ATOM     15  C   UNL A   1      30.123  25.488  25.901  1.00  0.00     0.048 C 
BRANCH  12  16
ATOM     16  O   UNL A   1      31.071  23.369  24.374  1.00  0.00    -0.490 OA
BRANCH  16  17
ATOM     17  C   UNL A   1      31.487  22.344  25.291  1.00  0.00     0.267 C 
BRANCH  17  18
ATOM     18  C   UNL A   1      32.421  21.252  24.735  1.00  0.00     0.210 C 
ATOM     19  C   UNL A   1      33.761  21.237  25.493  1.00  0.00     0.298 C 
ATOM     20  O   UNL A   1      31.842  19.932  24.926  1.00  0.00    -0.363 OA
ATOM     21  N   UNL A   1      34.672  20.385  24.716  1.00  0.00    -0.333 N 
ATOM     22  C   UNL A   1      32.704  18.911  24.371  1.00  0.00     0.222 C 
ATOM     23  C   UNL A   1      36.061  20.562  25.099  1.00  0.00     0.332 C 
ATOM     24  C   UNL A   1      34.180  19.006  24.838  1.00  0.00     0.290 C 
ATOM     25  H   UNL A   1      34.669  20.652  23.731  1.00  0.00     0.348 HD
ENDBRANCH  17  18
ENDBRANCH  16  17
ENDBRANCH  12  16
ENDBRANCH   5   8
ENDBRANCH   3   4
ENDBRANCH   2   3
ENDBRANCH   1   2
BRANCH   1  26
ATOM     26  C   UNL A   1      31.608  30.738  26.187  1.00  0.00     0.002 C 
BRANCH  26  27
ATOM     27  C   UNL A   1      31.393  32.174  26.666  1.00  0.00     0.021 C 
BRANCH  27  28
ATOM     28  C   UNL A   1      32.618  32.849  27.267  1.00  0.00     0.116 C 
BRANCH  28  29
ATOM     29  N   UNL A   1      32.369  34.234  27.627  1.00  0.00    -0.352 N 
ATOM     30  C   UNL A   1      32.964  34.992  28.602  1.00  0.00     0.251 C 
ATOM     31  H   UNL A   1      31.678  34.692  27.097  1.00  0.00     0.163 HD
ATOM     32  O   UNL A   1      32.514  36.100  28.890  1.00  0.00    -0.269 OA
BRANCH  30  33
ATOM     33  C   UNL A   1      34.136  34.464  29.329  1.00  0.00     0.039 A 
ATOM     34  C   UNL A   1      33.942  33.851  30.567  1.00  0.00     0.014 A 
ATOM     35  C   UNL A   1      35.421  34.565  28.785  1.00  0.00     0.014 A 
ATOM     36  C   UNL A   1      35.030  33.289  31.238  1.00  0.00     0.010 A 
ATOM     37  C   UNL A   1      36.489  33.933  29.415  1.00  0.00     0.010 A 
ATOM     38  C   UNL A   1      36.306  33.295  30.651  1.00  0.00    -0.014 A 
BRANCH  38  39
ATOM     39  C   UNL A   1      37.461  32.643  31.318  1.00  0.00     0.031 A 
ATOM     40  C   UNL A   1      38.178  31.506  30.647  1.00  0.00     0.074 A 
ATOM     41  C   UNL A   1      37.826  33.039  32.553  1.00  0.00     0.049 A 
ATOM     42  N   UNL A   1      39.168  30.772  31.091  1.00  0.00    -0.248 NA
ATOM     43  C   UNL A   1      37.703  31.124  29.307  1.00  0.00     0.031 C 
ATOM     44  C   UNL A   1      37.180  34.099  33.327  1.00  0.00     0.029 A 
ATOM     45  N   UNL A   1      38.825  32.587  33.380  1.00  0.00    -0.354 N 
ATOM     46  C   UNL A   1      39.423  29.839  30.093  1.00  0.00     0.074 A 
ATOM     47  C   UNL A   1      38.447  30.059  29.049  1.00  0.00     0.031 C 
ATOM     48  C   UNL A   1      37.812  34.235  34.502  1.00  0.00     0.029 A 
ATOM     49  C   UNL A   1      38.880  33.244  34.586  1.00  0.00     0.049 A 
ATOM     50  H   UNL A   1      39.443  31.862  33.132  1.00  0.00     0.167 HD
ATOM     51  C   UNL A   1      40.399  28.901  30.044  1.00  0.00     0.037 A 
ATOM     52  C   UNL A   1      39.695  33.059  35.642  1.00  0.00     0.037 A 
ATOM     53  C   UNL A   1      41.378  28.700  31.081  1.00  0.00     0.049 A 
ATOM     54  C   UNL A   1      40.758  31.995  35.570  1.00  0.00     0.074 A 
ATOM     55  C   UNL A   1      42.440  27.813  31.103  1.00  0.00     0.029 A 
ATOM     56  N   UNL A   1      41.408  29.390  32.285  1.00  0.00    -0.354 N 
ATOM     57  N   UNL A   1      41.036  31.167  34.593  1.00  0.00    -0.248 NA
ATOM     58  C   UNL A   1      41.626  31.847  36.746  1.00  0.00     0.031 C 
ATOM     59  C   UNL A   1      43.077  27.927  32.342  1.00  0.00     0.029 A 
ATOM     60  C   UNL A   1      42.454  28.930  33.067  1.00  0.00     0.049 A 
ATOM     61  H   UNL A   1      40.779  30.102  32.543  1.00  0.00     0.167 HD
ATOM     62  C   UNL A   1      42.129  30.424  35.020  1.00  0.00     0.074 A 
ATOM     63  C   UNL A   1      42.471  30.910  36.341  1.00  0.00     0.031 C 
ATOM     64  C   UNL A   1      42.791  29.431  34.376  1.00  0.00     0.037 A 
BRANCH  51  65
ATOM     65  C   UNL A   1      40.456  28.018  28.830  1.00  0.00     0.064 A 
ATOM     66  C   UNL A   1      41.215  28.363  27.700  1.00  0.00     0.173 A 
ATOM     67  C   UNL A   1      39.771  26.793  28.807  1.00  0.00     0.173 A 
ATOM     68  F   UNL A   1      41.881  29.528  27.665  1.00  0.00    -0.203 F 
ATOM     69  C   UNL A   1      41.259  27.533  26.583  1.00  0.00     0.198 A 
ATOM     70  C   UNL A   1      39.845  25.949  27.702  1.00  0.00     0.198 A 
ATOM     71  F   UNL A   1      39.035  26.409  29.861  1.00  0.00    -0.203 F 
ATOM     72  F   UNL A   1      41.946  27.911  25.497  1.00  0.00    -0.200 F 
ATOM     73  C   UNL A   1      40.581  26.324  26.589  1.00  0.00     0.200 A 
ATOM     74  F   UNL A   1      39.204  24.773  27.715  1.00  0.00    -0.200 F 
ATOM     75  F   UNL A   1      40.632  25.521  25.516  1.00  0.00    -0.200 F 
ENDBRANCH  51  65
BRANCH  52  76
ATOM     76  C   UNL A   1      39.550  33.913  36.851  1.00  0.00     0.064 A 
ATOM     77  C   UNL A   1      38.805  33.477  37.956  1.00  0.00     0.173 A 
ATOM     78  C   UNL A   1      40.146  35.180  36.927  1.00  0.00     0.173 A 
ATOM     79  F   UNL A   1      38.199  32.281  37.925  1.00  0.00    -0.203 F 
ATOM     80  C   UNL A   1      38.640  34.286  39.079  1.00  0.00     0.198 A 
ATOM     81  C   UNL A   1      40.007  35.974  38.063  1.00  0.00     0.198 A 
ATOM     82  F   UNL A   1      40.875  35.642  35.901  1.00  0.00    -0.203 F 
ATOM     83  F   UNL A   1      37.880  33.865  40.099  1.00  0.00    -0.200 F 
ATOM     84  C   UNL A   1      39.246  35.531  39.134  1.00  0.00     0.200 A 
ATOM     85  F   UNL A   1      40.610  37.171  38.119  1.00  0.00    -0.200 F 
ATOM     86  F   UNL A   1      39.092  36.307  40.215  1.00  0.00    -0.200 F 
ENDBRANCH  52  76
BRANCH  64  87
ATOM     87  C   UNL A   1      43.983  28.832  35.067  1.00  0.00     0.064 A 
ATOM     88  C   UNL A   1      45.277  29.344  34.889  1.00  0.00     0.173 A 
ATOM     89  C   UNL A   1      43.818  27.758  35.955  1.00  0.00     0.173 A 
ATOM     90  F   UNL A   1      45.490  30.360  34.039  1.00  0.00    -0.203 F 
ATOM     91  C   UNL A   1      46.364  28.786  35.555  1.00  0.00     0.198 A 
ATOM     92  C   UNL A   1      44.901  27.227  36.647  1.00  0.00     0.198 A 
ATOM     93  F   UNL A   1      42.601  27.237  36.168  1.00  0.00    -0.203 F 
ATOM     94  F   UNL A   1      47.598  29.257  35.332  1.00  0.00    -0.200 F 
ATOM     95  C   UNL A   1      46.175  27.734  36.441  1.00  0.00     0.200 A 
ATOM     96  F   UNL A   1      44.713  26.222  37.514  1.00  0.00    -0.200 F 
ATOM     97  F   UNL A   1      47.221  27.207  37.089  1.00  0.00    -0.200 F 
ENDBRANCH  64  87
ENDBRANCH  38  39
ENDBRANCH  30  33
ENDBRANCH  28  29
ENDBRANCH  27  28
ENDBRANCH  26  27
ENDBRANCH   1  26
TORSDOF 16
ENDMDL
MODEL 2
REMARK VINA RESULT:     -12.2      5.716     12.679
REMARK SMILES Cc1cc(C(=O)NCCCCCCNC(=O)c2ccc(-c3c4nc(c(-c5c(F)c(F)c(F)c(F)c5F)c5ccc([nH]5)c(-c5c(F)c(F)c(F)c(F)c5F)c5nc(c(-c6c(F)c(F)c(F)c(F)c6F)c6ccc3[nH]6)C=C5)C=C4)cc2)cc(C)c1OC[C@H]1C[N@@H+](C)CCO1
REMARK SMILES IDX 10 1 9 2 8 3 7 4 5 5 6 6 4 8 1 9 2 10 3 11 83 12 81 13 80 14
REMARK SMILES IDX 82 15 84 16 85 17 86 18 87 19 92 20 88 21 91 22 89 23 90 24
REMARK SMILES IDX 11 26 12 27 13 28 14 29 15 30 16 32 17 33 18 34 79 35 19 36
REMARK SMILES IDX 78 37 20 38 21 39 22 40 72 41 23 42 77 43 71 44 73 45 24 46
REMARK SMILES IDX 76 47 70 48 69 49 25 51 57 52 37 53 56 54 38 55 41 56 55 57
REMARK SMILES IDX 74 58 39 59 40 60 54 62 75 63 42 64 26 65 27 66 35 67 28 68
REMARK SMILES IDX 29 69 33 70 36 71 30 72 31 73 34 74 32 75 58 76 59 77 67 78
REMARK SMILES IDX 60 79 61 80 65 81 68 82 62 83 63 84 66 85 64 86 43 87 44 88
REMARK SMILES IDX 52 89 45 90 46 91 50 92 53 93 47 94 48 95 51 96 49 97
REMARK H PARENT 7 7 88 25 14 31 73 50 41 61
REMARK Flexibility Score: inf
ROOT
ATOM      1  C   UNL A   1      42.812  35.342  32.809  1.00  0.00     0.002 C 
ENDROOT
BRANCH   1   2
ATOM      2  C   UNL A   1      43.851  34.935  33.856  1.00  0.00     0.021 C 
BRANCH   2   3
ATOM      3  C   UNL A   1      43.315  34.207  35.082  1.00  0.00     0.116 C 
BRANCH   3   4
ATOM      4  N   UNL A   1      43.046  32.805  34.848  1.00  0.00    -0.352 N 
ATOM      5  C   UNL A   1      41.855  32.162  34.625  1.00  0.00     0.251 C 
ATOM      6  O   UNL A   1      41.853  30.939  34.506  1.00  0.00    -0.269 OA
ATOM      7  H   UNL A   1      43.840  32.223  34.848  1.00  0.00     0.163 HD
BRANCH   5   8
ATOM      8  C   UNL A   1      40.569  32.902  34.601  1.00  0.00     0.040 A 
ATOM      9  C   UNL A   1      38.678  34.522  31.807  1.00  0.00     0.048 C 
ATOM     10  C   UNL A   1      38.942  34.113  33.221  1.00  0.00    -0.008 A 
ATOM     11  C   UNL A   1      40.188  33.468  33.390  1.00  0.00     0.021 A 
ATOM     12  C   UNL A   1      38.085  34.253  34.326  1.00  0.00     0.125 A 
ATOM     13  C   UNL A   1      38.454  33.634  35.547  1.00  0.00    -0.008 A 
ATOM     14  C   UNL A   1      39.713  33.018  35.689  1.00  0.00     0.021 A 
ATOM     15  C   UNL A   1      37.485  33.471  36.694  1.00  0.00     0.048 C 
BRANCH  12  16
ATOM     16  O   UNL A   1      36.869  34.877  34.377  1.00  0.00    -0.490 OA
BRANCH  16  17
ATOM     17  C   UNL A   1      35.717  34.484  33.613  1.00  0.00     0.267 C 
BRANCH  17  18
ATOM     18  C   UNL A   1      35.147  35.528  32.633  1.00  0.00     0.210 C 
ATOM     19  C   UNL A   1      34.126  34.882  31.678  1.00  0.00     0.298 C 
ATOM     20  O   UNL A   1      34.421  36.565  33.347  1.00  0.00    -0.363 OA
ATOM     21  N   UNL A   1      33.866  35.864  30.617  1.00  0.00    -0.333 N 
ATOM     22  C   UNL A   1      33.917  37.561  32.428  1.00  0.00     0.222 C 
ATOM     23  C   UNL A   1      33.214  35.276  29.461  1.00  0.00     0.332 C 
ATOM     24  C   UNL A   1      33.125  36.975  31.230  1.00  0.00     0.290 C 
ATOM     25  H   UNL A   1      34.739  36.222  30.230  1.00  0.00     0.348 HD
ENDBRANCH  17  18
ENDBRANCH  16  17
ENDBRANCH  12  16
ENDBRANCH   5   8
ENDBRANCH   3   4
ENDBRANCH   2   3
ENDBRANCH   1   2
BRANCH   1  26
ATOM     26  C   UNL A   1      43.360  35.957  31.520  1.00  0.00     0.002 C 
BRANCH  26  27
ATOM     27  C   UNL A   1      44.043  37.317  31.665  1.00  0.00     0.021 C 
BRANCH  27  28
ATOM     28  C   UNL A   1      44.200  38.106  30.374  1.00  0.00     0.116 C 
BRANCH  28  29
ATOM     29  N   UNL A   1      45.591  38.288  29.998  1.00  0.00    -0.352 N 
ATOM     30  C   UNL A   1      46.500  37.352  29.575  1.00  0.00     0.251 C 
ATOM     31  H   UNL A   1      45.929  39.210  30.055  1.00  0.00     0.163 HD
ATOM     32  O   UNL A   1      47.689  37.646  29.463  1.00  0.00    -0.269 OA
BRANCH  30  33
ATOM     33  C   UNL A   1      46.052  35.976  29.279  1.00  0.00     0.039 A 
ATOM     34  C   UNL A   1      46.414  34.946  30.148  1.00  0.00     0.014 A 
ATOM     35  C   UNL A   1      45.269  35.706  28.152  1.00  0.00     0.014 A 
ATOM     36  C   UNL A   1      45.946  33.652  29.918  1.00  0.00     0.010 A 
ATOM     37  C   UNL A   1      44.736  34.433  27.970  1.00  0.00     0.010 A 
ATOM     38  C   UNL A   1      45.075  33.392  28.847  1.00  0.00    -0.014 A 
BRANCH  38  39
ATOM     39  C   UNL A   1      44.513  32.035  28.627  1.00  0.00     0.031 A 
ATOM     40  C   UNL A   1      43.182  31.663  29.218  1.00  0.00     0.074 A 
ATOM     41  C   UNL A   1      45.229  31.121  27.942  1.00  0.00     0.049 A 
ATOM     42  N   UNL A   1      42.553  30.515  29.187  1.00  0.00    -0.248 NA
ATOM     43  C   UNL A   1      42.475  32.714  29.968  1.00  0.00     0.031 C 
ATOM     44  C   UNL A   1      46.552  31.347  27.360  1.00  0.00     0.029 A 
ATOM     45  N   UNL A   1      44.948  29.814  27.630  1.00  0.00    -0.354 N 
ATOM     46  C   UNL A   1      41.387  30.704  29.920  1.00  0.00     0.074 A 
ATOM     47  C   UNL A   1      41.425  32.055  30.433  1.00  0.00     0.031 C 
ATOM     48  C   UNL A   1      46.957  30.229  26.740  1.00  0.00     0.029 A 
ATOM     49  C   UNL A   1      45.945  29.192  26.917  1.00  0.00     0.049 A 
ATOM     50  H   UNL A   1      44.112  29.365  27.892  1.00  0.00     0.167 HD
ATOM     51  C   UNL A   1      40.368  29.836  30.123  1.00  0.00     0.037 A 
ATOM     52  C   UNL A   1      46.034  27.927  26.466  1.00  0.00     0.037 A 
ATOM     53  C   UNL A   1      40.330  28.497  29.593  1.00  0.00     0.049 A 
ATOM     54  C   UNL A   1      44.896  26.975  26.724  1.00  0.00     0.074 A 
ATOM     55  C   UNL A   1      39.320  27.557  29.697  1.00  0.00     0.029 A 
ATOM     56  N   UNL A   1      41.354  27.905  28.867  1.00  0.00    -0.354 N 
ATOM     57  N   UNL A   1      43.767  27.186  27.356  1.00  0.00    -0.248 NA
ATOM     58  C   UNL A   1      45.042  25.611  26.198  1.00  0.00     0.031 C 
ATOM     59  C   UNL A   1      39.755  26.379  29.083  1.00  0.00     0.029 A 
ATOM     60  C   UNL A   1      41.010  26.604  28.540  1.00  0.00     0.049 A 
ATOM     61  H   UNL A   1      42.199  28.345  28.621  1.00  0.00     0.167 HD
ATOM     62  C   UNL A   1      43.056  25.997  27.274  1.00  0.00     0.074 A 
ATOM     63  C   UNL A   1      43.876  25.072  26.520  1.00  0.00     0.031 C 
ATOM     64  C   UNL A   1      41.832  25.698  27.777  1.00  0.00     0.037 A 
BRANCH  51  65
ATOM     65  C   UNL A   1      39.209  30.305  30.955  1.00  0.00     0.064 A 
ATOM     66  C   UNL A   1      38.118  30.983  30.388  1.00  0.00     0.173 A 
ATOM     67  C   UNL A   1      39.170  30.043  32.334  1.00  0.00     0.173 A 
ATOM     68  F   UNL A   1      38.108  31.268  29.077  1.00  0.00    -0.203 F 
ATOM     69  C   UNL A   1      37.050  31.409  31.174  1.00  0.00     0.198 A 
ATOM     70  C   UNL A   1      38.085  30.440  33.110  1.00  0.00     0.198 A 
ATOM     71  F   UNL A   1      40.182  29.394  32.929  1.00  0.00    -0.203 F 
ATOM     72  F   UNL A   1      36.047  32.103  30.618  1.00  0.00    -0.200 F 
ATOM     73  C   UNL A   1      37.031  31.131  32.532  1.00  0.00     0.200 A 
ATOM     74  F   UNL A   1      38.059  30.156  34.420  1.00  0.00    -0.200 F 
ATOM     75  F   UNL A   1      35.998  31.534  33.285  1.00  0.00    -0.200 F 
ENDBRANCH  51  65
BRANCH  52  76
ATOM     76  C   UNL A   1      47.237  27.491  25.707  1.00  0.00     0.064 A 
ATOM     77  C   UNL A   1      47.314  27.661  24.318  1.00  0.00     0.173 A 
ATOM     78  C   UNL A   1      48.330  26.892  26.351  1.00  0.00     0.173 A 
ATOM     79  F   UNL A   1      46.287  28.211  23.653  1.00  0.00    -0.203 F 
ATOM     80  C   UNL A   1      48.426  27.226  23.599  1.00  0.00     0.198 A 
ATOM     81  C   UNL A   1      49.454  26.488  25.635  1.00  0.00     0.198 A 
ATOM     82  F   UNL A   1      48.310  26.712  27.680  1.00  0.00    -0.203 F 
ATOM     83  F   UNL A   1      48.449  27.355  22.265  1.00  0.00    -0.200 F 
ATOM     84  C   UNL A   1      49.497  26.645  24.258  1.00  0.00     0.200 A 
ATOM     85  F   UNL A   1      50.495  25.942  26.280  1.00  0.00    -0.200 F 
ATOM     86  F   UNL A   1      50.568  26.231  23.568  1.00  0.00    -0.200 F 
ENDBRANCH  52  76
BRANCH  64  87
ATOM     87  C   UNL A   1      41.280  24.330  27.490  1.00  0.00     0.064 A 
ATOM     88  C   UNL A   1      41.780  23.182  28.122  1.00  0.00     0.173 A 
ATOM     89  C   UNL A   1      40.205  24.175  26.601  1.00  0.00     0.173 A 
ATOM     90  F   UNL A   1      42.817  23.274  28.968  1.00  0.00    -0.203 F 
ATOM     91  C   UNL A   1      41.240  21.926  27.856  1.00  0.00     0.198 A 
ATOM     92  C   UNL A   1      39.644  22.924  26.365  1.00  0.00     0.198 A 
ATOM     93  F   UNL A   1      39.684  25.242  25.977  1.00  0.00    -0.203 F 
ATOM     94  F   UNL A   1      41.765  20.837  28.432  1.00  0.00    -0.200 F 
ATOM     95  C   UNL A   1      40.166  21.800  26.985  1.00  0.00     0.200 A 
ATOM     96  F   UNL A   1      38.597  22.807  25.537  1.00  0.00    -0.200 F 
ATOM     97  F   UNL A   1      39.641  20.592  26.740  1.00  0.00    -0.200 F 
ENDBRANCH  64  87
ENDBRANCH  38  39
ENDBRANCH  30  33
ENDBRANCH  28  29
ENDBRANCH  27  28
ENDBRANCH  26  27
ENDBRANCH   1  26
TORSDOF 16
ENDMDL
MODEL 3
REMARK VINA RESULT:     -12.2      1.221      7.456
REMARK SMILES Cc1cc(C(=O)NCCCCCCNC(=O)c2ccc(-c3c4nc(c(-c5c(F)c(F)c(F)c(F)c5F)c5ccc([nH]5)c(-c5c(F)c(F)c(F)c(F)c5F)c5nc(c(-c6c(F)c(F)c(F)c(F)c6F)c6ccc3[nH]6)C=C5)C=C4)cc2)cc(C)c1OC[C@H]1C[N@@H+](C)CCO1
REMARK SMILES IDX 10 1 9 2 8 3 7 4 5 5 6 6 4 8 1 9 2 10 3 11 83 12 81 13 80 14
REMARK SMILES IDX 82 15 84 16 85 17 86 18 87 19 92 20 88 21 91 22 89 23 90 24
REMARK SMILES IDX 11 26 12 27 13 28 14 29 15 30 16 32 17 33 18 34 79 35 19 36
REMARK SMILES IDX 78 37 20 38 21 39 22 40 72 41 23 42 77 43 71 44 73 45 24 46
REMARK SMILES IDX 76 47 70 48 69 49 25 51 57 52 37 53 56 54 38 55 41 56 55 57
REMARK SMILES IDX 74 58 39 59 40 60 54 62 75 63 42 64 26 65 27 66 35 67 28 68
REMARK SMILES IDX 29 69 33 70 36 71 30 72 31 73 34 74 32 75 58 76 59 77 67 78
REMARK SMILES IDX 60 79 61 80 65 81 68 82 62 83 63 84 66 85 64 86 43 87 44 88
REMARK SMILES IDX 52 89 45 90 46 91 50 92 53 93 47 94 48 95 51 96 49 97
REMARK H PARENT 7 7 88 25 14 31 73 50 41 61
REMARK Flexibility Score: inf
ROOT
ATOM      1  C   UNL A   1      32.636  29.770  26.064  1.00  0.00     0.002 C 
ENDROOT
BRANCH   1   2
ATOM      2  C   UNL A   1      32.479  28.277  25.773  1.00  0.00     0.021 C 
BRANCH   2   3
ATOM      3  C   UNL A   1      33.730  27.553  25.295  1.00  0.00     0.116 C 
BRANCH   3   4
ATOM      4  N   UNL A   1      33.802  27.413  23.857  1.00  0.00    -0.352 N 
ATOM      5  C   UNL A   1      33.640  26.301  23.071  1.00  0.00     0.251 C 
ATOM      6  O   UNL A   1      33.804  26.402  21.857  1.00  0.00    -0.269 OA
ATOM      7  H   UNL A   1      33.996  28.245  23.367  1.00  0.00     0.163 HD
BRANCH   5   8
ATOM      8  C   UNL A   1      33.348  24.972  23.662  1.00  0.00     0.040 A 
ATOM      9  C   UNL A   1      35.536  22.011  24.340  1.00  0.00     0.048 C 
ATOM     10  C   UNL A   1      34.257  22.787  24.307  1.00  0.00    -0.008 A 
ATOM     11  C   UNL A   1      34.388  24.048  23.685  1.00  0.00     0.021 A 
ATOM     12  C   UNL A   1      33.019  22.416  24.859  1.00  0.00     0.125 A 
ATOM     13  C   UNL A   1      31.976  23.377  24.877  1.00  0.00    -0.008 A 
ATOM     14  C   UNL A   1      32.130  24.618  24.229  1.00  0.00     0.021 A 
ATOM     15  C   UNL A   1      30.722  23.191  25.698  1.00  0.00     0.048 C 
BRANCH  12  16
ATOM     16  O   UNL A   1      32.682  21.235  25.459  1.00  0.00    -0.490 OA
BRANCH  16  17
ATOM     17  C   UNL A   1      32.370  20.022  24.756  1.00  0.00     0.267 C 
BRANCH  17  18
ATOM     18  C   UNL A   1      33.194  18.773  25.126  1.00  0.00     0.210 C 
ATOM     19  C   UNL A   1      32.369  17.490  24.921  1.00  0.00     0.298 C 
ATOM     20  O   UNL A   1      34.352  18.644  24.256  1.00  0.00    -0.363 OA
ATOM     21  N   UNL A   1      33.119  16.403  25.565  1.00  0.00    -0.333 N 
ATOM     22  C   UNL A   1      35.143  17.491  24.628  1.00  0.00     0.222 C 
ATOM     23  C   UNL A   1      32.310  15.216  25.773  1.00  0.00     0.332 C 
ATOM     24  C   UNL A   1      34.328  16.179  24.761  1.00  0.00     0.290 C 
ATOM     25  H   UNL A   1      33.394  16.662  26.513  1.00  0.00     0.348 HD
ENDBRANCH  17  18
ENDBRANCH  16  17
ENDBRANCH  12  16
ENDBRANCH   5   8
ENDBRANCH   3   4
ENDBRANCH   2   3
ENDBRANCH   1   2
BRANCH   1  26
ATOM     26  C   UNL A   1      31.441  30.656  25.705  1.00  0.00     0.002 C 
BRANCH  26  27
ATOM     27  C   UNL A   1      31.249  31.903  26.569  1.00  0.00     0.021 C 
BRANCH  27  28
ATOM     28  C   UNL A   1      32.525  32.487  27.159  1.00  0.00     0.116 C 
BRANCH  28  29
ATOM     29  N   UNL A   1      32.390  33.893  27.494  1.00  0.00    -0.352 N 
ATOM     30  C   UNL A   1      33.073  34.626  28.429  1.00  0.00     0.251 C 
ATOM     31  H   UNL A   1      31.716  34.389  26.977  1.00  0.00     0.163 HD
ATOM     32  O   UNL A   1      32.715  35.770  28.706  1.00  0.00    -0.269 OA
BRANCH  30  33
ATOM     33  C   UNL A   1      34.229  34.030  29.129  1.00  0.00     0.039 A 
ATOM     34  C   UNL A   1      33.999  33.066  30.111  1.00  0.00     0.014 A 
ATOM     35  C   UNL A   1      35.535  34.415  28.810  1.00  0.00     0.014 A 
ATOM     36  C   UNL A   1      35.082  32.445  30.736  1.00  0.00     0.010 A 
ATOM     37  C   UNL A   1      36.612  33.737  29.374  1.00  0.00     0.010 A 
ATOM     38  C   UNL A   1      36.396  32.751  30.348  1.00  0.00    -0.014 A 
BRANCH  38  39
ATOM     39  C   UNL A   1      37.558  32.052  30.953  1.00  0.00     0.031 A 
ATOM     40  C   UNL A   1      38.042  32.438  32.323  1.00  0.00     0.074 A 
ATOM     41  C   UNL A   1      38.211  31.110  30.246  1.00  0.00     0.049 A 
ATOM     42  N   UNL A   1      39.070  31.988  32.996  1.00  0.00    -0.248 NA
ATOM     43  C   UNL A   1      37.283  33.490  33.020  1.00  0.00     0.031 C 
ATOM     44  C   UNL A   1      37.867  30.681  28.890  1.00  0.00     0.029 A 
ATOM     45  N   UNL A   1      39.310  30.350  30.564  1.00  0.00    -0.354 N 
ATOM     46  C   UNL A   1      39.088  32.708  34.185  1.00  0.00     0.074 A 
ATOM     47  C   UNL A   1      38.006  33.664  34.116  1.00  0.00     0.031 C 
ATOM     48  C   UNL A   1      38.717  29.718  28.503  1.00  0.00     0.029 A 
ATOM     49  C   UNL A   1      39.695  29.491  29.563  1.00  0.00     0.049 A 
ATOM     50  H   UNL A   1      39.776  30.414  31.429  1.00  0.00     0.167 HD
ATOM     51  C   UNL A   1      39.917  32.565  35.247  1.00  0.00     0.037 A 
ATOM     52  C   UNL A   1      40.725  28.627  29.505  1.00  0.00     0.037 A 
ATOM     53  C   UNL A   1      40.982  31.597  35.314  1.00  0.00     0.049 A 
ATOM     54  C   UNL A   1      41.645  28.502  30.691  1.00  0.00     0.074 A 
ATOM     55  C   UNL A   1      41.843  31.336  36.366  1.00  0.00     0.029 A 
ATOM     56  N   UNL A   1      41.336  30.738  34.284  1.00  0.00    -0.354 N 
ATOM     57  N   UNL A   1      41.609  29.137  31.837  1.00  0.00    -0.248 NA
ATOM     58  C   UNL A   1      42.744  27.535  30.577  1.00  0.00     0.031 C 
ATOM     59  C   UNL A   1      42.754  30.360  35.951  1.00  0.00     0.029 A 
ATOM     60  C   UNL A   1      42.420  29.965  34.665  1.00  0.00     0.049 A 
ATOM     61  H   UNL A   1      40.884  30.685  33.412  1.00  0.00     0.167 HD
ATOM     62  C   UNL A   1      42.655  28.623  32.592  1.00  0.00     0.074 A 
ATOM     63  C   UNL A   1      43.300  27.614  31.777  1.00  0.00     0.031 C 
ATOM     64  C   UNL A   1      43.045  28.955  33.848  1.00  0.00     0.037 A 
BRANCH  51  65
ATOM     65  C   UNL A   1      39.708  33.477  36.421  1.00  0.00     0.064 A 
ATOM     66  C   UNL A   1      38.863  33.127  37.488  1.00  0.00     0.173 A 
ATOM     67  C   UNL A   1      40.386  34.703  36.501  1.00  0.00     0.173 A 
ATOM     68  F   UNL A   1      38.183  31.971  37.458  1.00  0.00    -0.203 F 
ATOM     69  C   UNL A   1      38.682  33.984  38.571  1.00  0.00     0.198 A 
ATOM     70  C   UNL A   1      40.229  35.541  37.602  1.00  0.00     0.198 A 
ATOM     71  F   UNL A   1      41.210  35.086  35.514  1.00  0.00    -0.203 F 
ATOM     72  F   UNL A   1      37.829  33.651  39.549  1.00  0.00    -0.200 F 
ATOM     73  C   UNL A   1      39.371  35.185  38.631  1.00  0.00     0.200 A 
ATOM     74  F   UNL A   1      40.909  36.695  37.667  1.00  0.00    -0.200 F 
ATOM     75  F   UNL A   1      39.202  36.004  39.678  1.00  0.00    -0.200 F 
ENDBRANCH  51  65
BRANCH  52  76
ATOM     76  C   UNL A   1      40.932  27.797  28.288  1.00  0.00     0.064 A 
ATOM     77  C   UNL A   1      40.332  26.536  28.166  1.00  0.00     0.173 A 
ATOM     78  C   UNL A   1      41.734  28.242  27.228  1.00  0.00     0.173 A 
ATOM     79  F   UNL A   1      39.571  26.057  29.161  1.00  0.00    -0.203 F 
ATOM     80  C   UNL A   1      40.547  25.741  27.041  1.00  0.00     0.198 A 
ATOM     81  C   UNL A   1      41.923  27.461  26.090  1.00  0.00     0.198 A 
ATOM     82  F   UNL A   1      42.326  29.444  27.291  1.00  0.00    -0.203 F 
ATOM     83  F   UNL A   1      40.003  24.519  26.974  1.00  0.00    -0.200 F 
ATOM     84  C   UNL A   1      41.338  26.206  26.002  1.00  0.00     0.200 A 
ATOM     85  F   UNL A   1      42.674  27.922  25.080  1.00  0.00    -0.200 F 
ATOM     86  F   UNL A   1      41.541  25.444  24.919  1.00  0.00    -0.200 F 
ENDBRANCH  52  76
BRANCH  64  87
ATOM     87  C   UNL A   1      44.194  28.190  34.441  1.00  0.00     0.064 A 
ATOM     88  C   UNL A   1      44.005  26.980  35.123  1.00  0.00     0.173 A 
ATOM     89  C   UNL A   1      45.508  28.656  34.282  1.00  0.00     0.173 A 
ATOM     90  F   UNL A   1      42.767  26.499  35.315  1.00  0.00    -0.203 F 
ATOM     91  C   UNL A   1      45.087  26.277  35.647  1.00  0.00     0.198 A 
ATOM     92  C   UNL A   1      46.590  27.933  34.775  1.00  0.00     0.198 A 
ATOM     93  F   UNL A   1      45.746  29.804  33.631  1.00  0.00    -0.203 F 
ATOM     94  F   UNL A   1      44.879  25.149  36.339  1.00  0.00    -0.200 F 
ATOM     95  C   UNL A   1      46.379  26.749  35.464  1.00  0.00     0.200 A 
ATOM     96  F   UNL A   1      47.838  28.383  34.583  1.00  0.00    -0.200 F 
ATOM     97  F   UNL A   1      47.419  26.065  35.959  1.00  0.00    -0.200 F 
ENDBRANCH  64  87
ENDBRANCH  38  39
ENDBRANCH  30  33
ENDBRANCH  28  29
ENDBRANCH  27  28
ENDBRANCH  26  27
ENDBRANCH   1  26
TORSDOF 16
ENDMDL
