MODEL 1
REMARK VINA RESULT:     -10.4      0.000      0.000
REMARK SMILES CC(C)[C@H]1C[C@@](O)([C@H](F)C(=O)NCCCCCCNC(=O)c2ccc(-c3c4nc(c(-c5c(F)c(F)c(F)c(F)c5F)c5ccc([nH]5)c(-c5c(F)c(F)c(F)c(F)c5F)c5nc(c(-c6c(F)c(F)c(F)c(F)c6F)c6ccc3[nH]6)C=C5)C=C4)cc2)CCO1
REMARK SMILES IDX 15 1 14 2 13 3 12 4 10 5 11 6 8 8 9 9 6 10 4 11 5 12 87 13
REMARK SMILES IDX 86 14 85 15 2 16 1 17 3 18 7 19 16 21 17 22 18 23 19 24
REMARK SMILES IDX 20 25 21 27 22 28 23 29 84 30 24 31 83 32 25 33 26 34 27 35
REMARK SMILES IDX 77 36 28 37 82 38 76 39 78 40 29 41 81 42 75 43 74 44 30 46
REMARK SMILES IDX 62 47 42 48 61 49 43 50 46 51 60 52 79 53 44 54 45 55 59 57
REMARK SMILES IDX 80 58 47 59 31 60 32 61 40 62 33 63 34 64 38 65 41 66 35 67
REMARK SMILES IDX 36 68 39 69 37 70 63 71 64 72 72 73 65 74 66 75 70 76 73 77
REMARK SMILES IDX 67 78 68 79 71 80 69 81 48 82 49 83 57 84 50 85 51 86 55 87
REMARK SMILES IDX 58 88 52 89 53 90 56 91 54 92
REMARK H PARENT 12 7 7 20 19 26 78 45 46 56
REMARK Flexibility Score: inf
ROOT
ATOM      1  C   UNL A   1      34.182  35.934  28.402  1.00  0.00     0.002 C 
ENDROOT
BRANCH   1   2
ATOM      2  C   UNL A   1      32.942  35.977  29.293  1.00  0.00     0.021 C 
BRANCH   2   3
ATOM      3  C   UNL A   1      33.209  36.082  30.788  1.00  0.00     0.116 C 
BRANCH   3   4
ATOM      4  N   UNL A   1      32.869  34.894  31.535  1.00  0.00    -0.353 N 
ATOM      5  C   UNL A   1      33.544  34.380  32.612  1.00  0.00     0.257 C 
ATOM      6  O   UNL A   1      33.041  33.423  33.210  1.00  0.00    -0.272 OA
ATOM      7  H   UNL A   1      32.068  34.403  31.241  1.00  0.00     0.163 HD
BRANCH   5   8
ATOM      8  C   UNL A   1      34.892  34.972  33.055  1.00  0.00     0.286 C 
ATOM      9  F   UNL A   1      34.716  36.067  33.862  1.00  0.00    -0.234 F 
BRANCH   8  10
ATOM     10  C   UNL A   1      35.876  33.966  33.735  1.00  0.00     0.110 C 
ATOM     11  C   UNL A   1      38.280  33.503  34.378  1.00  0.00     0.123 C 
ATOM     12  C   UNL A   1      37.309  34.528  33.794  1.00  0.00     0.071 C 
ATOM     13  O   UNL A   1      38.297  32.351  33.532  1.00  0.00    -0.378 OA
ATOM     14  C   UNL A   1      37.027  31.704  33.443  1.00  0.00     0.163 C 
ATOM     15  C   UNL A   1      35.928  32.645  32.942  1.00  0.00     0.067 C 
BRANCH  11  16
ATOM     16  C   UNL A   1      39.698  34.101  34.540  1.00  0.00     0.012 C 
ATOM     17  C   UNL A   1      40.237  34.572  33.187  1.00  0.00     0.010 C 
ATOM     18  C   UNL A   1      39.764  35.248  35.551  1.00  0.00     0.010 C 
ENDBRANCH  11  16
BRANCH  10  19
ATOM     19  O   UNL A   1      35.438  33.699  35.079  1.00  0.00    -0.386 OA
ATOM     20  H   UNL A   1      34.518  33.392  35.064  1.00  0.00     0.211 HD
ENDBRANCH  10  19
ENDBRANCH   8  10
ENDBRANCH   5   8
ENDBRANCH   3   4
ENDBRANCH   2   3
ENDBRANCH   1   2
BRANCH   1  21
ATOM     21  C   UNL A   1      34.672  34.539  28.006  1.00  0.00     0.002 C 
BRANCH  21  22
ATOM     22  C   UNL A   1      35.531  33.812  29.043  1.00  0.00     0.021 C 
BRANCH  22  23
ATOM     23  C   UNL A   1      34.878  32.602  29.704  1.00  0.00     0.116 C 
BRANCH  23  24
ATOM     24  N   UNL A   1      34.198  31.738  28.753  1.00  0.00    -0.352 N 
ATOM     25  C   UNL A   1      34.666  30.634  28.085  1.00  0.00     0.251 C 
ATOM     26  H   UNL A   1      33.263  31.979  28.560  1.00  0.00     0.163 HD
ATOM     27  O   UNL A   1      33.990  30.114  27.201  1.00  0.00    -0.269 OA
BRANCH  25  28
ATOM     28  C   UNL A   1      36.001  30.086  28.407  1.00  0.00     0.039 A 
ATOM     29  C   UNL A   1      37.026  30.214  27.467  1.00  0.00     0.014 A 
ATOM     30  C   UNL A   1      36.243  29.447  29.626  1.00  0.00     0.014 A 
ATOM     31  C   UNL A   1      38.310  29.763  27.776  1.00  0.00     0.010 A 
ATOM     32  C   UNL A   1      37.538  29.067  29.963  1.00  0.00     0.010 A 
ATOM     33  C   UNL A   1      38.587  29.221  29.042  1.00  0.00    -0.014 A 
BRANCH  33  34
ATOM     34  C   UNL A   1      39.965  28.815  29.422  1.00  0.00     0.031 A 
ATOM     35  C   UNL A   1      40.797  29.701  30.307  1.00  0.00     0.074 A 
ATOM     36  C   UNL A   1      40.487  27.679  28.923  1.00  0.00     0.049 A 
ATOM     37  N   UNL A   1      42.041  29.557  30.690  1.00  0.00    -0.248 NA
ATOM     38  C   UNL A   1      40.154  30.926  30.809  1.00  0.00     0.031 C 
ATOM     39  C   UNL A   1      39.794  26.753  28.024  1.00  0.00     0.029 A 
ATOM     40  N   UNL A   1      41.725  27.111  29.090  1.00  0.00    -0.354 N 
ATOM     41  C   UNL A   1      42.329  30.671  31.468  1.00  0.00     0.074 A 
ATOM     42  C   UNL A   1      41.153  31.512  31.453  1.00  0.00     0.031 C 
ATOM     43  C   UNL A   1      40.607  25.723  27.740  1.00  0.00     0.029 A 
ATOM     44  C   UNL A   1      41.893  25.937  28.396  1.00  0.00     0.049 A 
ATOM     45  H   UNL A   1      42.428  27.508  29.655  1.00  0.00     0.167 HD
ATOM     46  C   UNL A   1      43.463  30.954  32.152  1.00  0.00     0.037 A 
ATOM     47  C   UNL A   1      42.967  25.130  28.292  1.00  0.00     0.037 A 
ATOM     48  C   UNL A   1      44.628  30.106  32.174  1.00  0.00     0.049 A 
ATOM     49  C   UNL A   1      44.227  25.487  29.035  1.00  0.00     0.074 A 
ATOM     50  C   UNL A   1      45.809  30.283  32.873  1.00  0.00     0.029 A 
ATOM     51  N   UNL A   1      44.758  28.924  31.461  1.00  0.00    -0.354 N 
ATOM     52  N   UNL A   1      44.465  26.511  29.819  1.00  0.00    -0.248 NA
ATOM     53  C   UNL A   1      45.368  24.573  28.881  1.00  0.00     0.031 C 
ATOM     54  C   UNL A   1      46.676  29.238  32.538  1.00  0.00     0.029 A 
ATOM     55  C   UNL A   1      46.011  28.374  31.682  1.00  0.00     0.049 A 
ATOM     56  H   UNL A   1      44.063  28.533  30.883  1.00  0.00     0.167 HD
ATOM     57  C   UNL A   1      45.765  26.345  30.279  1.00  0.00     0.074 A 
ATOM     58  C   UNL A   1      46.259  25.114  29.698  1.00  0.00     0.031 C 
ATOM     59  C   UNL A   1      46.485  27.140  31.108  1.00  0.00     0.037 A 
BRANCH  46  60
ATOM     60  C   UNL A   1      43.502  32.234  32.939  1.00  0.00     0.064 A 
ATOM     61  C   UNL A   1      43.159  32.271  34.299  1.00  0.00     0.173 A 
ATOM     62  C   UNL A   1      43.930  33.428  32.338  1.00  0.00     0.173 A 
ATOM     63  F   UNL A   1      42.734  31.161  34.920  1.00  0.00    -0.203 F 
ATOM     64  C   UNL A   1      43.215  33.462  35.020  1.00  0.00     0.198 A 
ATOM     65  C   UNL A   1      44.017  34.609  33.071  1.00  0.00     0.198 A 
ATOM     66  F   UNL A   1      44.276  33.447  31.042  1.00  0.00    -0.203 F 
ATOM     67  F   UNL A   1      42.834  33.483  36.304  1.00  0.00    -0.200 F 
ATOM     68  C   UNL A   1      43.651  34.627  34.408  1.00  0.00     0.200 A 
ATOM     69  F   UNL A   1      44.455  35.730  32.482  1.00  0.00    -0.200 F 
ATOM     70  F   UNL A   1      43.715  35.769  35.106  1.00  0.00    -0.200 F 
ENDBRANCH  46  60
BRANCH  47  71
ATOM     71  C   UNL A   1      42.898  23.896  27.463  1.00  0.00     0.064 A 
ATOM     72  C   UNL A   1      42.496  22.675  28.023  1.00  0.00     0.173 A 
ATOM     73  C   UNL A   1      43.255  23.905  26.107  1.00  0.00     0.173 A 
ATOM     74  F   UNL A   1      42.165  22.610  29.321  1.00  0.00    -0.203 F 
ATOM     75  C   UNL A   1      42.482  21.504  27.266  1.00  0.00     0.198 A 
ATOM     76  C   UNL A   1      43.207  22.740  25.342  1.00  0.00     0.198 A 
ATOM     77  F   UNL A   1      43.641  25.046  25.520  1.00  0.00    -0.203 F 
ATOM     78  F   UNL A   1      42.151  20.341  27.841  1.00  0.00    -0.200 F 
ATOM     79  C   UNL A   1      42.833  21.539  25.925  1.00  0.00     0.200 A 
ATOM     80  F   UNL A   1      43.531  22.781  24.042  1.00  0.00    -0.200 F 
ATOM     81  F   UNL A   1      42.821  20.414  25.198  1.00  0.00    -0.200 F 
ENDBRANCH  47  71
BRANCH  59  82
ATOM     82  C   UNL A   1      47.868  26.683  31.477  1.00  0.00     0.064 A 
ATOM     83  C   UNL A   1      48.104  25.865  32.590  1.00  0.00     0.173 A 
ATOM     84  C   UNL A   1      48.967  27.038  30.679  1.00  0.00     0.173 A 
ATOM     85  F   UNL A   1      47.091  25.509  33.395  1.00  0.00    -0.203 F 
ATOM     86  C   UNL A   1      49.392  25.441  32.908  1.00  0.00     0.198 A 
ATOM     87  C   UNL A   1      50.247  26.583  30.978  1.00  0.00     0.198 A 
ATOM     88  F   UNL A   1      48.796  27.814  29.597  1.00  0.00    -0.203 F 
ATOM     89  F   UNL A   1      49.601  24.702  34.006  1.00  0.00    -0.200 F 
ATOM     90  C   UNL A   1      50.461  25.793  32.096  1.00  0.00     0.200 A 
ATOM     91  F   UNL A   1      51.276  26.911  30.183  1.00  0.00    -0.200 F 
ATOM     92  F   UNL A   1      51.699  25.374  32.397  1.00  0.00    -0.200 F 
ENDBRANCH  59  82
ENDBRANCH  33  34
ENDBRANCH  25  28
ENDBRANCH  23  24
ENDBRANCH  22  23
ENDBRANCH  21  22
ENDBRANCH   1  21
TORSDOF 16
ENDMDL
MODEL 2
REMARK VINA RESULT:     -10.4      3.575     10.876
REMARK SMILES CC(C)[C@H]1C[C@@](O)([C@H](F)C(=O)NCCCCCCNC(=O)c2ccc(-c3c4nc(c(-c5c(F)c(F)c(F)c(F)c5F)c5ccc([nH]5)c(-c5c(F)c(F)c(F)c(F)c5F)c5nc(c(-c6c(F)c(F)c(F)c(F)c6F)c6ccc3[nH]6)C=C5)C=C4)cc2)CCO1
REMARK SMILES IDX 15 1 14 2 13 3 12 4 10 5 11 6 8 8 9 9 6 10 4 11 5 12 87 13
REMARK SMILES IDX 86 14 85 15 2 16 1 17 3 18 7 19 16 21 17 22 18 23 19 24
REMARK SMILES IDX 20 25 21 27 22 28 23 29 84 30 24 31 83 32 25 33 26 34 27 35
REMARK SMILES IDX 77 36 28 37 82 38 76 39 78 40 29 41 81 42 75 43 74 44 30 46
REMARK SMILES IDX 62 47 42 48 61 49 43 50 46 51 60 52 79 53 44 54 45 55 59 57
REMARK SMILES IDX 80 58 47 59 31 60 32 61 40 62 33 63 34 64 38 65 41 66 35 67
REMARK SMILES IDX 36 68 39 69 37 70 63 71 64 72 72 73 65 74 66 75 70 76 73 77
REMARK SMILES IDX 67 78 68 79 71 80 69 81 48 82 49 83 57 84 50 85 51 86 55 87
REMARK SMILES IDX 58 88 52 89 53 90 56 91 54 92
REMARK H PARENT 12 7 7 20 19 26 78 45 46 56
REMARK Flexibility Score: inf
ROOT
ATOM      1  C   UNL A   1      42.457  23.340  28.897  1.00  0.00     0.002 C 
ENDROOT
BRANCH   1   2
ATOM      2  C   UNL A   1      43.774  23.273  29.668  1.00  0.00     0.021 C 
BRANCH   2   3
ATOM      3  C   UNL A   1      45.015  23.686  28.891  1.00  0.00     0.116 C 
BRANCH   3   4
ATOM      4  N   UNL A   1      45.228  22.938  27.673  1.00  0.00    -0.353 N 
ATOM      5  C   UNL A   1      46.025  23.298  26.618  1.00  0.00     0.257 C 
ATOM      6  O   UNL A   1      46.190  22.479  25.708  1.00  0.00    -0.272 OA
ATOM      7  H   UNL A   1      44.752  22.081  27.594  1.00  0.00     0.163 HD
BRANCH   5   8
ATOM      8  C   UNL A   1      46.686  24.686  26.564  1.00  0.00     0.286 C 
ATOM      9  F   UNL A   1      47.930  24.624  25.989  1.00  0.00    -0.234 F 
BRANCH   8  10
ATOM     10  C   UNL A   1      45.841  25.806  25.878  1.00  0.00     0.110 C 
ATOM     11  C   UNL A   1      44.850  28.123  26.120  1.00  0.00     0.123 C 
ATOM     12  C   UNL A   1      45.752  27.068  26.757  1.00  0.00     0.071 C 
ATOM     13  O   UNL A   1      43.532  27.586  25.992  1.00  0.00    -0.378 OA
ATOM     14  C   UNL A   1      43.476  26.437  25.146  1.00  0.00     0.163 C 
ATOM     15  C   UNL A   1      44.402  25.315  25.624  1.00  0.00     0.067 C 
BRANCH  11  16
ATOM     16  C   UNL A   1      44.846  29.431  26.945  1.00  0.00     0.012 C 
ATOM     17  C   UNL A   1      45.910  30.398  26.417  1.00  0.00     0.010 C 
ATOM     18  C   UNL A   1      43.485  30.128  26.979  1.00  0.00     0.010 C 
ENDBRANCH  11  16
BRANCH  10  19
ATOM     19  O   UNL A   1      46.449  26.168  24.626  1.00  0.00    -0.386 OA
ATOM     20  H   UNL A   1      46.938  25.409  24.272  1.00  0.00     0.211 HD
ENDBRANCH  10  19
ENDBRANCH   8  10
ENDBRANCH   5   8
ENDBRANCH   3   4
ENDBRANCH   2   3
ENDBRANCH   1   2
BRANCH   1  21
ATOM     21  C   UNL A   1      41.791  21.996  28.594  1.00  0.00     0.002 C 
BRANCH  21  22
ATOM     22  C   UNL A   1      42.004  21.446  27.181  1.00  0.00     0.021 C 
BRANCH  22  23
ATOM     23  C   UNL A   1      41.555  22.362  26.045  1.00  0.00     0.116 C 
BRANCH  23  24
ATOM     24  N   UNL A   1      40.131  22.260  25.768  1.00  0.00    -0.352 N 
ATOM     25  C   UNL A   1      39.104  23.084  26.155  1.00  0.00     0.251 C 
ATOM     26  H   UNL A   1      39.865  21.486  25.222  1.00  0.00     0.163 HD
ATOM     27  O   UNL A   1      37.938  22.756  25.950  1.00  0.00    -0.269 OA
BRANCH  25  28
ATOM     28  C   UNL A   1      39.398  24.357  26.846  1.00  0.00     0.039 A 
ATOM     29  C   UNL A   1      39.013  24.503  28.181  1.00  0.00     0.014 A 
ATOM     30  C   UNL A   1      40.048  25.403  26.186  1.00  0.00     0.014 A 
ATOM     31  C   UNL A   1      39.338  25.670  28.873  1.00  0.00     0.010 A 
ATOM     32  C   UNL A   1      40.439  26.533  26.897  1.00  0.00     0.010 A 
ATOM     33  C   UNL A   1      40.089  26.681  28.248  1.00  0.00    -0.014 A 
BRANCH  33  34
ATOM     34  C   UNL A   1      40.521  27.891  28.992  1.00  0.00     0.031 A 
ATOM     35  C   UNL A   1      41.918  27.984  29.541  1.00  0.00     0.074 A 
ATOM     36  C   UNL A   1      39.637  28.882  29.224  1.00  0.00     0.049 A 
ATOM     37  N   UNL A   1      42.459  28.923  30.276  1.00  0.00    -0.248 NA
ATOM     38  C   UNL A   1      42.820  26.860  29.246  1.00  0.00     0.031 C 
ATOM     39  C   UNL A   1      38.244  28.894  28.777  1.00  0.00     0.029 A 
ATOM     40  N   UNL A   1      39.776  30.067  29.903  1.00  0.00    -0.354 N 
ATOM     41  C   UNL A   1      43.756  28.500  30.536  1.00  0.00     0.074 A 
ATOM     42  C   UNL A   1      43.903  27.194  29.933  1.00  0.00     0.031 C 
ATOM     43  C   UNL A   1      37.664  30.038  29.171  1.00  0.00     0.029 A 
ATOM     44  C   UNL A   1      38.628  30.820  29.938  1.00  0.00     0.049 A 
ATOM     45  H   UNL A   1      40.620  30.350  30.326  1.00  0.00     0.167 HD
ATOM     46  C   UNL A   1      44.742  29.153  31.195  1.00  0.00     0.037 A 
ATOM     47  C   UNL A   1      38.378  32.003  30.533  1.00  0.00     0.037 A 
ATOM     48  C   UNL A   1      44.595  30.460  31.783  1.00  0.00     0.049 A 
ATOM     49  C   UNL A   1      39.483  32.691  31.291  1.00  0.00     0.074 A 
ATOM     50  C   UNL A   1      45.547  31.224  32.434  1.00  0.00     0.029 A 
ATOM     51  N   UNL A   1      43.418  31.192  31.796  1.00  0.00    -0.354 N 
ATOM     52  N   UNL A   1      40.724  32.310  31.474  1.00  0.00    -0.248 NA
ATOM     53  C   UNL A   1      39.152  33.976  31.921  1.00  0.00     0.031 C 
ATOM     54  C   UNL A   1      44.932  32.395  32.889  1.00  0.00     0.029 A 
ATOM     55  C   UNL A   1      43.612  32.390  32.466  1.00  0.00     0.049 A 
ATOM     56  H   UNL A   1      42.568  30.905  31.388  1.00  0.00     0.167 HD
ATOM     57  C   UNL A   1      41.329  33.322  32.207  1.00  0.00     0.074 A 
ATOM     58  C   UNL A   1      40.324  34.341  32.422  1.00  0.00     0.031 C 
ATOM     59  C   UNL A   1      42.604  33.402  32.661  1.00  0.00     0.037 A 
BRANCH  46  60
ATOM     60  C   UNL A   1      46.073  28.466  31.316  1.00  0.00     0.064 A 
ATOM     61  C   UNL A   1      46.320  27.510  32.313  1.00  0.00     0.173 A 
ATOM     62  C   UNL A   1      47.099  28.732  30.396  1.00  0.00     0.173 A 
ATOM     63  F   UNL A   1      45.377  27.225  33.224  1.00  0.00    -0.203 F 
ATOM     64  C   UNL A   1      47.553  26.869  32.403  1.00  0.00     0.198 A 
ATOM     65  C   UNL A   1      48.319  28.065  30.469  1.00  0.00     0.198 A 
ATOM     66  F   UNL A   1      46.915  29.631  29.418  1.00  0.00    -0.203 F 
ATOM     67  F   UNL A   1      47.782  25.998  33.395  1.00  0.00    -0.200 F 
ATOM     68  C   UNL A   1      48.548  27.140  31.477  1.00  0.00     0.200 A 
ATOM     69  F   UNL A   1      49.274  28.315  29.563  1.00  0.00    -0.200 F 
ATOM     70  F   UNL A   1      49.730  26.514  31.558  1.00  0.00    -0.200 F 
ENDBRANCH  46  60
BRANCH  47  71
ATOM     71  C   UNL A   1      37.030  32.624  30.426  1.00  0.00     0.064 A 
ATOM     72  C   UNL A   1      36.699  33.444  29.337  1.00  0.00     0.173 A 
ATOM     73  C   UNL A   1      36.057  32.435  31.417  1.00  0.00     0.173 A 
ATOM     74  F   UNL A   1      37.603  33.673  28.373  1.00  0.00    -0.203 F 
ATOM     75  C   UNL A   1      35.458  34.072  29.258  1.00  0.00     0.198 A 
ATOM     76  C   UNL A   1      34.803  33.037  31.320  1.00  0.00     0.198 A 
ATOM     77  F   UNL A   1      36.319  31.657  32.477  1.00  0.00    -0.203 F 
ATOM     78  F   UNL A   1      35.190  34.896  28.237  1.00  0.00    -0.200 F 
ATOM     79  C   UNL A   1      34.509  33.864  30.249  1.00  0.00     0.200 A 
ATOM     80  F   UNL A   1      33.883  32.820  32.271  1.00  0.00    -0.200 F 
ATOM     81  F   UNL A   1      33.316  34.470  30.174  1.00  0.00    -0.200 F 
ENDBRANCH  47  71
BRANCH  59  82
ATOM     82  C   UNL A   1      43.002  34.651  33.395  1.00  0.00     0.064 A 
ATOM     83  C   UNL A   1      42.979  34.727  34.795  1.00  0.00     0.173 A 
ATOM     84  C   UNL A   1      43.451  35.775  32.684  1.00  0.00     0.173 A 
ATOM     85  F   UNL A   1      42.543  33.686  35.521  1.00  0.00    -0.203 F 
ATOM     86  C   UNL A   1      43.364  35.890  35.456  1.00  0.00     0.198 A 
ATOM     87  C   UNL A   1      43.870  36.924  33.349  1.00  0.00     0.198 A 
ATOM     88  F   UNL A   1      43.501  35.754  31.343  1.00  0.00    -0.203 F 
ATOM     89  F   UNL A   1      43.283  35.957  36.792  1.00  0.00    -0.200 F 
ATOM     90  C   UNL A   1      43.818  36.984  34.733  1.00  0.00     0.200 A 
ATOM     91  F   UNL A   1      44.324  37.973  32.650  1.00  0.00    -0.200 F 
ATOM     92  F   UNL A   1      44.200  38.099  35.372  1.00  0.00    -0.200 F 
ENDBRANCH  59  82
ENDBRANCH  33  34
ENDBRANCH  25  28
ENDBRANCH  23  24
ENDBRANCH  22  23
ENDBRANCH  21  22
ENDBRANCH   1  21
TORSDOF 16
ENDMDL
MODEL 3
REMARK VINA RESULT:     -10.3      4.078      7.866
REMARK SMILES CC(C)[C@H]1C[C@@](O)([C@H](F)C(=O)NCCCCCCNC(=O)c2ccc(-c3c4nc(c(-c5c(F)c(F)c(F)c(F)c5F)c5ccc([nH]5)c(-c5c(F)c(F)c(F)c(F)c5F)c5nc(c(-c6c(F)c(F)c(F)c(F)c6F)c6ccc3[nH]6)C=C5)C=C4)cc2)CCO1
REMARK SMILES IDX 15 1 14 2 13 3 12 4 10 5 11 6 8 8 9 9 6 10 4 11 5 12 87 13
REMARK SMILES IDX 86 14 85 15 2 16 1 17 3 18 7 19 16 21 17 22 18 23 19 24
REMARK SMILES IDX 20 25 21 27 22 28 23 29 84 30 24 31 83 32 25 33 26 34 27 35
REMARK SMILES IDX 77 36 28 37 82 38 76 39 78 40 29 41 81 42 75 43 74 44 30 46
REMARK SMILES IDX 62 47 42 48 61 49 43 50 46 51 60 52 79 53 44 54 45 55 59 57
REMARK SMILES IDX 80 58 47 59 31 60 32 61 40 62 33 63 34 64 38 65 41 66 35 67
REMARK SMILES IDX 36 68 39 69 37 70 63 71 64 72 72 73 65 74 66 75 70 76 73 77
REMARK SMILES IDX 67 78 68 79 71 80 69 81 48 82 49 83 57 84 50 85 51 86 55 87
REMARK SMILES IDX 58 88 52 89 53 90 56 91 54 92
REMARK H PARENT 12 7 7 20 19 26 78 45 46 56
REMARK Flexibility Score: inf
ROOT
ATOM      1  C   UNL A   1      34.604  33.350  27.960  1.00  0.00     0.002 C 
ENDROOT
BRANCH   1   2
ATOM      2  C   UNL A   1      34.883  31.849  27.972  1.00  0.00     0.021 C 
BRANCH   2   3
ATOM      3  C   UNL A   1      33.748  30.963  27.480  1.00  0.00     0.116 C 
BRANCH   3   4
ATOM      4  N   UNL A   1      34.151  29.956  26.526  1.00  0.00    -0.353 N 
ATOM      5  C   UNL A   1      33.371  29.386  25.554  1.00  0.00     0.257 C 
ATOM      6  O   UNL A   1      33.914  28.631  24.742  1.00  0.00    -0.272 OA
ATOM      7  H   UNL A   1      35.085  29.648  26.580  1.00  0.00     0.163 HD
BRANCH   5   8
ATOM      8  C   UNL A   1      31.862  29.674  25.483  1.00  0.00     0.286 C 
ATOM      9  F   UNL A   1      31.597  31.005  25.684  1.00  0.00    -0.234 F 
BRANCH   8  10
ATOM     10  C   UNL A   1      31.145  29.181  24.184  1.00  0.00     0.110 C 
ATOM     11  C   UNL A   1      29.128  29.451  22.679  1.00  0.00     0.123 C 
ATOM     12  C   UNL A   1      29.870  29.997  23.897  1.00  0.00     0.071 C 
ATOM     13  O   UNL A   1      28.734  28.103  22.945  1.00  0.00    -0.378 OA
ATOM     14  C   UNL A   1      29.842  27.231  23.172  1.00  0.00     0.163 C 
ATOM     15  C   UNL A   1      30.729  27.704  24.327  1.00  0.00     0.067 C 
BRANCH  11  16
ATOM     16  C   UNL A   1      27.908  30.333  22.322  1.00  0.00     0.012 C 
ATOM     17  C   UNL A   1      27.577  31.279  23.479  1.00  0.00     0.010 C 
ATOM     18  C   UNL A   1      28.092  31.136  21.033  1.00  0.00     0.010 C 
ENDBRANCH  11  16
BRANCH  10  19
ATOM     19  O   UNL A   1      32.034  29.320  23.063  1.00  0.00    -0.386 OA
ATOM     20  H   UNL A   1      32.485  30.178  23.111  1.00  0.00     0.211 HD
ENDBRANCH  10  19
ENDBRANCH   8  10
ENDBRANCH   5   8
ENDBRANCH   3   4
ENDBRANCH   2   3
ENDBRANCH   1   2
BRANCH   1  21
ATOM     21  C   UNL A   1      34.084  33.943  29.272  1.00  0.00     0.002 C 
BRANCH  21  22
ATOM     22  C   UNL A   1      32.930  34.941  29.144  1.00  0.00     0.021 C 
BRANCH  22  23
ATOM     23  C   UNL A   1      33.162  36.300  29.798  1.00  0.00     0.116 C 
BRANCH  23  24
ATOM     24  N   UNL A   1      32.438  36.456  31.049  1.00  0.00    -0.352 N 
ATOM     25  C   UNL A   1      32.666  35.871  32.269  1.00  0.00     0.251 C 
ATOM     26  H   UNL A   1      31.671  37.072  31.016  1.00  0.00     0.163 HD
ATOM     27  O   UNL A   1      31.855  36.008  33.181  1.00  0.00    -0.269 OA
BRANCH  25  28
ATOM     28  C   UNL A   1      33.876  35.049  32.481  1.00  0.00     0.039 A 
ATOM     29  C   UNL A   1      35.129  35.629  32.270  1.00  0.00     0.014 A 
ATOM     30  C   UNL A   1      33.780  33.714  32.883  1.00  0.00     0.014 A 
ATOM     31  C   UNL A   1      36.286  34.892  32.528  1.00  0.00     0.010 A 
ATOM     32  C   UNL A   1      34.931  33.006  33.212  1.00  0.00     0.010 A 
ATOM     33  C   UNL A   1      36.198  33.586  33.038  1.00  0.00    -0.014 A 
BRANCH  33  34
ATOM     34  C   UNL A   1      37.415  32.817  33.401  1.00  0.00     0.031 A 
ATOM     35  C   UNL A   1      38.146  33.116  34.681  1.00  0.00     0.074 A 
ATOM     36  C   UNL A   1      37.896  31.889  32.551  1.00  0.00     0.049 A 
ATOM     37  N   UNL A   1      39.262  32.606  35.137  1.00  0.00    -0.248 NA
ATOM     38  C   UNL A   1      37.557  34.144  35.554  1.00  0.00     0.031 C 
ATOM     39  C   UNL A   1      37.300  31.534  31.262  1.00  0.00     0.029 A 
ATOM     40  N   UNL A   1      39.004  31.082  32.636  1.00  0.00    -0.354 N 
ATOM     41  C   UNL A   1      39.511  33.253  36.340  1.00  0.00     0.074 A 
ATOM     42  C   UNL A   1      38.465  34.236  36.515  1.00  0.00     0.031 C 
ATOM     43  C   UNL A   1      38.032  30.565  30.689  1.00  0.00     0.029 A 
ATOM     44  C   UNL A   1      39.175  30.263  31.546  1.00  0.00     0.049 A 
ATOM     45  H   UNL A   1      39.618  31.090  33.406  1.00  0.00     0.167 HD
ATOM     46  C   UNL A   1      40.508  33.031  37.230  1.00  0.00     0.037 A 
ATOM     47  C   UNL A   1      40.150  29.378  31.264  1.00  0.00     0.037 A 
ATOM     48  C   UNL A   1      41.541  32.042  37.058  1.00  0.00     0.049 A 
ATOM     49  C   UNL A   1      41.266  29.176  32.255  1.00  0.00     0.074 A 
ATOM     50  C   UNL A   1      42.569  31.710  37.922  1.00  0.00     0.029 A 
ATOM     51  N   UNL A   1      41.679  31.230  35.942  1.00  0.00    -0.354 N 
ATOM     52  N   UNL A   1      41.454  29.749  33.420  1.00  0.00    -0.248 NA
ATOM     53  C   UNL A   1      42.303  28.200  31.894  1.00  0.00     0.031 C 
ATOM     54  C   UNL A   1      43.362  30.737  37.305  1.00  0.00     0.029 A 
ATOM     55  C   UNL A   1      42.791  30.415  36.084  1.00  0.00     0.049 A 
ATOM     56  H   UNL A   1      41.075  31.232  35.163  1.00  0.00     0.167 HD
ATOM     57  C   UNL A   1      42.607  29.178  33.943  1.00  0.00     0.074 A 
ATOM     58  C   UNL A   1      43.066  28.204  32.977  1.00  0.00     0.031 C 
ATOM     59  C   UNL A   1      43.230  29.439  35.119  1.00  0.00     0.037 A 
BRANCH  46  60
ATOM     60  C   UNL A   1      40.530  33.871  38.476  1.00  0.00     0.064 A 
ATOM     61  C   UNL A   1      41.287  35.050  38.554  1.00  0.00     0.173 A 
ATOM     62  C   UNL A   1      39.750  33.519  39.588  1.00  0.00     0.173 A 
ATOM     63  F   UNL A   1      42.057  35.429  37.523  1.00  0.00    -0.203 F 
ATOM     64  C   UNL A   1      41.285  35.829  39.709  1.00  0.00     0.198 A 
ATOM     65  C   UNL A   1      39.725  34.317  40.729  1.00  0.00     0.198 A 
ATOM     66  F   UNL A   1      39.002  32.406  39.565  1.00  0.00    -0.203 F 
ATOM     67  F   UNL A   1      42.056  36.923  39.778  1.00  0.00    -0.200 F 
ATOM     68  C   UNL A   1      40.499  35.466  40.792  1.00  0.00     0.200 A 
ATOM     69  F   UNL A   1      38.951  33.975  41.768  1.00  0.00    -0.200 F 
ATOM     70  F   UNL A   1      40.490  36.222  41.898  1.00  0.00    -0.200 F 
ENDBRANCH  46  60
BRANCH  47  71
ATOM     71  C   UNL A   1      40.111  28.601  29.996  1.00  0.00     0.064 A 
ATOM     72  C   UNL A   1      39.455  27.363  29.929  1.00  0.00     0.173 A 
ATOM     73  C   UNL A   1      40.748  29.063  28.835  1.00  0.00     0.173 A 
ATOM     74  F   UNL A   1      38.849  26.867  31.018  1.00  0.00    -0.203 F 
ATOM     75  C   UNL A   1      39.462  26.605  28.760  1.00  0.00     0.198 A 
ATOM     76  C   UNL A   1      40.725  28.320  27.656  1.00  0.00     0.198 A 
ATOM     77  F   UNL A   1      41.386  30.242  28.842  1.00  0.00    -0.203 F 
ATOM     78  F   UNL A   1      38.878  25.400  28.741  1.00  0.00    -0.200 F 
ATOM     79  C   UNL A   1      40.094  27.087  27.622  1.00  0.00     0.200 A 
ATOM     80  F   UNL A   1      41.322  28.796  26.555  1.00  0.00    -0.200 F 
ATOM     81  F   UNL A   1      40.101  26.357  26.499  1.00  0.00    -0.200 F 
ENDBRANCH  47  71
BRANCH  59  82
ATOM     82  C   UNL A   1      44.448  28.626  35.452  1.00  0.00     0.064 A 
ATOM     83  C   UNL A   1      44.362  27.413  36.150  1.00  0.00     0.173 A 
ATOM     84  C   UNL A   1      45.718  29.050  35.029  1.00  0.00     0.173 A 
ATOM     85  F   UNL A   1      43.174  26.970  36.590  1.00  0.00    -0.203 F 
ATOM     86  C   UNL A   1      45.503  26.668  36.436  1.00  0.00     0.198 A 
ATOM     87  C   UNL A   1      46.852  28.285  35.285  1.00  0.00     0.198 A 
ATOM     88  F   UNL A   1      45.857  30.200  34.351  1.00  0.00    -0.203 F 
ATOM     89  F   UNL A   1      45.401  25.538  37.150  1.00  0.00    -0.200 F 
ATOM     90  C   UNL A   1      46.746  27.099  35.996  1.00  0.00     0.200 A 
ATOM     91  F   UNL A   1      48.049  28.696  34.844  1.00  0.00    -0.200 F 
ATOM     92  F   UNL A   1      47.841  26.375  36.262  1.00  0.00    -0.200 F 
ENDBRANCH  59  82
ENDBRANCH  33  34
ENDBRANCH  25  28
ENDBRANCH  23  24
ENDBRANCH  22  23
ENDBRANCH  21  22
ENDBRANCH   1  21
TORSDOF 16
ENDMDL
