MODEL 1
REMARK VINA RESULT:     -12.1      0.000      0.000
REMARK SMILES Cc1cc2[nH]ccc2nc1C(=O)NCCCCCCNC(=O)c1ccc(-c2c3nc(c(-c4c(F)c(F)c(F)c(F)c4F)c4ccc([nH]4)c(-c4c(F)c(F)c(F)c(F)c4F)c4nc(c(-c5c(F)c(F)c(F)c(F)c5F)c5ccc2[nH]5)C=C4)C=C3)cc1
REMARK SMILES IDX 17 1 16 2 15 3 14 4 13 5 11 6 12 7 10 9 1 10 2 11 3 12 4 13
REMARK SMILES IDX 9 14 5 15 8 16 6 17 7 19 18 20 19 21 20 22 21 23 22 25 23 26
REMARK SMILES IDX 24 27 85 28 25 29 84 30 26 31 27 32 28 33 78 34 29 35 83 36
REMARK SMILES IDX 77 37 79 38 30 39 82 40 76 41 75 42 31 44 63 45 43 46 62 47
REMARK SMILES IDX 44 48 47 49 61 50 80 51 45 52 46 53 60 55 81 56 48 57 32 58
REMARK SMILES IDX 33 59 41 60 34 61 35 62 39 63 42 64 36 65 37 66 40 67 38 68
REMARK SMILES IDX 64 69 65 70 73 71 66 72 67 73 71 74 74 75 68 76 69 77 72 78
REMARK SMILES IDX 70 79 49 80 50 81 58 82 51 83 52 84 56 85 59 86 53 87 54 88
REMARK SMILES IDX 57 89 55 90
REMARK H PARENT 13 8 5 18 20 24 79 43 47 54
REMARK Flexibility Score: inf
ROOT
ATOM      1  C   UNL A   1      40.431  20.518  26.872  1.00  0.00     0.002 C 
ENDROOT
BRANCH   1   2
ATOM      2  C   UNL A   1      39.873  21.806  26.247  1.00  0.00     0.002 C 
BRANCH   2   3
ATOM      3  C   UNL A   1      38.410  21.831  25.794  1.00  0.00     0.021 C 
BRANCH   3   4
ATOM      4  C   UNL A   1      37.783  23.185  25.503  1.00  0.00     0.116 C 
BRANCH   4   5
ATOM      5  N   UNL A   1      37.056  23.337  24.274  1.00  0.00    -0.351 N 
ATOM      6  C   UNL A   1      35.764  22.949  23.960  1.00  0.00     0.270 C 
ATOM      7  O   UNL A   1      35.339  23.337  22.868  1.00  0.00    -0.268 OA
ATOM      8  H   UNL A   1      37.548  23.782  23.547  1.00  0.00     0.163 HD
BRANCH   6   9
ATOM      9  C   UNL A   1      34.895  22.026  24.815  1.00  0.00     0.131 A 
ATOM     10  C   UNL A   1      33.996  23.741  26.549  1.00  0.00     0.047 C 
ATOM     11  C   UNL A   1      34.174  22.368  25.978  1.00  0.00    -0.018 A 
ATOM     12  C   UNL A   1      33.496  21.352  26.680  1.00  0.00     0.034 A 
ATOM     13  C   UNL A   1      33.440  20.103  26.080  1.00  0.00     0.064 A 
ATOM     14  N   UNL A   1      34.844  20.784  24.253  1.00  0.00    -0.241 NA
ATOM     15  N   UNL A   1      32.791  18.947  26.441  1.00  0.00    -0.360 N 
ATOM     16  C   UNL A   1      34.081  19.863  24.876  1.00  0.00     0.089 A 
ATOM     17  C   UNL A   1      32.951  18.000  25.461  1.00  0.00     0.085 A 
ATOM     18  H   UNL A   1      32.289  18.817  27.277  1.00  0.00     0.166 HD
ATOM     19  C   UNL A   1      33.755  18.543  24.480  1.00  0.00     0.048 A 
ENDBRANCH   6   9
ENDBRANCH   4   5
ENDBRANCH   3   4
ENDBRANCH   2   3
ENDBRANCH   1   2
BRANCH   1  20
ATOM     20  C   UNL A   1      41.376  19.643  26.036  1.00  0.00     0.021 C 
BRANCH  20  21
ATOM     21  C   UNL A   1      42.788  19.514  26.580  1.00  0.00     0.116 C 
BRANCH  21  22
ATOM     22  N   UNL A   1      43.811  19.383  25.544  1.00  0.00    -0.352 N 
ATOM     23  C   UNL A   1      44.356  20.392  24.774  1.00  0.00     0.251 C 
ATOM     24  H   UNL A   1      44.150  18.474  25.376  1.00  0.00     0.163 HD
ATOM     25  O   UNL A   1      44.947  20.153  23.723  1.00  0.00    -0.269 OA
BRANCH  23  26
ATOM     26  C   UNL A   1      44.221  21.778  25.247  1.00  0.00     0.039 A 
ATOM     27  C   UNL A   1      43.210  22.624  24.782  1.00  0.00     0.014 A 
ATOM     28  C   UNL A   1      45.120  22.204  26.221  1.00  0.00     0.014 A 
ATOM     29  C   UNL A   1      43.068  23.879  25.369  1.00  0.00     0.010 A 
ATOM     30  C   UNL A   1      44.874  23.359  26.911  1.00  0.00     0.010 A 
ATOM     31  C   UNL A   1      43.896  24.229  26.447  1.00  0.00    -0.014 A 
BRANCH  31  32
ATOM     32  C   UNL A   1      43.706  25.475  27.173  1.00  0.00     0.031 A 
ATOM     33  C   UNL A   1      44.687  26.548  26.852  1.00  0.00     0.074 A 
ATOM     34  C   UNL A   1      42.598  25.715  27.907  1.00  0.00     0.049 A 
ATOM     35  N   UNL A   1      45.544  27.094  27.648  1.00  0.00    -0.248 NA
ATOM     36  C   UNL A   1      44.808  26.990  25.453  1.00  0.00     0.031 C 
ATOM     37  C   UNL A   1      41.404  24.877  28.079  1.00  0.00     0.029 A 
ATOM     38  N   UNL A   1      42.272  26.836  28.600  1.00  0.00    -0.354 N 
ATOM     39  C   UNL A   1      46.201  28.072  26.904  1.00  0.00     0.074 A 
ATOM     40  C   UNL A   1      45.820  27.858  25.532  1.00  0.00     0.031 C 
ATOM     41  C   UNL A   1      40.409  25.608  28.629  1.00  0.00     0.029 A 
ATOM     42  C   UNL A   1      40.946  26.899  29.009  1.00  0.00     0.049 A 
ATOM     43  H   UNL A   1      42.923  27.547  28.796  1.00  0.00     0.167 HD
ATOM     44  C   UNL A   1      46.837  29.110  27.517  1.00  0.00     0.037 A 
ATOM     45  C   UNL A   1      40.337  27.953  29.605  1.00  0.00     0.037 A 
ATOM     46  C   UNL A   1      47.082  28.817  28.907  1.00  0.00     0.049 A 
ATOM     47  C   UNL A   1      41.411  28.798  30.188  1.00  0.00     0.074 A 
ATOM     48  C   UNL A   1      47.797  27.839  29.571  1.00  0.00     0.029 A 
ATOM     49  N   UNL A   1      46.227  29.345  29.845  1.00  0.00    -0.354 N 
ATOM     50  N   UNL A   1      42.169  28.411  31.179  1.00  0.00    -0.248 NA
ATOM     51  C   UNL A   1      41.964  29.851  29.349  1.00  0.00     0.031 C 
ATOM     52  C   UNL A   1      46.981  27.484  30.687  1.00  0.00     0.029 A 
ATOM     53  C   UNL A   1      45.864  28.320  30.680  1.00  0.00     0.049 A 
ATOM     54  H   UNL A   1      45.931  30.283  29.905  1.00  0.00     0.167 HD
ATOM     55  C   UNL A   1      43.440  28.853  30.845  1.00  0.00     0.074 A 
ATOM     56  C   UNL A   1      43.240  29.792  29.742  1.00  0.00     0.031 C 
ATOM     57  C   UNL A   1      44.558  28.204  31.287  1.00  0.00     0.037 A 
BRANCH  44  58
ATOM     58  C   UNL A   1      46.925  30.511  26.963  1.00  0.00     0.064 A 
ATOM     59  C   UNL A   1      48.163  31.186  26.995  1.00  0.00     0.173 A 
ATOM     60  C   UNL A   1      45.803  31.320  26.682  1.00  0.00     0.173 A 
ATOM     61  F   UNL A   1      49.298  30.524  27.265  1.00  0.00    -0.203 F 
ATOM     62  C   UNL A   1      48.255  32.574  26.843  1.00  0.00     0.198 A 
ATOM     63  C   UNL A   1      45.904  32.695  26.479  1.00  0.00     0.198 A 
ATOM     64  F   UNL A   1      44.555  30.841  26.704  1.00  0.00    -0.203 F 
ATOM     65  F   UNL A   1      49.435  33.185  27.010  1.00  0.00    -0.200 F 
ATOM     66  C   UNL A   1      47.123  33.327  26.592  1.00  0.00     0.200 A 
ATOM     67  F   UNL A   1      44.792  33.410  26.253  1.00  0.00    -0.200 F 
ATOM     68  F   UNL A   1      47.198  34.661  26.510  1.00  0.00    -0.200 F 
ENDBRANCH  44  58
BRANCH  45  69
ATOM     69  C   UNL A   1      38.943  28.421  29.423  1.00  0.00     0.064 A 
ATOM     70  C   UNL A   1      38.094  28.635  30.521  1.00  0.00     0.173 A 
ATOM     71  C   UNL A   1      38.503  28.930  28.185  1.00  0.00     0.173 A 
ATOM     72  F   UNL A   1      38.461  28.227  31.745  1.00  0.00    -0.203 F 
ATOM     73  C   UNL A   1      36.886  29.332  30.391  1.00  0.00     0.198 A 
ATOM     74  C   UNL A   1      37.299  29.622  28.055  1.00  0.00     0.198 A 
ATOM     75  F   UNL A   1      39.281  28.850  27.095  1.00  0.00    -0.203 F 
ATOM     76  F   UNL A   1      36.129  29.566  31.471  1.00  0.00    -0.200 F 
ATOM     77  C   UNL A   1      36.495  29.833  29.160  1.00  0.00     0.200 A 
ATOM     78  F   UNL A   1      36.952  30.138  26.866  1.00  0.00    -0.200 F 
ATOM     79  F   UNL A   1      35.370  30.553  29.046  1.00  0.00    -0.200 F 
ENDBRANCH  45  69
BRANCH  57  80
ATOM     80  C   UNL A   1      44.389  27.109  32.308  1.00  0.00     0.064 A 
ATOM     81  C   UNL A   1      44.290  25.744  31.984  1.00  0.00     0.173 A 
ATOM     82  C   UNL A   1      44.523  27.436  33.663  1.00  0.00     0.173 A 
ATOM     83  F   UNL A   1      44.255  25.338  30.712  1.00  0.00    -0.203 F 
ATOM     84  C   UNL A   1      44.302  24.758  32.970  1.00  0.00     0.198 A 
ATOM     85  C   UNL A   1      44.568  26.448  34.645  1.00  0.00     0.198 A 
ATOM     86  F   UNL A   1      44.676  28.717  34.031  1.00  0.00    -0.203 F 
ATOM     87  F   UNL A   1      44.212  23.464  32.629  1.00  0.00    -0.200 F 
ATOM     88  C   UNL A   1      44.451  25.111  34.300  1.00  0.00     0.200 A 
ATOM     89  F   UNL A   1      44.764  26.792  35.924  1.00  0.00    -0.200 F 
ATOM     90  F   UNL A   1      44.515  24.163  35.245  1.00  0.00    -0.200 F 
ENDBRANCH  57  80
ENDBRANCH  31  32
ENDBRANCH  23  26
ENDBRANCH  21  22
ENDBRANCH  20  21
ENDBRANCH   1  20
TORSDOF 13
ENDMDL
MODEL 2
REMARK VINA RESULT:     -11.9      2.789      3.943
REMARK SMILES Cc1cc2[nH]ccc2nc1C(=O)NCCCCCCNC(=O)c1ccc(-c2c3nc(c(-c4c(F)c(F)c(F)c(F)c4F)c4ccc([nH]4)c(-c4c(F)c(F)c(F)c(F)c4F)c4nc(c(-c5c(F)c(F)c(F)c(F)c5F)c5ccc2[nH]5)C=C4)C=C3)cc1
REMARK SMILES IDX 17 1 16 2 15 3 14 4 13 5 11 6 12 7 10 9 1 10 2 11 3 12 4 13
REMARK SMILES IDX 9 14 5 15 8 16 6 17 7 19 18 20 19 21 20 22 21 23 22 25 23 26
REMARK SMILES IDX 24 27 85 28 25 29 84 30 26 31 27 32 28 33 78 34 29 35 83 36
REMARK SMILES IDX 77 37 79 38 30 39 82 40 76 41 75 42 31 44 63 45 43 46 62 47
REMARK SMILES IDX 44 48 47 49 61 50 80 51 45 52 46 53 60 55 81 56 48 57 32 58
REMARK SMILES IDX 33 59 41 60 34 61 35 62 39 63 42 64 36 65 37 66 40 67 38 68
REMARK SMILES IDX 64 69 65 70 73 71 66 72 67 73 71 74 74 75 68 76 69 77 72 78
REMARK SMILES IDX 70 79 49 80 50 81 58 82 51 83 52 84 56 85 59 86 53 87 54 88
REMARK SMILES IDX 57 89 55 90
REMARK H PARENT 13 8 5 18 20 24 79 43 47 54
REMARK Flexibility Score: inf
ROOT
ATOM      1  C   UNL A   1      37.788  23.653  25.945  1.00  0.00     0.002 C 
ENDROOT
BRANCH   1   2
ATOM      2  C   UNL A   1      36.284  23.642  25.627  1.00  0.00     0.002 C 
BRANCH   2   3
ATOM      3  C   UNL A   1      35.549  22.300  25.586  1.00  0.00     0.021 C 
BRANCH   3   4
ATOM      4  C   UNL A   1      34.523  22.022  26.673  1.00  0.00     0.116 C 
BRANCH   4   5
ATOM      5  N   UNL A   1      33.171  22.450  26.443  1.00  0.00    -0.351 N 
ATOM      6  C   UNL A   1      32.140  21.800  25.786  1.00  0.00     0.270 C 
ATOM      7  O   UNL A   1      31.032  22.340  25.864  1.00  0.00    -0.268 OA
ATOM      8  H   UNL A   1      32.945  23.337  26.806  1.00  0.00     0.163 HD
BRANCH   6   9
ATOM      9  C   UNL A   1      32.302  20.546  24.927  1.00  0.00     0.131 A 
ATOM     10  C   UNL A   1      32.303  21.624  22.562  1.00  0.00     0.047 C 
ATOM     11  C   UNL A   1      32.312  20.471  23.519  1.00  0.00    -0.018 A 
ATOM     12  C   UNL A   1      32.387  19.205  22.906  1.00  0.00     0.034 A 
ATOM     13  C   UNL A   1      32.622  18.119  23.736  1.00  0.00     0.064 A 
ATOM     14  N   UNL A   1      32.512  19.460  25.726  1.00  0.00    -0.241 NA
ATOM     15  N   UNL A   1      32.842  16.791  23.458  1.00  0.00    -0.360 N 
ATOM     16  C   UNL A   1      32.711  18.278  25.108  1.00  0.00     0.089 A 
ATOM     17  C   UNL A   1      33.135  16.117  24.617  1.00  0.00     0.085 A 
ATOM     18  H   UNL A   1      32.796  16.385  22.563  1.00  0.00     0.166 HD
ATOM     19  C   UNL A   1      33.053  17.018  25.658  1.00  0.00     0.048 A 
ENDBRANCH   6   9
ENDBRANCH   4   5
ENDBRANCH   3   4
ENDBRANCH   2   3
ENDBRANCH   1   2
BRANCH   1  20
ATOM     20  C   UNL A   1      38.565  22.332  25.876  1.00  0.00     0.021 C 
BRANCH  20  21
ATOM     21  C   UNL A   1      39.742  22.223  26.829  1.00  0.00     0.116 C 
BRANCH  21  22
ATOM     22  N   UNL A   1      41.045  22.254  26.167  1.00  0.00    -0.352 N 
ATOM     23  C   UNL A   1      41.852  23.355  25.961  1.00  0.00     0.251 C 
ATOM     24  H   UNL A   1      41.384  21.394  25.829  1.00  0.00     0.163 HD
ATOM     25  O   UNL A   1      42.749  23.349  25.119  1.00  0.00    -0.269 OA
BRANCH  23  26
ATOM     26  C   UNL A   1      41.622  24.551  26.786  1.00  0.00     0.039 A 
ATOM     27  C   UNL A   1      42.185  24.693  28.058  1.00  0.00     0.014 A 
ATOM     28  C   UNL A   1      40.853  25.567  26.225  1.00  0.00     0.014 A 
ATOM     29  C   UNL A   1      42.027  25.904  28.725  1.00  0.00     0.010 A 
ATOM     30  C   UNL A   1      40.846  26.807  26.802  1.00  0.00     0.010 A 
ATOM     31  C   UNL A   1      41.371  26.962  28.078  1.00  0.00    -0.014 A 
BRANCH  31  32
ATOM     32  C   UNL A   1      41.289  28.284  28.681  1.00  0.00     0.031 A 
ATOM     33  C   UNL A   1      42.370  29.227  28.284  1.00  0.00     0.074 A 
ATOM     34  C   UNL A   1      40.198  28.692  29.365  1.00  0.00     0.049 A 
ATOM     35  N   UNL A   1      43.263  29.765  29.045  1.00  0.00    -0.248 NA
ATOM     36  C   UNL A   1      42.551  29.522  26.854  1.00  0.00     0.031 C 
ATOM     37  C   UNL A   1      38.928  27.988  29.586  1.00  0.00     0.029 A 
ATOM     38  N   UNL A   1      39.968  29.900  29.943  1.00  0.00    -0.354 N 
ATOM     39  C   UNL A   1      44.018  30.604  28.229  1.00  0.00     0.074 A 
ATOM     40  C   UNL A   1      43.638  30.297  26.874  1.00  0.00     0.031 C 
ATOM     41  C   UNL A   1      37.999  28.856  30.044  1.00  0.00     0.029 A 
ATOM     42  C   UNL A   1      38.649  30.122  30.314  1.00  0.00     0.049 A 
ATOM     43  H   UNL A   1      40.680  30.564  30.086  1.00  0.00     0.167 HD
ATOM     44  C   UNL A   1      44.740  31.633  28.756  1.00  0.00     0.037 A 
ATOM     45  C   UNL A   1      38.132  31.279  30.796  1.00  0.00     0.037 A 
ATOM     46  C   UNL A   1      44.937  31.452  30.174  1.00  0.00     0.049 A 
ATOM     47  C   UNL A   1      39.272  32.074  31.322  1.00  0.00     0.074 A 
ATOM     48  C   UNL A   1      45.549  30.479  30.941  1.00  0.00     0.029 A 
ATOM     49  N   UNL A   1      44.122  32.142  31.039  1.00  0.00    -0.354 N 
ATOM     50  N   UNL A   1      39.977  31.714  32.362  1.00  0.00    -0.248 NA
ATOM     51  C   UNL A   1      39.932  32.988  30.402  1.00  0.00     0.031 C 
ATOM     52  C   UNL A   1      44.688  30.308  32.067  1.00  0.00     0.029 A 
ATOM     53  C   UNL A   1      43.653  31.238  31.957  1.00  0.00     0.049 A 
ATOM     54  H   UNL A   1      43.915  33.105  31.004  1.00  0.00     0.167 HD
ATOM     55  C   UNL A   1      41.288  32.004  32.017  1.00  0.00     0.074 A 
ATOM     56  C   UNL A   1      41.192  32.849  30.826  1.00  0.00     0.031 C 
ATOM     57  C   UNL A   1      42.334  31.300  32.542  1.00  0.00     0.037 A 
BRANCH  44  58
ATOM     58  C   UNL A   1      44.967  32.961  28.077  1.00  0.00     0.064 A 
ATOM     59  C   UNL A   1      46.280  33.341  27.730  1.00  0.00     0.173 A 
ATOM     60  C   UNL A   1      44.006  33.993  28.025  1.00  0.00     0.173 A 
ATOM     61  F   UNL A   1      47.281  32.447  27.756  1.00  0.00    -0.203 F 
ATOM     62  C   UNL A   1      46.615  34.666  27.437  1.00  0.00     0.198 A 
ATOM     63  C   UNL A   1      44.334  35.304  27.681  1.00  0.00     0.198 A 
ATOM     64  F   UNL A   1      42.738  33.809  28.409  1.00  0.00    -0.203 F 
ATOM     65  F   UNL A   1      47.898  35.000  27.240  1.00  0.00    -0.200 F 
ATOM     66  C   UNL A   1      45.642  35.648  27.421  1.00  0.00     0.200 A 
ATOM     67  F   UNL A   1      43.378  36.244  27.687  1.00  0.00    -0.200 F 
ATOM     68  F   UNL A   1      45.969  36.928  27.204  1.00  0.00    -0.200 F 
ENDBRANCH  44  58
BRANCH  45  69
ATOM     69  C   UNL A   1      36.791  31.854  30.540  1.00  0.00     0.064 A 
ATOM     70  C   UNL A   1      35.900  32.128  31.589  1.00  0.00     0.173 A 
ATOM     71  C   UNL A   1      36.462  32.400  29.283  1.00  0.00     0.173 A 
ATOM     72  F   UNL A   1      36.164  31.688  32.829  1.00  0.00    -0.203 F 
ATOM     73  C   UNL A   1      34.758  32.917  31.397  1.00  0.00     0.198 A 
ATOM     74  C   UNL A   1      35.323  33.183  29.091  1.00  0.00     0.198 A 
ATOM     75  F   UNL A   1      37.291  32.264  28.238  1.00  0.00    -0.203 F 
ATOM     76  F   UNL A   1      33.961  33.205  32.435  1.00  0.00    -0.200 F 
ATOM     77  C   UNL A   1      34.477  33.451  30.151  1.00  0.00     0.200 A 
ATOM     78  F   UNL A   1      35.085  33.729  27.889  1.00  0.00    -0.200 F 
ATOM     79  F   UNL A   1      33.418  34.256  29.979  1.00  0.00    -0.200 F 
ENDBRANCH  45  69
BRANCH  57  80
ATOM     80  C   UNL A   1      42.049  30.327  33.656  1.00  0.00     0.064 A 
ATOM     81  C   UNL A   1      41.727  28.973  33.451  1.00  0.00     0.173 A 
ATOM     82  C   UNL A   1      42.298  30.731  34.973  1.00  0.00     0.173 A 
ATOM     83  F   UNL A   1      41.568  28.482  32.219  1.00  0.00    -0.203 F 
ATOM     84  C   UNL A   1      41.636  28.076  34.515  1.00  0.00     0.198 A 
ATOM     85  C   UNL A   1      42.239  29.827  36.032  1.00  0.00     0.198 A 
ATOM     86  F   UNL A   1      42.663  31.997  35.228  1.00  0.00    -0.203 F 
ATOM     87  F   UNL A   1      41.332  26.790  34.287  1.00  0.00    -0.200 F 
ATOM     88  C   UNL A   1      41.902  28.503  35.804  1.00  0.00     0.200 A 
ATOM     89  F   UNL A   1      42.547  30.233  37.271  1.00  0.00    -0.200 F 
ATOM     90  F   UNL A   1      41.866  27.632  36.822  1.00  0.00    -0.200 F 
ENDBRANCH  57  80
ENDBRANCH  31  32
ENDBRANCH  23  26
ENDBRANCH  21  22
ENDBRANCH  20  21
ENDBRANCH   1  20
TORSDOF 13
ENDMDL
MODEL 3
REMARK VINA RESULT:     -11.7      4.113      9.167
REMARK SMILES Cc1cc2[nH]ccc2nc1C(=O)NCCCCCCNC(=O)c1ccc(-c2c3nc(c(-c4c(F)c(F)c(F)c(F)c4F)c4ccc([nH]4)c(-c4c(F)c(F)c(F)c(F)c4F)c4nc(c(-c5c(F)c(F)c(F)c(F)c5F)c5ccc2[nH]5)C=C4)C=C3)cc1
REMARK SMILES IDX 17 1 16 2 15 3 14 4 13 5 11 6 12 7 10 9 1 10 2 11 3 12 4 13
REMARK SMILES IDX 9 14 5 15 8 16 6 17 7 19 18 20 19 21 20 22 21 23 22 25 23 26
REMARK SMILES IDX 24 27 85 28 25 29 84 30 26 31 27 32 28 33 78 34 29 35 83 36
REMARK SMILES IDX 77 37 79 38 30 39 82 40 76 41 75 42 31 44 63 45 43 46 62 47
REMARK SMILES IDX 44 48 47 49 61 50 80 51 45 52 46 53 60 55 81 56 48 57 32 58
REMARK SMILES IDX 33 59 41 60 34 61 35 62 39 63 42 64 36 65 37 66 40 67 38 68
REMARK SMILES IDX 64 69 65 70 73 71 66 72 67 73 71 74 74 75 68 76 69 77 72 78
REMARK SMILES IDX 70 79 49 80 50 81 58 82 51 83 52 84 56 85 59 86 53 87 54 88
REMARK SMILES IDX 57 89 55 90
REMARK H PARENT 13 8 5 18 20 24 79 43 47 54
REMARK Flexibility Score: inf
ROOT
ATOM      1  C   UNL A   1      32.377  28.693  27.426  1.00  0.00     0.002 C 
ENDROOT
BRANCH   1   2
ATOM      2  C   UNL A   1      32.210  27.621  26.338  1.00  0.00     0.002 C 
BRANCH   2   3
ATOM      3  C   UNL A   1      33.444  27.172  25.550  1.00  0.00     0.021 C 
BRANCH   3   4
ATOM      4  C   UNL A   1      33.646  27.754  24.160  1.00  0.00     0.116 C 
BRANCH   4   5
ATOM      5  N   UNL A   1      33.456  26.883  23.035  1.00  0.00    -0.351 N 
ATOM      6  C   UNL A   1      32.316  26.646  22.285  1.00  0.00     0.270 C 
ATOM      7  O   UNL A   1      32.475  25.953  21.275  1.00  0.00    -0.268 OA
ATOM      8  H   UNL A   1      34.255  26.379  22.755  1.00  0.00     0.163 HD
BRANCH   6   9
ATOM      9  C   UNL A   1      30.907  27.099  22.667  1.00  0.00     0.131 A 
ATOM     10  C   UNL A   1      30.280  25.228  24.358  1.00  0.00     0.047 C 
ATOM     11  C   UNL A   1      30.003  26.443  23.526  1.00  0.00    -0.018 A 
ATOM     12  C   UNL A   1      28.709  26.978  23.688  1.00  0.00     0.034 A 
ATOM     13  C   UNL A   1      28.467  28.220  23.120  1.00  0.00     0.064 A 
ATOM     14  N   UNL A   1      30.640  28.311  22.100  1.00  0.00    -0.241 NA
ATOM     15  N   UNL A   1      27.371  29.047  23.171  1.00  0.00    -0.360 N 
ATOM     16  C   UNL A   1      29.441  28.864  22.376  1.00  0.00     0.089 A 
ATOM     17  C   UNL A   1      27.653  30.229  22.533  1.00  0.00     0.085 A 
ATOM     18  H   UNL A   1      26.514  28.826  23.600  1.00  0.00     0.166 HD
ATOM     19  C   UNL A   1      28.931  30.137  22.024  1.00  0.00     0.048 A 
ENDBRANCH   6   9
ENDBRANCH   4   5
ENDBRANCH   3   4
ENDBRANCH   2   3
ENDBRANCH   1   2
BRANCH   1  20
ATOM     20  C   UNL A   1      32.770  30.115  27.004  1.00  0.00     0.021 C 
BRANCH  20  21
ATOM     21  C   UNL A   1      34.155  30.559  27.441  1.00  0.00     0.116 C 
BRANCH  21  22
ATOM     22  N   UNL A   1      34.146  31.591  28.477  1.00  0.00    -0.352 N 
ATOM     23  C   UNL A   1      35.047  31.743  29.513  1.00  0.00     0.251 C 
ATOM     24  H   UNL A   1      33.417  32.250  28.432  1.00  0.00     0.163 HD
ATOM     25  O   UNL A   1      34.778  32.414  30.507  1.00  0.00    -0.269 OA
BRANCH  23  26
ATOM     26  C   UNL A   1      36.356  31.083  29.399  1.00  0.00     0.039 A 
ATOM     27  C   UNL A   1      37.539  31.809  29.233  1.00  0.00     0.014 A 
ATOM     28  C   UNL A   1      36.377  29.696  29.511  1.00  0.00     0.014 A 
ATOM     29  C   UNL A   1      38.751  31.125  29.261  1.00  0.00     0.010 A 
ATOM     30  C   UNL A   1      37.566  29.051  29.711  1.00  0.00     0.010 A 
ATOM     31  C   UNL A   1      38.754  29.746  29.520  1.00  0.00    -0.014 A 
BRANCH  31  32
ATOM     32  C   UNL A   1      39.997  29.008  29.682  1.00  0.00     0.031 A 
ATOM     33  C   UNL A   1      40.470  28.870  31.087  1.00  0.00     0.074 A 
ATOM     34  C   UNL A   1      40.554  28.312  28.668  1.00  0.00     0.049 A 
ATOM     35  N   UNL A   1      41.560  29.334  31.599  1.00  0.00    -0.248 NA
ATOM     36  C   UNL A   1      39.574  28.237  32.068  1.00  0.00     0.031 C 
ATOM     37  C   UNL A   1      40.051  28.103  27.304  1.00  0.00     0.029 A 
ATOM     38  N   UNL A   1      41.680  27.553  28.684  1.00  0.00    -0.354 N 
ATOM     39  C   UNL A   1      41.581  28.910  32.925  1.00  0.00     0.074 A 
ATOM     40  C   UNL A   1      40.272  28.378  33.198  1.00  0.00     0.031 C 
ATOM     41  C   UNL A   1      40.740  27.103  26.711  1.00  0.00     0.029 A 
ATOM     42  C   UNL A   1      41.839  26.728  27.579  1.00  0.00     0.049 A 
ATOM     43  H   UNL A   1      42.331  27.585  29.421  1.00  0.00     0.167 HD
ATOM     44  C   UNL A   1      42.751  28.841  33.622  1.00  0.00     0.037 A 
ATOM     45  C   UNL A   1      42.803  25.791  27.405  1.00  0.00     0.037 A 
ATOM     46  C   UNL A   1      43.780  29.622  32.981  1.00  0.00     0.049 A 
ATOM     47  C   UNL A   1      43.914  26.141  28.327  1.00  0.00     0.074 A 
ATOM     48  C   UNL A   1      43.914  30.962  32.668  1.00  0.00     0.029 A 
ATOM     49  N   UNL A   1      44.702  28.970  32.199  1.00  0.00    -0.354 N 
ATOM     50  N   UNL A   1      44.645  27.216  28.193  1.00  0.00    -0.248 NA
ATOM     51  C   UNL A   1      43.881  25.567  29.664  1.00  0.00     0.031 C 
ATOM     52  C   UNL A   1      44.512  30.975  31.372  1.00  0.00     0.029 A 
ATOM     53  C   UNL A   1      44.778  29.654  31.012  1.00  0.00     0.049 A 
ATOM     54  H   UNL A   1      45.212  28.163  32.444  1.00  0.00     0.167 HD
ATOM     55  C   UNL A   1      44.813  27.691  29.485  1.00  0.00     0.074 A 
ATOM     56  C   UNL A   1      44.378  26.598  30.354  1.00  0.00     0.031 C 
ATOM     57  C   UNL A   1      45.006  29.020  29.734  1.00  0.00     0.037 A 
BRANCH  44  58
ATOM     58  C   UNL A   1      43.066  27.804  34.672  1.00  0.00     0.064 A 
ATOM     59  C   UNL A   1      43.438  28.227  35.966  1.00  0.00     0.173 A 
ATOM     60  C   UNL A   1      43.309  26.443  34.388  1.00  0.00     0.173 A 
ATOM     61  F   UNL A   1      43.267  29.502  36.345  1.00  0.00    -0.203 F 
ATOM     62  C   UNL A   1      44.079  27.373  36.869  1.00  0.00     0.198 A 
ATOM     63  C   UNL A   1      43.901  25.581  35.310  1.00  0.00     0.198 A 
ATOM     64  F   UNL A   1      43.092  25.916  33.178  1.00  0.00    -0.203 F 
ATOM     65  F   UNL A   1      44.528  27.854  38.035  1.00  0.00    -0.200 F 
ATOM     66  C   UNL A   1      44.316  26.052  36.536  1.00  0.00     0.200 A 
ATOM     67  F   UNL A   1      44.137  24.308  34.961  1.00  0.00    -0.200 F 
ATOM     68  F   UNL A   1      44.986  25.249  37.372  1.00  0.00    -0.200 F 
ENDBRANCH  44  58
BRANCH  45  69
ATOM     69  C   UNL A   1      42.682  24.472  26.743  1.00  0.00     0.064 A 
ATOM     70  C   UNL A   1      43.344  24.196  25.536  1.00  0.00     0.173 A 
ATOM     71  C   UNL A   1      42.134  23.365  27.421  1.00  0.00     0.173 A 
ATOM     72  F   UNL A   1      43.938  25.185  24.852  1.00  0.00    -0.203 F 
ATOM     73  C   UNL A   1      43.466  22.889  25.047  1.00  0.00     0.198 A 
ATOM     74  C   UNL A   1      42.253  22.063  26.933  1.00  0.00     0.198 A 
ATOM     75  F   UNL A   1      41.555  23.514  28.622  1.00  0.00    -0.203 F 
ATOM     76  F   UNL A   1      44.155  22.657  23.921  1.00  0.00    -0.200 F 
ATOM     77  C   UNL A   1      42.929  21.824  25.751  1.00  0.00     0.200 A 
ATOM     78  F   UNL A   1      41.764  21.038  27.646  1.00  0.00    -0.200 F 
ATOM     79  F   UNL A   1      43.098  20.567  25.316  1.00  0.00    -0.200 F 
ENDBRANCH  45  69
BRANCH  57  80
ATOM     80  C   UNL A   1      45.229  29.939  28.561  1.00  0.00     0.064 A 
ATOM     81  C   UNL A   1      44.196  30.611  27.885  1.00  0.00     0.173 A 
ATOM     82  C   UNL A   1      46.543  30.298  28.238  1.00  0.00     0.173 A 
ATOM     83  F   UNL A   1      42.915  30.400  28.199  1.00  0.00    -0.203 F 
ATOM     84  C   UNL A   1      44.466  31.577  26.915  1.00  0.00     0.198 A 
ATOM     85  C   UNL A   1      46.813  31.287  27.293  1.00  0.00     0.198 A 
ATOM     86  F   UNL A   1      47.573  29.732  28.888  1.00  0.00    -0.203 F 
ATOM     87  F   UNL A   1      43.459  32.205  26.291  1.00  0.00    -0.200 F 
ATOM     88  C   UNL A   1      45.775  31.921  26.628  1.00  0.00     0.200 A 
ATOM     89  F   UNL A   1      48.079  31.651  27.055  1.00  0.00    -0.200 F 
ATOM     90  F   UNL A   1      46.037  32.885  25.735  1.00  0.00    -0.200 F 
ENDBRANCH  57  80
ENDBRANCH  31  32
ENDBRANCH  23  26
ENDBRANCH  21  22
ENDBRANCH  20  21
ENDBRANCH   1  20
TORSDOF 13
ENDMDL
