MODEL 1
REMARK VINA RESULT:     -10.6      0.000      0.000
REMARK SMILES N#C[C@@H]1CN(C(=O)NCCCC(=O)NCCCCCCNC(=O)c2ccc(-c3c4nc(c(-c5c(F)c(F)c(F)c(F)c5F)c5ccc([nH]5)c(-c5c(F)c(F)c(F)c(F)c5F)c5nc(c(-c6c(F)c(F)c(F)c(F)c6F)c6ccc3[nH]6)C=C5)C=C4)cc2)CCO1
REMARK SMILES IDX 16 1 15 2 14 3 12 4 13 5 11 7 10 8 9 9 8 10 6 11 7 12 5 14
REMARK SMILES IDX 3 15 4 16 89 17 88 18 87 19 2 20 1 21 17 22 18 23 19 24
REMARK SMILES IDX 20 25 21 26 22 27 23 29 24 30 25 31 86 32 26 33 85 34 27 35
REMARK SMILES IDX 28 36 29 37 79 38 30 39 84 40 78 41 80 42 31 43 83 44 77 45
REMARK SMILES IDX 76 46 32 48 64 49 44 50 63 51 45 52 48 53 62 54 81 55 46 56
REMARK SMILES IDX 47 57 61 59 82 60 49 61 33 62 34 63 42 64 35 65 36 66 40 67
REMARK SMILES IDX 43 68 37 69 38 70 41 71 39 72 65 73 66 74 74 75 67 76 68 77
REMARK SMILES IDX 72 78 75 79 69 80 70 81 73 82 71 83 50 84 51 85 59 86 52 87
REMARK SMILES IDX 53 88 57 89 60 90 54 91 55 92 58 93 56 94
REMARK H PARENT 14 6 8 13 21 28 80 47 48 58
REMARK Flexibility Score: inf
ROOT
ATOM      1  C   UNL A   1      35.327  22.857  25.618  1.00  0.00     0.021 C 
ENDROOT
BRANCH   1   2
ATOM      2  C   UNL A   1      34.404  22.755  26.833  1.00  0.00     0.116 C 
BRANCH   2   3
ATOM      3  N   UNL A   1      33.087  22.277  26.448  1.00  0.00    -0.356 N 
ATOM      4  C   UNL A   1      31.947  22.961  26.158  1.00  0.00     0.220 C 
ATOM      5  O   UNL A   1      30.912  22.321  25.966  1.00  0.00    -0.275 OA
ATOM      6  H   UNL A   1      33.006  21.297  26.387  1.00  0.00     0.163 HD
BRANCH   4   7
ATOM      7  C   UNL A   1      31.945  24.473  26.085  1.00  0.00     0.102 C 
BRANCH   7   8
ATOM      8  C   UNL A   1      31.322  24.997  24.789  1.00  0.00     0.031 C 
BRANCH   8   9
ATOM      9  C   UNL A   1      30.072  25.850  24.988  1.00  0.00     0.118 C 
BRANCH   9  10
ATOM     10  N   UNL A   1      29.732  26.635  23.816  1.00  0.00    -0.338 N 
ATOM     11  C   UNL A   1      30.137  27.818  23.317  1.00  0.00     0.317 C 
ATOM     12  O   UNL A   1      29.492  28.234  22.352  1.00  0.00    -0.249 OA
ATOM     13  H   UNL A   1      29.047  26.203  23.257  1.00  0.00     0.165 HD
BRANCH  11  14
ATOM     14  N   UNL A   1      31.173  28.526  23.850  1.00  0.00    -0.319 N 
ATOM     15  C   UNL A   1      32.105  29.618  25.885  1.00  0.00     0.240 C 
ATOM     16  C   UNL A   1      31.122  29.708  24.713  1.00  0.00     0.169 C 
ATOM     17  O   UNL A   1      33.441  29.338  25.415  1.00  0.00    -0.360 OA
ATOM     18  C   UNL A   1      33.498  28.111  24.666  1.00  0.00     0.183 C 
ATOM     19  C   UNL A   1      32.541  28.131  23.471  1.00  0.00     0.150 C 
BRANCH  15  20
ATOM     20  C   UNL A   1      31.653  28.583  26.903  1.00  0.00     0.096 C 
ATOM     21  N   UNL A   1      31.278  27.725  27.747  1.00  0.00    -0.195 NA
ENDBRANCH  15  20
ENDBRANCH  11  14
ENDBRANCH   9  10
ENDBRANCH   8   9
ENDBRANCH   7   8
ENDBRANCH   4   7
ENDBRANCH   2   3
ENDBRANCH   1   2
BRANCH   1  22
ATOM     22  C   UNL A   1      35.738  21.510  25.004  1.00  0.00     0.002 C 
BRANCH  22  23
ATOM     23  C   UNL A   1      37.196  21.414  24.524  1.00  0.00     0.002 C 
BRANCH  23  24
ATOM     24  C   UNL A   1      37.942  20.126  24.890  1.00  0.00     0.021 C 
BRANCH  24  25
ATOM     25  C   UNL A   1      39.103  20.295  25.869  1.00  0.00     0.116 C 
BRANCH  25  26
ATOM     26  N   UNL A   1      40.113  19.259  25.792  1.00  0.00    -0.352 N 
ATOM     27  C   UNL A   1      41.449  19.311  26.122  1.00  0.00     0.251 C 
ATOM     28  H   UNL A   1      39.798  18.390  25.453  1.00  0.00     0.163 HD
ATOM     29  O   UNL A   1      42.132  18.299  26.051  1.00  0.00    -0.269 OA
BRANCH  27  30
ATOM     30  C   UNL A   1      42.096  20.598  26.486  1.00  0.00     0.039 A 
ATOM     31  C   UNL A   1      42.590  21.381  25.438  1.00  0.00     0.014 A 
ATOM     32  C   UNL A   1      42.225  21.047  27.804  1.00  0.00     0.014 A 
ATOM     33  C   UNL A   1      43.127  22.644  25.696  1.00  0.00     0.010 A 
ATOM     34  C   UNL A   1      42.720  22.333  28.060  1.00  0.00     0.010 A 
ATOM     35  C   UNL A   1      43.154  23.150  27.004  1.00  0.00    -0.014 A 
BRANCH  35  36
ATOM     36  C   UNL A   1      43.567  24.559  27.247  1.00  0.00     0.031 A 
ATOM     37  C   UNL A   1      42.597  25.574  27.775  1.00  0.00     0.074 A 
ATOM     38  C   UNL A   1      44.833  24.927  26.973  1.00  0.00     0.049 A 
ATOM     39  N   UNL A   1      42.802  26.833  28.075  1.00  0.00    -0.248 NA
ATOM     40  C   UNL A   1      41.216  25.121  27.984  1.00  0.00     0.031 C 
ATOM     41  C   UNL A   1      45.865  24.043  26.431  1.00  0.00     0.029 A 
ATOM     42  N   UNL A   1      45.470  26.135  27.117  1.00  0.00    -0.354 N 
ATOM     43  C   UNL A   1      41.579  27.323  28.511  1.00  0.00     0.074 A 
ATOM     44  C   UNL A   1      40.627  26.237  28.394  1.00  0.00     0.031 C 
ATOM     45  C   UNL A   1      47.014  24.728  26.316  1.00  0.00     0.029 A 
ATOM     46  C   UNL A   1      46.792  26.107  26.744  1.00  0.00     0.049 A 
ATOM     47  H   UNL A   1      45.023  26.944  27.454  1.00  0.00     0.167 HD
ATOM     48  C   UNL A   1      41.283  28.559  28.983  1.00  0.00     0.037 A 
ATOM     49  C   UNL A   1      47.722  27.080  26.744  1.00  0.00     0.037 A 
ATOM     50  C   UNL A   1      42.232  29.637  29.107  1.00  0.00     0.049 A 
ATOM     51  C   UNL A   1      47.352  28.459  27.214  1.00  0.00     0.074 A 
ATOM     52  C   UNL A   1      42.044  30.894  29.655  1.00  0.00     0.029 A 
ATOM     53  N   UNL A   1      43.544  29.589  28.659  1.00  0.00    -0.354 N 
ATOM     54  N   UNL A   1      46.215  28.887  27.701  1.00  0.00    -0.248 NA
ATOM     55  C   UNL A   1      48.395  29.492  27.124  1.00  0.00     0.031 C 
ATOM     56  C   UNL A   1      43.225  31.627  29.486  1.00  0.00     0.029 A 
ATOM     57  C   UNL A   1      44.163  30.813  28.873  1.00  0.00     0.049 A 
ATOM     58  H   UNL A   1      43.974  28.804  28.250  1.00  0.00     0.167 HD
ATOM     59  C   UNL A   1      46.403  30.232  27.987  1.00  0.00     0.074 A 
ATOM     60  C   UNL A   1      47.773  30.546  27.634  1.00  0.00     0.031 C 
ATOM     61  C   UNL A   1      45.519  31.124  28.495  1.00  0.00     0.037 A 
BRANCH  48  62
ATOM     62  C   UNL A   1      39.863  28.817  29.393  1.00  0.00     0.064 A 
ATOM     63  C   UNL A   1      38.917  29.328  28.491  1.00  0.00     0.173 A 
ATOM     64  C   UNL A   1      39.436  28.528  30.698  1.00  0.00     0.173 A 
ATOM     65  F   UNL A   1      39.277  29.627  27.233  1.00  0.00    -0.203 F 
ATOM     66  C   UNL A   1      37.607  29.574  28.890  1.00  0.00     0.198 A 
ATOM     67  C   UNL A   1      38.117  28.750  31.085  1.00  0.00     0.198 A 
ATOM     68  F   UNL A   1      40.297  28.029  31.597  1.00  0.00    -0.203 F 
ATOM     69  F   UNL A   1      36.734  30.111  28.026  1.00  0.00    -0.200 F 
ATOM     70  C   UNL A   1      37.206  29.281  30.185  1.00  0.00     0.200 A 
ATOM     71  F   UNL A   1      37.729  28.456  32.334  1.00  0.00    -0.200 F 
ATOM     72  F   UNL A   1      35.944  29.520  30.568  1.00  0.00    -0.200 F 
ENDBRANCH  48  62
BRANCH  49  73
ATOM     73  C   UNL A   1      49.104  26.774  26.294  1.00  0.00     0.064 A 
ATOM     74  C   UNL A   1      50.050  26.257  27.188  1.00  0.00     0.173 A 
ATOM     75  C   UNL A   1      49.499  26.972  24.963  1.00  0.00     0.173 A 
ATOM     76  F   UNL A   1      49.724  26.075  28.477  1.00  0.00    -0.203 F 
ATOM     77  C   UNL A   1      51.342  25.949  26.768  1.00  0.00     0.198 A 
ATOM     78  C   UNL A   1      50.785  26.642  24.539  1.00  0.00     0.198 A 
ATOM     79  F   UNL A   1      48.629  27.469  24.072  1.00  0.00    -0.203 F 
ATOM     80  F   UNL A   1      52.236  25.480  27.649  1.00  0.00    -0.200 F 
ATOM     81  C   UNL A   1      51.706  26.134  25.443  1.00  0.00     0.200 A 
ATOM     82  F   UNL A   1      51.129  26.814  23.257  1.00  0.00    -0.200 F 
ATOM     83  F   UNL A   1      52.945  25.827  25.037  1.00  0.00    -0.200 F 
ENDBRANCH  49  73
BRANCH  61  84
ATOM     84  C   UNL A   1      46.000  32.533  28.691  1.00  0.00     0.064 A 
ATOM     85  C   UNL A   1      45.779  33.517  27.718  1.00  0.00     0.173 A 
ATOM     86  C   UNL A   1      46.651  32.912  29.874  1.00  0.00     0.173 A 
ATOM     87  F   UNL A   1      45.177  33.201  26.560  1.00  0.00    -0.203 F 
ATOM     88  C   UNL A   1      46.207  34.829  27.916  1.00  0.00     0.198 A 
ATOM     89  C   UNL A   1      47.055  34.228  30.079  1.00  0.00     0.198 A 
ATOM     90  F   UNL A   1      46.885  32.007  30.837  1.00  0.00    -0.203 F 
ATOM     91  F   UNL A   1      46.018  35.745  26.956  1.00  0.00    -0.200 F 
ATOM     92  C   UNL A   1      46.836  35.184  29.099  1.00  0.00     0.200 A 
ATOM     93  F   UNL A   1      47.655  34.572  31.227  1.00  0.00    -0.200 F 
ATOM     94  F   UNL A   1      47.240  36.447  29.291  1.00  0.00    -0.200 F 
ENDBRANCH  61  84
ENDBRANCH  35  36
ENDBRANCH  27  30
ENDBRANCH  25  26
ENDBRANCH  24  25
ENDBRANCH  23  24
ENDBRANCH  22  23
ENDBRANCH   1  22
TORSDOF 18
ENDMDL
MODEL 2
REMARK VINA RESULT:     -10.6      1.492      7.517
REMARK SMILES N#C[C@@H]1CN(C(=O)NCCCC(=O)NCCCCCCNC(=O)c2ccc(-c3c4nc(c(-c5c(F)c(F)c(F)c(F)c5F)c5ccc([nH]5)c(-c5c(F)c(F)c(F)c(F)c5F)c5nc(c(-c6c(F)c(F)c(F)c(F)c6F)c6ccc3[nH]6)C=C5)C=C4)cc2)CCO1
REMARK SMILES IDX 16 1 15 2 14 3 12 4 13 5 11 7 10 8 9 9 8 10 6 11 7 12 5 14
REMARK SMILES IDX 3 15 4 16 89 17 88 18 87 19 2 20 1 21 17 22 18 23 19 24
REMARK SMILES IDX 20 25 21 26 22 27 23 29 24 30 25 31 86 32 26 33 85 34 27 35
REMARK SMILES IDX 28 36 29 37 79 38 30 39 84 40 78 41 80 42 31 43 83 44 77 45
REMARK SMILES IDX 76 46 32 48 64 49 44 50 63 51 45 52 48 53 62 54 81 55 46 56
REMARK SMILES IDX 47 57 61 59 82 60 49 61 33 62 34 63 42 64 35 65 36 66 40 67
REMARK SMILES IDX 43 68 37 69 38 70 41 71 39 72 65 73 66 74 74 75 67 76 68 77
REMARK SMILES IDX 72 78 75 79 69 80 70 81 73 82 71 83 50 84 51 85 59 86 52 87
REMARK SMILES IDX 53 88 57 89 60 90 54 91 55 92 58 93 56 94
REMARK H PARENT 14 6 8 13 21 28 80 47 48 58
REMARK Flexibility Score: inf
ROOT
ATOM      1  C   UNL A   1      35.961  22.161  25.940  1.00  0.00     0.021 C 
ENDROOT
BRANCH   1   2
ATOM      2  C   UNL A   1      35.380  21.459  24.712  1.00  0.00     0.116 C 
BRANCH   2   3
ATOM      3  N   UNL A   1      34.762  20.195  25.079  1.00  0.00    -0.356 N 
ATOM      4  C   UNL A   1      33.479  19.765  24.942  1.00  0.00     0.220 C 
ATOM      5  O   UNL A   1      33.167  18.681  25.439  1.00  0.00    -0.275 OA
ATOM      6  H   UNL A   1      35.372  19.544  25.495  1.00  0.00     0.163 HD
BRANCH   4   7
ATOM      7  C   UNL A   1      32.452  20.601  24.207  1.00  0.00     0.102 C 
BRANCH   7   8
ATOM      8  C   UNL A   1      31.799  21.652  25.106  1.00  0.00     0.031 C 
BRANCH   8   9
ATOM      9  C   UNL A   1      31.367  22.924  24.380  1.00  0.00     0.118 C 
BRANCH   9  10
ATOM     10  N   UNL A   1      30.451  23.736  25.161  1.00  0.00    -0.338 N 
ATOM     11  C   UNL A   1      30.573  24.847  25.910  1.00  0.00     0.317 C 
ATOM     12  O   UNL A   1      29.570  25.163  26.555  1.00  0.00    -0.249 OA
ATOM     13  H   UNL A   1      29.528  23.396  25.136  1.00  0.00     0.165 HD
BRANCH  11  14
ATOM     14  N   UNL A   1      31.728  25.568  25.977  1.00  0.00    -0.319 N 
ATOM     15  C   UNL A   1      34.088  25.771  25.207  1.00  0.00     0.240 C 
ATOM     16  C   UNL A   1      33.099  25.080  26.151  1.00  0.00     0.169 C 
ATOM     17  O   UNL A   1      33.996  27.207  25.327  1.00  0.00    -0.360 OA
ATOM     18  C   UNL A   1      32.670  27.683  25.038  1.00  0.00     0.183 C 
ATOM     19  C   UNL A   1      31.624  27.037  25.951  1.00  0.00     0.150 C 
BRANCH  15  20
ATOM     20  C   UNL A   1      33.879  25.325  23.769  1.00  0.00     0.096 C 
ATOM     21  N   UNL A   1      33.705  24.955  22.576  1.00  0.00    -0.195 NA
ENDBRANCH  15  20
ENDBRANCH  11  14
ENDBRANCH   9  10
ENDBRANCH   8   9
ENDBRANCH   7   8
ENDBRANCH   4   7
ENDBRANCH   2   3
ENDBRANCH   1   2
BRANCH   1  22
ATOM     22  C   UNL A   1      37.123  23.121  25.646  1.00  0.00     0.002 C 
BRANCH  22  23
ATOM     23  C   UNL A   1      38.521  22.617  26.038  1.00  0.00     0.002 C 
BRANCH  23  24
ATOM     24  C   UNL A   1      38.986  21.322  25.361  1.00  0.00     0.021 C 
BRANCH  24  25
ATOM     25  C   UNL A   1      39.171  20.124  26.292  1.00  0.00     0.116 C 
BRANCH  25  26
ATOM     26  N   UNL A   1      40.230  19.216  25.902  1.00  0.00    -0.352 N 
ATOM     27  C   UNL A   1      41.594  19.349  26.040  1.00  0.00     0.251 C 
ATOM     28  H   UNL A   1      39.931  18.380  25.476  1.00  0.00     0.163 HD
ATOM     29  O   UNL A   1      42.331  18.432  25.707  1.00  0.00    -0.269 OA
BRANCH  27  30
ATOM     30  C   UNL A   1      42.193  20.626  26.511  1.00  0.00     0.039 A 
ATOM     31  C   UNL A   1      42.683  21.497  25.533  1.00  0.00     0.014 A 
ATOM     32  C   UNL A   1      42.280  20.981  27.860  1.00  0.00     0.014 A 
ATOM     33  C   UNL A   1      43.175  22.754  25.893  1.00  0.00     0.010 A 
ATOM     34  C   UNL A   1      42.729  22.259  28.219  1.00  0.00     0.010 A 
ATOM     35  C   UNL A   1      43.159  23.163  27.236  1.00  0.00    -0.014 A 
BRANCH  35  36
ATOM     36  C   UNL A   1      43.522  24.562  27.589  1.00  0.00     0.031 A 
ATOM     37  C   UNL A   1      44.952  25.015  27.606  1.00  0.00     0.074 A 
ATOM     38  C   UNL A   1      42.544  25.430  27.911  1.00  0.00     0.049 A 
ATOM     39  N   UNL A   1      45.437  26.207  27.857  1.00  0.00    -0.248 NA
ATOM     40  C   UNL A   1      45.970  23.998  27.313  1.00  0.00     0.031 C 
ATOM     41  C   UNL A   1      41.117  25.108  27.960  1.00  0.00     0.029 A 
ATOM     42  N   UNL A   1      42.597  26.759  28.255  1.00  0.00    -0.354 N 
ATOM     43  C   UNL A   1      46.815  26.085  27.750  1.00  0.00     0.074 A 
ATOM     44  C   UNL A   1      47.091  24.693  27.455  1.00  0.00     0.031 C 
ATOM     45  C   UNL A   1      40.428  26.215  28.281  1.00  0.00     0.029 A 
ATOM     46  C   UNL A   1      41.364  27.315  28.495  1.00  0.00     0.049 A 
ATOM     47  H   UNL A   1      43.439  27.265  28.323  1.00  0.00     0.167 HD
ATOM     48  C   UNL A   1      47.761  27.048  27.868  1.00  0.00     0.037 A 
ATOM     49  C   UNL A   1      41.023  28.569  28.850  1.00  0.00     0.037 A 
ATOM     50  C   UNL A   1      47.486  28.434  28.153  1.00  0.00     0.049 A 
ATOM     51  C   UNL A   1      42.097  29.604  29.035  1.00  0.00     0.074 A 
ATOM     52  C   UNL A   1      48.371  29.497  28.205  1.00  0.00     0.029 A 
ATOM     53  N   UNL A   1      46.231  28.945  28.454  1.00  0.00    -0.354 N 
ATOM     54  N   UNL A   1      43.388  29.496  28.849  1.00  0.00    -0.248 NA
ATOM     55  C   UNL A   1      41.663  30.934  29.488  1.00  0.00     0.031 C 
ATOM     56  C   UNL A   1      47.661  30.640  28.594  1.00  0.00     0.029 A 
ATOM     57  C   UNL A   1      46.327  30.299  28.742  1.00  0.00     0.049 A 
ATOM     58  H   UNL A   1      45.396  28.424  28.462  1.00  0.00     0.167 HD
ATOM     59  C   UNL A   1      43.923  30.741  29.151  1.00  0.00     0.074 A 
ATOM     60  C   UNL A   1      42.811  31.596  29.516  1.00  0.00     0.031 C 
ATOM     61  C   UNL A   1      45.219  31.136  29.128  1.00  0.00     0.037 A 
BRANCH  48  62
ATOM     62  C   UNL A   1      49.192  26.632  27.698  1.00  0.00     0.064 A 
ATOM     63  C   UNL A   1      49.765  26.466  26.427  1.00  0.00     0.173 A 
ATOM     64  C   UNL A   1      50.008  26.418  28.819  1.00  0.00     0.173 A 
ATOM     65  F   UNL A   1      49.025  26.653  25.324  1.00  0.00    -0.203 F 
ATOM     66  C   UNL A   1      51.091  26.067  26.287  1.00  0.00     0.198 A 
ATOM     67  C   UNL A   1      51.342  26.045  28.673  1.00  0.00     0.198 A 
ATOM     68  F   UNL A   1      49.513  26.572  30.056  1.00  0.00    -0.203 F 
ATOM     69  F   UNL A   1      51.603  25.865  25.064  1.00  0.00    -0.200 F 
ATOM     70  C   UNL A   1      51.880  25.861  27.409  1.00  0.00     0.200 A 
ATOM     71  F   UNL A   1      52.106  25.858  29.758  1.00  0.00    -0.200 F 
ATOM     72  F   UNL A   1      53.156  25.475  27.271  1.00  0.00    -0.200 F 
ENDBRANCH  48  62
BRANCH  49  73
ATOM     73  C   UNL A   1      39.592  28.913  29.037  1.00  0.00     0.064 A 
ATOM     74  C   UNL A   1      38.810  29.339  27.955  1.00  0.00     0.173 A 
ATOM     75  C   UNL A   1      38.973  28.806  30.291  1.00  0.00     0.173 A 
ATOM     76  F   UNL A   1      39.366  29.481  26.743  1.00  0.00    -0.203 F 
ATOM     77  C   UNL A   1      37.461  29.645  28.120  1.00  0.00     0.198 A 
ATOM     78  C   UNL A   1      37.618  29.090  30.450  1.00  0.00     0.198 A 
ATOM     79  F   UNL A   1      39.682  28.407  31.357  1.00  0.00    -0.203 F 
ATOM     80  F   UNL A   1      36.741  30.075  27.075  1.00  0.00    -0.200 F 
ATOM     81  C   UNL A   1      36.864  29.513  29.365  1.00  0.00     0.200 A 
ATOM     82  F   UNL A   1      37.044  28.952  31.652  1.00  0.00    -0.200 F 
ATOM     83  F   UNL A   1      35.565  29.796  29.521  1.00  0.00    -0.200 F 
ENDBRANCH  49  73
BRANCH  61  84
ATOM     84  C   UNL A   1      45.511  32.556  29.519  1.00  0.00     0.064 A 
ATOM     85  C   UNL A   1      45.445  33.596  28.581  1.00  0.00     0.173 A 
ATOM     86  C   UNL A   1      45.819  32.886  30.847  1.00  0.00     0.173 A 
ATOM     87  F   UNL A   1      45.173  33.330  27.294  1.00  0.00    -0.203 F 
ATOM     88  C   UNL A   1      45.693  34.915  28.956  1.00  0.00     0.198 A 
ATOM     89  C   UNL A   1      46.042  34.208  31.224  1.00  0.00     0.198 A 
ATOM     90  F   UNL A   1      45.892  31.927  31.783  1.00  0.00    -0.203 F 
ATOM     91  F   UNL A   1      45.662  35.889  28.036  1.00  0.00    -0.200 F 
ATOM     92  C   UNL A   1      45.982  35.221  30.278  1.00  0.00     0.200 A 
ATOM     93  F   UNL A   1      46.312  34.503  32.503  1.00  0.00    -0.200 F 
ATOM     94  F   UNL A   1      46.213  36.490  30.638  1.00  0.00    -0.200 F 
ENDBRANCH  61  84
ENDBRANCH  35  36
ENDBRANCH  27  30
ENDBRANCH  25  26
ENDBRANCH  24  25
ENDBRANCH  23  24
ENDBRANCH  22  23
ENDBRANCH   1  22
TORSDOF 18
ENDMDL
MODEL 3
REMARK VINA RESULT:     -10.6      5.256      9.825
REMARK SMILES N#C[C@@H]1CN(C(=O)NCCCC(=O)NCCCCCCNC(=O)c2ccc(-c3c4nc(c(-c5c(F)c(F)c(F)c(F)c5F)c5ccc([nH]5)c(-c5c(F)c(F)c(F)c(F)c5F)c5nc(c(-c6c(F)c(F)c(F)c(F)c6F)c6ccc3[nH]6)C=C5)C=C4)cc2)CCO1
REMARK SMILES IDX 16 1 15 2 14 3 12 4 13 5 11 7 10 8 9 9 8 10 6 11 7 12 5 14
REMARK SMILES IDX 3 15 4 16 89 17 88 18 87 19 2 20 1 21 17 22 18 23 19 24
REMARK SMILES IDX 20 25 21 26 22 27 23 29 24 30 25 31 86 32 26 33 85 34 27 35
REMARK SMILES IDX 28 36 29 37 79 38 30 39 84 40 78 41 80 42 31 43 83 44 77 45
REMARK SMILES IDX 76 46 32 48 64 49 44 50 63 51 45 52 48 53 62 54 81 55 46 56
REMARK SMILES IDX 47 57 61 59 82 60 49 61 33 62 34 63 42 64 35 65 36 66 40 67
REMARK SMILES IDX 43 68 37 69 38 70 41 71 39 72 65 73 66 74 74 75 67 76 68 77
REMARK SMILES IDX 72 78 75 79 69 80 70 81 73 82 71 83 50 84 51 85 59 86 52 87
REMARK SMILES IDX 53 88 57 89 60 90 54 91 55 92 58 93 56 94
REMARK H PARENT 14 6 8 13 21 28 80 47 48 58
REMARK Flexibility Score: inf
ROOT
ATOM      1  C   UNL A   1      34.068  28.981  26.393  1.00  0.00     0.021 C 
ENDROOT
BRANCH   1   2
ATOM      2  C   UNL A   1      32.709  28.305  26.583  1.00  0.00     0.116 C 
BRANCH   2   3
ATOM      3  N   UNL A   1      31.697  28.931  25.748  1.00  0.00    -0.356 N 
ATOM      4  C   UNL A   1      31.137  28.520  24.579  1.00  0.00     0.220 C 
ATOM      5  O   UNL A   1      30.371  29.287  23.993  1.00  0.00    -0.275 OA
ATOM      6  H   UNL A   1      31.361  29.793  26.085  1.00  0.00     0.163 HD
BRANCH   4   7
ATOM      7  C   UNL A   1      31.455  27.157  24.000  1.00  0.00     0.102 C 
BRANCH   7   8
ATOM      8  C   UNL A   1      30.333  26.143  24.236  1.00  0.00     0.031 C 
BRANCH   8   9
ATOM      9  C   UNL A   1      30.623  24.744  23.699  1.00  0.00     0.118 C 
BRANCH   9  10
ATOM     10  N   UNL A   1      31.811  24.694  22.866  1.00  0.00    -0.338 N 
ATOM     11  C   UNL A   1      32.974  24.019  22.915  1.00  0.00     0.317 C 
ATOM     12  O   UNL A   1      33.820  24.363  22.086  1.00  0.00    -0.249 OA
ATOM     13  H   UNL A   1      31.751  25.290  22.086  1.00  0.00     0.165 HD
BRANCH  11  14
ATOM     14  N   UNL A   1      33.219  23.038  23.829  1.00  0.00    -0.319 N 
ATOM     15  C   UNL A   1      33.364  22.448  26.244  1.00  0.00     0.240 C 
ATOM     16  C   UNL A   1      34.044  23.102  25.038  1.00  0.00     0.169 C 
ATOM     17  O   UNL A   1      32.950  21.100  25.932  1.00  0.00    -0.360 OA
ATOM     18  C   UNL A   1      32.046  21.064  24.814  1.00  0.00     0.183 C 
ATOM     19  C   UNL A   1      32.664  21.699  23.565  1.00  0.00     0.150 C 
BRANCH  15  20
ATOM     20  C   UNL A   1      32.192  23.283  26.734  1.00  0.00     0.096 C 
ATOM     21  N   UNL A   1      31.220  23.976  27.141  1.00  0.00    -0.195 NA
ENDBRANCH  15  20
ENDBRANCH  11  14
ENDBRANCH   9  10
ENDBRANCH   8   9
ENDBRANCH   7   8
ENDBRANCH   4   7
ENDBRANCH   2   3
ENDBRANCH   1   2
BRANCH   1  22
ATOM     22  C   UNL A   1      34.669  29.592  27.667  1.00  0.00     0.002 C 
BRANCH  22  23
ATOM     23  C   UNL A   1      34.635  31.127  27.750  1.00  0.00     0.002 C 
BRANCH  23  24
ATOM     24  C   UNL A   1      33.251  31.762  27.922  1.00  0.00     0.021 C 
BRANCH  24  25
ATOM     25  C   UNL A   1      32.984  33.000  27.067  1.00  0.00     0.116 C 
BRANCH  25  26
ATOM     26  N   UNL A   1      32.477  34.142  27.800  1.00  0.00    -0.352 N 
ATOM     27  C   UNL A   1      33.073  34.878  28.799  1.00  0.00     0.251 C 
ATOM     28  H   UNL A   1      31.572  34.436  27.545  1.00  0.00     0.163 HD
ATOM     29  O   UNL A   1      32.504  35.861  29.252  1.00  0.00    -0.269 OA
BRANCH  27  30
ATOM     30  C   UNL A   1      34.364  34.448  29.398  1.00  0.00     0.039 A 
ATOM     31  C   UNL A   1      34.314  33.870  30.670  1.00  0.00     0.014 A 
ATOM     32  C   UNL A   1      35.596  34.594  28.752  1.00  0.00     0.014 A 
ATOM     33  C   UNL A   1      35.475  33.357  31.256  1.00  0.00     0.010 A 
ATOM     34  C   UNL A   1      36.751  34.038  29.317  1.00  0.00     0.010 A 
ATOM     35  C   UNL A   1      36.695  33.396  30.564  1.00  0.00    -0.014 A 
BRANCH  35  36
ATOM     36  C   UNL A   1      37.885  32.697  31.119  1.00  0.00     0.031 A 
ATOM     37  C   UNL A   1      38.576  33.196  32.353  1.00  0.00     0.074 A 
ATOM     38  C   UNL A   1      38.354  31.603  30.489  1.00  0.00     0.049 A 
ATOM     39  N   UNL A   1      39.603  32.685  32.988  1.00  0.00    -0.248 NA
ATOM     40  C   UNL A   1      38.055  34.433  32.947  1.00  0.00     0.031 C 
ATOM     41  C   UNL A   1      37.790  31.031  29.266  1.00  0.00     0.029 A 
ATOM     42  N   UNL A   1      39.406  30.773  30.790  1.00  0.00    -0.354 N 
ATOM     43  C   UNL A   1      39.849  33.535  34.056  1.00  0.00     0.074 A 
ATOM     44  C   UNL A   1      38.893  34.619  33.958  1.00  0.00     0.031 C 
ATOM     45  C   UNL A   1      38.480  29.928  28.937  1.00  0.00     0.029 A 
ATOM     46  C   UNL A   1      39.556  29.733  29.905  1.00  0.00     0.049 A 
ATOM     47  H   UNL A   1      39.997  30.910  31.565  1.00  0.00     0.167 HD
ATOM     48  C   UNL A   1      40.775  33.413  35.039  1.00  0.00     0.037 A 
ATOM     49  C   UNL A   1      40.459  28.734  29.874  1.00  0.00     0.037 A 
ATOM     50  C   UNL A   1      41.722  32.330  35.140  1.00  0.00     0.049 A 
ATOM     51  C   UNL A   1      41.515  28.655  30.940  1.00  0.00     0.074 A 
ATOM     52  C   UNL A   1      42.638  32.076  36.146  1.00  0.00     0.029 A 
ATOM     53  N   UNL A   1      41.886  31.332  34.191  1.00  0.00    -0.354 N 
ATOM     54  N   UNL A   1      41.685  29.418  31.991  1.00  0.00    -0.248 NA
ATOM     55  C   UNL A   1      42.510  27.581  30.810  1.00  0.00     0.031 C 
ATOM     56  C   UNL A   1      43.396  30.957  35.777  1.00  0.00     0.029 A 
ATOM     57  C   UNL A   1      42.923  30.488  34.563  1.00  0.00     0.049 A 
ATOM     58  H   UNL A   1      41.346  31.236  33.373  1.00  0.00     0.167 HD
ATOM     59  C   UNL A   1      42.795  28.914  32.654  1.00  0.00     0.074 A 
ATOM     60  C   UNL A   1      43.250  27.767  31.894  1.00  0.00     0.031 C 
ATOM     61  C   UNL A   1      43.384  29.364  33.789  1.00  0.00     0.037 A 
BRANCH  48  62
ATOM     62  C   UNL A   1      40.818  34.489  36.083  1.00  0.00     0.064 A 
ATOM     63  C   UNL A   1      39.959  34.472  37.194  1.00  0.00     0.173 A 
ATOM     64  C   UNL A   1      41.742  35.540  35.985  1.00  0.00     0.173 A 
ATOM     65  F   UNL A   1      39.052  33.493  37.330  1.00  0.00    -0.203 F 
ATOM     66  C   UNL A   1      40.002  35.485  38.147  1.00  0.00     0.198 A 
ATOM     67  C   UNL A   1      41.800  36.536  36.955  1.00  0.00     0.198 A 
ATOM     68  F   UNL A   1      42.592  35.598  34.948  1.00  0.00    -0.203 F 
ATOM     69  F   UNL A   1      39.138  35.475  39.172  1.00  0.00    -0.200 F 
ATOM     70  C   UNL A   1      40.924  36.514  38.030  1.00  0.00     0.200 A 
ATOM     71  F   UNL A   1      42.700  37.523  36.847  1.00  0.00    -0.200 F 
ATOM     72  F   UNL A   1      40.963  37.489  38.948  1.00  0.00    -0.200 F 
ENDBRANCH  48  62
BRANCH  49  73
ATOM     73  C   UNL A   1      40.388  27.716  28.795  1.00  0.00     0.064 A 
ATOM     74  C   UNL A   1      39.635  26.547  28.962  1.00  0.00     0.173 A 
ATOM     75  C   UNL A   1      41.053  27.899  27.574  1.00  0.00     0.173 A 
ATOM     76  F   UNL A   1      39.004  26.317  30.123  1.00  0.00    -0.203 F 
ATOM     77  C   UNL A   1      39.548  25.597  27.946  1.00  0.00     0.198 A 
ATOM     78  C   UNL A   1      40.947  26.959  26.551  1.00  0.00     0.198 A 
ATOM     79  F   UNL A   1      41.790  29.001  27.370  1.00  0.00    -0.203 F 
ATOM     80  F   UNL A   1      38.842  24.475  28.141  1.00  0.00    -0.200 F 
ATOM     81  C   UNL A   1      40.198  25.808  26.739  1.00  0.00     0.200 A 
ATOM     82  F   UNL A   1      41.568  27.171  25.383  1.00  0.00    -0.200 F 
ATOM     83  F   UNL A   1      40.105  24.899  25.759  1.00  0.00    -0.200 F 
ENDBRANCH  49  73
BRANCH  61  84
ATOM     84  C   UNL A   1      44.595  28.621  34.275  1.00  0.00     0.064 A 
ATOM     85  C   UNL A   1      44.472  27.492  35.097  1.00  0.00     0.173 A 
ATOM     86  C   UNL A   1      45.884  29.016  33.887  1.00  0.00     0.173 A 
ATOM     87  F   UNL A   1      43.262  27.085  35.511  1.00  0.00    -0.203 F 
ATOM     88  C   UNL A   1      45.599  26.793  35.525  1.00  0.00     0.198 A 
ATOM     89  C   UNL A   1      47.005  28.300  34.296  1.00  0.00     0.198 A 
ATOM     90  F   UNL A   1      46.053  30.089  33.100  1.00  0.00    -0.203 F 
ATOM     91  F   UNL A   1      45.461  25.738  36.341  1.00  0.00    -0.200 F 
ATOM     92  C   UNL A   1      46.863  27.192  35.118  1.00  0.00     0.200 A 
ATOM     93  F   UNL A   1      48.225  28.682  33.894  1.00  0.00    -0.200 F 
ATOM     94  F   UNL A   1      47.944  26.515  35.525  1.00  0.00    -0.200 F 
ENDBRANCH  61  84
ENDBRANCH  35  36
ENDBRANCH  27  30
ENDBRANCH  25  26
ENDBRANCH  24  25
ENDBRANCH  23  24
ENDBRANCH  22  23
ENDBRANCH   1  22
TORSDOF 18
ENDMDL
