MODEL 1
REMARK VINA RESULT:     -10.3      0.000      0.000
REMARK SMILES O=CN1CCC[C@@H](C(=O)NCCCCCCNC(=O)c2ccc(-c3c4nc(c(-c5c(F)c(F)c(F)c(F)c5F)c5ccc([nH]5)c(-c5c(F)c(F)c(F)c(F)c5F)c5nc(c(-c6c(F)c(F)c(F)c(F)c6F)c6ccc3[nH]6)C=C5)C=C4)cc2)C1
REMARK SMILES IDX 14 1 13 2 12 3 11 4 10 5 8 6 9 7 7 9 3 10 4 11 83 12 5 13
REMARK SMILES IDX 6 14 2 15 1 16 15 17 16 18 17 19 18 20 19 22 20 23 21 24
REMARK SMILES IDX 82 25 22 26 81 27 23 28 24 29 25 30 75 31 26 32 80 33 74 34
REMARK SMILES IDX 76 35 27 36 79 37 73 38 72 39 28 41 60 42 40 43 59 44 41 45
REMARK SMILES IDX 44 46 58 47 77 48 42 49 43 50 57 52 78 53 45 54 29 55 30 56
REMARK SMILES IDX 38 57 31 58 32 59 36 60 39 61 33 62 34 63 37 64 35 65 61 66
REMARK SMILES IDX 62 67 70 68 63 69 64 70 68 71 71 72 65 73 66 74 69 75 67 76
REMARK SMILES IDX 46 77 47 78 55 79 48 80 49 81 53 82 56 83 50 84 51 85 54 86
REMARK SMILES IDX 52 87
REMARK H PARENT 10 8 17 21 76 40 44 51
REMARK Flexibility Score: inf
ROOT
ATOM      1  C   UNL A   1      36.940  33.897  29.274  1.00  0.00     0.002 C 
ENDROOT
BRANCH   1   2
ATOM      2  C   UNL A   1      38.077  32.929  29.630  1.00  0.00     0.002 C 
BRANCH   2   3
ATOM      3  C   UNL A   1      38.103  32.467  31.093  1.00  0.00     0.021 C 
BRANCH   3   4
ATOM      4  C   UNL A   1      37.724  33.568  32.084  1.00  0.00     0.116 C 
BRANCH   4   5
ATOM      5  N   UNL A   1      36.564  33.196  32.865  1.00  0.00    -0.356 N 
ATOM      6  C   UNL A   1      35.361  33.762  33.099  1.00  0.00     0.224 C 
ATOM      7  O   UNL A   1      34.647  33.167  33.918  1.00  0.00    -0.275 OA
ATOM      8  H   UNL A   1      36.678  32.336  33.330  1.00  0.00     0.163 HD
BRANCH   6   9
ATOM      9  C   UNL A   1      34.783  34.979  32.379  1.00  0.00     0.098 C 
ATOM     10  N   UNL A   1      33.258  36.055  30.768  1.00  0.00    -0.344 N 
ATOM     11  C   UNL A   1      32.937  37.156  31.667  1.00  0.00     0.119 C 
ATOM     12  C   UNL A   1      33.643  34.794  31.388  1.00  0.00     0.132 C 
ATOM     13  C   UNL A   1      34.028  37.366  32.712  1.00  0.00     0.022 C 
ATOM     14  C   UNL A   1      34.416  36.059  33.410  1.00  0.00     0.017 C 
BRANCH  10  15
ATOM     15  C   UNL A   1      32.903  36.089  29.436  1.00  0.00     0.339 C 
ATOM     16  O   UNL A   1      32.630  35.112  28.748  1.00  0.00    -0.279 OA
ENDBRANCH  10  15
ENDBRANCH   6   9
ENDBRANCH   4   5
ENDBRANCH   3   4
ENDBRANCH   2   3
ENDBRANCH   1   2
BRANCH   1  17
ATOM     17  C   UNL A   1      35.710  33.252  28.628  1.00  0.00     0.021 C 
BRANCH  17  18
ATOM     18  C   UNL A   1      34.974  32.261  29.523  1.00  0.00     0.116 C 
BRANCH  18  19
ATOM     19  N   UNL A   1      34.338  31.209  28.749  1.00  0.00    -0.352 N 
ATOM     20  C   UNL A   1      34.898  30.167  28.057  1.00  0.00     0.251 C 
ATOM     21  H   UNL A   1      33.354  31.251  28.716  1.00  0.00     0.163 HD
ATOM     22  O   UNL A   1      34.219  29.518  27.268  1.00  0.00    -0.269 OA
BRANCH  20  23
ATOM     23  C   UNL A   1      36.322  29.823  28.255  1.00  0.00     0.039 A 
ATOM     24  C   UNL A   1      36.719  29.289  29.484  1.00  0.00     0.014 A 
ATOM     25  C   UNL A   1      37.270  30.069  27.257  1.00  0.00     0.014 A 
ATOM     26  C   UNL A   1      38.060  28.968  29.699  1.00  0.00     0.010 A 
ATOM     27  C   UNL A   1      38.594  29.683  27.447  1.00  0.00     0.010 A 
ATOM     28  C   UNL A   1      39.005  29.143  28.674  1.00  0.00    -0.014 A 
BRANCH  28  29
ATOM     29  C   UNL A   1      40.428  28.783  28.885  1.00  0.00     0.031 A 
ATOM     30  C   UNL A   1      41.367  29.758  29.539  1.00  0.00     0.074 A 
ATOM     31  C   UNL A   1      40.884  27.593  28.449  1.00  0.00     0.049 A 
ATOM     32  N   UNL A   1      42.647  29.636  29.787  1.00  0.00    -0.248 NA
ATOM     33  C   UNL A   1      40.799  31.053  29.946  1.00  0.00     0.031 C 
ATOM     34  C   UNL A   1      40.080  26.586  27.754  1.00  0.00     0.029 A 
ATOM     35  N   UNL A   1      42.133  27.032  28.520  1.00  0.00    -0.354 N 
ATOM     36  C   UNL A   1      43.037  30.836  30.365  1.00  0.00     0.074 A 
ATOM     37  C   UNL A   1      41.873  31.695  30.382  1.00  0.00     0.031 C 
ATOM     38  C   UNL A   1      40.851  25.519  27.486  1.00  0.00     0.029 A 
ATOM     39  C   UNL A   1      42.207  25.780  27.960  1.00  0.00     0.049 A 
ATOM     40  H   UNL A   1      42.905  27.484  28.931  1.00  0.00     0.167 HD
ATOM     41  C   UNL A   1      44.249  31.182  30.861  1.00  0.00     0.037 A 
ATOM     42  C   UNL A   1      43.251  24.939  27.843  1.00  0.00     0.037 A 
ATOM     43  C   UNL A   1      45.398  30.316  30.864  1.00  0.00     0.049 A 
ATOM     44  C   UNL A   1      44.585  25.345  28.407  1.00  0.00     0.074 A 
ATOM     45  C   UNL A   1      46.654  30.547  31.398  1.00  0.00     0.029 A 
ATOM     46  N   UNL A   1      45.431  29.047  30.302  1.00  0.00    -0.354 N 
ATOM     47  N   UNL A   1      44.923  26.454  29.020  1.00  0.00    -0.248 NA
ATOM     48  C   UNL A   1      45.683  24.378  28.269  1.00  0.00     0.031 C 
ATOM     49  C   UNL A   1      47.459  29.437  31.120  1.00  0.00     0.029 A 
ATOM     50  C   UNL A   1      46.691  28.493  30.456  1.00  0.00     0.049 A 
ATOM     51  H   UNL A   1      44.670  28.607  29.859  1.00  0.00     0.167 HD
ATOM     52  C   UNL A   1      46.260  26.308  29.363  1.00  0.00     0.074 A 
ATOM     53  C   UNL A   1      46.667  24.996  28.906  1.00  0.00     0.031 C 
ATOM     54  C   UNL A   1      47.078  27.183  29.997  1.00  0.00     0.037 A 
BRANCH  41  55
ATOM     55  C   UNL A   1      44.393  32.558  31.447  1.00  0.00     0.064 A 
ATOM     56  C   UNL A   1      44.780  33.655  30.660  1.00  0.00     0.173 A 
ATOM     57  C   UNL A   1      44.108  32.790  32.800  1.00  0.00     0.173 A 
ATOM     58  F   UNL A   1      45.075  33.485  29.363  1.00  0.00    -0.203 F 
ATOM     59  C   UNL A   1      44.905  34.926  31.215  1.00  0.00     0.198 A 
ATOM     60  C   UNL A   1      44.205  34.069  33.345  1.00  0.00     0.198 A 
ATOM     61  F   UNL A   1      43.727  31.778  33.595  1.00  0.00    -0.203 F 
ATOM     62  F   UNL A   1      45.326  35.947  30.456  1.00  0.00    -0.200 F 
ATOM     63  C   UNL A   1      44.612  35.133  32.554  1.00  0.00     0.200 A 
ATOM     64  F   UNL A   1      43.907  34.270  34.635  1.00  0.00    -0.200 F 
ATOM     65  F   UNL A   1      44.726  36.358  33.085  1.00  0.00    -0.200 F 
ENDBRANCH  41  55
BRANCH  42  66
ATOM     66  C   UNL A   1      43.068  23.616  27.192  1.00  0.00     0.064 A 
ATOM     67  C   UNL A   1      42.437  22.563  27.869  1.00  0.00     0.173 A 
ATOM     68  C   UNL A   1      43.520  23.375  25.888  1.00  0.00     0.173 A 
ATOM     69  F   UNL A   1      42.003  22.740  29.126  1.00  0.00    -0.203 F 
ATOM     70  C   UNL A   1      42.283  21.313  27.273  1.00  0.00     0.198 A 
ATOM     71  C   UNL A   1      43.342  22.132  25.283  1.00  0.00     0.198 A 
ATOM     72  F   UNL A   1      44.126  24.350  25.195  1.00  0.00    -0.203 F 
ATOM     73  F   UNL A   1      41.716  20.311  27.960  1.00  0.00    -0.200 F 
ATOM     74  C   UNL A   1      42.731  21.100  25.978  1.00  0.00     0.200 A 
ATOM     75  F   UNL A   1      43.763  21.935  24.025  1.00  0.00    -0.200 F 
ATOM     76  F   UNL A   1      42.580  19.900  25.404  1.00  0.00    -0.200 F 
ENDBRANCH  42  66
BRANCH  54  77
ATOM     77  C   UNL A   1      48.487  26.738  30.256  1.00  0.00     0.064 A 
ATOM     78  C   UNL A   1      49.536  27.074  29.386  1.00  0.00     0.173 A 
ATOM     79  C   UNL A   1      48.797  25.992  31.403  1.00  0.00     0.173 A 
ATOM     80  F   UNL A   1      49.288  27.772  28.268  1.00  0.00    -0.203 F 
ATOM     81  C   UNL A   1      50.838  26.653  29.642  1.00  0.00     0.198 A 
ATOM     82  C   UNL A   1      50.106  25.600  31.671  1.00  0.00     0.198 A 
ATOM     83  F   UNL A   1      47.833  25.651  32.270  1.00  0.00    -0.203 F 
ATOM     84  F   UNL A   1      51.816  26.941  28.770  1.00  0.00    -0.200 F 
ATOM     85  C   UNL A   1      51.123  25.924  30.785  1.00  0.00     0.200 A 
ATOM     86  F   UNL A   1      50.382  24.905  32.783  1.00  0.00    -0.200 F 
ATOM     87  F   UNL A   1      52.379  25.523  31.032  1.00  0.00    -0.200 F 
ENDBRANCH  54  77
ENDBRANCH  28  29
ENDBRANCH  20  23
ENDBRANCH  18  19
ENDBRANCH  17  18
ENDBRANCH   1  17
TORSDOF 14
ENDMDL
MODEL 2
REMARK VINA RESULT:     -10.3      5.399     11.185
REMARK SMILES O=CN1CCC[C@@H](C(=O)NCCCCCCNC(=O)c2ccc(-c3c4nc(c(-c5c(F)c(F)c(F)c(F)c5F)c5ccc([nH]5)c(-c5c(F)c(F)c(F)c(F)c5F)c5nc(c(-c6c(F)c(F)c(F)c(F)c6F)c6ccc3[nH]6)C=C5)C=C4)cc2)C1
REMARK SMILES IDX 14 1 13 2 12 3 11 4 10 5 8 6 9 7 7 9 3 10 4 11 83 12 5 13
REMARK SMILES IDX 6 14 2 15 1 16 15 17 16 18 17 19 18 20 19 22 20 23 21 24
REMARK SMILES IDX 82 25 22 26 81 27 23 28 24 29 25 30 75 31 26 32 80 33 74 34
REMARK SMILES IDX 76 35 27 36 79 37 73 38 72 39 28 41 60 42 40 43 59 44 41 45
REMARK SMILES IDX 44 46 58 47 77 48 42 49 43 50 57 52 78 53 45 54 29 55 30 56
REMARK SMILES IDX 38 57 31 58 32 59 36 60 39 61 33 62 34 63 37 64 35 65 61 66
REMARK SMILES IDX 62 67 70 68 63 69 64 70 68 71 71 72 65 73 66 74 69 75 67 76
REMARK SMILES IDX 46 77 47 78 55 79 48 80 49 81 53 82 56 83 50 84 51 85 54 86
REMARK SMILES IDX 52 87
REMARK H PARENT 10 8 17 21 76 40 44 51
REMARK Flexibility Score: inf
ROOT
ATOM      1  C   UNL A   1      36.819  20.126  24.757  1.00  0.00     0.002 C 
ENDROOT
BRANCH   1   2
ATOM      2  C   UNL A   1      36.876  21.533  25.369  1.00  0.00     0.002 C 
BRANCH   2   3
ATOM      3  C   UNL A   1      35.512  22.182  25.637  1.00  0.00     0.021 C 
BRANCH   3   4
ATOM      4  C   UNL A   1      34.692  21.453  26.702  1.00  0.00     0.116 C 
BRANCH   4   5
ATOM      5  N   UNL A   1      33.303  21.347  26.314  1.00  0.00    -0.356 N 
ATOM      6  C   UNL A   1      32.606  20.513  25.512  1.00  0.00     0.224 C 
ATOM      7  O   UNL A   1      31.413  20.804  25.357  1.00  0.00    -0.275 OA
ATOM      8  H   UNL A   1      32.738  22.038  26.728  1.00  0.00     0.163 HD
BRANCH   6   9
ATOM      9  C   UNL A   1      33.128  19.221  24.886  1.00  0.00     0.098 C 
ATOM     10  N   UNL A   1      33.612  16.803  24.926  1.00  0.00    -0.344 N 
ATOM     11  C   UNL A   1      33.140  16.593  23.564  1.00  0.00     0.119 C 
ATOM     12  C   UNL A   1      33.021  17.916  25.660  1.00  0.00     0.132 C 
ATOM     13  C   UNL A   1      33.186  17.880  22.747  1.00  0.00     0.022 C 
ATOM     14  C   UNL A   1      32.528  19.052  23.481  1.00  0.00     0.017 C 
BRANCH  10  15
ATOM     15  C   UNL A   1      34.318  15.829  25.601  1.00  0.00     0.339 C 
ATOM     16  O   UNL A   1      35.153  15.083  25.103  1.00  0.00    -0.279 OA
ENDBRANCH  10  15
ENDBRANCH   6   9
ENDBRANCH   4   5
ENDBRANCH   3   4
ENDBRANCH   2   3
ENDBRANCH   1   2
BRANCH   1  17
ATOM     17  C   UNL A   1      38.056  19.256  25.001  1.00  0.00     0.021 C 
BRANCH  17  18
ATOM     18  C   UNL A   1      39.183  19.958  25.751  1.00  0.00     0.116 C 
BRANCH  18  19
ATOM     19  N   UNL A   1      40.328  19.084  25.939  1.00  0.00    -0.352 N 
ATOM     20  C   UNL A   1      41.649  19.395  26.124  1.00  0.00     0.251 C 
ATOM     21  H   UNL A   1      40.124  18.120  25.931  1.00  0.00     0.163 HD
ATOM     22  O   UNL A   1      42.506  18.523  26.027  1.00  0.00    -0.269 OA
BRANCH  20  23
ATOM     23  C   UNL A   1      42.050  20.783  26.439  1.00  0.00     0.039 A 
ATOM     24  C   UNL A   1      42.254  21.678  25.385  1.00  0.00     0.014 A 
ATOM     25  C   UNL A   1      42.273  21.189  27.758  1.00  0.00     0.014 A 
ATOM     26  C   UNL A   1      42.646  22.989  25.656  1.00  0.00     0.010 A 
ATOM     27  C   UNL A   1      42.595  22.516  28.031  1.00  0.00     0.010 A 
ATOM     28  C   UNL A   1      42.799  23.425  26.983  1.00  0.00    -0.014 A 
BRANCH  28  29
ATOM     29  C   UNL A   1      43.192  24.824  27.282  1.00  0.00     0.031 A 
ATOM     30  C   UNL A   1      44.590  25.295  26.994  1.00  0.00     0.074 A 
ATOM     31  C   UNL A   1      42.300  25.657  27.851  1.00  0.00     0.049 A 
ATOM     32  N   UNL A   1      45.128  26.469  27.208  1.00  0.00    -0.248 NA
ATOM     33  C   UNL A   1      45.515  24.310  26.413  1.00  0.00     0.031 C 
ATOM     34  C   UNL A   1      40.930  25.299  28.224  1.00  0.00     0.029 A 
ATOM     35  N   UNL A   1      42.413  26.973  28.221  1.00  0.00    -0.354 N 
ATOM     36  C   UNL A   1      46.451  26.360  26.799  1.00  0.00     0.074 A 
ATOM     37  C   UNL A   1      46.650  24.991  26.376  1.00  0.00     0.031 C 
ATOM     38  C   UNL A   1      40.322  26.376  28.746  1.00  0.00     0.029 A 
ATOM     39  C   UNL A   1      41.267  27.489  28.773  1.00  0.00     0.049 A 
ATOM     40  H   UNL A   1      43.238  27.497  28.103  1.00  0.00     0.167 HD
ATOM     41  C   UNL A   1      47.405  27.320  26.757  1.00  0.00     0.037 A 
ATOM     42  C   UNL A   1      41.009  28.722  29.248  1.00  0.00     0.037 A 
ATOM     43  C   UNL A   1      47.195  28.687  27.155  1.00  0.00     0.049 A 
ATOM     44  C   UNL A   1      42.085  29.771  29.184  1.00  0.00     0.074 A 
ATOM     45  C   UNL A   1      48.077  29.751  27.092  1.00  0.00     0.029 A 
ATOM     46  N   UNL A   1      46.015  29.178  27.696  1.00  0.00    -0.354 N 
ATOM     47  N   UNL A   1      43.309  29.676  28.725  1.00  0.00    -0.248 NA
ATOM     48  C   UNL A   1      41.738  31.104  29.697  1.00  0.00     0.031 C 
ATOM     49  C   UNL A   1      47.446  30.876  27.635  1.00  0.00     0.029 A 
ATOM     50  C   UNL A   1      46.153  30.525  27.992  1.00  0.00     0.049 A 
ATOM     51  H   UNL A   1      45.199  28.647  27.847  1.00  0.00     0.167 HD
ATOM     52  C   UNL A   1      43.870  30.937  28.869  1.00  0.00     0.074 A 
ATOM     53  C   UNL A   1      42.846  31.787  29.442  1.00  0.00     0.031 C 
ATOM     54  C   UNL A   1      45.122  31.355  28.559  1.00  0.00     0.037 A 
BRANCH  41  55
ATOM     55  C   UNL A   1      48.765  26.926  26.256  1.00  0.00     0.064 A 
ATOM     56  C   UNL A   1      49.114  27.051  24.902  1.00  0.00     0.173 A 
ATOM     57  C   UNL A   1      49.742  26.450  27.143  1.00  0.00     0.173 A 
ATOM     58  F   UNL A   1      48.214  27.490  24.010  1.00  0.00    -0.203 F 
ATOM     59  C   UNL A   1      50.380  26.685  24.451  1.00  0.00     0.198 A 
ATOM     60  C   UNL A   1      51.016  26.114  26.693  1.00  0.00     0.198 A 
ATOM     61  F   UNL A   1      49.462  26.317  28.448  1.00  0.00    -0.203 F 
ATOM     62  F   UNL A   1      50.673  26.766  23.146  1.00  0.00    -0.200 F 
ATOM     63  C   UNL A   1      51.332  26.223  25.348  1.00  0.00     0.200 A 
ATOM     64  F   UNL A   1      51.939  25.681  27.563  1.00  0.00    -0.200 F 
ATOM     65  F   UNL A   1      52.551  25.879  24.914  1.00  0.00    -0.200 F 
ENDBRANCH  41  55
BRANCH  42  66
ATOM     66  C   UNL A   1      39.664  29.039  29.796  1.00  0.00     0.064 A 
ATOM     67  C   UNL A   1      39.375  28.836  31.152  1.00  0.00     0.173 A 
ATOM     68  C   UNL A   1      38.644  29.545  28.979  1.00  0.00     0.173 A 
ATOM     69  F   UNL A   1      40.313  28.336  31.969  1.00  0.00    -0.203 F 
ATOM     70  C   UNL A   1      38.109  29.109  31.667  1.00  0.00     0.198 A 
ATOM     71  C   UNL A   1      37.387  29.843  29.500  1.00  0.00     0.198 A 
ATOM     72  F   UNL A   1      38.871  29.762  27.675  1.00  0.00    -0.203 F 
ATOM     73  F   UNL A   1      37.847  28.863  32.958  1.00  0.00    -0.200 F 
ATOM     74  C   UNL A   1      37.118  29.617  30.842  1.00  0.00     0.200 A 
ATOM     75  F   UNL A   1      36.436  30.349  28.703  1.00  0.00    -0.200 F 
ATOM     76  F   UNL A   1      35.902  29.884  31.337  1.00  0.00    -0.200 F 
ENDBRANCH  42  66
BRANCH  54  77
ATOM     77  C   UNL A   1      45.443  32.799  28.808  1.00  0.00     0.064 A 
ATOM     78  C   UNL A   1      46.025  33.226  30.011  1.00  0.00     0.173 A 
ATOM     79  C   UNL A   1      45.192  33.764  27.820  1.00  0.00     0.173 A 
ATOM     80  F   UNL A   1      46.268  32.346  30.992  1.00  0.00    -0.203 F 
ATOM     81  C   UNL A   1      46.317  34.570  30.225  1.00  0.00     0.198 A 
ATOM     82  C   UNL A   1      45.515  35.102  28.026  1.00  0.00     0.198 A 
ATOM     83  F   UNL A   1      44.644  33.406  26.649  1.00  0.00    -0.203 F 
ATOM     84  F   UNL A   1      46.824  34.963  31.403  1.00  0.00    -0.200 F 
ATOM     85  C   UNL A   1      46.069  35.505  29.232  1.00  0.00     0.200 A 
ATOM     86  F   UNL A   1      45.286  36.002  27.061  1.00  0.00    -0.200 F 
ATOM     87  F   UNL A   1      46.355  36.798  29.440  1.00  0.00    -0.200 F 
ENDBRANCH  54  77
ENDBRANCH  28  29
ENDBRANCH  20  23
ENDBRANCH  18  19
ENDBRANCH  17  18
ENDBRANCH   1  17
TORSDOF 14
ENDMDL
MODEL 3
REMARK VINA RESULT:     -10.2      0.299      2.041
REMARK SMILES O=CN1CCC[C@@H](C(=O)NCCCCCCNC(=O)c2ccc(-c3c4nc(c(-c5c(F)c(F)c(F)c(F)c5F)c5ccc([nH]5)c(-c5c(F)c(F)c(F)c(F)c5F)c5nc(c(-c6c(F)c(F)c(F)c(F)c6F)c6ccc3[nH]6)C=C5)C=C4)cc2)C1
REMARK SMILES IDX 14 1 13 2 12 3 11 4 10 5 8 6 9 7 7 9 3 10 4 11 83 12 5 13
REMARK SMILES IDX 6 14 2 15 1 16 15 17 16 18 17 19 18 20 19 22 20 23 21 24
REMARK SMILES IDX 82 25 22 26 81 27 23 28 24 29 25 30 75 31 26 32 80 33 74 34
REMARK SMILES IDX 76 35 27 36 79 37 73 38 72 39 28 41 60 42 40 43 59 44 41 45
REMARK SMILES IDX 44 46 58 47 77 48 42 49 43 50 57 52 78 53 45 54 29 55 30 56
REMARK SMILES IDX 38 57 31 58 32 59 36 60 39 61 33 62 34 63 37 64 35 65 61 66
REMARK SMILES IDX 62 67 70 68 63 69 64 70 68 71 71 72 65 73 66 74 69 75 67 76
REMARK SMILES IDX 46 77 47 78 55 79 48 80 49 81 53 82 56 83 50 84 51 85 54 86
REMARK SMILES IDX 52 87
REMARK H PARENT 10 8 17 21 76 40 44 51
REMARK Flexibility Score: inf
ROOT
ATOM      1  C   UNL A   1      36.576  34.175  29.128  1.00  0.00     0.002 C 
ENDROOT
BRANCH   1   2
ATOM      2  C   UNL A   1      37.887  33.508  29.565  1.00  0.00     0.002 C 
BRANCH   2   3
ATOM      3  C   UNL A   1      37.798  32.684  30.857  1.00  0.00     0.021 C 
BRANCH   3   4
ATOM      4  C   UNL A   1      37.784  33.540  32.123  1.00  0.00     0.116 C 
BRANCH   4   5
ATOM      5  N   UNL A   1      36.647  33.224  32.958  1.00  0.00    -0.356 N 
ATOM      6  C   UNL A   1      35.466  33.827  33.216  1.00  0.00     0.224 C 
ATOM      7  O   UNL A   1      34.770  33.279  34.081  1.00  0.00    -0.275 OA
ATOM      8  H   UNL A   1      36.758  32.378  33.451  1.00  0.00     0.163 HD
BRANCH   6   9
ATOM      9  C   UNL A   1      34.889  35.030  32.473  1.00  0.00     0.098 C 
ATOM     10  N   UNL A   1      33.432  36.070  30.777  1.00  0.00    -0.344 N 
ATOM     11  C   UNL A   1      33.010  37.145  31.666  1.00  0.00     0.119 C 
ATOM     12  C   UNL A   1      33.825  34.816  31.407  1.00  0.00     0.132 C 
ATOM     13  C   UNL A   1      34.021  37.382  32.783  1.00  0.00     0.022 C 
ATOM     14  C   UNL A   1      34.414  36.081  33.490  1.00  0.00     0.017 C 
BRANCH  10  15
ATOM     15  C   UNL A   1      33.164  36.109  29.425  1.00  0.00     0.339 C 
ATOM     16  O   UNL A   1      32.528  35.267  28.802  1.00  0.00    -0.279 OA
ENDBRANCH  10  15
ENDBRANCH   6   9
ENDBRANCH   4   5
ENDBRANCH   3   4
ENDBRANCH   2   3
ENDBRANCH   1   2
BRANCH   1  17
ATOM     17  C   UNL A   1      35.581  33.255  28.413  1.00  0.00     0.021 C 
BRANCH  17  18
ATOM     18  C   UNL A   1      34.781  32.348  29.343  1.00  0.00     0.116 C 
BRANCH  18  19
ATOM     19  N   UNL A   1      34.153  31.257  28.617  1.00  0.00    -0.352 N 
ATOM     20  C   UNL A   1      34.719  30.178  27.991  1.00  0.00     0.251 C 
ATOM     21  H   UNL A   1      33.170  31.299  28.568  1.00  0.00     0.163 HD
ATOM     22  O   UNL A   1      34.050  29.489  27.228  1.00  0.00    -0.269 OA
BRANCH  20  23
ATOM     23  C   UNL A   1      36.139  29.841  28.227  1.00  0.00     0.039 A 
ATOM     24  C   UNL A   1      36.508  29.324  29.472  1.00  0.00     0.014 A 
ATOM     25  C   UNL A   1      37.110  30.078  27.249  1.00  0.00     0.014 A 
ATOM     26  C   UNL A   1      37.845  29.011  29.723  1.00  0.00     0.010 A 
ATOM     27  C   UNL A   1      38.431  29.701  27.476  1.00  0.00     0.010 A 
ATOM     28  C   UNL A   1      38.814  29.177  28.719  1.00  0.00    -0.014 A 
BRANCH  28  29
ATOM     29  C   UNL A   1      40.233  28.825  28.969  1.00  0.00     0.031 A 
ATOM     30  C   UNL A   1      41.143  29.798  29.665  1.00  0.00     0.074 A 
ATOM     31  C   UNL A   1      40.711  27.645  28.531  1.00  0.00     0.049 A 
ATOM     32  N   UNL A   1      42.416  29.682  29.950  1.00  0.00    -0.248 NA
ATOM     33  C   UNL A   1      40.553  31.082  30.072  1.00  0.00     0.031 C 
ATOM     34  C   UNL A   1      39.937  26.641  27.798  1.00  0.00     0.029 A 
ATOM     35  N   UNL A   1      41.962  27.092  28.633  1.00  0.00    -0.354 N 
ATOM     36  C   UNL A   1      42.778  30.877  30.557  1.00  0.00     0.074 A 
ATOM     37  C   UNL A   1      41.607  31.726  30.550  1.00  0.00     0.031 C 
ATOM     38  C   UNL A   1      40.724  25.584  27.539  1.00  0.00     0.029 A 
ATOM     39  C   UNL A   1      42.063  25.849  28.058  1.00  0.00     0.049 A 
ATOM     40  H   UNL A   1      42.717  27.544  29.074  1.00  0.00     0.167 HD
ATOM     41  C   UNL A   1      43.972  31.226  31.095  1.00  0.00     0.037 A 
ATOM     42  C   UNL A   1      43.117  25.018  27.962  1.00  0.00     0.037 A 
ATOM     43  C   UNL A   1      45.127  30.368  31.122  1.00  0.00     0.049 A 
ATOM     44  C   UNL A   1      44.430  25.426  28.572  1.00  0.00     0.074 A 
ATOM     45  C   UNL A   1      46.364  30.601  31.697  1.00  0.00     0.029 A 
ATOM     46  N   UNL A   1      45.187  29.108  30.543  1.00  0.00    -0.354 N 
ATOM     47  N   UNL A   1      44.740  26.528  29.211  1.00  0.00    -0.248 NA
ATOM     48  C   UNL A   1      45.539  24.469  28.455  1.00  0.00     0.031 C 
ATOM     49  C   UNL A   1      47.186  29.501  31.429  1.00  0.00     0.029 A 
ATOM     50  C   UNL A   1      46.447  28.561  30.728  1.00  0.00     0.049 A 
ATOM     51  H   UNL A   1      44.443  28.667  30.071  1.00  0.00     0.167 HD
ATOM     52  C   UNL A   1      46.066  26.388  29.593  1.00  0.00     0.074 A 
ATOM     53  C   UNL A   1      46.498  25.085  29.131  1.00  0.00     0.031 C 
ATOM     54  C   UNL A   1      46.858  27.260  30.264  1.00  0.00     0.037 A 
BRANCH  41  55
ATOM     55  C   UNL A   1      44.086  32.594  31.703  1.00  0.00     0.064 A 
ATOM     56  C   UNL A   1      43.797  32.823  33.058  1.00  0.00     0.173 A 
ATOM     57  C   UNL A   1      44.524  33.682  30.934  1.00  0.00     0.173 A 
ATOM     58  F   UNL A   1      43.365  31.819  33.834  1.00  0.00    -0.203 F 
ATOM     59  C   UNL A   1      43.912  34.096  33.610  1.00  0.00     0.198 A 
ATOM     60  C   UNL A   1      44.666  34.948  31.498  1.00  0.00     0.198 A 
ATOM     61  F   UNL A   1      44.820  33.517  29.636  1.00  0.00    -0.203 F 
ATOM     62  F   UNL A   1      43.580  34.299  34.893  1.00  0.00    -0.200 F 
ATOM     63  C   UNL A   1      44.352  35.155  32.832  1.00  0.00     0.200 A 
ATOM     64  F   UNL A   1      45.105  35.968  30.748  1.00  0.00    -0.200 F 
ATOM     65  F   UNL A   1      44.468  36.378  33.367  1.00  0.00    -0.200 F 
ENDBRANCH  41  55
BRANCH  42  66
ATOM     66  C   UNL A   1      42.964  23.702  27.288  1.00  0.00     0.064 A 
ATOM     67  C   UNL A   1      43.366  23.525  25.957  1.00  0.00     0.173 A 
ATOM     68  C   UNL A   1      42.413  22.599  27.956  1.00  0.00     0.173 A 
ATOM     69  F   UNL A   1      43.882  24.556  25.272  1.00  0.00    -0.203 F 
ATOM     70  C   UNL A   1      43.204  22.301  25.313  1.00  0.00     0.198 A 
ATOM     71  C   UNL A   1      42.276  21.368  27.319  1.00  0.00     0.198 A 
ATOM     72  F   UNL A   1      42.017  22.715  29.232  1.00  0.00    -0.203 F 
ATOM     73  F   UNL A   1      43.555  22.172  24.026  1.00  0.00    -0.200 F 
ATOM     74  C   UNL A   1      42.664  21.221  25.996  1.00  0.00     0.200 A 
ATOM     75  F   UNL A   1      41.768  20.323  27.987  1.00  0.00    -0.200 F 
ATOM     76  F   UNL A   1      42.511  20.043  25.378  1.00  0.00    -0.200 F 
ENDBRANCH  42  66
BRANCH  54  77
ATOM     77  C   UNL A   1      48.262  26.823  30.560  1.00  0.00     0.064 A 
ATOM     78  C   UNL A   1      48.564  26.029  31.677  1.00  0.00     0.173 A 
ATOM     79  C   UNL A   1      49.313  27.176  29.701  1.00  0.00     0.173 A 
ATOM     80  F   UNL A   1      47.597  25.679  32.537  1.00  0.00    -0.203 F 
ATOM     81  C   UNL A   1      49.873  25.632  31.937  1.00  0.00     0.198 A 
ATOM     82  C   UNL A   1      50.615  26.750  29.948  1.00  0.00     0.198 A 
ATOM     83  F   UNL A   1      49.076  27.927  28.615  1.00  0.00    -0.203 F 
ATOM     84  F   UNL A   1      50.147  24.918  33.039  1.00  0.00    -0.200 F 
ATOM     85  C   UNL A   1      50.895  25.985  31.071  1.00  0.00     0.200 A 
ATOM     86  F   UNL A   1      51.599  27.083  29.102  1.00  0.00    -0.200 F 
ATOM     87  F   UNL A   1      52.153  25.598  31.321  1.00  0.00    -0.200 F 
ENDBRANCH  54  77
ENDBRANCH  28  29
ENDBRANCH  20  23
ENDBRANCH  18  19
ENDBRANCH  17  18
ENDBRANCH   1  17
TORSDOF 14
ENDMDL
