MODEL 1
REMARK VINA RESULT:     -14.7      0.000      0.000
REMARK SMILES CC(=O)Nc1cnc(N2CC=C(c3ccccc3C)CC2)c(C(=O)NCCCCCCNC(=O)c2ccc(-c3c4nc(c(-c5c(F)c(F)c(F)c(F)c5F)c5ccc([nH]5)c(-c5c(F)c(F)c(F)c(F)c5F)c5nc(c(-c6c(F)c(F)c(F)c(F)c6F)c6ccc3[nH]6)C=C5)C=C4)cc2)c1
REMARK SMILES IDX 28 1 27 2 26 3 25 4 23 5 24 6 22 8 5 9 6 10 98 11 7 12 8 13
REMARK SMILES IDX 4 14 1 15 2 16 3 17 9 19 10 20 21 21 11 22 20 23 12 24 13 25
REMARK SMILES IDX 14 26 18 27 15 28 17 29 19 30 16 31 29 32 30 33 31 34 32 35
REMARK SMILES IDX 33 36 34 38 35 39 36 40 97 41 37 42 96 43 38 44 39 45 40 46
REMARK SMILES IDX 90 47 41 48 95 49 89 50 91 51 42 52 94 53 88 54 87 55 43 57
REMARK SMILES IDX 75 58 55 59 74 60 56 61 59 62 73 63 92 64 57 65 58 66 72 68
REMARK SMILES IDX 93 69 60 70 44 71 45 72 53 73 46 74 47 75 51 76 54 77 48 78
REMARK SMILES IDX 49 79 52 80 50 81 76 82 77 83 85 84 78 85 79 86 83 87 86 88
REMARK SMILES IDX 80 89 81 90 84 91 82 92 61 93 62 94 70 95 63 96 64 97 68 98
REMARK SMILES IDX 71 99 65 100 66 101 69 102 67 103
REMARK H PARENT 25 7 4 18 32 37 91 56 59 67
REMARK Flexibility Score: inf
ROOT
ATOM      1  C   UNL A   1      34.336  28.679  26.875  1.00  0.00     0.002 C 
ENDROOT
BRANCH   1   2
ATOM      2  C   UNL A   1      34.180  27.856  25.585  1.00  0.00     0.021 C 
BRANCH   2   3
ATOM      3  C   UNL A   1      33.803  26.392  25.814  1.00  0.00     0.116 C 
BRANCH   3   4
ATOM      4  N   UNL A   1      32.443  26.257  26.279  1.00  0.00    -0.352 N 
ATOM      5  C   UNL A   1      31.185  26.497  25.791  1.00  0.00     0.255 C 
ATOM      6  O   UNL A   1      30.325  25.959  26.489  1.00  0.00    -0.269 OA
ATOM      7  H   UNL A   1      32.411  25.896  27.194  1.00  0.00     0.163 HD
BRANCH   5   8
ATOM      8  C   UNL A   1      30.831  27.279  24.551  1.00  0.00     0.084 A 
ATOM      9  C   UNL A   1      30.268  29.403  23.469  1.00  0.00     0.060 A 
ATOM     10  C   UNL A   1      30.379  28.763  22.256  1.00  0.00     0.139 A 
ATOM     11  C   UNL A   1      30.425  28.625  24.616  1.00  0.00     0.045 A 
ATOM     12  N   UNL A   1      30.714  27.466  22.139  1.00  0.00    -0.236 NA
ATOM     13  C   UNL A   1      30.943  26.715  23.257  1.00  0.00     0.141 A 
BRANCH   9  14
ATOM     14  N   UNL A   1      29.976  30.776  23.499  1.00  0.00    -0.325 N 
ATOM     15  C   UNL A   1      27.495  30.613  23.441  1.00  0.00     0.114 C 
ATOM     16  C   UNL A   1      28.772  31.408  23.352  1.00  0.00     0.221 C 
ATOM     17  O   UNL A   1      28.743  32.633  23.218  1.00  0.00    -0.275 OA
ATOM     18  H   UNL A   1      30.749  31.368  23.647  1.00  0.00     0.169 HD
ENDBRANCH   9  14
BRANCH  13  19
ATOM     19  N   UNL A   1      31.265  25.417  22.957  1.00  0.00    -0.352 N 
ATOM     20  C   UNL A   1      30.293  24.389  23.281  1.00  0.00     0.146 C 
ATOM     21  C   UNL A   1      32.486  25.034  22.260  1.00  0.00     0.123 C 
ATOM     22  C   UNL A   1      30.961  23.073  23.562  1.00  0.00    -0.002 C 
ATOM     23  C   UNL A   1      33.224  23.947  23.050  1.00  0.00     0.057 C 
ATOM     24  C   UNL A   1      32.286  22.846  23.475  1.00  0.00    -0.041 C 
BRANCH  24  25
ATOM     25  C   UNL A   1      32.828  21.503  23.771  1.00  0.00    -0.020 A 
ATOM     26  C   UNL A   1      32.247  20.401  23.114  1.00  0.00     0.008 A 
ATOM     27  C   UNL A   1      33.873  21.273  24.688  1.00  0.00    -0.044 A 
ATOM     28  C   UNL A   1      32.674  19.098  23.366  1.00  0.00     0.001 A 
ATOM     29  C   UNL A   1      34.303  19.953  24.920  1.00  0.00     0.004 A 
ATOM     30  C   UNL A   1      34.564  22.384  25.429  1.00  0.00     0.045 C 
ATOM     31  C   UNL A   1      33.702  18.875  24.273  1.00  0.00     0.000 A 
ENDBRANCH  24  25
ENDBRANCH  13  19
ENDBRANCH   5   8
ENDBRANCH   3   4
ENDBRANCH   2   3
ENDBRANCH   1   2
BRANCH   1  32
ATOM     32  C   UNL A   1      33.104  29.487  27.326  1.00  0.00     0.002 C 
BRANCH  32  33
ATOM     33  C   UNL A   1      33.274  31.009  27.401  1.00  0.00     0.021 C 
BRANCH  33  34
ATOM     34  C   UNL A   1      34.714  31.454  27.609  1.00  0.00     0.116 C 
BRANCH  34  35
ATOM     35  N   UNL A   1      35.017  31.871  28.970  1.00  0.00    -0.352 N 
ATOM     36  C   UNL A   1      35.890  31.290  29.883  1.00  0.00     0.251 C 
ATOM     37  H   UNL A   1      34.540  32.672  29.287  1.00  0.00     0.163 HD
ATOM     38  O   UNL A   1      36.020  31.738  30.996  1.00  0.00    -0.269 OA
BRANCH  36  39
ATOM     39  C   UNL A   1      36.746  30.173  29.409  1.00  0.00     0.039 A 
ATOM     40  C   UNL A   1      37.068  29.164  30.322  1.00  0.00     0.014 A 
ATOM     41  C   UNL A   1      37.380  30.237  28.170  1.00  0.00     0.014 A 
ATOM     42  C   UNL A   1      38.186  28.365  30.087  1.00  0.00     0.010 A 
ATOM     43  C   UNL A   1      38.539  29.508  27.977  1.00  0.00     0.010 A 
ATOM     44  C   UNL A   1      38.977  28.619  28.964  1.00  0.00    -0.014 A 
BRANCH  44  45
ATOM     45  C   UNL A   1      40.312  28.056  28.791  1.00  0.00     0.031 A 
ATOM     46  C   UNL A   1      40.493  26.626  28.479  1.00  0.00     0.074 A 
ATOM     47  C   UNL A   1      41.410  28.838  28.893  1.00  0.00     0.049 A 
ATOM     48  N   UNL A   1      41.540  25.947  28.818  1.00  0.00    -0.248 NA
ATOM     49  C   UNL A   1      39.492  25.837  27.775  1.00  0.00     0.031 C 
ATOM     50  C   UNL A   1      42.782  28.477  28.540  1.00  0.00     0.029 A 
ATOM     51  N   UNL A   1      41.536  30.070  29.554  1.00  0.00    -0.354 N 
ATOM     52  C   UNL A   1      41.485  24.742  28.163  1.00  0.00     0.074 A 
ATOM     53  C   UNL A   1      40.161  24.695  27.580  1.00  0.00     0.031 C 
ATOM     54  C   UNL A   1      43.626  29.252  29.238  1.00  0.00     0.029 A 
ATOM     55  C   UNL A   1      42.827  30.056  30.141  1.00  0.00     0.049 A 
ATOM     56  H   UNL A   1      40.868  30.792  29.599  1.00  0.00     0.167 HD
ATOM     57  C   UNL A   1      42.606  23.969  28.078  1.00  0.00     0.037 A 
ATOM     58  C   UNL A   1      42.997  30.154  31.492  1.00  0.00     0.037 A 
ATOM     59  C   UNL A   1      43.753  24.578  28.753  1.00  0.00     0.049 A 
ATOM     60  C   UNL A   1      43.717  28.985  32.130  1.00  0.00     0.074 A 
ATOM     61  C   UNL A   1      44.873  25.269  28.321  1.00  0.00     0.029 A 
ATOM     62  N   UNL A   1      43.711  24.750  30.124  1.00  0.00    -0.354 N 
ATOM     63  N   UNL A   1      44.127  27.930  31.485  1.00  0.00    -0.248 NA
ATOM     64  C   UNL A   1      43.916  28.864  33.575  1.00  0.00     0.031 C 
ATOM     65  C   UNL A   1      45.538  25.804  29.458  1.00  0.00     0.029 A 
ATOM     66  C   UNL A   1      44.810  25.452  30.579  1.00  0.00     0.049 A 
ATOM     67  H   UNL A   1      42.990  24.415  30.704  1.00  0.00     0.167 HD
ATOM     68  C   UNL A   1      44.547  26.983  32.384  1.00  0.00     0.074 A 
ATOM     69  C   UNL A   1      44.400  27.615  33.680  1.00  0.00     0.031 C 
ATOM     70  C   UNL A   1      44.928  25.730  31.998  1.00  0.00     0.037 A 
BRANCH  57  71
ATOM     71  C   UNL A   1      42.724  22.771  27.166  1.00  0.00     0.064 A 
ATOM     72  C   UNL A   1      42.014  21.580  27.428  1.00  0.00     0.173 A 
ATOM     73  C   UNL A   1      43.555  22.723  26.031  1.00  0.00     0.173 A 
ATOM     74  F   UNL A   1      41.084  21.511  28.389  1.00  0.00    -0.203 F 
ATOM     75  C   UNL A   1      42.232  20.403  26.709  1.00  0.00     0.198 A 
ATOM     76  C   UNL A   1      43.821  21.531  25.349  1.00  0.00     0.198 A 
ATOM     77  F   UNL A   1      44.096  23.837  25.521  1.00  0.00    -0.203 F 
ATOM     78  F   UNL A   1      41.536  19.299  27.016  1.00  0.00    -0.200 F 
ATOM     79  C   UNL A   1      43.171  20.366  25.699  1.00  0.00     0.200 A 
ATOM     80  F   UNL A   1      44.714  21.522  24.349  1.00  0.00    -0.200 F 
ATOM     81  F   UNL A   1      43.426  19.222  25.051  1.00  0.00    -0.200 F 
ENDBRANCH  57  71
BRANCH  58  82
ATOM     82  C   UNL A   1      41.916  30.945  32.135  1.00  0.00     0.064 A 
ATOM     83  C   UNL A   1      41.974  32.350  32.030  1.00  0.00     0.173 A 
ATOM     84  C   UNL A   1      40.681  30.365  32.442  1.00  0.00     0.173 A 
ATOM     85  F   UNL A   1      43.138  32.954  31.740  1.00  0.00    -0.203 F 
ATOM     86  C   UNL A   1      40.817  33.121  32.067  1.00  0.00     0.198 A 
ATOM     87  C   UNL A   1      39.529  31.147  32.510  1.00  0.00     0.198 A 
ATOM     88  F   UNL A   1      40.561  29.034  32.547  1.00  0.00    -0.203 F 
ATOM     89  F   UNL A   1      40.880  34.434  31.806  1.00  0.00    -0.200 F 
ATOM     90  C   UNL A   1      39.590  32.513  32.275  1.00  0.00     0.200 A 
ATOM     91  F   UNL A   1      38.340  30.558  32.702  1.00  0.00    -0.200 F 
ATOM     92  F   UNL A   1      38.464  33.235  32.201  1.00  0.00    -0.200 F 
ENDBRANCH  58  82
BRANCH  70  93
ATOM     93  C   UNL A   1      45.416  24.653  32.933  1.00  0.00     0.064 A 
ATOM     94  C   UNL A   1      44.609  23.580  33.347  1.00  0.00     0.173 A 
ATOM     95  C   UNL A   1      46.692  24.725  33.536  1.00  0.00     0.173 A 
ATOM     96  F   UNL A   1      43.342  23.467  32.925  1.00  0.00    -0.203 F 
ATOM     97  C   UNL A   1      45.077  22.607  34.236  1.00  0.00     0.198 A 
ATOM     98  C   UNL A   1      47.135  23.784  34.463  1.00  0.00     0.198 A 
ATOM     99  F   UNL A   1      47.560  25.701  33.234  1.00  0.00    -0.203 F 
ATOM    100  F   UNL A   1      44.293  21.567  34.554  1.00  0.00    -0.200 F 
ATOM    101  C   UNL A   1      46.337  22.712  34.798  1.00  0.00     0.200 A 
ATOM    102  F   UNL A   1      48.347  23.922  35.023  1.00  0.00    -0.200 F 
ATOM    103  F   UNL A   1      46.775  21.787  35.662  1.00  0.00    -0.200 F 
ENDBRANCH  70  93
ENDBRANCH  44  45
ENDBRANCH  36  39
ENDBRANCH  34  35
ENDBRANCH  33  34
ENDBRANCH  32  33
ENDBRANCH   1  32
TORSDOF 16
ENDMDL
MODEL 2
REMARK VINA RESULT:     -14.5      1.679      4.348
REMARK SMILES CC(=O)Nc1cnc(N2CC=C(c3ccccc3C)CC2)c(C(=O)NCCCCCCNC(=O)c2ccc(-c3c4nc(c(-c5c(F)c(F)c(F)c(F)c5F)c5ccc([nH]5)c(-c5c(F)c(F)c(F)c(F)c5F)c5nc(c(-c6c(F)c(F)c(F)c(F)c6F)c6ccc3[nH]6)C=C5)C=C4)cc2)c1
REMARK SMILES IDX 28 1 27 2 26 3 25 4 23 5 24 6 22 8 5 9 6 10 98 11 7 12 8 13
REMARK SMILES IDX 4 14 1 15 2 16 3 17 9 19 10 20 21 21 11 22 20 23 12 24 13 25
REMARK SMILES IDX 14 26 18 27 15 28 17 29 19 30 16 31 29 32 30 33 31 34 32 35
REMARK SMILES IDX 33 36 34 38 35 39 36 40 97 41 37 42 96 43 38 44 39 45 40 46
REMARK SMILES IDX 90 47 41 48 95 49 89 50 91 51 42 52 94 53 88 54 87 55 43 57
REMARK SMILES IDX 75 58 55 59 74 60 56 61 59 62 73 63 92 64 57 65 58 66 72 68
REMARK SMILES IDX 93 69 60 70 44 71 45 72 53 73 46 74 47 75 51 76 54 77 48 78
REMARK SMILES IDX 49 79 52 80 50 81 76 82 77 83 85 84 78 85 79 86 83 87 86 88
REMARK SMILES IDX 80 89 81 90 84 91 82 92 61 93 62 94 70 95 63 96 64 97 68 98
REMARK SMILES IDX 71 99 65 100 66 101 69 102 67 103
REMARK H PARENT 25 7 4 18 32 37 91 56 59 67
REMARK Flexibility Score: inf
ROOT
ATOM      1  C   UNL A   1      31.880  28.528  27.375  1.00  0.00     0.002 C 
ENDROOT
BRANCH   1   2
ATOM      2  C   UNL A   1      31.309  27.310  26.629  1.00  0.00     0.021 C 
BRANCH   2   3
ATOM      3  C   UNL A   1      32.268  26.123  26.537  1.00  0.00     0.116 C 
BRANCH   3   4
ATOM      4  N   UNL A   1      31.634  24.969  25.946  1.00  0.00    -0.352 N 
ATOM      5  C   UNL A   1      32.019  23.870  25.223  1.00  0.00     0.255 C 
ATOM      6  O   UNL A   1      31.123  23.026  25.182  1.00  0.00    -0.269 OA
ATOM      7  H   UNL A   1      30.663  24.971  26.107  1.00  0.00     0.163 HD
BRANCH   5   8
ATOM      8  C   UNL A   1      33.358  23.646  24.565  1.00  0.00     0.084 A 
ATOM      9  C   UNL A   1      35.387  22.303  24.283  1.00  0.00     0.060 A 
ATOM     10  C   UNL A   1      35.723  23.115  23.225  1.00  0.00     0.139 A 
ATOM     11  C   UNL A   1      34.232  22.630  24.994  1.00  0.00     0.045 A 
ATOM     12  N   UNL A   1      34.949  24.131  22.805  1.00  0.00    -0.236 NA
ATOM     13  C   UNL A   1      33.778  24.411  23.450  1.00  0.00     0.141 A 
BRANCH   9  14
ATOM     14  N   UNL A   1      36.221  21.224  24.616  1.00  0.00    -0.325 N 
ATOM     15  C   UNL A   1      38.030  22.507  25.744  1.00  0.00     0.114 C 
ATOM     16  C   UNL A   1      37.482  21.237  25.145  1.00  0.00     0.221 C 
ATOM     17  O   UNL A   1      38.130  20.189  25.192  1.00  0.00    -0.275 OA
ATOM     18  H   UNL A   1      35.844  20.332  24.443  1.00  0.00     0.169 HD
ENDBRANCH   9  14
BRANCH  13  19
ATOM     19  N   UNL A   1      33.120  25.479  22.898  1.00  0.00    -0.352 N 
ATOM     20  C   UNL A   1      33.414  26.799  23.428  1.00  0.00     0.146 C 
ATOM     21  C   UNL A   1      32.214  25.364  21.763  1.00  0.00     0.123 C 
ATOM     22  C   UNL A   1      32.236  27.721  23.284  1.00  0.00    -0.002 C 
ATOM     23  C   UNL A   1      30.873  26.029  22.091  1.00  0.00     0.057 C 
ATOM     24  C   UNL A   1      31.070  27.397  22.692  1.00  0.00    -0.041 C 
BRANCH  24  25
ATOM     25  C   UNL A   1      29.982  28.393  22.604  1.00  0.00    -0.020 A 
ATOM     26  C   UNL A   1      30.266  29.622  21.976  1.00  0.00     0.008 A 
ATOM     27  C   UNL A   1      28.694  28.186  23.137  1.00  0.00    -0.044 A 
ATOM     28  C   UNL A   1      29.307  30.630  21.886  1.00  0.00     0.001 A 
ATOM     29  C   UNL A   1      27.732  29.207  23.024  1.00  0.00     0.004 A 
ATOM     30  C   UNL A   1      28.292  26.904  23.815  1.00  0.00     0.045 C 
ATOM     31  C   UNL A   1      28.040  30.421  22.414  1.00  0.00     0.000 A 
ENDBRANCH  24  25
ENDBRANCH  13  19
ENDBRANCH   5   8
ENDBRANCH   3   4
ENDBRANCH   2   3
ENDBRANCH   1   2
BRANCH   1  32
ATOM     32  C   UNL A   1      31.969  29.842  26.576  1.00  0.00     0.002 C 
BRANCH  32  33
ATOM     33  C   UNL A   1      32.799  30.969  27.202  1.00  0.00     0.021 C 
BRANCH  33  34
ATOM     34  C   UNL A   1      34.179  30.528  27.665  1.00  0.00     0.116 C 
BRANCH  34  35
ATOM     35  N   UNL A   1      34.752  31.362  28.712  1.00  0.00    -0.352 N 
ATOM     36  C   UNL A   1      35.916  31.162  29.443  1.00  0.00     0.251 C 
ATOM     37  H   UNL A   1      34.245  32.177  28.931  1.00  0.00     0.163 HD
ATOM     38  O   UNL A   1      36.254  31.935  30.306  1.00  0.00    -0.269 OA
BRANCH  36  39
ATOM     39  C   UNL A   1      36.796  30.031  29.051  1.00  0.00     0.039 A 
ATOM     40  C   UNL A   1      37.131  29.093  30.032  1.00  0.00     0.014 A 
ATOM     41  C   UNL A   1      37.437  30.023  27.813  1.00  0.00     0.014 A 
ATOM     42  C   UNL A   1      38.265  28.302  29.857  1.00  0.00     0.010 A 
ATOM     43  C   UNL A   1      38.610  29.304  27.675  1.00  0.00     0.010 A 
ATOM     44  C   UNL A   1      39.058  28.492  28.723  1.00  0.00    -0.014 A 
BRANCH  44  45
ATOM     45  C   UNL A   1      40.404  27.944  28.595  1.00  0.00     0.031 A 
ATOM     46  C   UNL A   1      40.611  26.515  28.292  1.00  0.00     0.074 A 
ATOM     47  C   UNL A   1      41.489  28.739  28.732  1.00  0.00     0.049 A 
ATOM     48  N   UNL A   1      41.653  25.849  28.667  1.00  0.00    -0.248 NA
ATOM     49  C   UNL A   1      39.642  25.714  27.558  1.00  0.00     0.031 C 
ATOM     50  C   UNL A   1      42.876  28.392  28.424  1.00  0.00     0.029 A 
ATOM     51  N   UNL A   1      41.580  29.973  29.393  1.00  0.00    -0.354 N 
ATOM     52  C   UNL A   1      41.633  24.642  28.014  1.00  0.00     0.074 A 
ATOM     53  C   UNL A   1      40.330  24.579  27.387  1.00  0.00     0.031 C 
ATOM     54  C   UNL A   1      43.688  29.178  29.148  1.00  0.00     0.029 A 
ATOM     55  C   UNL A   1      42.851  29.974  30.023  1.00  0.00     0.049 A 
ATOM     56  H   UNL A   1      40.902  30.688  29.415  1.00  0.00     0.167 HD
ATOM     57  C   UNL A   1      42.765  23.882  27.967  1.00  0.00     0.037 A 
ATOM     58  C   UNL A   1      42.976  30.077  31.378  1.00  0.00     0.037 A 
ATOM     59  C   UNL A   1      43.882  24.504  28.678  1.00  0.00     0.049 A 
ATOM     60  C   UNL A   1      43.687  28.918  32.042  1.00  0.00     0.074 A 
ATOM     61  C   UNL A   1      45.009  25.208  28.281  1.00  0.00     0.029 A 
ATOM     62  N   UNL A   1      43.794  24.679  30.047  1.00  0.00    -0.354 N 
ATOM     63  N   UNL A   1      44.129  27.866  31.414  1.00  0.00    -0.248 NA
ATOM     64  C   UNL A   1      43.839  28.801  33.493  1.00  0.00     0.031 C 
ATOM     65  C   UNL A   1      45.630  25.752  29.439  1.00  0.00     0.029 A 
ATOM     66  C   UNL A   1      44.870  25.394  30.535  1.00  0.00     0.049 A 
ATOM     67  H   UNL A   1      43.058  24.337  30.604  1.00  0.00     0.167 HD
ATOM     68  C   UNL A   1      44.530  26.925  32.328  1.00  0.00     0.074 A 
ATOM     69  C   UNL A   1      44.334  27.559  33.617  1.00  0.00     0.031 C 
ATOM     70  C   UNL A   1      44.938  25.676  31.958  1.00  0.00     0.037 A 
BRANCH  57  71
ATOM     71  C   UNL A   1      42.926  22.683  27.062  1.00  0.00     0.064 A 
ATOM     72  C   UNL A   1      42.205  21.492  27.291  1.00  0.00     0.173 A 
ATOM     73  C   UNL A   1      43.810  22.635  25.968  1.00  0.00     0.173 A 
ATOM     74  F   UNL A   1      41.231  21.424  28.207  1.00  0.00    -0.203 F 
ATOM     75  C   UNL A   1      42.457  20.315  26.583  1.00  0.00     0.198 A 
ATOM     76  C   UNL A   1      44.108  21.443  25.299  1.00  0.00     0.198 A 
ATOM     77  F   UNL A   1      44.374  23.749  25.484  1.00  0.00    -0.203 F 
ATOM     78  F   UNL A   1      41.747  19.211  26.858  1.00  0.00    -0.200 F 
ATOM     79  C   UNL A   1      43.442  20.278  25.619  1.00  0.00     0.200 A 
ATOM     80  F   UNL A   1      45.047  21.434  24.343  1.00  0.00    -0.200 F 
ATOM     81  F   UNL A   1      43.727  19.133  24.984  1.00  0.00    -0.200 F 
ENDBRANCH  57  71
BRANCH  58  82
ATOM     82  C   UNL A   1      41.865  30.858  31.984  1.00  0.00     0.064 A 
ATOM     83  C   UNL A   1      41.924  32.263  31.899  1.00  0.00     0.173 A 
ATOM     84  C   UNL A   1      40.619  30.271  32.229  1.00  0.00     0.173 A 
ATOM     85  F   UNL A   1      43.097  32.874  31.668  1.00  0.00    -0.203 F 
ATOM     86  C   UNL A   1      40.764  33.032  31.896  1.00  0.00     0.198 A 
ATOM     87  C   UNL A   1      39.463  31.049  32.257  1.00  0.00     0.198 A 
ATOM     88  F   UNL A   1      40.499  28.938  32.311  1.00  0.00    -0.203 F 
ATOM     89  F   UNL A   1      40.835  34.348  31.654  1.00  0.00    -0.200 F 
ATOM     90  C   UNL A   1      39.531  32.418  32.042  1.00  0.00     0.200 A 
ATOM     91  F   UNL A   1      38.269  30.455  32.389  1.00  0.00    -0.200 F 
ATOM     92  F   UNL A   1      38.407  33.138  31.928  1.00  0.00    -0.200 F 
ENDBRANCH  58  82
BRANCH  70  93
ATOM     93  C   UNL A   1      45.406  24.606  32.910  1.00  0.00     0.064 A 
ATOM     94  C   UNL A   1      44.594  23.531  33.309  1.00  0.00     0.173 A 
ATOM     95  C   UNL A   1      46.666  24.688  33.545  1.00  0.00     0.173 A 
ATOM     96  F   UNL A   1      43.338  23.410  32.856  1.00  0.00    -0.203 F 
ATOM     97  C   UNL A   1      45.044  22.565  34.215  1.00  0.00     0.198 A 
ATOM     98  C   UNL A   1      47.090  23.754  34.488  1.00  0.00     0.198 A 
ATOM     99  F   UNL A   1      47.537  25.666  33.260  1.00  0.00    -0.203 F 
ATOM    100  F   UNL A   1      44.257  21.523  34.518  1.00  0.00    -0.200 F 
ATOM    101  C   UNL A   1      46.288  22.680  34.809  1.00  0.00     0.200 A 
ATOM    102  F   UNL A   1      48.286  23.900  35.078  1.00  0.00    -0.200 F 
ATOM    103  F   UNL A   1      46.708  21.761  35.689  1.00  0.00    -0.200 F 
ENDBRANCH  70  93
ENDBRANCH  44  45
ENDBRANCH  36  39
ENDBRANCH  34  35
ENDBRANCH  33  34
ENDBRANCH  32  33
ENDBRANCH   1  32
TORSDOF 16
ENDMDL
MODEL 3
REMARK VINA RESULT:     -14.4      3.734     10.027
REMARK SMILES CC(=O)Nc1cnc(N2CC=C(c3ccccc3C)CC2)c(C(=O)NCCCCCCNC(=O)c2ccc(-c3c4nc(c(-c5c(F)c(F)c(F)c(F)c5F)c5ccc([nH]5)c(-c5c(F)c(F)c(F)c(F)c5F)c5nc(c(-c6c(F)c(F)c(F)c(F)c6F)c6ccc3[nH]6)C=C5)C=C4)cc2)c1
REMARK SMILES IDX 28 1 27 2 26 3 25 4 23 5 24 6 22 8 5 9 6 10 98 11 7 12 8 13
REMARK SMILES IDX 4 14 1 15 2 16 3 17 9 19 10 20 21 21 11 22 20 23 12 24 13 25
REMARK SMILES IDX 14 26 18 27 15 28 17 29 19 30 16 31 29 32 30 33 31 34 32 35
REMARK SMILES IDX 33 36 34 38 35 39 36 40 97 41 37 42 96 43 38 44 39 45 40 46
REMARK SMILES IDX 90 47 41 48 95 49 89 50 91 51 42 52 94 53 88 54 87 55 43 57
REMARK SMILES IDX 75 58 55 59 74 60 56 61 59 62 73 63 92 64 57 65 58 66 72 68
REMARK SMILES IDX 93 69 60 70 44 71 45 72 53 73 46 74 47 75 51 76 54 77 48 78
REMARK SMILES IDX 49 79 52 80 50 81 76 82 77 83 85 84 78 85 79 86 83 87 86 88
REMARK SMILES IDX 80 89 81 90 84 91 82 92 61 93 62 94 70 95 63 96 64 97 68 98
REMARK SMILES IDX 71 99 65 100 66 101 69 102 67 103
REMARK H PARENT 25 7 4 18 32 37 91 56 59 67
REMARK Flexibility Score: inf
ROOT
ATOM      1  C   UNL A   1      35.745  22.416  25.024  1.00  0.00     0.002 C 
ENDROOT
BRANCH   1   2
ATOM      2  C   UNL A   1      35.302  23.347  26.165  1.00  0.00     0.021 C 
BRANCH   2   3
ATOM      3  C   UNL A   1      34.616  22.633  27.330  1.00  0.00     0.116 C 
BRANCH   3   4
ATOM      4  N   UNL A   1      33.188  22.840  27.317  1.00  0.00    -0.352 N 
ATOM      5  C   UNL A   1      32.129  22.499  26.516  1.00  0.00     0.255 C 
ATOM      6  O   UNL A   1      31.056  22.693  27.087  1.00  0.00    -0.269 OA
ATOM      7  H   UNL A   1      32.895  23.368  28.094  1.00  0.00     0.163 HD
BRANCH   5   8
ATOM      8  C   UNL A   1      32.200  21.925  25.123  1.00  0.00     0.084 A 
ATOM      9  C   UNL A   1      32.252  19.989  23.623  1.00  0.00     0.060 A 
ATOM     10  C   UNL A   1      32.128  20.861  22.566  1.00  0.00     0.139 A 
ATOM     11  C   UNL A   1      32.362  20.545  24.898  1.00  0.00     0.045 A 
ATOM     12  N   UNL A   1      32.022  22.191  22.722  1.00  0.00    -0.236 NA
ATOM     13  C   UNL A   1      32.053  22.739  23.974  1.00  0.00     0.141 A 
BRANCH   9  14
ATOM     14  N   UNL A   1      32.294  18.608  23.376  1.00  0.00    -0.325 N 
ATOM     15  C   UNL A   1      34.546  18.144  24.323  1.00  0.00     0.114 C 
ATOM     16  C   UNL A   1      33.333  17.732  23.531  1.00  0.00     0.221 C 
ATOM     17  O   UNL A   1      33.234  16.589  23.080  1.00  0.00    -0.275 OA
ATOM     18  H   UNL A   1      31.455  18.214  23.043  1.00  0.00     0.169 HD
ENDBRANCH   9  14
BRANCH  13  19
ATOM     19  N   UNL A   1      31.939  24.105  23.949  1.00  0.00    -0.352 N 
ATOM     20  C   UNL A   1      33.116  24.873  23.584  1.00  0.00     0.146 C 
ATOM     21  C   UNL A   1      30.687  24.810  24.187  1.00  0.00     0.123 C 
ATOM     22  C   UNL A   1      33.106  26.230  24.228  1.00  0.00    -0.002 C 
ATOM     23  C   UNL A   1      30.882  25.879  25.268  1.00  0.00     0.057 C 
ATOM     24  C   UNL A   1      32.112  26.709  25.003  1.00  0.00    -0.041 C 
BRANCH  24  25
ATOM     25  C   UNL A   1      32.211  28.066  25.579  1.00  0.00    -0.020 A 
ATOM     26  C   UNL A   1      33.054  28.246  26.694  1.00  0.00     0.008 A 
ATOM     27  C   UNL A   1      31.491  29.173  25.087  1.00  0.00    -0.044 A 
ATOM     28  C   UNL A   1      33.174  29.486  27.320  1.00  0.00     0.001 A 
ATOM     29  C   UNL A   1      31.635  30.422  25.720  1.00  0.00     0.004 A 
ATOM     30  C   UNL A   1      30.577  29.084  23.896  1.00  0.00     0.045 C 
ATOM     31  C   UNL A   1      32.461  30.574  26.833  1.00  0.00     0.000 A 
ENDBRANCH  24  25
ENDBRANCH  13  19
ENDBRANCH   5   8
ENDBRANCH   3   4
ENDBRANCH   2   3
ENDBRANCH   1   2
BRANCH   1  32
ATOM     32  C   UNL A   1      36.664  21.243  25.413  1.00  0.00     0.002 C 
BRANCH  32  33
ATOM     33  C   UNL A   1      38.172  21.476  25.265  1.00  0.00     0.021 C 
BRANCH  33  34
ATOM     34  C   UNL A   1      38.717  22.556  26.188  1.00  0.00     0.116 C 
BRANCH  34  35
ATOM     35  N   UNL A   1      40.169  22.653  26.199  1.00  0.00    -0.352 N 
ATOM     36  C   UNL A   1      40.964  23.766  26.443  1.00  0.00     0.251 C 
ATOM     37  H   UNL A   1      40.653  21.817  26.007  1.00  0.00     0.163 HD
ATOM     38  O   UNL A   1      42.168  23.699  26.392  1.00  0.00    -0.269 OA
BRANCH  36  39
ATOM     39  C   UNL A   1      40.292  25.015  26.886  1.00  0.00     0.039 A 
ATOM     40  C   UNL A   1      40.724  26.222  26.328  1.00  0.00     0.014 A 
ATOM     41  C   UNL A   1      39.417  25.007  27.969  1.00  0.00     0.014 A 
ATOM     42  C   UNL A   1      40.464  27.414  27.002  1.00  0.00     0.010 A 
ATOM     43  C   UNL A   1      39.233  26.175  28.686  1.00  0.00     0.010 A 
ATOM     44  C   UNL A   1      39.811  27.368  28.236  1.00  0.00    -0.014 A 
BRANCH  44  45
ATOM     45  C   UNL A   1      39.764  28.503  29.152  1.00  0.00     0.031 A 
ATOM     46  C   UNL A   1      38.757  29.568  28.981  1.00  0.00     0.074 A 
ATOM     47  C   UNL A   1      40.628  28.592  30.187  1.00  0.00     0.049 A 
ATOM     48  N   UNL A   1      38.943  30.792  29.352  1.00  0.00    -0.248 NA
ATOM     49  C   UNL A   1      37.463  29.340  28.354  1.00  0.00     0.031 C 
ATOM     50  C   UNL A   1      40.572  29.538  31.300  1.00  0.00     0.029 A 
ATOM     51  N   UNL A   1      41.878  27.968  30.327  1.00  0.00    -0.354 N 
ATOM     52  C   UNL A   1      37.735  31.439  29.271  1.00  0.00     0.074 A 
ATOM     53  C   UNL A   1      36.861  30.512  28.583  1.00  0.00     0.031 C 
ATOM     54  C   UNL A   1      41.806  29.683  31.806  1.00  0.00     0.029 A 
ATOM     55  C   UNL A   1      42.709  28.922  30.967  1.00  0.00     0.049 A 
ATOM     56  H   UNL A   1      42.124  27.059  30.040  1.00  0.00     0.167 HD
ATOM     57  C   UNL A   1      37.567  32.636  29.905  1.00  0.00     0.037 A 
ATOM     58  C   UNL A   1      43.841  29.397  30.369  1.00  0.00     0.037 A 
ATOM     59  C   UNL A   1      38.780  33.072  30.597  1.00  0.00     0.049 A 
ATOM     60  C   UNL A   1      43.870  30.896  30.160  1.00  0.00     0.074 A 
ATOM     61  C   UNL A   1      39.195  33.064  31.919  1.00  0.00     0.029 A 
ATOM     62  N   UNL A   1      39.906  33.376  29.853  1.00  0.00    -0.354 N 
ATOM     63  N   UNL A   1      42.898  31.704  30.475  1.00  0.00    -0.248 NA
ATOM     64  C   UNL A   1      44.956  31.582  29.457  1.00  0.00     0.031 C 
ATOM     65  C   UNL A   1      40.568  33.430  31.963  1.00  0.00     0.029 A 
ATOM     66  C   UNL A   1      40.991  33.642  30.665  1.00  0.00     0.049 A 
ATOM     67  H   UNL A   1      39.931  33.400  28.869  1.00  0.00     0.167 HD
ATOM     68  C   UNL A   1      43.161  32.951  29.968  1.00  0.00     0.074 A 
ATOM     69  C   UNL A   1      44.463  32.826  29.342  1.00  0.00     0.031 C 
ATOM     70  C   UNL A   1      42.263  33.975  30.050  1.00  0.00     0.037 A 
BRANCH  57  71
ATOM     71  C   UNL A   1      36.221  33.293  30.102  1.00  0.00     0.064 A 
ATOM     72  C   UNL A   1      35.503  33.829  29.013  1.00  0.00     0.173 A 
ATOM     73  C   UNL A   1      35.600  33.456  31.354  1.00  0.00     0.173 A 
ATOM     74  F   UNL A   1      35.896  33.637  27.747  1.00  0.00    -0.203 F 
ATOM     75  C   UNL A   1      34.346  34.593  29.180  1.00  0.00     0.198 A 
ATOM     76  C   UNL A   1      34.477  34.270  31.531  1.00  0.00     0.198 A 
ATOM     77  F   UNL A   1      36.035  32.794  32.434  1.00  0.00    -0.203 F 
ATOM     78  F   UNL A   1      33.717  35.089  28.105  1.00  0.00    -0.200 F 
ATOM     79  C   UNL A   1      33.859  34.853  30.444  1.00  0.00     0.200 A 
ATOM     80  F   UNL A   1      33.999  34.485  32.764  1.00  0.00    -0.200 F 
ATOM     81  F   UNL A   1      32.785  35.636  30.609  1.00  0.00    -0.200 F 
ENDBRANCH  57  71
BRANCH  58  82
ATOM     82  C   UNL A   1      44.454  28.395  29.459  1.00  0.00     0.064 A 
ATOM     83  C   UNL A   1      44.192  28.511  28.078  1.00  0.00     0.173 A 
ATOM     84  C   UNL A   1      45.572  27.652  29.850  1.00  0.00     0.173 A 
ATOM     85  F   UNL A   1      43.129  29.212  27.653  1.00  0.00    -0.203 F 
ATOM     86  C   UNL A   1      45.101  28.044  27.134  1.00  0.00     0.198 A 
ATOM     87  C   UNL A   1      46.462  27.157  28.898  1.00  0.00     0.198 A 
ATOM     88  F   UNL A   1      45.878  27.513  31.148  1.00  0.00    -0.203 F 
ATOM     89  F   UNL A   1      44.907  28.307  25.833  1.00  0.00    -0.200 F 
ATOM     90  C   UNL A   1      46.252  27.395  27.547  1.00  0.00     0.200 A 
ATOM     91  F   UNL A   1      47.582  26.539  29.298  1.00  0.00    -0.200 F 
ATOM     92  F   UNL A   1      47.181  27.043  26.649  1.00  0.00    -0.200 F 
ENDBRANCH  58  82
BRANCH  70  93
ATOM     93  C   UNL A   1      42.498  35.370  29.529  1.00  0.00     0.064 A 
ATOM     94  C   UNL A   1      42.043  35.802  28.272  1.00  0.00     0.173 A 
ATOM     95  C   UNL A   1      43.294  36.296  30.241  1.00  0.00     0.173 A 
ATOM     96  F   UNL A   1      41.370  34.974  27.460  1.00  0.00    -0.203 F 
ATOM     97  C   UNL A   1      42.298  37.094  27.801  1.00  0.00     0.198 A 
ATOM     98  C   UNL A   1      43.592  37.564  29.745  1.00  0.00     0.198 A 
ATOM     99  F   UNL A   1      43.797  36.010  31.450  1.00  0.00    -0.203 F 
ATOM    100  F   UNL A   1      41.790  37.482  26.623  1.00  0.00    -0.200 F 
ATOM    101  C   UNL A   1      43.076  37.972  28.534  1.00  0.00     0.200 A 
ATOM    102  F   UNL A   1      44.376  38.388  30.455  1.00  0.00    -0.200 F 
ATOM    103  F   UNL A   1      43.332  39.203  28.071  1.00  0.00    -0.200 F 
ENDBRANCH  70  93
ENDBRANCH  44  45
ENDBRANCH  36  39
ENDBRANCH  34  35
ENDBRANCH  33  34
ENDBRANCH  32  33
ENDBRANCH   1  32
TORSDOF 16
ENDMDL
