MODEL 1
REMARK VINA RESULT:     -11.8      0.000      0.000
REMARK SMILES O=C(NCCCCCCNC(=O)[C@H](F)Sc1cc2ccccc2[nH]1)c1ccc(-c2c3nc(c(-c4c(F)c(F)c(F)c(F)c4F)c4ccc([nH]4)c(-c4c(F)c(F)c(F)c(F)c4F)c4nc(c(-c5c(F)c(F)c(F)c(F)c5F)c5ccc2[nH]5)C=C4)C=C3)cc1
REMARK SMILES IDX 6 1 5 2 4 3 3 4 1 5 2 6 25 8 26 9 87 10 27 11 86 12 28 13
REMARK SMILES IDX 29 14 30 15 80 16 31 17 85 18 79 19 81 20 32 21 84 22 78 23
REMARK SMILES IDX 77 24 33 26 65 27 45 28 64 29 46 30 49 31 63 32 82 33 47 34
REMARK SMILES IDX 48 35 62 37 83 38 50 39 34 40 35 41 43 42 36 43 37 44 41 45
REMARK SMILES IDX 44 46 38 47 39 48 42 49 40 50 66 51 67 52 75 53 68 54 69 55
REMARK SMILES IDX 73 56 76 57 70 58 71 59 74 60 72 61 51 62 52 63 60 64 53 65
REMARK SMILES IDX 54 66 58 67 61 68 55 69 56 70 59 71 57 72 7 73 8 74 9 75
REMARK SMILES IDX 10 76 11 77 12 79 13 80 14 81 15 82 16 83 17 84 24 85 18 86
REMARK SMILES IDX 23 87 19 89 22 90 20 91 21 92
REMARK H PARENT 3 7 81 25 49 36 10 78 24 88
REMARK Flexibility Score: inf
ROOT
ATOM      1  C   UNL A   1      42.182  22.910  26.354  1.00  0.00     0.002 C 
ENDROOT
BRANCH   1   2
ATOM      2  C   UNL A   1      41.428  21.626  26.009  1.00  0.00     0.021 C 
BRANCH   2   3
ATOM      3  C   UNL A   1      40.056  21.490  26.656  1.00  0.00     0.116 C 
BRANCH   3   4
ATOM      4  N   UNL A   1      38.981  21.978  25.808  1.00  0.00    -0.352 N 
ATOM      5  O   UNL A   1      37.382  23.408  25.103  1.00  0.00    -0.269 OA
ATOM      6  C   UNL A   1      38.381  23.213  25.790  1.00  0.00     0.251 C 
ATOM      7  H   UNL A   1      38.634  21.330  25.152  1.00  0.00     0.163 HD
BRANCH   6   8
ATOM      8  C   UNL A   1      38.925  24.311  26.620  1.00  0.00     0.039 A 
ATOM      9  C   UNL A   1      38.666  24.366  27.991  1.00  0.00     0.014 A 
ATOM     10  C   UNL A   1      39.720  25.290  26.017  1.00  0.00     0.014 A 
ATOM     11  C   UNL A   1      39.090  25.465  28.732  1.00  0.00     0.010 A 
ATOM     12  C   UNL A   1      40.214  26.353  26.779  1.00  0.00     0.010 A 
ATOM     13  C   UNL A   1      39.881  26.462  28.138  1.00  0.00    -0.014 A 
BRANCH  13  14
ATOM     14  C   UNL A   1      40.409  27.567  28.978  1.00  0.00     0.031 A 
ATOM     15  C   UNL A   1      41.827  27.562  29.471  1.00  0.00     0.074 A 
ATOM     16  C   UNL A   1      39.591  28.594  29.275  1.00  0.00     0.049 A 
ATOM     17  N   UNL A   1      42.449  28.458  30.198  1.00  0.00    -0.248 NA
ATOM     18  C   UNL A   1      42.657  26.403  29.111  1.00  0.00     0.031 C 
ATOM     19  C   UNL A   1      38.190  28.697  28.863  1.00  0.00     0.029 A 
ATOM     20  N   UNL A   1      39.818  29.751  29.975  1.00  0.00    -0.354 N 
ATOM     21  C   UNL A   1      43.733  27.965  30.395  1.00  0.00     0.074 A 
ATOM     22  C   UNL A   1      43.796  26.680  29.732  1.00  0.00     0.031 C 
ATOM     23  C   UNL A   1      37.693  29.869  29.281  1.00  0.00     0.029 A 
ATOM     24  C   UNL A   1      38.720  30.574  30.040  1.00  0.00     0.049 A 
ATOM     25  H   UNL A   1      40.683  29.970  30.391  1.00  0.00     0.167 HD
ATOM     26  C   UNL A   1      44.763  28.541  31.061  1.00  0.00     0.037 A 
ATOM     27  C   UNL A   1      38.553  31.758  30.656  1.00  0.00     0.037 A 
ATOM     28  C   UNL A   1      44.696  29.827  31.708  1.00  0.00     0.049 A 
ATOM     29  C   UNL A   1      39.706  32.361  31.405  1.00  0.00     0.074 A 
ATOM     30  C   UNL A   1      45.698  30.513  32.374  1.00  0.00     0.029 A 
ATOM     31  N   UNL A   1      43.559  30.622  31.775  1.00  0.00    -0.354 N 
ATOM     32  N   UNL A   1      40.927  31.904  31.548  1.00  0.00    -0.248 NA
ATOM     33  C   UNL A   1      39.459  33.641  32.079  1.00  0.00     0.031 C 
ATOM     34  C   UNL A   1      45.156  31.698  32.883  1.00  0.00     0.029 A 
ATOM     35  C   UNL A   1      43.829  31.777  32.492  1.00  0.00     0.049 A 
ATOM     36  H   UNL A   1      42.689  30.397  31.373  1.00  0.00     0.167 HD
ATOM     37  C   UNL A   1      41.598  32.845  32.314  1.00  0.00     0.074 A 
ATOM     38  C   UNL A   1      40.653  33.910  32.587  1.00  0.00     0.031 C 
ATOM     39  C   UNL A   1      42.878  32.827  32.756  1.00  0.00     0.037 A 
BRANCH  26  40
ATOM     40  C   UNL A   1      46.055  27.781  31.141  1.00  0.00     0.064 A 
ATOM     41  C   UNL A   1      46.293  26.833  32.148  1.00  0.00     0.173 A 
ATOM     42  C   UNL A   1      47.048  27.962  30.165  1.00  0.00     0.173 A 
ATOM     43  F   UNL A   1      45.381  26.628  33.110  1.00  0.00    -0.203 F 
ATOM     44  C   UNL A   1      47.483  26.110  32.185  1.00  0.00     0.198 A 
ATOM     45  C   UNL A   1      48.226  27.219  30.191  1.00  0.00     0.198 A 
ATOM     46  F   UNL A   1      46.869  28.850  29.176  1.00  0.00    -0.203 F 
ATOM     47  F   UNL A   1      47.703  25.237  33.179  1.00  0.00    -0.200 F 
ATOM     48  C   UNL A   1      48.444  26.298  31.204  1.00  0.00     0.200 A 
ATOM     49  F   UNL A   1      49.148  27.393  29.235  1.00  0.00    -0.200 F 
ATOM     50  F   UNL A   1      49.585  25.596  31.238  1.00  0.00    -0.200 F 
ENDBRANCH  26  40
BRANCH  27  51
ATOM     51  C   UNL A   1      37.238  32.444  30.586  1.00  0.00     0.064 A 
ATOM     52  C   UNL A   1      36.268  32.248  31.577  1.00  0.00     0.173 A 
ATOM     53  C   UNL A   1      36.933  33.324  29.536  1.00  0.00     0.173 A 
ATOM     54  F   UNL A   1      36.508  31.402  32.590  1.00  0.00    -0.203 F 
ATOM     55  C   UNL A   1      35.037  32.898  31.516  1.00  0.00     0.198 A 
ATOM     56  C   UNL A   1      35.714  33.996  29.493  1.00  0.00     0.198 A 
ATOM     57  F   UNL A   1      37.831  33.549  28.566  1.00  0.00    -0.203 F 
ATOM     58  F   UNL A   1      34.113  32.665  32.457  1.00  0.00    -0.200 F 
ATOM     59  C   UNL A   1      34.765  33.777  30.479  1.00  0.00     0.200 A 
ATOM     60  F   UNL A   1      35.462  34.857  28.498  1.00  0.00    -0.200 F 
ATOM     61  F   UNL A   1      33.585  34.410  30.427  1.00  0.00    -0.200 F 
ENDBRANCH  27  51
BRANCH  39  62
ATOM     62  C   UNL A   1      43.339  34.006  33.560  1.00  0.00     0.064 A 
ATOM     63  C   UNL A   1      43.263  34.014  34.960  1.00  0.00     0.173 A 
ATOM     64  C   UNL A   1      43.881  35.132  32.923  1.00  0.00     0.173 A 
ATOM     65  F   UNL A   1      42.735  32.968  35.614  1.00  0.00    -0.203 F 
ATOM     66  C   UNL A   1      43.692  35.117  35.694  1.00  0.00     0.198 A 
ATOM     67  C   UNL A   1      44.335  36.222  33.660  1.00  0.00     0.198 A 
ATOM     68  F   UNL A   1      43.978  35.172  31.586  1.00  0.00    -0.203 F 
ATOM     69  F   UNL A   1      43.565  35.123  37.027  1.00  0.00    -0.200 F 
ATOM     70  C   UNL A   1      44.232  36.217  35.044  1.00  0.00     0.200 A 
ATOM     71  F   UNL A   1      44.866  37.279  33.032  1.00  0.00    -0.200 F 
ATOM     72  F   UNL A   1      44.647  37.278  35.751  1.00  0.00    -0.200 F 
ENDBRANCH  39  62
ENDBRANCH  13  14
ENDBRANCH   6   8
ENDBRANCH   3   4
ENDBRANCH   2   3
ENDBRANCH   1   2
BRANCH   1  73
ATOM     73  C   UNL A   1      42.274  23.243  27.847  1.00  0.00     0.002 C 
BRANCH  73  74
ATOM     74  C   UNL A   1      43.605  22.904  28.530  1.00  0.00     0.021 C 
BRANCH  74  75
ATOM     75  C   UNL A   1      44.858  23.380  27.797  1.00  0.00     0.116 C 
BRANCH  75  76
ATOM     76  N   UNL A   1      45.484  22.322  27.028  1.00  0.00    -0.353 N 
ATOM     77  C   UNL A   1      45.790  22.288  25.689  1.00  0.00     0.265 C 
ATOM     78  H   UNL A   1      45.723  21.514  27.537  1.00  0.00     0.163 HD
ATOM     79  O   UNL A   1      46.384  21.285  25.284  1.00  0.00    -0.271 OA
BRANCH  77  80
ATOM     80  C   UNL A   1      45.407  23.494  24.817  1.00  0.00     0.319 C 
ATOM     81  F   UNL A   1      45.185  23.140  23.517  1.00  0.00    -0.224 F 
BRANCH  80  82
ATOM     82  S   UNL A   1      46.594  24.860  24.924  1.00  0.00    -0.061 SA
BRANCH  82  83
ATOM     83  C   UNL A   1      45.636  26.170  25.512  1.00  0.00     0.076 A 
ATOM     84  C   UNL A   1      45.890  27.212  26.369  1.00  0.00     0.043 A 
ATOM     85  N   UNL A   1      44.356  26.290  25.055  1.00  0.00    -0.350 N 
ATOM     86  C   UNL A   1      44.720  28.026  26.403  1.00  0.00     0.001 A 
ATOM     87  C   UNL A   1      43.775  27.428  25.566  1.00  0.00     0.046 A 
ATOM     88  H   UNL A   1      43.912  25.655  24.447  1.00  0.00     0.167 HD
ATOM     89  C   UNL A   1      44.377  29.224  27.060  1.00  0.00     0.010 A 
ATOM     90  C   UNL A   1      42.502  27.968  25.352  1.00  0.00     0.027 A 
ATOM     91  C   UNL A   1      43.110  29.781  26.851  1.00  0.00     0.001 A 
ATOM     92  C   UNL A   1      42.189  29.161  26.010  1.00  0.00     0.002 A 
ENDBRANCH  82  83
ENDBRANCH  80  82
ENDBRANCH  77  80
ENDBRANCH  75  76
ENDBRANCH  74  75
ENDBRANCH  73  74
ENDBRANCH   1  73
TORSDOF 15
ENDMDL
MODEL 2
REMARK VINA RESULT:     -11.8      4.322      7.670
REMARK SMILES O=C(NCCCCCCNC(=O)[C@H](F)Sc1cc2ccccc2[nH]1)c1ccc(-c2c3nc(c(-c4c(F)c(F)c(F)c(F)c4F)c4ccc([nH]4)c(-c4c(F)c(F)c(F)c(F)c4F)c4nc(c(-c5c(F)c(F)c(F)c(F)c5F)c5ccc2[nH]5)C=C4)C=C3)cc1
REMARK SMILES IDX 6 1 5 2 4 3 3 4 1 5 2 6 25 8 26 9 87 10 27 11 86 12 28 13
REMARK SMILES IDX 29 14 30 15 80 16 31 17 85 18 79 19 81 20 32 21 84 22 78 23
REMARK SMILES IDX 77 24 33 26 65 27 45 28 64 29 46 30 49 31 63 32 82 33 47 34
REMARK SMILES IDX 48 35 62 37 83 38 50 39 34 40 35 41 43 42 36 43 37 44 41 45
REMARK SMILES IDX 44 46 38 47 39 48 42 49 40 50 66 51 67 52 75 53 68 54 69 55
REMARK SMILES IDX 73 56 76 57 70 58 71 59 74 60 72 61 51 62 52 63 60 64 53 65
REMARK SMILES IDX 54 66 58 67 61 68 55 69 56 70 59 71 57 72 7 73 8 74 9 75
REMARK SMILES IDX 10 76 11 77 12 79 13 80 14 81 15 82 16 83 17 84 24 85 18 86
REMARK SMILES IDX 23 87 19 89 22 90 20 91 21 92
REMARK H PARENT 3 7 81 25 49 36 10 78 24 88
REMARK Flexibility Score: inf
ROOT
ATOM      1  C   UNL A   1      36.523  20.487  24.921  1.00  0.00     0.002 C 
ENDROOT
BRANCH   1   2
ATOM      2  C   UNL A   1      37.786  19.627  24.919  1.00  0.00     0.021 C 
BRANCH   2   3
ATOM      3  C   UNL A   1      38.904  20.120  25.828  1.00  0.00     0.116 C 
BRANCH   3   4
ATOM      4  N   UNL A   1      40.030  19.202  25.887  1.00  0.00    -0.352 N 
ATOM      5  O   UNL A   1      42.199  18.583  25.952  1.00  0.00    -0.269 OA
ATOM      6  C   UNL A   1      41.362  19.471  26.079  1.00  0.00     0.251 C 
ATOM      7  H   UNL A   1      39.803  18.250  25.771  1.00  0.00     0.163 HD
BRANCH   6   8
ATOM      8  C   UNL A   1      41.796  20.844  26.420  1.00  0.00     0.039 A 
ATOM      9  C   UNL A   1      41.902  21.826  25.432  1.00  0.00     0.014 A 
ATOM     10  C   UNL A   1      42.087  21.155  27.751  1.00  0.00     0.014 A 
ATOM     11  C   UNL A   1      42.420  23.077  25.752  1.00  0.00     0.010 A 
ATOM     12  C   UNL A   1      42.531  22.439  28.086  1.00  0.00     0.010 A 
ATOM     13  C   UNL A   1      42.725  23.402  27.084  1.00  0.00    -0.014 A 
BRANCH  13  14
ATOM     14  C   UNL A   1      43.175  24.779  27.411  1.00  0.00     0.031 A 
ATOM     15  C   UNL A   1      44.578  25.230  27.127  1.00  0.00     0.074 A 
ATOM     16  C   UNL A   1      42.285  25.631  27.956  1.00  0.00     0.049 A 
ATOM     17  N   UNL A   1      45.125  26.403  27.335  1.00  0.00    -0.248 NA
ATOM     18  C   UNL A   1      45.492  24.240  26.538  1.00  0.00     0.031 C 
ATOM     19  C   UNL A   1      40.900  25.298  28.291  1.00  0.00     0.029 A 
ATOM     20  N   UNL A   1      42.405  26.951  28.309  1.00  0.00    -0.354 N 
ATOM     21  C   UNL A   1      46.445  26.287  26.920  1.00  0.00     0.074 A 
ATOM     22  C   UNL A   1      46.627  24.924  26.469  1.00  0.00     0.031 C 
ATOM     23  C   UNL A   1      40.286  26.392  28.762  1.00  0.00     0.029 A 
ATOM     24  C   UNL A   1      41.247  27.487  28.818  1.00  0.00     0.049 A 
ATOM     25  H   UNL A   1      43.239  27.464  28.208  1.00  0.00     0.167 HD
ATOM     26  C   UNL A   1      47.411  27.238  26.910  1.00  0.00     0.037 A 
ATOM     27  C   UNL A   1      40.992  28.719  29.292  1.00  0.00     0.037 A 
ATOM     28  C   UNL A   1      47.219  28.598  27.349  1.00  0.00     0.049 A 
ATOM     29  C   UNL A   1      42.087  29.745  29.288  1.00  0.00     0.074 A 
ATOM     30  C   UNL A   1      48.125  29.645  27.340  1.00  0.00     0.029 A 
ATOM     31  N   UNL A   1      46.039  29.098  27.882  1.00  0.00    -0.354 N 
ATOM     32  N   UNL A   1      43.320  29.635  28.854  1.00  0.00    -0.248 NA
ATOM     33  C   UNL A   1      41.759  31.065  29.842  1.00  0.00     0.031 C 
ATOM     34  C   UNL A   1      47.508  30.764  27.910  1.00  0.00     0.029 A 
ATOM     35  C   UNL A   1      46.202  30.430  28.228  1.00  0.00     0.049 A 
ATOM     36  H   UNL A   1      45.209  28.582  27.998  1.00  0.00     0.167 HD
ATOM     37  C   UNL A   1      43.910  30.872  29.067  1.00  0.00     0.074 A 
ATOM     38  C   UNL A   1      42.892  31.724  29.649  1.00  0.00     0.031 C 
ATOM     39  C   UNL A   1      45.180  31.264  28.808  1.00  0.00     0.037 A 
BRANCH  26  40
ATOM     40  C   UNL A   1      48.775  26.843  26.421  1.00  0.00     0.064 A 
ATOM     41  C   UNL A   1      49.713  26.230  27.266  1.00  0.00     0.173 A 
ATOM     42  C   UNL A   1      49.129  27.030  25.076  1.00  0.00     0.173 A 
ATOM     43  F   UNL A   1      49.428  26.038  28.562  1.00  0.00    -0.203 F 
ATOM     44  C   UNL A   1      50.960  25.838  26.786  1.00  0.00     0.198 A 
ATOM     45  C   UNL A   1      50.368  26.613  24.594  1.00  0.00     0.198 A 
ATOM     46  F   UNL A   1      48.267  27.605  24.224  1.00  0.00    -0.203 F 
ATOM     47  F   UNL A   1      51.854  25.288  27.621  1.00  0.00    -0.200 F 
ATOM     48  C   UNL A   1      51.283  26.022  25.451  1.00  0.00     0.200 A 
ATOM     49  F   UNL A   1      50.673  26.781  23.300  1.00  0.00    -0.200 F 
ATOM     50  F   UNL A   1      52.481  25.636  24.990  1.00  0.00    -0.200 F 
ENDBRANCH  26  40
BRANCH  27  51
ATOM     51  C   UNL A   1      39.638  29.041  29.809  1.00  0.00     0.064 A 
ATOM     52  C   UNL A   1      38.643  29.548  28.963  1.00  0.00     0.173 A 
ATOM     53  C   UNL A   1      39.305  28.828  31.156  1.00  0.00     0.173 A 
ATOM     54  F   UNL A   1      38.919  29.784  27.672  1.00  0.00    -0.203 F 
ATOM     55  C   UNL A   1      37.369  29.841  29.446  1.00  0.00     0.198 A 
ATOM     56  C   UNL A   1      38.023  29.093  31.630  1.00  0.00     0.198 A 
ATOM     57  F   UNL A   1      40.220  28.338  32.004  1.00  0.00    -0.203 F 
ATOM     58  F   UNL A   1      36.448  30.361  28.624  1.00  0.00    -0.200 F 
ATOM     59  C   UNL A   1      37.059  29.606  30.777  1.00  0.00     0.200 A 
ATOM     60  F   UNL A   1      37.723  28.849  32.913  1.00  0.00    -0.200 F 
ATOM     61  F   UNL A   1      35.831  29.879  31.238  1.00  0.00    -0.200 F 
ENDBRANCH  27  51
BRANCH  39  62
ATOM     62  C   UNL A   1      45.533  32.686  29.131  1.00  0.00     0.064 A 
ATOM     63  C   UNL A   1      45.327  33.721  28.206  1.00  0.00     0.173 A 
ATOM     64  C   UNL A   1      46.062  33.021  30.386  1.00  0.00     0.173 A 
ATOM     65  F   UNL A   1      44.840  33.449  26.985  1.00  0.00    -0.203 F 
ATOM     66  C   UNL A   1      45.661  35.036  28.518  1.00  0.00     0.198 A 
ATOM     67  C   UNL A   1      46.370  34.340  30.705  1.00  0.00     0.198 A 
ATOM     68  F   UNL A   1      46.275  32.067  31.306  1.00  0.00    -0.203 F 
ATOM     69  F   UNL A   1      45.502  36.000  27.603  1.00  0.00    -0.200 F 
ATOM     70  C   UNL A   1      46.177  35.345  29.768  1.00  0.00     0.200 A 
ATOM     71  F   UNL A   1      46.858  34.638  31.917  1.00  0.00    -0.200 F 
ATOM     72  F   UNL A   1      46.497  36.611  30.068  1.00  0.00    -0.200 F 
ENDBRANCH  39  62
ENDBRANCH  13  14
ENDBRANCH   6   8
ENDBRANCH   3   4
ENDBRANCH   2   3
ENDBRANCH   1   2
BRANCH   1  73
ATOM     73  C   UNL A   1      36.633  21.827  24.187  1.00  0.00     0.002 C 
BRANCH  73  74
ATOM     74  C   UNL A   1      37.204  22.995  25.002  1.00  0.00     0.021 C 
BRANCH  74  75
ATOM     75  C   UNL A   1      36.187  23.776  25.831  1.00  0.00     0.116 C 
BRANCH  75  76
ATOM     76  N   UNL A   1      35.505  22.939  26.800  1.00  0.00    -0.353 N 
ATOM     77  C   UNL A   1      34.201  22.507  26.807  1.00  0.00     0.265 C 
ATOM     78  H   UNL A   1      36.055  22.639  27.559  1.00  0.00     0.163 HD
ATOM     79  O   UNL A   1      33.877  21.745  27.721  1.00  0.00    -0.271 OA
BRANCH  77  80
ATOM     80  C   UNL A   1      33.267  22.971  25.678  1.00  0.00     0.319 C 
ATOM     81  F   UNL A   1      33.004  24.309  25.745  1.00  0.00    -0.224 F 
BRANCH  80  82
ATOM     82  S   UNL A   1      31.733  22.012  25.578  1.00  0.00    -0.061 SA
BRANCH  82  83
ATOM     83  C   UNL A   1      32.262  20.483  24.974  1.00  0.00     0.076 A 
ATOM     84  C   UNL A   1      32.542  20.014  23.716  1.00  0.00     0.043 A 
ATOM     85  N   UNL A   1      32.509  19.485  25.872  1.00  0.00    -0.350 N 
ATOM     86  C   UNL A   1      33.021  18.678  23.860  1.00  0.00     0.001 A 
ATOM     87  C   UNL A   1      32.994  18.374  25.222  1.00  0.00     0.046 A 
ATOM     88  H   UNL A   1      32.362  19.551  26.843  1.00  0.00     0.167 HD
ATOM     89  C   UNL A   1      33.485  17.700  22.959  1.00  0.00     0.010 A 
ATOM     90  C   UNL A   1      33.410  17.138  25.732  1.00  0.00     0.027 A 
ATOM     91  C   UNL A   1      33.910  16.460  23.453  1.00  0.00     0.001 A 
ATOM     92  C   UNL A   1      33.873  16.187  24.818  1.00  0.00     0.002 A 
ENDBRANCH  82  83
ENDBRANCH  80  82
ENDBRANCH  77  80
ENDBRANCH  75  76
ENDBRANCH  74  75
ENDBRANCH  73  74
ENDBRANCH   1  73
TORSDOF 15
ENDMDL
MODEL 3
REMARK VINA RESULT:     -11.8      5.483     10.623
REMARK SMILES O=C(NCCCCCCNC(=O)[C@H](F)Sc1cc2ccccc2[nH]1)c1ccc(-c2c3nc(c(-c4c(F)c(F)c(F)c(F)c4F)c4ccc([nH]4)c(-c4c(F)c(F)c(F)c(F)c4F)c4nc(c(-c5c(F)c(F)c(F)c(F)c5F)c5ccc2[nH]5)C=C4)C=C3)cc1
REMARK SMILES IDX 6 1 5 2 4 3 3 4 1 5 2 6 25 8 26 9 87 10 27 11 86 12 28 13
REMARK SMILES IDX 29 14 30 15 80 16 31 17 85 18 79 19 81 20 32 21 84 22 78 23
REMARK SMILES IDX 77 24 33 26 65 27 45 28 64 29 46 30 49 31 63 32 82 33 47 34
REMARK SMILES IDX 48 35 62 37 83 38 50 39 34 40 35 41 43 42 36 43 37 44 41 45
REMARK SMILES IDX 44 46 38 47 39 48 42 49 40 50 66 51 67 52 75 53 68 54 69 55
REMARK SMILES IDX 73 56 76 57 70 58 71 59 74 60 72 61 51 62 52 63 60 64 53 65
REMARK SMILES IDX 54 66 58 67 61 68 55 69 56 70 59 71 57 72 7 73 8 74 9 75
REMARK SMILES IDX 10 76 11 77 12 79 13 80 14 81 15 82 16 83 17 84 24 85 18 86
REMARK SMILES IDX 23 87 19 89 22 90 20 91 21 92
REMARK H PARENT 3 7 81 25 49 36 10 78 24 88
REMARK Flexibility Score: inf
ROOT
ATOM      1  C   UNL A   1      31.500  30.804  26.019  1.00  0.00     0.002 C 
ENDROOT
BRANCH   1   2
ATOM      2  C   UNL A   1      31.342  32.120  26.779  1.00  0.00     0.021 C 
BRANCH   2   3
ATOM      3  C   UNL A   1      32.640  32.870  27.048  1.00  0.00     0.116 C 
BRANCH   3   4
ATOM      4  N   UNL A   1      32.420  34.197  27.600  1.00  0.00    -0.352 N 
ATOM      5  O   UNL A   1      32.638  35.890  29.077  1.00  0.00    -0.269 OA
ATOM      6  C   UNL A   1      33.054  34.818  28.648  1.00  0.00     0.251 C 
ATOM      7  H   UNL A   1      31.715  34.725  27.159  1.00  0.00     0.163 HD
BRANCH   6   8
ATOM      8  C   UNL A   1      34.231  34.182  29.281  1.00  0.00     0.039 A 
ATOM      9  C   UNL A   1      35.526  34.543  28.904  1.00  0.00     0.014 A 
ATOM     10  C   UNL A   1      34.033  33.222  30.277  1.00  0.00     0.014 A 
ATOM     11  C   UNL A   1      36.617  33.854  29.426  1.00  0.00     0.010 A 
ATOM     12  C   UNL A   1      35.133  32.587  30.862  1.00  0.00     0.010 A 
ATOM     13  C   UNL A   1      36.433  32.880  30.422  1.00  0.00    -0.014 A 
BRANCH  13  14
ATOM     14  C   UNL A   1      37.621  32.239  31.039  1.00  0.00     0.031 A 
ATOM     15  C   UNL A   1      38.082  32.613  32.418  1.00  0.00     0.074 A 
ATOM     16  C   UNL A   1      38.274  31.290  30.340  1.00  0.00     0.049 A 
ATOM     17  N   UNL A   1      39.089  32.135  33.108  1.00  0.00    -0.248 NA
ATOM     18  C   UNL A   1      37.322  33.661  33.115  1.00  0.00     0.031 C 
ATOM     19  C   UNL A   1      37.926  30.857  28.985  1.00  0.00     0.029 A 
ATOM     20  N   UNL A   1      39.351  30.510  30.672  1.00  0.00    -0.354 N 
ATOM     21  C   UNL A   1      39.094  32.833  34.309  1.00  0.00     0.074 A 
ATOM     22  C   UNL A   1      38.005  33.785  34.246  1.00  0.00     0.031 C 
ATOM     23  C   UNL A   1      38.745  29.863  28.617  1.00  0.00     0.029 A 
ATOM     24  C   UNL A   1      39.712  29.628  29.682  1.00  0.00     0.049 A 
ATOM     25  H   UNL A   1      39.820  30.575  31.535  1.00  0.00     0.167 HD
ATOM     26  C   UNL A   1      39.927  32.683  35.367  1.00  0.00     0.037 A 
ATOM     27  C   UNL A   1      40.719  28.739  29.632  1.00  0.00     0.037 A 
ATOM     28  C   UNL A   1      41.002  31.725  35.426  1.00  0.00     0.049 A 
ATOM     29  C   UNL A   1      41.640  28.610  30.811  1.00  0.00     0.074 A 
ATOM     30  C   UNL A   1      41.875  31.469  36.470  1.00  0.00     0.029 A 
ATOM     31  N   UNL A   1      41.354  30.865  34.395  1.00  0.00    -0.354 N 
ATOM     32  N   UNL A   1      41.608  29.247  31.956  1.00  0.00    -0.248 NA
ATOM     33  C   UNL A   1      42.738  27.643  30.689  1.00  0.00     0.031 C 
ATOM     34  C   UNL A   1      42.783  30.489  36.053  1.00  0.00     0.029 A 
ATOM     35  C   UNL A   1      42.446  30.097  34.768  1.00  0.00     0.049 A 
ATOM     36  H   UNL A   1      40.895  30.809  33.525  1.00  0.00     0.167 HD
ATOM     37  C   UNL A   1      42.668  28.749  32.698  1.00  0.00     0.074 A 
ATOM     38  C   UNL A   1      43.311  27.740  31.880  1.00  0.00     0.031 C 
ATOM     39  C   UNL A   1      43.075  29.098  33.942  1.00  0.00     0.037 A 
BRANCH  26  40
ATOM     40  C   UNL A   1      39.725  33.587  36.549  1.00  0.00     0.064 A 
ATOM     41  C   UNL A   1      40.336  34.847  36.628  1.00  0.00     0.173 A 
ATOM     42  C   UNL A   1      38.864  33.209  37.592  1.00  0.00     0.173 A 
ATOM     43  F   UNL A   1      41.175  35.252  35.663  1.00  0.00    -0.203 F 
ATOM     44  C   UNL A   1      40.108  35.687  37.715  1.00  0.00     0.198 A 
ATOM     45  C   UNL A   1      38.619  34.063  38.665  1.00  0.00     0.198 A 
ATOM     46  F   UNL A   1      38.249  32.018  37.563  1.00  0.00    -0.203 F 
ATOM     47  F   UNL A   1      40.732  36.871  37.787  1.00  0.00    -0.200 F 
ATOM     48  C   UNL A   1      39.245  35.298  38.728  1.00  0.00     0.200 A 
ATOM     49  F   UNL A   1      37.775  33.690  39.637  1.00  0.00    -0.200 F 
ATOM     50  F   UNL A   1      39.021  36.112  39.769  1.00  0.00    -0.200 F 
ENDBRANCH  26  40
BRANCH  27  51
ATOM     51  C   UNL A   1      40.903  27.905  28.417  1.00  0.00     0.064 A 
ATOM     52  C   UNL A   1      40.294  26.648  28.304  1.00  0.00     0.173 A 
ATOM     53  C   UNL A   1      41.675  28.357  27.336  1.00  0.00     0.173 A 
ATOM     54  F   UNL A   1      39.561  26.167  29.319  1.00  0.00    -0.203 F 
ATOM     55  C   UNL A   1      40.459  25.870  27.161  1.00  0.00     0.198 A 
ATOM     56  C   UNL A   1      41.814  27.590  26.182  1.00  0.00     0.198 A 
ATOM     57  F   UNL A   1      42.274  29.555  27.393  1.00  0.00    -0.203 F 
ATOM     58  F   UNL A   1      39.896  24.656  27.094  1.00  0.00    -0.200 F 
ATOM     59  C   UNL A   1      41.212  26.345  26.098  1.00  0.00     0.200 A 
ATOM     60  F   UNL A   1      42.529  28.061  25.151  1.00  0.00    -0.200 F 
ATOM     61  F   UNL A   1      41.361  25.600  24.994  1.00  0.00    -0.200 F 
ENDBRANCH  27  51
BRANCH  39  62
ATOM     62  C   UNL A   1      44.258  28.366  34.503  1.00  0.00     0.064 A 
ATOM     63  C   UNL A   1      45.567  28.827  34.306  1.00  0.00     0.173 A 
ATOM     64  C   UNL A   1      44.077  27.201  35.265  1.00  0.00     0.173 A 
ATOM     65  F   UNL A   1      45.793  29.926  33.569  1.00  0.00    -0.203 F 
ATOM     66  C   UNL A   1      46.656  28.135  34.831  1.00  0.00     0.198 A 
ATOM     67  C   UNL A   1      45.165  26.527  35.811  1.00  0.00     0.198 A 
ATOM     68  F   UNL A   1      42.843  26.722  35.484  1.00  0.00    -0.203 F 
ATOM     69  F   UNL A   1      47.901  28.566  34.589  1.00  0.00    -0.200 F 
ATOM     70  C   UNL A   1      46.454  26.990  35.587  1.00  0.00     0.200 A 
ATOM     71  F   UNL A   1      44.967  25.427  36.550  1.00  0.00    -0.200 F 
ATOM     72  F   UNL A   1      47.502  26.326  36.093  1.00  0.00    -0.200 F 
ENDBRANCH  39  62
ENDBRANCH  13  14
ENDBRANCH   6   8
ENDBRANCH   3   4
ENDBRANCH   2   3
ENDBRANCH   1   2
BRANCH   1  73
ATOM     73  C   UNL A   1      31.814  29.576  26.879  1.00  0.00     0.002 C 
BRANCH  73  74
ATOM     74  C   UNL A   1      33.280  29.404  27.297  1.00  0.00     0.021 C 
BRANCH  74  75
ATOM     75  C   UNL A   1      34.092  28.425  26.453  1.00  0.00     0.116 C 
BRANCH  75  76
ATOM     76  N   UNL A   1      34.274  28.889  25.091  1.00  0.00    -0.353 N 
ATOM     77  C   UNL A   1      33.981  28.249  23.911  1.00  0.00     0.265 C 
ATOM     78  H   UNL A   1      34.662  29.789  24.999  1.00  0.00     0.163 HD
ATOM     79  O   UNL A   1      34.174  28.889  22.874  1.00  0.00    -0.271 OA
BRANCH  77  80
ATOM     80  C   UNL A   1      33.414  26.822  23.970  1.00  0.00     0.319 C 
ATOM     81  F   UNL A   1      34.375  25.899  24.268  1.00  0.00    -0.224 F 
BRANCH  80  82
ATOM     82  S   UNL A   1      32.503  26.352  22.476  1.00  0.00    -0.061 SA
BRANCH  82  83
ATOM     83  C   UNL A   1      31.067  27.307  22.571  1.00  0.00     0.076 A 
ATOM     84  C   UNL A   1      29.842  27.108  23.156  1.00  0.00     0.043 A 
ATOM     85  N   UNL A   1      31.079  28.547  22.003  1.00  0.00    -0.350 N 
ATOM     86  C   UNL A   1      29.085  28.302  22.966  1.00  0.00     0.001 A 
ATOM     87  C   UNL A   1      29.886  29.189  22.245  1.00  0.00     0.046 A 
ATOM     88  H   UNL A   1      31.831  28.927  21.493  1.00  0.00     0.167 HD
ATOM     89  C   UNL A   1      27.795  28.717  23.350  1.00  0.00     0.010 A 
ATOM     90  C   UNL A   1      29.462  30.475  21.886  1.00  0.00     0.027 A 
ATOM     91  C   UNL A   1      27.358  30.002  23.005  1.00  0.00     0.001 A 
ATOM     92  C   UNL A   1      28.181  30.865  22.285  1.00  0.00     0.002 A 
ENDBRANCH  82  83
ENDBRANCH  80  82
ENDBRANCH  77  80
ENDBRANCH  75  76
ENDBRANCH  74  75
ENDBRANCH  73  74
ENDBRANCH   1  73
TORSDOF 15
ENDMDL
