MODEL 1
REMARK VINA RESULT:     -12.0      0.000      0.000
REMARK SMILES Cc1cc2c(c(C)c1Cl)C=C(C(=O)NCCCCCCNC(=O)c1ccc(-c3c4nc(c(-c5c(F)c(F)c(F)c(F)c5F)c5ccc([nH]5)c(-c5c(F)c(F)c(F)c(F)c5F)c5nc(c(-c6c(F)c(F)c(F)c(F)c6F)c6ccc3[nH]6)C=C5)C=C4)cc1)[C@@H](C(F)(F)F)O2
REMARK SMILES IDX 18 1 17 2 16 3 15 4 14 5 12 6 13 7 11 9 1 10 2 11 3 12 8 13
REMARK SMILES IDX 4 14 6 15 9 16 5 17 92 18 7 19 10 20 87 21 88 22 89 23 90 24
REMARK SMILES IDX 91 25 19 26 20 27 21 28 22 29 23 31 24 32 25 33 86 34 26 35
REMARK SMILES IDX 85 36 27 37 28 38 29 39 79 40 30 41 84 42 78 43 80 44 31 45
REMARK SMILES IDX 83 46 77 47 76 48 32 50 64 51 44 52 63 53 45 54 48 55 62 56
REMARK SMILES IDX 81 57 46 58 47 59 61 61 82 62 49 63 33 64 34 65 42 66 35 67
REMARK SMILES IDX 36 68 40 69 43 70 37 71 38 72 41 73 39 74 65 75 66 76 74 77
REMARK SMILES IDX 67 78 68 79 72 80 75 81 69 82 70 83 73 84 71 85 50 86 51 87
REMARK SMILES IDX 59 88 52 89 53 90 57 91 60 92 54 93 55 94 58 95 56 96
REMARK H PARENT 14 8 21 30 80 49 48 60
REMARK Flexibility Score: inf
ROOT
ATOM      1  C   UNL A   1      33.669  28.768  24.743  1.00  0.00     0.002 C 
ENDROOT
BRANCH   1   2
ATOM      2  C   UNL A   1      33.590  28.113  23.359  1.00  0.00     0.002 C 
BRANCH   2   3
ATOM      3  C   UNL A   1      33.377  26.597  23.365  1.00  0.00     0.021 C 
BRANCH   3   4
ATOM      4  C   UNL A   1      31.914  26.178  23.457  1.00  0.00     0.116 C 
BRANCH   4   5
ATOM      5  N   UNL A   1      31.539  25.813  24.811  1.00  0.00    -0.352 N 
ATOM      6  C   UNL A   1      31.825  24.821  25.687  1.00  0.00     0.251 C 
ATOM      7  O   UNL A   1      31.284  24.929  26.793  1.00  0.00    -0.270 OA
ATOM      8  H   UNL A   1      30.907  26.462  25.196  1.00  0.00     0.163 HD
BRANCH   6   9
ATOM      9  C   UNL A   1      32.716  23.652  25.412  1.00  0.00     0.067 C 
ATOM     10  C   UNL A   1      37.525  19.290  24.904  1.00  0.00     0.046 C 
ATOM     11  C   UNL A   1      36.686  20.525  25.088  1.00  0.00    -0.028 A 
ATOM     12  C   UNL A   1      35.303  20.403  24.926  1.00  0.00     0.052 A 
ATOM     13  C   UNL A   1      37.214  21.771  25.477  1.00  0.00     0.047 A 
ATOM     14  C   UNL A   1      34.467  21.497  25.117  1.00  0.00     0.128 A 
ATOM     15  C   UNL A   1      36.374  22.898  25.667  1.00  0.00    -0.021 A 
ATOM     16  Cl  UNL A   1      38.927  21.893  25.751  1.00  0.00    -0.084 Cl
ATOM     17  C   UNL A   1      34.977  22.742  25.492  1.00  0.00     0.022 A 
ATOM     18  O   UNL A   1      33.140  21.237  24.959  1.00  0.00    -0.475 OA
ATOM     19  C   UNL A   1      36.927  24.248  26.062  1.00  0.00     0.047 C 
ATOM     20  C   UNL A   1      34.012  23.820  25.737  1.00  0.00     0.026 C 
ATOM     21  C   UNL A   1      32.256  22.370  24.790  1.00  0.00     0.314 C 
BRANCH  21  22
ATOM     22  C   UNL A   1      31.908  22.516  23.298  1.00  0.00     0.429 C 
ATOM     23  F   UNL A   1      32.867  23.228  22.656  1.00  0.00    -0.167 F 
ATOM     24  F   UNL A   1      31.829  21.326  22.659  1.00  0.00    -0.167 F 
ATOM     25  F   UNL A   1      30.731  23.150  23.099  1.00  0.00    -0.167 F 
ENDBRANCH  21  22
ENDBRANCH   6   9
ENDBRANCH   4   5
ENDBRANCH   3   4
ENDBRANCH   2   3
ENDBRANCH   1   2
BRANCH   1  26
ATOM     26  C   UNL A   1      34.086  27.840  25.891  1.00  0.00     0.021 C 
BRANCH  26  27
ATOM     27  C   UNL A   1      33.606  28.275  27.271  1.00  0.00     0.116 C 
BRANCH  27  28
ATOM     28  N   UNL A   1      33.539  29.722  27.391  1.00  0.00    -0.352 N 
ATOM     29  C   UNL A   1      34.436  30.590  27.954  1.00  0.00     0.251 C 
ATOM     30  H   UNL A   1      32.731  30.138  27.013  1.00  0.00     0.163 HD
ATOM     31  O   UNL A   1      34.123  31.764  28.145  1.00  0.00    -0.269 OA
BRANCH  29  32
ATOM     32  C   UNL A   1      35.779  30.117  28.343  1.00  0.00     0.039 A 
ATOM     33  C   UNL A   1      36.807  30.157  27.397  1.00  0.00     0.014 A 
ATOM     34  C   UNL A   1      36.015  29.606  29.622  1.00  0.00     0.014 A 
ATOM     35  C   UNL A   1      38.088  29.729  27.750  1.00  0.00     0.010 A 
ATOM     36  C   UNL A   1      37.305  29.234  29.990  1.00  0.00     0.010 A 
ATOM     37  C   UNL A   1      38.350  29.290  29.057  1.00  0.00    -0.014 A 
BRANCH  37  38
ATOM     38  C   UNL A   1      39.712  28.877  29.473  1.00  0.00     0.031 A 
ATOM     39  C   UNL A   1      40.522  29.762  30.375  1.00  0.00     0.074 A 
ATOM     40  C   UNL A   1      40.237  27.737  28.985  1.00  0.00     0.049 A 
ATOM     41  N   UNL A   1      41.767  29.637  30.758  1.00  0.00    -0.248 NA
ATOM     42  C   UNL A   1      39.848  30.960  30.900  1.00  0.00     0.031 C 
ATOM     43  C   UNL A   1      39.548  26.805  28.093  1.00  0.00     0.029 A 
ATOM     44  N   UNL A   1      41.476  27.176  29.163  1.00  0.00    -0.354 N 
ATOM     45  C   UNL A   1      42.026  30.738  31.562  1.00  0.00     0.074 A 
ATOM     46  C   UNL A   1      40.827  31.547  31.574  1.00  0.00     0.031 C 
ATOM     47  C   UNL A   1      40.367  25.779  27.812  1.00  0.00     0.029 A 
ATOM     48  C   UNL A   1      41.651  26.003  28.471  1.00  0.00     0.049 A 
ATOM     49  H   UNL A   1      42.173  27.576  29.732  1.00  0.00     0.167 HD
ATOM     50  C   UNL A   1      43.158  31.034  32.243  1.00  0.00     0.037 A 
ATOM     51  C   UNL A   1      42.731  25.204  28.370  1.00  0.00     0.037 A 
ATOM     52  C   UNL A   1      44.345  30.219  32.234  1.00  0.00     0.049 A 
ATOM     53  C   UNL A   1      43.986  25.573  29.111  1.00  0.00     0.074 A 
ATOM     54  C   UNL A   1      45.541  30.427  32.898  1.00  0.00     0.029 A 
ATOM     55  N   UNL A   1      44.483  29.034  31.525  1.00  0.00    -0.354 N 
ATOM     56  N   UNL A   1      44.218  26.610  29.880  1.00  0.00    -0.248 NA
ATOM     57  C   UNL A   1      45.127  24.658  28.976  1.00  0.00     0.031 C 
ATOM     58  C   UNL A   1      46.416  29.389  32.561  1.00  0.00     0.029 A 
ATOM     59  C   UNL A   1      45.748  28.504  31.730  1.00  0.00     0.049 A 
ATOM     60  H   UNL A   1      43.786  28.628  30.960  1.00  0.00     0.167 HD
ATOM     61  C   UNL A   1      45.517  26.457  30.346  1.00  0.00     0.074 A 
ATOM     62  C   UNL A   1      46.019  25.221  29.781  1.00  0.00     0.031 C 
ATOM     63  C   UNL A   1      46.227  27.266  31.170  1.00  0.00     0.037 A 
BRANCH  50  64
ATOM     64  C   UNL A   1      43.170  32.291  33.065  1.00  0.00     0.064 A 
ATOM     65  C   UNL A   1      43.539  33.524  32.509  1.00  0.00     0.173 A 
ATOM     66  C   UNL A   1      42.748  32.273  34.404  1.00  0.00     0.173 A 
ATOM     67  F   UNL A   1      43.963  33.593  31.238  1.00  0.00    -0.203 F 
ATOM     68  C   UNL A   1      43.501  34.692  33.266  1.00  0.00     0.198 A 
ATOM     69  C   UNL A   1      42.684  33.448  35.149  1.00  0.00     0.198 A 
ATOM     70  F   UNL A   1      42.381  31.121  34.982  1.00  0.00    -0.203 F 
ATOM     71  F   UNL A   1      43.893  35.853  32.725  1.00  0.00    -0.200 F 
ATOM     72  C   UNL A   1      43.064  34.655  34.582  1.00  0.00     0.200 A 
ATOM     73  F   UNL A   1      42.249  33.412  36.415  1.00  0.00    -0.200 F 
ATOM     74  F   UNL A   1      43.012  35.782  35.304  1.00  0.00    -0.200 F 
ENDBRANCH  50  64
BRANCH  51  75
ATOM     75  C   UNL A   1      42.653  23.960  27.563  1.00  0.00     0.064 A 
ATOM     76  C   UNL A   1      42.990  23.968  26.202  1.00  0.00     0.173 A 
ATOM     77  C   UNL A   1      42.266  22.738  28.132  1.00  0.00     0.173 A 
ATOM     78  F   UNL A   1      43.347  25.116  25.609  1.00  0.00    -0.203 F 
ATOM     79  C   UNL A   1      42.935  22.803  25.440  1.00  0.00     0.198 A 
ATOM     80  C   UNL A   1      42.237  21.569  27.376  1.00  0.00     0.198 A 
ATOM     81  F   UNL A   1      41.939  22.677  29.432  1.00  0.00    -0.203 F 
ATOM     82  F   UNL A   1      43.229  22.846  24.134  1.00  0.00    -0.200 F 
ATOM     83  C   UNL A   1      42.567  21.604  26.029  1.00  0.00     0.200 A 
ATOM     84  F   UNL A   1      41.896  20.408  27.952  1.00  0.00    -0.200 F 
ATOM     85  F   UNL A   1      42.525  20.481  25.298  1.00  0.00    -0.200 F 
ENDBRANCH  51  75
BRANCH  63  86
ATOM     86  C   UNL A   1      47.608  26.820  31.552  1.00  0.00     0.064 A 
ATOM     87  C   UNL A   1      47.829  25.925  32.609  1.00  0.00     0.173 A 
ATOM     88  C   UNL A   1      48.721  27.259  30.818  1.00  0.00     0.173 A 
ATOM     89  F   UNL A   1      46.800  25.486  33.348  1.00  0.00    -0.203 F 
ATOM     90  C   UNL A   1      49.117  25.508  32.934  1.00  0.00     0.198 A 
ATOM     91  C   UNL A   1      50.003  26.815  31.126  1.00  0.00     0.198 A 
ATOM     92  F   UNL A   1      48.563  28.107  29.791  1.00  0.00    -0.203 F 
ATOM     93  F   UNL A   1      49.310  24.690  33.979  1.00  0.00    -0.200 F 
ATOM     94  C   UNL A   1      50.202  25.946  32.189  1.00  0.00     0.200 A 
ATOM     95  F   UNL A   1      51.048  27.226  30.395  1.00  0.00    -0.200 F 
ATOM     96  F   UNL A   1      51.439  25.536  32.498  1.00  0.00    -0.200 F 
ENDBRANCH  63  86
ENDBRANCH  37  38
ENDBRANCH  29  32
ENDBRANCH  27  28
ENDBRANCH  26  27
ENDBRANCH   1  26
TORSDOF 14
ENDMDL
MODEL 2
REMARK VINA RESULT:     -12.0      3.358      8.613
REMARK SMILES Cc1cc2c(c(C)c1Cl)C=C(C(=O)NCCCCCCNC(=O)c1ccc(-c3c4nc(c(-c5c(F)c(F)c(F)c(F)c5F)c5ccc([nH]5)c(-c5c(F)c(F)c(F)c(F)c5F)c5nc(c(-c6c(F)c(F)c(F)c(F)c6F)c6ccc3[nH]6)C=C5)C=C4)cc1)[C@@H](C(F)(F)F)O2
REMARK SMILES IDX 18 1 17 2 16 3 15 4 14 5 12 6 13 7 11 9 1 10 2 11 3 12 8 13
REMARK SMILES IDX 4 14 6 15 9 16 5 17 92 18 7 19 10 20 87 21 88 22 89 23 90 24
REMARK SMILES IDX 91 25 19 26 20 27 21 28 22 29 23 31 24 32 25 33 86 34 26 35
REMARK SMILES IDX 85 36 27 37 28 38 29 39 79 40 30 41 84 42 78 43 80 44 31 45
REMARK SMILES IDX 83 46 77 47 76 48 32 50 64 51 44 52 63 53 45 54 48 55 62 56
REMARK SMILES IDX 81 57 46 58 47 59 61 61 82 62 49 63 33 64 34 65 42 66 35 67
REMARK SMILES IDX 36 68 40 69 43 70 37 71 38 72 41 73 39 74 65 75 66 76 74 77
REMARK SMILES IDX 67 78 68 79 72 80 75 81 69 82 70 83 73 84 71 85 50 86 51 87
REMARK SMILES IDX 59 88 52 89 53 90 57 91 60 92 54 93 55 94 58 95 56 96
REMARK H PARENT 14 8 21 30 80 49 48 60
REMARK Flexibility Score: inf
ROOT
ATOM      1  C   UNL A   1      31.447  30.870  26.222  1.00  0.00     0.002 C 
ENDROOT
BRANCH   1   2
ATOM      2  C   UNL A   1      32.676  30.134  26.770  1.00  0.00     0.002 C 
BRANCH   2   3
ATOM      3  C   UNL A   1      32.465  28.648  27.073  1.00  0.00     0.021 C 
BRANCH   3   4
ATOM      4  C   UNL A   1      33.611  27.754  26.613  1.00  0.00     0.116 C 
BRANCH   4   5
ATOM      5  N   UNL A   1      33.725  27.718  25.167  1.00  0.00    -0.352 N 
ATOM      6  C   UNL A   1      33.550  26.810  24.179  1.00  0.00     0.251 C 
ATOM      7  O   UNL A   1      33.731  27.239  23.035  1.00  0.00    -0.270 OA
ATOM      8  H   UNL A   1      34.004  28.591  24.807  1.00  0.00     0.163 HD
BRANCH   6   9
ATOM      9  C   UNL A   1      33.168  25.377  24.377  1.00  0.00     0.067 C 
ATOM     10  C   UNL A   1      32.849  18.955  25.408  1.00  0.00     0.046 C 
ATOM     11  C   UNL A   1      33.267  20.365  25.093  1.00  0.00    -0.028 A 
ATOM     12  C   UNL A   1      32.292  21.364  25.162  1.00  0.00     0.052 A 
ATOM     13  C   UNL A   1      34.594  20.733  24.799  1.00  0.00     0.047 A 
ATOM     14  C   UNL A   1      32.620  22.692  24.918  1.00  0.00     0.128 A 
ATOM     15  C   UNL A   1      34.941  22.084  24.539  1.00  0.00    -0.021 A 
ATOM     16  Cl  UNL A   1      35.813  19.494  24.791  1.00  0.00    -0.084 Cl
ATOM     17  C   UNL A   1      33.929  23.072  24.614  1.00  0.00     0.022 A 
ATOM     18  O   UNL A   1      31.586  23.570  25.049  1.00  0.00    -0.475 OA
ATOM     19  C   UNL A   1      36.356  22.493  24.200  1.00  0.00     0.047 C 
ATOM     20  C   UNL A   1      34.193  24.506  24.439  1.00  0.00     0.026 C 
ATOM     21  C   UNL A   1      31.756  24.887  24.475  1.00  0.00     0.314 C 
BRANCH  21  22
ATOM     22  C   UNL A   1      31.003  24.952  23.135  1.00  0.00     0.429 C 
ATOM     23  F   UNL A   1      30.100  23.942  23.052  1.00  0.00    -0.167 F 
ATOM     24  F   UNL A   1      30.302  26.099  22.982  1.00  0.00    -0.167 F 
ATOM     25  F   UNL A   1      31.828  24.846  22.070  1.00  0.00    -0.167 F 
ENDBRANCH  21  22
ENDBRANCH   6   9
ENDBRANCH   4   5
ENDBRANCH   3   4
ENDBRANCH   2   3
ENDBRANCH   1   2
BRANCH   1  26
ATOM     26  C   UNL A   1      31.374  32.367  26.548  1.00  0.00     0.021 C 
BRANCH  26  27
ATOM     27  C   UNL A   1      32.591  32.920  27.283  1.00  0.00     0.116 C 
BRANCH  27  28
ATOM     28  N   UNL A   1      32.405  34.307  27.673  1.00  0.00    -0.352 N 
ATOM     29  C   UNL A   1      33.022  35.021  28.667  1.00  0.00     0.251 C 
ATOM     30  H   UNL A   1      31.740  34.807  27.147  1.00  0.00     0.163 HD
ATOM     31  O   UNL A   1      32.597  36.130  28.986  1.00  0.00    -0.269 OA
BRANCH  29  32
ATOM     32  C   UNL A   1      34.193  34.455  29.365  1.00  0.00     0.039 A 
ATOM     33  C   UNL A   1      34.001  33.821  30.597  1.00  0.00     0.014 A 
ATOM     34  C   UNL A   1      35.476  34.576  28.826  1.00  0.00     0.014 A 
ATOM     35  C   UNL A   1      35.092  33.265  31.265  1.00  0.00     0.010 A 
ATOM     36  C   UNL A   1      36.554  33.972  29.465  1.00  0.00     0.010 A 
ATOM     37  C   UNL A   1      36.372  33.314  30.690  1.00  0.00    -0.014 A 
BRANCH  37  38
ATOM     38  C   UNL A   1      37.540  32.688  31.354  1.00  0.00     0.031 A 
ATOM     39  C   UNL A   1      38.258  31.547  30.693  1.00  0.00     0.074 A 
ATOM     40  C   UNL A   1      37.910  33.108  32.579  1.00  0.00     0.049 A 
ATOM     41  N   UNL A   1      39.222  30.796  31.158  1.00  0.00    -0.248 NA
ATOM     42  C   UNL A   1      37.818  31.191  29.335  1.00  0.00     0.031 C 
ATOM     43  C   UNL A   1      37.280  34.199  33.323  1.00  0.00     0.029 A 
ATOM     44  N   UNL A   1      38.898  32.659  33.417  1.00  0.00    -0.354 N 
ATOM     45  C   UNL A   1      39.500  29.877  30.155  1.00  0.00     0.074 A 
ATOM     46  C   UNL A   1      38.572  30.133  29.075  1.00  0.00     0.031 C 
ATOM     47  C   UNL A   1      37.906  34.346  34.501  1.00  0.00     0.029 A 
ATOM     48  C   UNL A   1      38.953  33.334  34.612  1.00  0.00     0.049 A 
ATOM     49  H   UNL A   1      39.511  31.924  33.185  1.00  0.00     0.167 HD
ATOM     50  C   UNL A   1      40.458  28.920  30.133  1.00  0.00     0.037 A 
ATOM     51  C   UNL A   1      39.750  33.148  35.681  1.00  0.00     0.037 A 
ATOM     52  C   UNL A   1      41.385  28.677  31.207  1.00  0.00     0.049 A 
ATOM     53  C   UNL A   1      40.784  32.057  35.643  1.00  0.00     0.074 A 
ATOM     54  C   UNL A   1      42.398  27.738  31.278  1.00  0.00     0.029 A 
ATOM     55  N   UNL A   1      41.413  29.385  32.400  1.00  0.00    -0.354 N 
ATOM     56  N   UNL A   1      41.048  31.202  34.685  1.00  0.00    -0.248 NA
ATOM     57  C   UNL A   1      41.635  31.909  36.831  1.00  0.00     0.031 C 
ATOM     58  C   UNL A   1      43.014  27.851  32.529  1.00  0.00     0.029 A 
ATOM     59  C   UNL A   1      42.421  28.898  33.216  1.00  0.00     0.049 A 
ATOM     60  H   UNL A   1      40.806  30.125  32.634  1.00  0.00     0.167 HD
ATOM     61  C   UNL A   1      42.115  30.437  35.139  1.00  0.00     0.074 A 
ATOM     62  C   UNL A   1      42.455  30.937  36.455  1.00  0.00     0.031 C 
ATOM     63  C   UNL A   1      42.755  29.415  34.519  1.00  0.00     0.037 A 
BRANCH  50  64
ATOM     64  C   UNL A   1      40.560  28.064  28.903  1.00  0.00     0.064 A 
ATOM     65  C   UNL A   1      39.825  26.876  28.777  1.00  0.00     0.173 A 
ATOM     66  C   UNL A   1      41.351  28.466  27.816  1.00  0.00     0.173 A 
ATOM     67  F   UNL A   1      39.066  26.440  29.792  1.00  0.00    -0.203 F 
ATOM     68  C   UNL A   1      39.891  26.113  27.613  1.00  0.00     0.198 A 
ATOM     69  C   UNL A   1      41.391  27.716  26.643  1.00  0.00     0.198 A 
ATOM     70  F   UNL A   1      42.070  29.596  27.884  1.00  0.00    -0.203 F 
ATOM     71  F   UNL A   1      39.209  24.963  27.529  1.00  0.00    -0.200 F 
ATOM     72  C   UNL A   1      40.665  26.539  26.544  1.00  0.00     0.200 A 
ATOM     73  F   UNL A   1      42.129  28.135  25.607  1.00  0.00    -0.200 F 
ATOM     74  F   UNL A   1      40.713  25.812  25.419  1.00  0.00    -0.200 F 
ENDBRANCH  50  64
BRANCH  51  75
ATOM     75  C   UNL A   1      39.621  34.042  36.860  1.00  0.00     0.064 A 
ATOM     76  C   UNL A   1      38.843  33.663  37.964  1.00  0.00     0.173 A 
ATOM     77  C   UNL A   1      40.284  35.276  36.922  1.00  0.00     0.173 A 
ATOM     78  F   UNL A   1      38.174  32.502  37.941  1.00  0.00    -0.203 F 
ATOM     79  C   UNL A   1      38.727  34.488  39.080  1.00  0.00     0.198 A 
ATOM     80  C   UNL A   1      40.190  36.088  38.050  1.00  0.00     0.198 A 
ATOM     81  F   UNL A   1      41.045  35.682  35.895  1.00  0.00    -0.203 F 
ATOM     82  F   UNL A   1      37.950  34.117  40.106  1.00  0.00    -0.200 F 
ATOM     83  C   UNL A   1      39.406  35.695  39.126  1.00  0.00     0.200 A 
ATOM     84  F   UNL A   1      40.861  37.247  38.098  1.00  0.00    -0.200 F 
ATOM     85  F   UNL A   1      39.304  36.483  40.205  1.00  0.00    -0.200 F 
ENDBRANCH  51  75
BRANCH  63  86
ATOM     86  C   UNL A   1      43.921  28.797  35.235  1.00  0.00     0.064 A 
ATOM     87  C   UNL A   1      45.226  29.285  35.076  1.00  0.00     0.173 A 
ATOM     88  C   UNL A   1      43.720  27.733  36.127  1.00  0.00     0.173 A 
ATOM     89  F   UNL A   1      45.472  30.293  34.226  1.00  0.00    -0.203 F 
ATOM     90  C   UNL A   1      46.292  28.711  35.765  1.00  0.00     0.198 A 
ATOM     91  C   UNL A   1      44.782  27.182  36.836  1.00  0.00     0.198 A 
ATOM     92  F   UNL A   1      42.489  27.236  36.321  1.00  0.00    -0.203 F 
ATOM     93  F   UNL A   1      47.538  29.161  35.562  1.00  0.00    -0.200 F 
ATOM     94  C   UNL A   1      46.069  27.666  36.649  1.00  0.00     0.200 A 
ATOM     95  F   UNL A   1      44.563  26.183  37.702  1.00  0.00    -0.200 F 
ATOM     96  F   UNL A   1      47.094  27.121  37.317  1.00  0.00    -0.200 F 
ENDBRANCH  63  86
ENDBRANCH  37  38
ENDBRANCH  29  32
ENDBRANCH  27  28
ENDBRANCH  26  27
ENDBRANCH   1  26
TORSDOF 14
ENDMDL
MODEL 3
REMARK VINA RESULT:     -11.9      3.514      7.834
REMARK SMILES Cc1cc2c(c(C)c1Cl)C=C(C(=O)NCCCCCCNC(=O)c1ccc(-c3c4nc(c(-c5c(F)c(F)c(F)c(F)c5F)c5ccc([nH]5)c(-c5c(F)c(F)c(F)c(F)c5F)c5nc(c(-c6c(F)c(F)c(F)c(F)c6F)c6ccc3[nH]6)C=C5)C=C4)cc1)[C@@H](C(F)(F)F)O2
REMARK SMILES IDX 18 1 17 2 16 3 15 4 14 5 12 6 13 7 11 9 1 10 2 11 3 12 8 13
REMARK SMILES IDX 4 14 6 15 9 16 5 17 92 18 7 19 10 20 87 21 88 22 89 23 90 24
REMARK SMILES IDX 91 25 19 26 20 27 21 28 22 29 23 31 24 32 25 33 86 34 26 35
REMARK SMILES IDX 85 36 27 37 28 38 29 39 79 40 30 41 84 42 78 43 80 44 31 45
REMARK SMILES IDX 83 46 77 47 76 48 32 50 64 51 44 52 63 53 45 54 48 55 62 56
REMARK SMILES IDX 81 57 46 58 47 59 61 61 82 62 49 63 33 64 34 65 42 66 35 67
REMARK SMILES IDX 36 68 40 69 43 70 37 71 38 72 41 73 39 74 65 75 66 76 74 77
REMARK SMILES IDX 67 78 68 79 72 80 75 81 69 82 70 83 73 84 71 85 50 86 51 87
REMARK SMILES IDX 59 88 52 89 53 90 57 91 60 92 54 93 55 94 58 95 56 96
REMARK H PARENT 14 8 21 30 80 49 48 60
REMARK Flexibility Score: inf
ROOT
ATOM      1  C   UNL A   1      36.790  20.662  24.720  1.00  0.00     0.002 C 
ENDROOT
BRANCH   1   2
ATOM      2  C   UNL A   1      37.323  22.031  24.278  1.00  0.00     0.002 C 
BRANCH   2   3
ATOM      3  C   UNL A   1      36.421  23.222  24.613  1.00  0.00     0.021 C 
BRANCH   3   4
ATOM      4  C   UNL A   1      36.436  23.613  26.087  1.00  0.00     0.116 C 
BRANCH   4   5
ATOM      5  N   UNL A   1      35.250  23.149  26.783  1.00  0.00    -0.352 N 
ATOM      6  C   UNL A   1      33.913  23.351  26.712  1.00  0.00     0.251 C 
ATOM      7  O   UNL A   1      33.241  22.693  27.513  1.00  0.00    -0.270 OA
ATOM      8  H   UNL A   1      35.479  22.514  27.500  1.00  0.00     0.163 HD
BRANCH   6   9
ATOM      9  C   UNL A   1      33.227  24.284  25.765  1.00  0.00     0.067 C 
ATOM     10  C   UNL A   1      30.625  29.304  22.534  1.00  0.00     0.046 C 
ATOM     11  C   UNL A   1      31.215  28.373  23.558  1.00  0.00    -0.028 A 
ATOM     12  C   UNL A   1      31.542  27.078  23.149  1.00  0.00     0.052 A 
ATOM     13  C   UNL A   1      31.510  28.761  24.880  1.00  0.00     0.047 A 
ATOM     14  C   UNL A   1      32.122  26.179  24.037  1.00  0.00     0.128 A 
ATOM     15  C   UNL A   1      32.094  27.851  25.799  1.00  0.00    -0.021 A 
ATOM     16  Cl  UNL A   1      31.169  30.398  25.357  1.00  0.00    -0.084 Cl
ATOM     17  C   UNL A   1      32.411  26.544  25.353  1.00  0.00     0.022 A 
ATOM     18  O   UNL A   1      32.421  24.962  23.504  1.00  0.00    -0.475 OA
ATOM     19  C   UNL A   1      32.397  28.244  27.226  1.00  0.00     0.047 C 
ATOM     20  C   UNL A   1      33.086  25.551  26.197  1.00  0.00     0.026 C 
ATOM     21  C   UNL A   1      32.688  23.880  24.428  1.00  0.00     0.314 C 
BRANCH  21  22
ATOM     22  C   UNL A   1      31.438  22.987  24.528  1.00  0.00     0.429 C 
ATOM     23  F   UNL A   1      30.690  23.340  25.603  1.00  0.00    -0.167 F 
ATOM     24  F   UNL A   1      30.626  23.098  23.451  1.00  0.00    -0.167 F 
ATOM     25  F   UNL A   1      31.744  21.677  24.659  1.00  0.00    -0.167 F 
ENDBRANCH  21  22
ENDBRANCH   6   9
ENDBRANCH   4   5
ENDBRANCH   3   4
ENDBRANCH   2   3
ENDBRANCH   1   2
BRANCH   1  26
ATOM     26  C   UNL A   1      37.858  19.614  25.054  1.00  0.00     0.021 C 
BRANCH  26  27
ATOM     27  C   UNL A   1      39.092  20.163  25.762  1.00  0.00     0.116 C 
BRANCH  27  28
ATOM     28  N   UNL A   1      40.151  19.172  25.855  1.00  0.00    -0.352 N 
ATOM     29  C   UNL A   1      41.491  19.350  26.077  1.00  0.00     0.251 C 
ATOM     30  H   UNL A   1      39.864  18.237  25.742  1.00  0.00     0.163 HD
ATOM     31  O   UNL A   1      42.272  18.413  25.926  1.00  0.00    -0.269 OA
BRANCH  29  32
ATOM     32  C   UNL A   1      42.002  20.672  26.489  1.00  0.00     0.039 A 
ATOM     33  C   UNL A   1      42.398  21.579  25.501  1.00  0.00     0.014 A 
ATOM     34  C   UNL A   1      42.123  21.003  27.841  1.00  0.00     0.014 A 
ATOM     35  C   UNL A   1      42.869  22.840  25.869  1.00  0.00     0.010 A 
ATOM     36  C   UNL A   1      42.538  22.281  28.205  1.00  0.00     0.010 A 
ATOM     37  C   UNL A   1      42.917  23.208  27.224  1.00  0.00    -0.014 A 
BRANCH  37  38
ATOM     38  C   UNL A   1      43.365  24.558  27.640  1.00  0.00     0.031 A 
ATOM     39  C   UNL A   1      42.354  25.608  28.000  1.00  0.00     0.074 A 
ATOM     40  C   UNL A   1      44.679  24.852  27.630  1.00  0.00     0.049 A 
ATOM     41  N   UNL A   1      42.537  26.873  28.278  1.00  0.00    -0.248 NA
ATOM     42  C   UNL A   1      40.946  25.181  28.034  1.00  0.00     0.031 C 
ATOM     43  C   UNL A   1      45.751  23.917  27.286  1.00  0.00     0.029 A 
ATOM     44  N   UNL A   1      45.335  26.025  27.907  1.00  0.00    -0.354 N 
ATOM     45  C   UNL A   1      41.272  27.393  28.513  1.00  0.00     0.074 A 
ATOM     46  C   UNL A   1      40.325  26.321  28.299  1.00  0.00     0.031 C 
ATOM     47  C   UNL A   1      46.932  24.547  27.387  1.00  0.00     0.029 A 
ATOM     48  C   UNL A   1      46.698  25.939  27.761  1.00  0.00     0.049 A 
ATOM     49  H   UNL A   1      44.873  26.849  28.183  1.00  0.00     0.167 HD
ATOM     50  C   UNL A   1      40.937  28.649  28.892  1.00  0.00     0.037 A 
ATOM     51  C   UNL A   1      47.649  26.882  27.902  1.00  0.00     0.037 A 
ATOM     52  C   UNL A   1      41.886  29.709  29.112  1.00  0.00     0.049 A 
ATOM     53  C   UNL A   1      47.246  28.276  28.292  1.00  0.00     0.074 A 
ATOM     54  C   UNL A   1      41.648  31.014  29.506  1.00  0.00     0.029 A 
ATOM     55  N   UNL A   1      43.260  29.583  28.959  1.00  0.00    -0.354 N 
ATOM     56  N   UNL A   1      46.049  28.757  28.525  1.00  0.00    -0.248 NA
ATOM     57  C   UNL A   1      48.328  29.259  28.446  1.00  0.00     0.031 C 
ATOM     58  C   UNL A   1      42.873  31.688  29.555  1.00  0.00     0.029 A 
ATOM     59  C   UNL A   1      43.880  30.789  29.245  1.00  0.00     0.049 A 
ATOM     60  H   UNL A   1      43.725  28.758  28.689  1.00  0.00     0.167 HD
ATOM     61  C   UNL A   1      46.233  30.085  28.884  1.00  0.00     0.074 A 
ATOM     62  C   UNL A   1      47.659  30.332  28.847  1.00  0.00     0.031 C 
ATOM     63  C   UNL A   1      45.303  31.015  29.215  1.00  0.00     0.037 A 
BRANCH  50  64
ATOM     64  C   UNL A   1      39.480  28.949  29.101  1.00  0.00     0.064 A 
ATOM     65  C   UNL A   1      38.887  28.843  30.368  1.00  0.00     0.173 A 
ATOM     66  C   UNL A   1      38.685  29.407  28.039  1.00  0.00     0.173 A 
ATOM     67  F   UNL A   1      39.600  28.398  31.412  1.00  0.00    -0.203 F 
ATOM     68  C   UNL A   1      37.547  29.169  30.561  1.00  0.00     0.198 A 
ATOM     69  C   UNL A   1      37.353  29.759  28.242  1.00  0.00     0.198 A 
ATOM     70  F   UNL A   1      39.204  29.529  26.809  1.00  0.00    -0.203 F 
ATOM     71  F   UNL A   1      36.992  29.025  31.772  1.00  0.00    -0.200 F 
ATOM     72  C   UNL A   1      36.784  29.636  29.501  1.00  0.00     0.200 A 
ATOM     73  F   UNL A   1      36.621  30.222  27.220  1.00  0.00    -0.200 F 
ATOM     74  F   UNL A   1      35.499  29.966  29.692  1.00  0.00    -0.200 F 
ENDBRANCH  50  64
BRANCH  51  75
ATOM     75  C   UNL A   1      49.077  26.520  27.707  1.00  0.00     0.064 A 
ATOM     76  C   UNL A   1      49.915  26.297  28.808  1.00  0.00     0.173 A 
ATOM     77  C   UNL A   1      49.628  26.368  26.426  1.00  0.00     0.173 A 
ATOM     78  F   UNL A   1      49.439  26.451  30.052  1.00  0.00    -0.203 F 
ATOM     79  C   UNL A   1      51.252  25.944  28.636  1.00  0.00     0.198 A 
ATOM     80  C   UNL A   1      50.957  25.988  26.255  1.00  0.00     0.198 A 
ATOM     81  F   UNL A   1      48.865  26.566  25.340  1.00  0.00    -0.203 F 
ATOM     82  F   UNL A   1      52.039  25.770  29.706  1.00  0.00    -0.200 F 
ATOM     83  C   UNL A   1      51.769  25.782  27.360  1.00  0.00     0.200 A 
ATOM     84  F   UNL A   1      51.449  25.817  25.021  1.00  0.00    -0.200 F 
ATOM     85  F   UNL A   1      53.051  25.430  27.195  1.00  0.00    -0.200 F 
ENDBRANCH  51  75
BRANCH  63  86
ATOM     86  C   UNL A   1      45.799  32.374  29.613  1.00  0.00     0.064 A 
ATOM     87  C   UNL A   1      45.949  33.408  28.678  1.00  0.00     0.173 A 
ATOM     88  C   UNL A   1      46.082  32.657  30.958  1.00  0.00     0.173 A 
ATOM     89  F   UNL A   1      45.703  33.185  27.378  1.00  0.00    -0.203 F 
ATOM     90  C   UNL A   1      46.392  34.669  29.072  1.00  0.00     0.198 A 
ATOM     91  C   UNL A   1      46.494  33.927  31.352  1.00  0.00     0.198 A 
ATOM     92  F   UNL A   1      45.945  31.706  31.894  1.00  0.00    -0.203 F 
ATOM     93  F   UNL A   1      46.574  35.629  28.154  1.00  0.00    -0.200 F 
ATOM     94  C   UNL A   1      46.656  34.930  30.408  1.00  0.00     0.200 A 
ATOM     95  F   UNL A   1      46.733  34.182  32.646  1.00  0.00    -0.200 F 
ATOM     96  F   UNL A   1      47.073  36.145  30.785  1.00  0.00    -0.200 F 
ENDBRANCH  63  86
ENDBRANCH  37  38
ENDBRANCH  29  32
ENDBRANCH  27  28
ENDBRANCH  26  27
ENDBRANCH   1  26
TORSDOF 14
ENDMDL
