MODEL 1
REMARK VINA RESULT:     -11.7      0.000      0.000
REMARK SMILES COc1cc(/C=N/[NH+]=C2\S[C@H](CC(=O)NCCCCCCNC(=O)c3ccc(-c4c5nc(c(-c6c(F)c(F)c(F)c(F)c6F)c6ccc([nH]6)c(-c6c(F)c(F)c(F)c(F)c6F)c6nc(c(-c7c(F)c(F)c(F)c(F)c7F)c7ccc4[nH]7)C=C6)C=C5)cc3)C(=O)N2C)cc(OC)c1OC
REMARK SMILES IDX 17 1 16 2 15 3 13 4 14 5 12 7 11 8 8 9 9 10 10 12 90 13
REMARK SMILES IDX 88 14 91 15 89 16 7 17 6 18 5 19 3 20 4 21 96 22 93 23 92 24
REMARK SMILES IDX 2 25 1 26 97 27 98 28 94 29 95 30 18 31 19 32 20 33 21 34
REMARK SMILES IDX 22 35 23 36 24 38 25 39 26 40 87 41 27 42 86 43 28 44 29 45
REMARK SMILES IDX 30 46 80 47 31 48 85 49 79 50 81 51 32 52 84 53 78 54 77 55
REMARK SMILES IDX 33 57 65 58 45 59 64 60 46 61 49 62 63 63 82 64 47 65 48 66
REMARK SMILES IDX 62 68 83 69 50 70 34 71 35 72 43 73 36 74 37 75 41 76 44 77
REMARK SMILES IDX 38 78 39 79 42 80 40 81 66 82 67 83 75 84 68 85 69 86 73 87
REMARK SMILES IDX 76 88 70 89 71 90 74 91 72 92 51 93 52 94 60 95 53 96 54 97
REMARK SMILES IDX 58 98 61 99 55 100 56 101 59 102 57 103
REMARK H PARENT 15 6 8 11 22 37 81 56 49 67
REMARK Flexibility Score: inf
ROOT
ATOM      1  C   UNL A   1      36.382  23.480  24.641  1.00  0.00     0.021 C 
ENDROOT
BRANCH   1   2
ATOM      2  C   UNL A   1      35.086  23.617  23.846  1.00  0.00     0.116 C 
BRANCH   2   3
ATOM      3  N   UNL A   1      34.219  24.661  24.357  1.00  0.00    -0.356 N 
ATOM      4  C   UNL A   1      33.587  24.796  25.554  1.00  0.00     0.221 C 
ATOM      5  O   UNL A   1      33.120  25.901  25.835  1.00  0.00    -0.275 OA
ATOM      6  H   UNL A   1      34.059  25.402  23.728  1.00  0.00     0.163 HD
BRANCH   4   7
ATOM      7  C   UNL A   1      33.428  23.626  26.504  1.00  0.00     0.127 C 
BRANCH   7   8
ATOM      8  C   UNL A   1      32.194  22.742  26.279  1.00  0.00     0.183 C 
ATOM      9  N   UNL A   1      30.706  24.066  23.085  1.00  0.00    -0.142 N 
ATOM     10  C   UNL A   1      31.041  23.304  24.083  1.00  0.00     0.339 C 
ATOM     11  H   UNL A   1      30.852  23.822  22.142  1.00  0.00     0.343 HD
ATOM     12  S   UNL A   1      30.677  23.594  25.776  1.00  0.00    -0.020 SA
ATOM     13  N   UNL A   1      31.819  22.174  23.983  1.00  0.00    -0.191 N 
ATOM     14  C   UNL A   1      32.448  21.774  25.145  1.00  0.00     0.324 C 
ATOM     15  C   UNL A   1      32.148  21.480  22.754  1.00  0.00     0.301 C 
ATOM     16  O   UNL A   1      33.217  20.822  25.237  1.00  0.00    -0.245 OA
BRANCH   9  17
ATOM     17  N   UNL A   1      30.113  25.280  23.489  1.00  0.00    -0.093 NA
ATOM     18  C   UNL A   1      30.683  26.320  22.962  1.00  0.00     0.166 C 
BRANCH  18  19
ATOM     19  C   UNL A   1      30.339  27.709  23.359  1.00  0.00     0.004 A 
ATOM     20  C   UNL A   1      30.806  29.745  24.589  1.00  0.00     0.165 A 
ATOM     21  C   UNL A   1      31.133  28.419  24.256  1.00  0.00     0.060 A 
ATOM     22  C   UNL A   1      29.701  30.398  24.004  1.00  0.00     0.203 A 
ATOM     23  C   UNL A   1      28.909  29.675  23.090  1.00  0.00     0.165 A 
ATOM     24  C   UNL A   1      29.234  28.339  22.778  1.00  0.00     0.060 A 
BRANCH  20  25
ATOM     25  O   UNL A   1      31.660  30.431  25.416  1.00  0.00    -0.493 OA
ATOM     26  C   UNL A   1      31.962  29.690  26.599  1.00  0.00     0.278 C 
ENDBRANCH  20  25
BRANCH  22  27
ATOM     27  O   UNL A   1      29.390  31.717  24.205  1.00  0.00    -0.490 OA
ATOM     28  C   UNL A   1      29.533  32.625  23.122  1.00  0.00     0.278 C 
ENDBRANCH  22  27
BRANCH  23  29
ATOM     29  O   UNL A   1      27.799  30.107  22.401  1.00  0.00    -0.493 OA
ATOM     30  C   UNL A   1      27.954  30.606  21.078  1.00  0.00     0.278 C 
ENDBRANCH  23  29
ENDBRANCH  18  19
ENDBRANCH   9  17
ENDBRANCH   7   8
ENDBRANCH   4   7
ENDBRANCH   2   3
ENDBRANCH   1   2
BRANCH   1  31
ATOM     31  C   UNL A   1      37.275  22.284  24.299  1.00  0.00     0.002 C 
BRANCH  31  32
ATOM     32  C   UNL A   1      36.816  20.951  24.886  1.00  0.00     0.002 C 
BRANCH  32  33
ATOM     33  C   UNL A   1      37.903  19.878  25.001  1.00  0.00     0.021 C 
BRANCH  33  34
ATOM     34  C   UNL A   1      39.151  20.305  25.769  1.00  0.00     0.116 C 
BRANCH  34  35
ATOM     35  N   UNL A   1      40.076  19.198  25.948  1.00  0.00    -0.352 N 
ATOM     36  C   UNL A   1      41.446  19.247  26.059  1.00  0.00     0.251 C 
ATOM     37  H   UNL A   1      39.672  18.301  25.996  1.00  0.00     0.163 HD
ATOM     38  O   UNL A   1      42.131  18.243  25.941  1.00  0.00    -0.269 OA
BRANCH  36  39
ATOM     39  C   UNL A   1      42.079  20.556  26.317  1.00  0.00     0.039 A 
ATOM     40  C   UNL A   1      42.336  21.417  25.250  1.00  0.00     0.014 A 
ATOM     41  C   UNL A   1      42.370  20.936  27.631  1.00  0.00     0.014 A 
ATOM     42  C   UNL A   1      42.839  22.693  25.508  1.00  0.00     0.010 A 
ATOM     43  C   UNL A   1      42.793  22.234  27.890  1.00  0.00     0.010 A 
ATOM     44  C   UNL A   1      43.041  23.123  26.832  1.00  0.00    -0.014 A 
BRANCH  44  45
ATOM     45  C   UNL A   1      43.533  24.491  27.132  1.00  0.00     0.031 A 
ATOM     46  C   UNL A   1      42.576  25.533  27.639  1.00  0.00     0.074 A 
ATOM     47  C   UNL A   1      44.819  24.812  26.889  1.00  0.00     0.049 A 
ATOM     48  N   UNL A   1      42.787  26.800  27.892  1.00  0.00    -0.248 NA
ATOM     49  C   UNL A   1      41.187  25.102  27.862  1.00  0.00     0.031 C 
ATOM     50  C   UNL A   1      45.831  23.900  26.353  1.00  0.00     0.029 A 
ATOM     51  N   UNL A   1      45.493  25.996  27.051  1.00  0.00    -0.354 N 
ATOM     52  C   UNL A   1      41.559  27.316  28.288  1.00  0.00     0.074 A 
ATOM     53  C   UNL A   1      40.596  26.244  28.182  1.00  0.00     0.031 C 
ATOM     54  C   UNL A   1      47.001  24.551  26.252  1.00  0.00     0.029 A 
ATOM     55  C   UNL A   1      46.813  25.935  26.675  1.00  0.00     0.049 A 
ATOM     56  H   UNL A   1      45.070  26.812  27.404  1.00  0.00     0.167 HD
ATOM     57  C   UNL A   1      41.269  28.563  28.725  1.00  0.00     0.037 A 
ATOM     58  C   UNL A   1      47.761  26.893  26.665  1.00  0.00     0.037 A 
ATOM     59  C   UNL A   1      42.239  29.619  28.849  1.00  0.00     0.049 A 
ATOM     60  C   UNL A   1      47.409  28.277  27.143  1.00  0.00     0.074 A 
ATOM     61  C   UNL A   1      42.061  30.901  29.340  1.00  0.00     0.029 A 
ATOM     62  N   UNL A   1      43.570  29.516  28.474  1.00  0.00    -0.354 N 
ATOM     63  N   UNL A   1      46.261  28.733  27.586  1.00  0.00    -0.248 NA
ATOM     64  C   UNL A   1      48.484  29.278  27.128  1.00  0.00     0.031 C 
ATOM     65  C   UNL A   1      43.268  31.590  29.207  1.00  0.00     0.029 A 
ATOM     66  C   UNL A   1      44.218  30.720  28.695  1.00  0.00     0.049 A 
ATOM     67  H   UNL A   1      43.993  28.706  28.105  1.00  0.00     0.167 HD
ATOM     68  C   UNL A   1      46.484  30.059  27.932  1.00  0.00     0.074 A 
ATOM     69  C   UNL A   1      47.881  30.331  27.660  1.00  0.00     0.031 C 
ATOM     70  C   UNL A   1      45.612  30.970  28.430  1.00  0.00     0.037 A 
BRANCH  57  71
ATOM     71  C   UNL A   1      39.844  28.857  29.099  1.00  0.00     0.064 A 
ATOM     72  C   UNL A   1      38.908  29.302  28.152  1.00  0.00     0.173 A 
ATOM     73  C   UNL A   1      39.397  28.657  30.414  1.00  0.00     0.173 A 
ATOM     74  F   UNL A   1      39.284  29.520  26.882  1.00  0.00    -0.203 F 
ATOM     75  C   UNL A   1      37.590  29.566  28.514  1.00  0.00     0.198 A 
ATOM     76  C   UNL A   1      38.070  28.888  30.765  1.00  0.00     0.198 A 
ATOM     77  F   UNL A   1      40.247  28.227  31.359  1.00  0.00    -0.203 F 
ATOM     78  F   UNL A   1      36.730  30.043  27.603  1.00  0.00    -0.200 F 
ATOM     79  C   UNL A   1      37.170  29.351  29.817  1.00  0.00     0.200 A 
ATOM     80  F   UNL A   1      37.662  28.665  32.022  1.00  0.00    -0.200 F 
ATOM     81  F   UNL A   1      35.898  29.597  30.163  1.00  0.00    -0.200 F 
ENDBRANCH  57  71
BRANCH  58  82
ATOM     82  C   UNL A   1      49.138  26.573  26.201  1.00  0.00     0.064 A 
ATOM     83  C   UNL A   1      50.088  26.032  27.080  1.00  0.00     0.173 A 
ATOM     84  C   UNL A   1      49.536  26.809  24.878  1.00  0.00     0.173 A 
ATOM     85  F   UNL A   1      49.763  25.806  28.361  1.00  0.00    -0.203 F 
ATOM     86  C   UNL A   1      51.389  25.764  26.658  1.00  0.00     0.198 A 
ATOM     87  C   UNL A   1      50.828  26.510  24.449  1.00  0.00     0.198 A 
ATOM     88  F   UNL A   1      48.665  27.319  23.994  1.00  0.00    -0.203 F 
ATOM     89  F   UNL A   1      52.290  25.296  27.532  1.00  0.00    -0.200 F 
ATOM     90  C   UNL A   1      51.756  25.997  25.342  1.00  0.00     0.200 A 
ATOM     91  F   UNL A   1      51.173  26.720  23.171  1.00  0.00    -0.200 F 
ATOM     92  F   UNL A   1      53.006  25.735  24.935  1.00  0.00    -0.200 F 
ENDBRANCH  58  82
BRANCH  70  93
ATOM     93  C   UNL A   1      46.148  32.335  28.757  1.00  0.00     0.064 A 
ATOM     94  C   UNL A   1      46.697  32.633  30.012  1.00  0.00     0.173 A 
ATOM     95  C   UNL A   1      46.158  33.343  27.780  1.00  0.00     0.173 A 
ATOM     96  F   UNL A   1      46.698  31.709  30.986  1.00  0.00    -0.203 F 
ATOM     97  C   UNL A   1      47.214  33.896  30.286  1.00  0.00     0.198 A 
ATOM     98  C   UNL A   1      46.708  34.593  28.046  1.00  0.00     0.198 A 
ATOM     99  F   UNL A   1      45.653  33.108  26.560  1.00  0.00    -0.203 F 
ATOM    100  F   UNL A   1      47.690  34.174  31.508  1.00  0.00    -0.200 F 
ATOM    101  C   UNL A   1      47.229  34.871  29.300  1.00  0.00     0.200 A 
ATOM    102  F   UNL A   1      46.737  35.528  27.086  1.00  0.00    -0.200 F 
ATOM    103  F   UNL A   1      47.739  36.083  29.561  1.00  0.00    -0.200 F 
ENDBRANCH  70  93
ENDBRANCH  44  45
ENDBRANCH  36  39
ENDBRANCH  34  35
ENDBRANCH  33  34
ENDBRANCH  32  33
ENDBRANCH  31  32
ENDBRANCH   1  31
TORSDOF 19
ENDMDL
MODEL 2
REMARK VINA RESULT:     -11.6      0.898      2.187
REMARK SMILES COc1cc(/C=N/[NH+]=C2\S[C@H](CC(=O)NCCCCCCNC(=O)c3ccc(-c4c5nc(c(-c6c(F)c(F)c(F)c(F)c6F)c6ccc([nH]6)c(-c6c(F)c(F)c(F)c(F)c6F)c6nc(c(-c7c(F)c(F)c(F)c(F)c7F)c7ccc4[nH]7)C=C6)C=C5)cc3)C(=O)N2C)cc(OC)c1OC
REMARK SMILES IDX 17 1 16 2 15 3 13 4 14 5 12 7 11 8 8 9 9 10 10 12 90 13
REMARK SMILES IDX 88 14 91 15 89 16 7 17 6 18 5 19 3 20 4 21 96 22 93 23 92 24
REMARK SMILES IDX 2 25 1 26 97 27 98 28 94 29 95 30 18 31 19 32 20 33 21 34
REMARK SMILES IDX 22 35 23 36 24 38 25 39 26 40 87 41 27 42 86 43 28 44 29 45
REMARK SMILES IDX 30 46 80 47 31 48 85 49 79 50 81 51 32 52 84 53 78 54 77 55
REMARK SMILES IDX 33 57 65 58 45 59 64 60 46 61 49 62 63 63 82 64 47 65 48 66
REMARK SMILES IDX 62 68 83 69 50 70 34 71 35 72 43 73 36 74 37 75 41 76 44 77
REMARK SMILES IDX 38 78 39 79 42 80 40 81 66 82 67 83 75 84 68 85 69 86 73 87
REMARK SMILES IDX 76 88 70 89 71 90 74 91 72 92 51 93 52 94 60 95 53 96 54 97
REMARK SMILES IDX 58 98 61 99 55 100 56 101 59 102 57 103
REMARK H PARENT 15 6 8 11 22 37 81 56 49 67
REMARK Flexibility Score: inf
ROOT
ATOM      1  C   UNL A   1      36.835  23.302  24.993  1.00  0.00     0.021 C 
ENDROOT
BRANCH   1   2
ATOM      2  C   UNL A   1      35.362  23.697  24.916  1.00  0.00     0.116 C 
BRANCH   2   3
ATOM      3  N   UNL A   1      34.667  23.534  26.178  1.00  0.00    -0.356 N 
ATOM      4  C   UNL A   1      34.132  22.433  26.771  1.00  0.00     0.221 C 
ATOM      5  O   UNL A   1      33.826  22.514  27.961  1.00  0.00    -0.275 OA
ATOM      6  H   UNL A   1      34.564  24.364  26.696  1.00  0.00     0.163 HD
BRANCH   4   7
ATOM      7  C   UNL A   1      33.885  21.154  25.995  1.00  0.00     0.127 C 
BRANCH   7   8
ATOM      8  C   UNL A   1      32.425  20.873  25.614  1.00  0.00     0.183 C 
ATOM      9  N   UNL A   1      31.613  23.561  23.108  1.00  0.00    -0.142 N 
ATOM     10  C   UNL A   1      31.621  22.458  23.796  1.00  0.00     0.339 C 
ATOM     11  H   UNL A   1      31.694  23.591  22.127  1.00  0.00     0.343 HD
ATOM     12  S   UNL A   1      31.328  22.310  25.520  1.00  0.00    -0.020 SA
ATOM     13  N   UNL A   1      31.950  21.222  23.293  1.00  0.00    -0.191 N 
ATOM     14  C   UNL A   1      32.356  20.284  24.222  1.00  0.00     0.324 C 
ATOM     15  C   UNL A   1      32.051  20.880  21.887  1.00  0.00     0.301 C 
ATOM     16  O   UNL A   1      32.734  19.148  23.956  1.00  0.00    -0.245 OA
BRANCH   9  17
ATOM     17  N   UNL A   1      31.477  24.713  23.909  1.00  0.00    -0.093 NA
ATOM     18  C   UNL A   1      31.535  25.815  23.226  1.00  0.00     0.166 C 
BRANCH  18  19
ATOM     19  C   UNL A   1      31.576  27.154  23.866  1.00  0.00     0.004 A 
ATOM     20  C   UNL A   1      32.675  28.816  25.245  1.00  0.00     0.165 A 
ATOM     21  C   UNL A   1      32.641  27.531  24.679  1.00  0.00     0.060 A 
ATOM     22  C   UNL A   1      31.664  29.762  24.979  1.00  0.00     0.203 A 
ATOM     23  C   UNL A   1      30.594  29.377  24.146  1.00  0.00     0.165 A 
ATOM     24  C   UNL A   1      30.560  28.077  23.599  1.00  0.00     0.060 A 
BRANCH  20  25
ATOM     25  O   UNL A   1      33.781  29.171  25.977  1.00  0.00    -0.493 OA
ATOM     26  C   UNL A   1      33.766  28.583  27.279  1.00  0.00     0.278 C 
ENDBRANCH  20  25
BRANCH  22  27
ATOM     27  O   UNL A   1      31.689  31.062  25.413  1.00  0.00    -0.490 OA
ATOM     28  C   UNL A   1      31.375  31.335  26.772  1.00  0.00     0.278 C 
ENDBRANCH  22  27
BRANCH  23  29
ATOM     29  O   UNL A   1      29.512  30.128  23.749  1.00  0.00    -0.493 OA
ATOM     30  C   UNL A   1      28.550  29.552  22.874  1.00  0.00     0.278 C 
ENDBRANCH  23  29
ENDBRANCH  18  19
ENDBRANCH   9  17
ENDBRANCH   7   8
ENDBRANCH   4   7
ENDBRANCH   2   3
ENDBRANCH   1   2
BRANCH   1  31
ATOM     31  C   UNL A   1      37.251  22.047  24.222  1.00  0.00     0.002 C 
BRANCH  31  32
ATOM     32  C   UNL A   1      36.992  20.730  24.950  1.00  0.00     0.002 C 
BRANCH  32  33
ATOM     33  C   UNL A   1      38.162  19.742  24.951  1.00  0.00     0.021 C 
BRANCH  33  34
ATOM     34  C   UNL A   1      39.380  20.185  25.758  1.00  0.00     0.116 C 
BRANCH  34  35
ATOM     35  N   UNL A   1      40.323  19.096  25.948  1.00  0.00    -0.352 N 
ATOM     36  C   UNL A   1      41.689  19.173  26.099  1.00  0.00     0.251 C 
ATOM     37  H   UNL A   1      39.938  18.189  25.972  1.00  0.00     0.163 HD
ATOM     38  O   UNL A   1      42.399  18.186  25.985  1.00  0.00    -0.269 OA
BRANCH  36  39
ATOM     39  C   UNL A   1      42.285  20.491  26.392  1.00  0.00     0.039 A 
ATOM     40  C   UNL A   1      42.803  21.259  25.349  1.00  0.00     0.014 A 
ATOM     41  C   UNL A   1      42.281  20.975  27.704  1.00  0.00     0.014 A 
ATOM     42  C   UNL A   1      43.271  22.547  25.616  1.00  0.00     0.010 A 
ATOM     43  C   UNL A   1      42.672  22.284  27.953  1.00  0.00     0.010 A 
ATOM     44  C   UNL A   1      43.180  23.081  26.913  1.00  0.00    -0.014 A 
BRANCH  44  45
ATOM     45  C   UNL A   1      43.631  24.463  27.211  1.00  0.00     0.031 A 
ATOM     46  C   UNL A   1      42.639  25.484  27.696  1.00  0.00     0.074 A 
ATOM     47  C   UNL A   1      44.912  24.817  26.986  1.00  0.00     0.049 A 
ATOM     48  N   UNL A   1      42.813  26.757  27.943  1.00  0.00    -0.248 NA
ATOM     49  C   UNL A   1      41.259  25.017  27.901  1.00  0.00     0.031 C 
ATOM     50  C   UNL A   1      45.956  23.929  26.472  1.00  0.00     0.029 A 
ATOM     51  N   UNL A   1      45.552  26.020  27.150  1.00  0.00    -0.354 N 
ATOM     52  C   UNL A   1      41.566  27.243  28.317  1.00  0.00     0.074 A 
ATOM     53  C   UNL A   1      40.633  26.145  28.205  1.00  0.00     0.031 C 
ATOM     54  C   UNL A   1      47.109  24.610  26.384  1.00  0.00     0.029 A 
ATOM     55  C   UNL A   1      46.879  25.991  26.794  1.00  0.00     0.049 A 
ATOM     56  H   UNL A   1      45.102  26.826  27.490  1.00  0.00     0.167 HD
ATOM     57  C   UNL A   1      41.237  28.485  28.741  1.00  0.00     0.037 A 
ATOM     58  C   UNL A   1      47.801  26.974  26.791  1.00  0.00     0.037 A 
ATOM     59  C   UNL A   1      42.176  29.567  28.873  1.00  0.00     0.049 A 
ATOM     60  C   UNL A   1      47.405  28.351  27.255  1.00  0.00     0.074 A 
ATOM     61  C   UNL A   1      41.957  30.847  29.352  1.00  0.00     0.029 A 
ATOM     62  N   UNL A   1      43.515  29.497  28.519  1.00  0.00    -0.354 N 
ATOM     63  N   UNL A   1      46.240  28.779  27.677  1.00  0.00    -0.248 NA
ATOM     64  C   UNL A   1      48.454  29.380  27.249  1.00  0.00     0.031 C 
ATOM     65  C   UNL A   1      43.148  31.567  29.232  1.00  0.00     0.029 A 
ATOM     66  C   UNL A   1      44.128  30.719  28.741  1.00  0.00     0.049 A 
ATOM     67  H   UNL A   1      43.965  28.696  28.162  1.00  0.00     0.167 HD
ATOM     68  C   UNL A   1      46.422  30.113  28.017  1.00  0.00     0.074 A 
ATOM     69  C   UNL A   1      47.815  30.420  27.765  1.00  0.00     0.031 C 
ATOM     70  C   UNL A   1      45.519  31.004  28.495  1.00  0.00     0.037 A 
BRANCH  57  71
ATOM     71  C   UNL A   1      39.799  28.743  29.091  1.00  0.00     0.064 A 
ATOM     72  C   UNL A   1      39.304  28.531  30.388  1.00  0.00     0.173 A 
ATOM     73  C   UNL A   1      38.910  29.242  28.126  1.00  0.00     0.173 A 
ATOM     74  F   UNL A   1      40.107  28.045  31.346  1.00  0.00    -0.203 F 
ATOM     75  C   UNL A   1      37.969  28.778  30.696  1.00  0.00     0.198 A 
ATOM     76  C   UNL A   1      37.584  29.521  28.447  1.00  0.00     0.198 A 
ATOM     77  F   UNL A   1      39.330  29.468  26.873  1.00  0.00    -0.203 F 
ATOM     78  F   UNL A   1      37.507  28.515  31.927  1.00  0.00    -0.200 F 
ATOM     79  C   UNL A   1      37.112  29.281  29.728  1.00  0.00     0.200 A 
ATOM     80  F   UNL A   1      36.762  30.021  27.514  1.00  0.00    -0.200 F 
ATOM     81  F   UNL A   1      35.829  29.526  30.029  1.00  0.00    -0.200 F 
ENDBRANCH  57  71
BRANCH  58  82
ATOM     82  C   UNL A   1      49.193  26.687  26.351  1.00  0.00     0.064 A 
ATOM     83  C   UNL A   1      49.592  26.912  25.026  1.00  0.00     0.173 A 
ATOM     84  C   UNL A   1      50.150  26.177  27.240  1.00  0.00     0.173 A 
ATOM     85  F   UNL A   1      48.709  27.381  24.132  1.00  0.00    -0.203 F 
ATOM     86  C   UNL A   1      50.884  26.612  24.601  1.00  0.00     0.198 A 
ATOM     87  C   UNL A   1      51.452  25.908  26.822  1.00  0.00     0.198 A 
ATOM     88  F   UNL A   1      49.823  25.949  28.522  1.00  0.00    -0.203 F 
ATOM     89  F   UNL A   1      51.222  26.788  23.316  1.00  0.00    -0.200 F 
ATOM     90  C   UNL A   1      51.815  26.116  25.501  1.00  0.00     0.200 A 
ATOM     91  F   UNL A   1      52.353  25.445  27.700  1.00  0.00    -0.200 F 
ATOM     92  F   UNL A   1      53.060  25.832  25.094  1.00  0.00    -0.200 F 
ENDBRANCH  58  82
BRANCH  70  93
ATOM     93  C   UNL A   1      46.013  32.385  28.821  1.00  0.00     0.064 A 
ATOM     94  C   UNL A   1      46.008  33.416  27.872  1.00  0.00     0.173 A 
ATOM     95  C   UNL A   1      46.450  32.690  30.120  1.00  0.00     0.173 A 
ATOM     96  F   UNL A   1      45.615  33.173  26.612  1.00  0.00    -0.203 F 
ATOM     97  C   UNL A   1      46.445  34.696  28.203  1.00  0.00     0.198 A 
ATOM     98  C   UNL A   1      46.851  33.979  30.457  1.00  0.00     0.198 A 
ATOM     99  F   UNL A   1      46.466  31.743  31.069  1.00  0.00    -0.203 F 
ATOM    100  F   UNL A   1      46.477  35.654  27.266  1.00  0.00    -0.200 F 
ATOM    101  C   UNL A   1      46.856  34.979  29.496  1.00  0.00     0.200 A 
ATOM    102  F   UNL A   1      47.231  34.254  31.713  1.00  0.00    -0.200 F 
ATOM    103  F   UNL A   1      47.263  36.215  29.817  1.00  0.00    -0.200 F 
ENDBRANCH  70  93
ENDBRANCH  44  45
ENDBRANCH  36  39
ENDBRANCH  34  35
ENDBRANCH  33  34
ENDBRANCH  32  33
ENDBRANCH  31  32
ENDBRANCH   1  31
TORSDOF 19
ENDMDL
MODEL 3
REMARK VINA RESULT:     -11.6      6.065     11.059
REMARK SMILES COc1cc(/C=N/[NH+]=C2\S[C@H](CC(=O)NCCCCCCNC(=O)c3ccc(-c4c5nc(c(-c6c(F)c(F)c(F)c(F)c6F)c6ccc([nH]6)c(-c6c(F)c(F)c(F)c(F)c6F)c6nc(c(-c7c(F)c(F)c(F)c(F)c7F)c7ccc4[nH]7)C=C6)C=C5)cc3)C(=O)N2C)cc(OC)c1OC
REMARK SMILES IDX 17 1 16 2 15 3 13 4 14 5 12 7 11 8 8 9 9 10 10 12 90 13
REMARK SMILES IDX 88 14 91 15 89 16 7 17 6 18 5 19 3 20 4 21 96 22 93 23 92 24
REMARK SMILES IDX 2 25 1 26 97 27 98 28 94 29 95 30 18 31 19 32 20 33 21 34
REMARK SMILES IDX 22 35 23 36 24 38 25 39 26 40 87 41 27 42 86 43 28 44 29 45
REMARK SMILES IDX 30 46 80 47 31 48 85 49 79 50 81 51 32 52 84 53 78 54 77 55
REMARK SMILES IDX 33 57 65 58 45 59 64 60 46 61 49 62 63 63 82 64 47 65 48 66
REMARK SMILES IDX 62 68 83 69 50 70 34 71 35 72 43 73 36 74 37 75 41 76 44 77
REMARK SMILES IDX 38 78 39 79 42 80 40 81 66 82 67 83 75 84 68 85 69 86 73 87
REMARK SMILES IDX 76 88 70 89 71 90 74 91 72 92 51 93 52 94 60 95 53 96 54 97
REMARK SMILES IDX 58 98 61 99 55 100 56 101 59 102 57 103
REMARK H PARENT 15 6 8 11 22 37 81 56 49 67
REMARK Flexibility Score: inf
ROOT
ATOM      1  C   UNL A   1      35.118  31.067  28.101  1.00  0.00     0.021 C 
ENDROOT
BRANCH   1   2
ATOM      2  C   UNL A   1      34.678  29.733  27.502  1.00  0.00     0.116 C 
BRANCH   2   3
ATOM      3  N   UNL A   1      33.257  29.487  27.658  1.00  0.00    -0.356 N 
ATOM      4  C   UNL A   1      32.488  28.421  27.309  1.00  0.00     0.221 C 
ATOM      5  O   UNL A   1      31.354  28.350  27.785  1.00  0.00    -0.275 OA
ATOM      6  H   UNL A   1      32.763  30.219  28.092  1.00  0.00     0.163 HD
BRANCH   4   7
ATOM      7  C   UNL A   1      32.986  27.366  26.340  1.00  0.00     0.127 C 
BRANCH   7   8
ATOM      8  C   UNL A   1      33.249  27.844  24.905  1.00  0.00     0.183 C 
ATOM      9  N   UNL A   1      31.489  25.294  22.768  1.00  0.00    -0.142 N 
ATOM     10  C   UNL A   1      32.043  26.385  23.208  1.00  0.00     0.339 C 
ATOM     11  H   UNL A   1      30.571  25.255  22.414  1.00  0.00     0.343 HD
ATOM     12  S   UNL A   1      33.716  26.570  23.707  1.00  0.00    -0.020 SA
ATOM     13  N   UNL A   1      31.377  27.566  23.437  1.00  0.00    -0.191 N 
ATOM     14  C   UNL A   1      31.988  28.438  24.316  1.00  0.00     0.324 C 
ATOM     15  C   UNL A   1      30.046  27.893  22.964  1.00  0.00     0.301 C 
ATOM     16  O   UNL A   1      31.522  29.513  24.679  1.00  0.00    -0.245 OA
BRANCH   9  17
ATOM     17  N   UNL A   1      32.336  24.170  22.850  1.00  0.00    -0.093 NA
ATOM     18  C   UNL A   1      31.857  23.230  23.605  1.00  0.00     0.166 C 
BRANCH  18  19
ATOM     19  C   UNL A   1      32.637  22.020  23.971  1.00  0.00     0.004 A 
ATOM     20  C   UNL A   1      34.505  20.955  25.088  1.00  0.00     0.165 A 
ATOM     21  C   UNL A   1      33.804  22.117  24.724  1.00  0.00     0.060 A 
ATOM     22  C   UNL A   1      34.034  19.673  24.738  1.00  0.00     0.203 A 
ATOM     23  C   UNL A   1      32.846  19.583  23.984  1.00  0.00     0.165 A 
ATOM     24  C   UNL A   1      32.161  20.756  23.607  1.00  0.00     0.060 A 
BRANCH  20  25
ATOM     25  O   UNL A   1      35.606  21.092  25.896  1.00  0.00    -0.493 OA
ATOM     26  C   UNL A   1      36.808  21.229  25.135  1.00  0.00     0.278 C 
ENDBRANCH  20  25
BRANCH  22  27
ATOM     27  O   UNL A   1      34.611  18.500  25.149  1.00  0.00    -0.490 OA
ATOM     28  C   UNL A   1      34.998  17.548  24.167  1.00  0.00     0.278 C 
ENDBRANCH  22  27
BRANCH  23  29
ATOM     29  O   UNL A   1      32.205  18.450  23.540  1.00  0.00    -0.493 OA
ATOM     30  C   UNL A   1      32.189  18.161  22.148  1.00  0.00     0.278 C 
ENDBRANCH  23  29
ENDBRANCH  18  19
ENDBRANCH   9  17
ENDBRANCH   7   8
ENDBRANCH   4   7
ENDBRANCH   2   3
ENDBRANCH   1   2
BRANCH   1  31
ATOM     31  C   UNL A   1      34.184  32.260  27.883  1.00  0.00     0.002 C 
BRANCH  31  32
ATOM     32  C   UNL A   1      34.271  33.348  28.951  1.00  0.00     0.002 C 
BRANCH  32  33
ATOM     33  C   UNL A   1      33.163  34.405  28.900  1.00  0.00     0.021 C 
BRANCH  33  34
ATOM     34  C   UNL A   1      33.552  35.774  29.451  1.00  0.00     0.116 C 
BRANCH  34  35
ATOM     35  N   UNL A   1      32.656  36.198  30.515  1.00  0.00    -0.352 N 
ATOM     36  C   UNL A   1      32.648  35.794  31.830  1.00  0.00     0.251 C 
ATOM     37  H   UNL A   1      31.969  36.857  30.264  1.00  0.00     0.163 HD
ATOM     38  O   UNL A   1      31.694  36.014  32.558  1.00  0.00    -0.269 OA
BRANCH  36  39
ATOM     39  C   UNL A   1      33.828  35.069  32.344  1.00  0.00     0.039 A 
ATOM     40  C   UNL A   1      33.688  33.754  32.786  1.00  0.00     0.014 A 
ATOM     41  C   UNL A   1      35.079  35.693  32.337  1.00  0.00     0.014 A 
ATOM     42  C   UNL A   1      34.822  33.039  33.174  1.00  0.00     0.010 A 
ATOM     43  C   UNL A   1      36.215  34.954  32.646  1.00  0.00     0.010 A 
ATOM     44  C   UNL A   1      36.097  33.622  33.077  1.00  0.00    -0.014 A 
BRANCH  44  45
ATOM     45  C   UNL A   1      37.322  32.867  33.441  1.00  0.00     0.031 A 
ATOM     46  C   UNL A   1      38.033  33.175  34.730  1.00  0.00     0.074 A 
ATOM     47  C   UNL A   1      37.828  31.954  32.589  1.00  0.00     0.049 A 
ATOM     48  N   UNL A   1      39.152  32.683  35.197  1.00  0.00    -0.248 NA
ATOM     49  C   UNL A   1      37.420  34.196  35.594  1.00  0.00     0.031 C 
ATOM     50  C   UNL A   1      37.255  31.602  31.289  1.00  0.00     0.029 A 
ATOM     51  N   UNL A   1      38.946  31.163  32.683  1.00  0.00    -0.354 N 
ATOM     52  C   UNL A   1      39.382  33.343  36.398  1.00  0.00     0.074 A 
ATOM     53  C   UNL A   1      38.322  34.314  36.557  1.00  0.00     0.031 C 
ATOM     54  C   UNL A   1      38.011  30.651  30.718  1.00  0.00     0.029 A 
ATOM     55  C   UNL A   1      39.143  30.356  31.589  1.00  0.00     0.049 A 
ATOM     56  H   UNL A   1      39.548  31.174  33.461  1.00  0.00     0.167 HD
ATOM     57  C   UNL A   1      40.372  33.139  37.298  1.00  0.00     0.037 A 
ATOM     58  C   UNL A   1      40.134  29.483  31.318  1.00  0.00     0.037 A 
ATOM     59  C   UNL A   1      41.410  32.156  37.143  1.00  0.00     0.049 A 
ATOM     60  C   UNL A   1      41.232  29.284  32.330  1.00  0.00     0.074 A 
ATOM     61  C   UNL A   1      42.425  31.826  38.024  1.00  0.00     0.029 A 
ATOM     62  N   UNL A   1      41.569  31.344  36.029  1.00  0.00    -0.354 N 
ATOM     63  N   UNL A   1      41.397  29.861  33.496  1.00  0.00    -0.248 NA
ATOM     64  C   UNL A   1      42.276  28.308  31.992  1.00  0.00     0.031 C 
ATOM     65  C   UNL A   1      43.231  30.859  37.419  1.00  0.00     0.029 A 
ATOM     66  C   UNL A   1      42.683  30.535  36.188  1.00  0.00     0.049 A 
ATOM     67  H   UNL A   1      40.978  31.343  35.241  1.00  0.00     0.167 HD
ATOM     68  C   UNL A   1      42.542  29.297  34.043  1.00  0.00     0.074 A 
ATOM     69  C   UNL A   1      43.022  28.321  33.087  1.00  0.00     0.031 C 
ATOM     70  C   UNL A   1      43.141  29.561  35.231  1.00  0.00     0.037 A 
BRANCH  57  71
ATOM     71  C   UNL A   1      40.382  33.999  38.529  1.00  0.00     0.064 A 
ATOM     72  C   UNL A   1      41.090  35.211  38.579  1.00  0.00     0.173 A 
ATOM     73  C   UNL A   1      39.647  33.625  39.665  1.00  0.00     0.173 A 
ATOM     74  F   UNL A   1      41.819  35.610  37.526  1.00  0.00    -0.203 F 
ATOM     75  C   UNL A   1      41.087  35.998  39.728  1.00  0.00     0.198 A 
ATOM     76  C   UNL A   1      39.617  34.432  40.799  1.00  0.00     0.198 A 
ATOM     77  F   UNL A   1      38.948  32.480  39.671  1.00  0.00    -0.203 F 
ATOM     78  F   UNL A   1      41.815  37.122  39.769  1.00  0.00    -0.200 F 
ATOM     79  C   UNL A   1      40.344  35.612  40.833  1.00  0.00     0.200 A 
ATOM     80  F   UNL A   1      38.886  34.065  41.861  1.00  0.00    -0.200 F 
ATOM     81  F   UNL A   1      40.334  36.376  41.935  1.00  0.00    -0.200 F 
ENDBRANCH  57  71
BRANCH  58  82
ATOM     82  C   UNL A   1      40.124  28.719  30.042  1.00  0.00     0.064 A 
ATOM     83  C   UNL A   1      40.726  29.236  28.886  1.00  0.00     0.173 A 
ATOM     84  C   UNL A   1      39.509  27.462  29.947  1.00  0.00     0.173 A 
ATOM     85  F   UNL A   1      41.311  30.442  28.919  1.00  0.00    -0.203 F 
ATOM     86  C   UNL A   1      40.688  28.539  27.680  1.00  0.00     0.198 A 
ATOM     87  C   UNL A   1      39.501  26.751  28.749  1.00  0.00     0.198 A 
ATOM     88  F   UNL A   1      38.924  26.918  31.025  1.00  0.00    -0.203 F 
ATOM     89  F   UNL A   1      41.227  29.081  26.579  1.00  0.00    -0.200 F 
ATOM     90  C   UNL A   1      40.082  27.295  27.614  1.00  0.00     0.200 A 
ATOM     91  F   UNL A   1      38.928  25.541  28.695  1.00  0.00    -0.200 F 
ATOM     92  F   UNL A   1      40.050  26.622  26.456  1.00  0.00    -0.200 F 
ENDBRANCH  58  82
BRANCH  70  93
ATOM     93  C   UNL A   1      44.358  28.755  35.588  1.00  0.00     0.064 A 
ATOM     94  C   UNL A   1      44.263  27.544  36.288  1.00  0.00     0.173 A 
ATOM     95  C   UNL A   1      45.631  29.177  35.174  1.00  0.00     0.173 A 
ATOM     96  F   UNL A   1      43.071  27.103  36.719  1.00  0.00    -0.203 F 
ATOM     97  C   UNL A   1      45.402  26.799  36.584  1.00  0.00     0.198 A 
ATOM     98  C   UNL A   1      46.761  28.412  35.440  1.00  0.00     0.198 A 
ATOM     99  F   UNL A   1      45.776  30.324  34.493  1.00  0.00    -0.203 F 
ATOM    100  F   UNL A   1      45.294  25.669  37.297  1.00  0.00    -0.200 F 
ATOM    101  C   UNL A   1      46.647  27.227  36.151  1.00  0.00     0.200 A 
ATOM    102  F   UNL A   1      47.962  28.820  35.006  1.00  0.00    -0.200 F 
ATOM    103  F   UNL A   1      47.740  26.501  36.426  1.00  0.00    -0.200 F 
ENDBRANCH  70  93
ENDBRANCH  44  45
ENDBRANCH  36  39
ENDBRANCH  34  35
ENDBRANCH  33  34
ENDBRANCH  32  33
ENDBRANCH  31  32
ENDBRANCH   1  31
TORSDOF 19
ENDMDL
