MODEL 1
REMARK VINA RESULT:     -12.6      0.000      0.000
REMARK SMILES C[C@H]1CCC[C@H](C)N1C(=O)[C@H]1[C@@H](C(=O)NCCCCCCNC(=O)c2ccc(-c3c4nc(c(-c5c(F)c(F)c(F)c(F)c5F)c5ccc([nH]5)c(-c5c(F)c(F)c(F)c(F)c5F)c5nc(c(-c6c(F)c(F)c(F)c(F)c6F)c6ccc3[nH]6)C=C5)C=C4)cc2)[C@H]2CC[C@@H]1O2
REMARK SMILES IDX 19 1 18 2 17 3 16 4 15 5 13 6 14 7 12 9 11 10 91 11 88 12
REMARK SMILES IDX 90 13 92 14 89 15 9 16 1 17 2 18 3 19 8 20 4 21 6 22 5 23
REMARK SMILES IDX 7 24 10 25 20 26 21 27 22 28 23 29 24 31 25 32 26 33 87 34
REMARK SMILES IDX 27 35 86 36 28 37 29 38 30 39 80 40 31 41 85 42 79 43 81 44
REMARK SMILES IDX 32 45 84 46 78 47 77 48 33 50 65 51 45 52 64 53 46 54 49 55
REMARK SMILES IDX 63 56 82 57 47 58 48 59 62 61 83 62 50 63 34 64 35 65 43 66
REMARK SMILES IDX 36 67 37 68 41 69 44 70 38 71 39 72 42 73 40 74 66 75 67 76
REMARK SMILES IDX 75 77 68 78 69 79 73 80 76 81 70 82 71 83 74 84 72 85 51 86
REMARK SMILES IDX 52 87 60 88 53 89 54 90 58 91 61 92 55 93 56 94 59 95 57 96
REMARK H PARENT 15 8 22 30 81 49 49 60
REMARK Flexibility Score: inf
ROOT
ATOM      1  C   UNL A   1      31.395  30.851  26.091  1.00  0.00     0.002 C 
ENDROOT
BRANCH   1   2
ATOM      2  C   UNL A   1      32.336  29.991  26.940  1.00  0.00     0.002 C 
BRANCH   2   3
ATOM      3  C   UNL A   1      31.736  28.677  27.441  1.00  0.00     0.021 C 
BRANCH   3   4
ATOM      4  C   UNL A   1      32.427  27.424  26.914  1.00  0.00     0.116 C 
BRANCH   4   5
ATOM      5  N   UNL A   1      31.456  26.359  26.703  1.00  0.00    -0.356 N 
ATOM      6  C   UNL A   1      30.919  25.728  25.637  1.00  0.00     0.226 C 
ATOM      7  O   UNL A   1      30.200  24.758  25.924  1.00  0.00    -0.275 OA
ATOM      8  H   UNL A   1      31.102  26.012  27.553  1.00  0.00     0.163 HD
BRANCH   6   9
ATOM      9  C   UNL A   1      31.141  26.048  24.155  1.00  0.00     0.122 C 
ATOM     10  C   UNL A   1      32.268  25.278  23.437  1.00  0.00     0.122 C 
ATOM     11  C   UNL A   1      32.627  26.275  22.322  1.00  0.00     0.132 C 
ATOM     12  C   UNL A   1      31.313  27.531  23.657  1.00  0.00     0.132 C 
ATOM     13  C   UNL A   1      33.506  27.487  22.563  1.00  0.00     0.035 C 
ATOM     14  O   UNL A   1      31.361  26.991  22.279  1.00  0.00    -0.373 OA
ATOM     15  C   UNL A   1      32.525  28.447  23.231  1.00  0.00     0.035 C 
BRANCH  10  16
ATOM     16  C   UNL A   1      33.367  24.771  24.358  1.00  0.00     0.229 C 
ATOM     17  C   UNL A   1      31.944  22.246  23.002  1.00  0.00     0.031 C 
ATOM     18  C   UNL A   1      32.698  22.212  24.332  1.00  0.00     0.082 C 
ATOM     19  C   UNL A   1      33.707  21.040  24.201  1.00  0.00     0.025 C 
ATOM     20  N   UNL A   1      33.393  23.451  24.830  1.00  0.00    -0.337 N 
ATOM     21  C   UNL A   1      34.563  20.816  25.437  1.00  0.00     0.004 C 
ATOM     22  C   UNL A   1      34.217  23.227  26.054  1.00  0.00     0.082 C 
ATOM     23  C   UNL A   1      35.241  22.113  25.839  1.00  0.00     0.025 C 
ATOM     24  C   UNL A   1      33.360  22.956  27.301  1.00  0.00     0.031 C 
ATOM     25  O   UNL A   1      34.200  25.589  24.767  1.00  0.00    -0.274 OA
ENDBRANCH  10  16
ENDBRANCH   6   9
ENDBRANCH   4   5
ENDBRANCH   3   4
ENDBRANCH   2   3
ENDBRANCH   1   2
BRANCH   1  26
ATOM     26  C   UNL A   1      31.300  32.322  26.502  1.00  0.00     0.021 C 
BRANCH  26  27
ATOM     27  C   UNL A   1      32.548  32.888  27.167  1.00  0.00     0.116 C 
BRANCH  27  28
ATOM     28  N   UNL A   1      32.352  34.235  27.670  1.00  0.00    -0.352 N 
ATOM     29  C   UNL A   1      33.025  34.880  28.674  1.00  0.00     0.251 C 
ATOM     30  H   UNL A   1      31.641  34.755  27.230  1.00  0.00     0.163 HD
ATOM     31  O   UNL A   1      32.635  35.970  29.084  1.00  0.00    -0.269 OA
BRANCH  29  32
ATOM     32  C   UNL A   1      34.209  34.243  29.282  1.00  0.00     0.039 A 
ATOM     33  C   UNL A   1      34.019  33.305  30.297  1.00  0.00     0.014 A 
ATOM     34  C   UNL A   1      35.500  34.571  28.855  1.00  0.00     0.014 A 
ATOM     35  C   UNL A   1      35.124  32.671  30.865  1.00  0.00     0.010 A 
ATOM     36  C   UNL A   1      36.594  33.879  29.363  1.00  0.00     0.010 A 
ATOM     37  C   UNL A   1      36.419  32.938  30.390  1.00  0.00    -0.014 A 
BRANCH  37  38
ATOM     38  C   UNL A   1      37.597  32.264  30.989  1.00  0.00     0.031 A 
ATOM     39  C   UNL A   1      38.062  32.644  32.368  1.00  0.00     0.074 A 
ATOM     40  C   UNL A   1      38.258  31.326  30.285  1.00  0.00     0.049 A 
ATOM     41  N   UNL A   1      39.062  32.168  33.066  1.00  0.00    -0.248 NA
ATOM     42  C   UNL A   1      37.322  33.722  33.044  1.00  0.00     0.031 C 
ATOM     43  C   UNL A   1      37.933  30.911  28.919  1.00  0.00     0.029 A 
ATOM     44  N   UNL A   1      39.338  30.550  30.621  1.00  0.00    -0.354 N 
ATOM     45  C   UNL A   1      39.072  32.889  34.253  1.00  0.00     0.074 A 
ATOM     46  C   UNL A   1      38.025  33.882  34.155  1.00  0.00     0.031 C 
ATOM     47  C   UNL A   1      38.772  29.930  28.547  1.00  0.00     0.029 A 
ATOM     48  C   UNL A   1      39.714  29.674  29.632  1.00  0.00     0.049 A 
ATOM     49  H   UNL A   1      39.799  30.615  31.488  1.00  0.00     0.167 HD
ATOM     50  C   UNL A   1      39.862  32.720  35.340  1.00  0.00     0.037 A 
ATOM     51  C   UNL A   1      40.707  28.765  29.608  1.00  0.00     0.037 A 
ATOM     52  C   UNL A   1      40.891  31.717  35.438  1.00  0.00     0.049 A 
ATOM     53  C   UNL A   1      41.575  28.601  30.827  1.00  0.00     0.074 A 
ATOM     54  C   UNL A   1      41.713  31.426  36.513  1.00  0.00     0.029 A 
ATOM     55  N   UNL A   1      41.242  30.844  34.419  1.00  0.00    -0.354 N 
ATOM     56  N   UNL A   1      41.526  29.236  31.973  1.00  0.00    -0.248 NA
ATOM     57  C   UNL A   1      42.629  27.581  30.751  1.00  0.00     0.031 C 
ATOM     58  C   UNL A   1      42.599  30.416  36.123  1.00  0.00     0.029 A 
ATOM     59  C   UNL A   1      42.286  30.031  34.829  1.00  0.00     0.049 A 
ATOM     60  H   UNL A   1      40.812  30.807  33.534  1.00  0.00     0.167 HD
ATOM     61  C   UNL A   1      42.521  28.676  32.764  1.00  0.00     0.074 A 
ATOM     62  C   UNL A   1      43.138  27.631  31.974  1.00  0.00     0.031 C 
ATOM     63  C   UNL A   1      42.891  28.995  34.028  1.00  0.00     0.037 A 
BRANCH  50  64
ATOM     64  C   UNL A   1      39.643  33.639  36.508  1.00  0.00     0.064 A 
ATOM     65  C   UNL A   1      38.823  33.277  37.589  1.00  0.00     0.173 A 
ATOM     66  C   UNL A   1      40.282  34.888  36.562  1.00  0.00     0.173 A 
ATOM     67  F   UNL A   1      38.179  32.100  37.584  1.00  0.00    -0.203 F 
ATOM     68  C   UNL A   1      38.624  34.144  38.661  1.00  0.00     0.198 A 
ATOM     69  C   UNL A   1      40.108  35.736  37.653  1.00  0.00     0.198 A 
ATOM     70  F   UNL A   1      41.080  35.284  35.559  1.00  0.00    -0.203 F 
ATOM     71  F   UNL A   1      37.791  33.799  39.652  1.00  0.00    -0.200 F 
ATOM     72  C   UNL A   1      39.272  35.368  38.696  1.00  0.00     0.200 A 
ATOM     73  F   UNL A   1      40.747  36.914  37.691  1.00  0.00    -0.200 F 
ATOM     74  F   UNL A   1      39.086  36.198  39.732  1.00  0.00    -0.200 F 
ENDBRANCH  50  64
BRANCH  51  75
ATOM     75  C   UNL A   1      40.916  27.921  28.402  1.00  0.00     0.064 A 
ATOM     76  C   UNL A   1      41.722  28.362  27.342  1.00  0.00     0.173 A 
ATOM     77  C   UNL A   1      40.302  26.666  28.273  1.00  0.00     0.173 A 
ATOM     78  F   UNL A   1      42.316  29.563  27.408  1.00  0.00    -0.203 F 
ATOM     79  C   UNL A   1      41.885  27.595  26.191  1.00  0.00     0.198 A 
ATOM     80  C   UNL A   1      40.492  25.884  27.136  1.00  0.00     0.198 A 
ATOM     81  F   UNL A   1      39.527  26.194  29.259  1.00  0.00    -0.203 F 
ATOM     82  F   UNL A   1      42.616  28.065  25.172  1.00  0.00    -0.200 F 
ATOM     83  C   UNL A   1      41.274  26.353  26.091  1.00  0.00     0.200 A 
ATOM     84  F   UNL A   1      39.915  24.678  27.051  1.00  0.00    -0.200 F 
ATOM     85  F   UNL A   1      41.431  25.615  24.985  1.00  0.00    -0.200 F 
ENDBRANCH  51  75
BRANCH  63  86
ATOM     86  C   UNL A   1      43.995  28.183  34.644  1.00  0.00     0.064 A 
ATOM     87  C   UNL A   1      45.335  28.595  34.593  1.00  0.00     0.173 A 
ATOM     88  C   UNL A   1      43.706  26.979  35.305  1.00  0.00     0.173 A 
ATOM     89  F   UNL A   1      45.668  29.733  33.962  1.00  0.00    -0.203 F 
ATOM     90  C   UNL A   1      46.347  27.813  35.141  1.00  0.00     0.198 A 
ATOM     91  C   UNL A   1      44.716  26.218  35.886  1.00  0.00     0.198 A 
ATOM     92  F   UNL A   1      42.441  26.541  35.394  1.00  0.00    -0.203 F 
ATOM     93  F   UNL A   1      47.627  28.194  35.018  1.00  0.00    -0.200 F 
ATOM     94  C   UNL A   1      46.038  26.628  35.791  1.00  0.00     0.200 A 
ATOM     95  F   UNL A   1      44.412  25.083  36.530  1.00  0.00    -0.200 F 
ATOM     96  F   UNL A   1      47.013  25.876  36.319  1.00  0.00    -0.200 F 
ENDBRANCH  63  86
ENDBRANCH  37  38
ENDBRANCH  29  32
ENDBRANCH  27  28
ENDBRANCH  26  27
ENDBRANCH   1  26
TORSDOF 14
ENDMDL
MODEL 2
REMARK VINA RESULT:     -12.6      0.169      1.575
REMARK SMILES C[C@H]1CCC[C@H](C)N1C(=O)[C@H]1[C@@H](C(=O)NCCCCCCNC(=O)c2ccc(-c3c4nc(c(-c5c(F)c(F)c(F)c(F)c5F)c5ccc([nH]5)c(-c5c(F)c(F)c(F)c(F)c5F)c5nc(c(-c6c(F)c(F)c(F)c(F)c6F)c6ccc3[nH]6)C=C5)C=C4)cc2)[C@H]2CC[C@@H]1O2
REMARK SMILES IDX 19 1 18 2 17 3 16 4 15 5 13 6 14 7 12 9 11 10 91 11 88 12
REMARK SMILES IDX 90 13 92 14 89 15 9 16 1 17 2 18 3 19 8 20 4 21 6 22 5 23
REMARK SMILES IDX 7 24 10 25 20 26 21 27 22 28 23 29 24 31 25 32 26 33 87 34
REMARK SMILES IDX 27 35 86 36 28 37 29 38 30 39 80 40 31 41 85 42 79 43 81 44
REMARK SMILES IDX 32 45 84 46 78 47 77 48 33 50 65 51 45 52 64 53 46 54 49 55
REMARK SMILES IDX 63 56 82 57 47 58 48 59 62 61 83 62 50 63 34 64 35 65 43 66
REMARK SMILES IDX 36 67 37 68 41 69 44 70 38 71 39 72 42 73 40 74 66 75 67 76
REMARK SMILES IDX 75 77 68 78 69 79 73 80 76 81 70 82 71 83 74 84 72 85 51 86
REMARK SMILES IDX 52 87 60 88 53 89 54 90 58 91 61 92 55 93 56 94 59 95 57 96
REMARK H PARENT 15 8 22 30 81 49 49 60
REMARK Flexibility Score: inf
ROOT
ATOM      1  C   UNL A   1      31.382  30.933  25.918  1.00  0.00     0.002 C 
ENDROOT
BRANCH   1   2
ATOM      2  C   UNL A   1      32.381  30.020  26.636  1.00  0.00     0.002 C 
BRANCH   2   3
ATOM      3  C   UNL A   1      31.767  28.795  27.314  1.00  0.00     0.021 C 
BRANCH   3   4
ATOM      4  C   UNL A   1      32.486  27.482  27.021  1.00  0.00     0.116 C 
BRANCH   4   5
ATOM      5  N   UNL A   1      31.531  26.386  26.946  1.00  0.00    -0.356 N 
ATOM      6  C   UNL A   1      30.913  25.697  25.963  1.00  0.00     0.226 C 
ATOM      7  O   UNL A   1      30.253  24.722  26.356  1.00  0.00    -0.275 OA
ATOM      8  H   UNL A   1      31.271  26.064  27.839  1.00  0.00     0.163 HD
BRANCH   6   9
ATOM      9  C   UNL A   1      30.981  25.963  24.455  1.00  0.00     0.122 C 
ATOM     10  C   UNL A   1      32.072  25.212  23.664  1.00  0.00     0.122 C 
ATOM     11  C   UNL A   1      32.279  26.174  22.482  1.00  0.00     0.132 C 
ATOM     12  C   UNL A   1      31.036  27.429  23.885  1.00  0.00     0.132 C 
ATOM     13  C   UNL A   1      33.118  27.432  22.592  1.00  0.00     0.035 C 
ATOM     14  O   UNL A   1      30.982  26.832  22.532  1.00  0.00    -0.373 OA
ATOM     15  C   UNL A   1      32.159  28.377  23.311  1.00  0.00     0.035 C 
BRANCH  10  16
ATOM     16  C   UNL A   1      33.274  24.793  24.497  1.00  0.00     0.229 C 
ATOM     17  C   UNL A   1      31.982  22.168  23.201  1.00  0.00     0.031 C 
ATOM     18  C   UNL A   1      32.830  22.186  24.473  1.00  0.00     0.082 C 
ATOM     19  C   UNL A   1      33.925  21.108  24.251  1.00  0.00     0.025 C 
ATOM     20  N   UNL A   1      33.448  23.475  24.943  1.00  0.00    -0.337 N 
ATOM     21  C   UNL A   1      34.884  20.946  25.420  1.00  0.00     0.004 C 
ATOM     22  C   UNL A   1      34.374  23.311  26.102  1.00  0.00     0.082 C 
ATOM     23  C   UNL A   1      35.474  22.294  25.795  1.00  0.00     0.025 C 
ATOM     24  C   UNL A   1      33.636  22.952  27.401  1.00  0.00     0.031 C 
ATOM     25  O   UNL A   1      34.060  25.677  24.860  1.00  0.00    -0.274 OA
ENDBRANCH  10  16
ENDBRANCH   6   9
ENDBRANCH   4   5
ENDBRANCH   3   4
ENDBRANCH   2   3
ENDBRANCH   1   2
BRANCH   1  26
ATOM     26  C   UNL A   1      31.240  32.339  26.504  1.00  0.00     0.021 C 
BRANCH  26  27
ATOM     27  C   UNL A   1      32.494  32.890  27.171  1.00  0.00     0.116 C 
BRANCH  27  28
ATOM     28  N   UNL A   1      32.317  34.245  27.661  1.00  0.00    -0.352 N 
ATOM     29  C   UNL A   1      33.008  34.893  28.649  1.00  0.00     0.251 C 
ATOM     30  H   UNL A   1      31.605  34.767  27.225  1.00  0.00     0.163 HD
ATOM     31  O   UNL A   1      32.634  35.992  29.053  1.00  0.00    -0.269 OA
BRANCH  29  32
ATOM     32  C   UNL A   1      34.194  34.252  29.251  1.00  0.00     0.039 A 
ATOM     33  C   UNL A   1      34.006  33.316  30.268  1.00  0.00     0.014 A 
ATOM     34  C   UNL A   1      35.484  34.573  28.813  1.00  0.00     0.014 A 
ATOM     35  C   UNL A   1      35.113  32.678  30.829  1.00  0.00     0.010 A 
ATOM     36  C   UNL A   1      36.578  33.876  29.314  1.00  0.00     0.010 A 
ATOM     37  C   UNL A   1      36.406  32.938  30.343  1.00  0.00    -0.014 A 
BRANCH  37  38
ATOM     38  C   UNL A   1      37.584  32.258  30.935  1.00  0.00     0.031 A 
ATOM     39  C   UNL A   1      38.056  32.632  32.314  1.00  0.00     0.074 A 
ATOM     40  C   UNL A   1      38.240  31.322  30.224  1.00  0.00     0.049 A 
ATOM     41  N   UNL A   1      39.058  32.151  33.006  1.00  0.00    -0.248 NA
ATOM     42  C   UNL A   1      37.321  33.709  32.998  1.00  0.00     0.031 C 
ATOM     43  C   UNL A   1      37.909  30.914  28.858  1.00  0.00     0.029 A 
ATOM     44  N   UNL A   1      39.320  30.543  30.553  1.00  0.00    -0.354 N 
ATOM     45  C   UNL A   1      39.074  32.867  34.196  1.00  0.00     0.074 A 
ATOM     46  C   UNL A   1      38.029  33.863  34.105  1.00  0.00     0.031 C 
ATOM     47  C   UNL A   1      38.744  29.932  28.479  1.00  0.00     0.029 A 
ATOM     48  C   UNL A   1      39.690  29.669  29.559  1.00  0.00     0.049 A 
ATOM     49  H   UNL A   1      39.785  30.602  31.419  1.00  0.00     0.167 HD
ATOM     50  C   UNL A   1      39.869  32.692  35.278  1.00  0.00     0.037 A 
ATOM     51  C   UNL A   1      40.681  28.758  29.528  1.00  0.00     0.037 A 
ATOM     52  C   UNL A   1      40.896  31.687  35.368  1.00  0.00     0.049 A 
ATOM     53  C   UNL A   1      41.554  28.587  30.742  1.00  0.00     0.074 A 
ATOM     54  C   UNL A   1      41.722  31.390  36.438  1.00  0.00     0.029 A 
ATOM     55  N   UNL A   1      41.241  30.817  34.344  1.00  0.00    -0.354 N 
ATOM     56  N   UNL A   1      41.511  29.218  31.891  1.00  0.00    -0.248 NA
ATOM     57  C   UNL A   1      42.605  27.565  30.658  1.00  0.00     0.031 C 
ATOM     58  C   UNL A   1      42.604  30.379  36.041  1.00  0.00     0.029 A 
ATOM     59  C   UNL A   1      42.285  30.000  34.747  1.00  0.00     0.049 A 
ATOM     60  H   UNL A   1      40.807  30.784  33.461  1.00  0.00     0.167 HD
ATOM     61  C   UNL A   1      42.508  28.652  32.675  1.00  0.00     0.074 A 
ATOM     62  C   UNL A   1      43.120  27.609  31.878  1.00  0.00     0.031 C 
ATOM     63  C   UNL A   1      42.884  28.966  33.939  1.00  0.00     0.037 A 
BRANCH  50  64
ATOM     64  C   UNL A   1      39.657  33.607  36.451  1.00  0.00     0.064 A 
ATOM     65  C   UNL A   1      40.273  34.867  36.526  1.00  0.00     0.173 A 
ATOM     66  C   UNL A   1      38.806  33.233  37.502  1.00  0.00     0.173 A 
ATOM     67  F   UNL A   1      41.107  35.271  35.554  1.00  0.00    -0.203 F 
ATOM     68  C   UNL A   1      40.073  35.700  37.623  1.00  0.00     0.198 A 
ATOM     69  C   UNL A   1      38.581  34.085  38.581  1.00  0.00     0.198 A 
ATOM     70  F   UNL A   1      38.188  32.043  37.482  1.00  0.00    -0.203 F 
ATOM     71  F   UNL A   1      40.719  36.873  37.698  1.00  0.00    -0.200 F 
ATOM     72  C   UNL A   1      39.222  35.313  38.645  1.00  0.00     0.200 A 
ATOM     73  F   UNL A   1      37.746  33.714  39.562  1.00  0.00    -0.200 F 
ATOM     74  F   UNL A   1      39.024  36.119  39.697  1.00  0.00    -0.200 F 
ENDBRANCH  50  64
BRANCH  51  75
ATOM     75  C   UNL A   1      40.883  27.919  28.317  1.00  0.00     0.064 A 
ATOM     76  C   UNL A   1      40.289  26.652  28.208  1.00  0.00     0.173 A 
ATOM     77  C   UNL A   1      41.685  28.354  27.252  1.00  0.00     0.173 A 
ATOM     78  F   UNL A   1      39.528  26.182  29.207  1.00  0.00    -0.203 F 
ATOM     79  C   UNL A   1      40.512  25.845  27.095  1.00  0.00     0.198 A 
ATOM     80  C   UNL A   1      41.881  27.560  26.124  1.00  0.00     0.198 A 
ATOM     81  F   UNL A   1      42.271  29.559  27.302  1.00  0.00    -0.203 F 
ATOM     82  F   UNL A   1      39.977  24.618  27.043  1.00  0.00    -0.200 F 
ATOM     83  C   UNL A   1      41.303  26.300  26.052  1.00  0.00     0.200 A 
ATOM     84  F   UNL A   1      42.631  28.011  25.111  1.00  0.00    -0.200 F 
ATOM     85  F   UNL A   1      41.516  25.524  24.981  1.00  0.00    -0.200 F 
ENDBRANCH  51  75
BRANCH  63  86
ATOM     86  C   UNL A   1      43.989  28.149  34.547  1.00  0.00     0.064 A 
ATOM     87  C   UNL A   1      45.333  28.544  34.466  1.00  0.00     0.173 A 
ATOM     88  C   UNL A   1      43.697  26.959  35.231  1.00  0.00     0.173 A 
ATOM     89  F   UNL A   1      45.668  29.668  33.813  1.00  0.00    -0.203 F 
ATOM     90  C   UNL A   1      46.345  27.756  35.007  1.00  0.00     0.198 A 
ATOM     91  C   UNL A   1      44.708  26.193  35.805  1.00  0.00     0.198 A 
ATOM     92  F   UNL A   1      42.428  26.538  35.348  1.00  0.00    -0.203 F 
ATOM     93  F   UNL A   1      47.627  28.120  34.856  1.00  0.00    -0.200 F 
ATOM     94  C   UNL A   1      46.032  26.586  35.680  1.00  0.00     0.200 A 
ATOM     95  F   UNL A   1      44.402  25.072  36.470  1.00  0.00    -0.200 F 
ATOM     96  F   UNL A   1      47.008  25.829  36.201  1.00  0.00    -0.200 F 
ENDBRANCH  63  86
ENDBRANCH  37  38
ENDBRANCH  29  32
ENDBRANCH  27  28
ENDBRANCH  26  27
ENDBRANCH   1  26
TORSDOF 14
ENDMDL
MODEL 3
REMARK VINA RESULT:     -12.5      0.586      7.217
REMARK SMILES C[C@H]1CCC[C@H](C)N1C(=O)[C@H]1[C@@H](C(=O)NCCCCCCNC(=O)c2ccc(-c3c4nc(c(-c5c(F)c(F)c(F)c(F)c5F)c5ccc([nH]5)c(-c5c(F)c(F)c(F)c(F)c5F)c5nc(c(-c6c(F)c(F)c(F)c(F)c6F)c6ccc3[nH]6)C=C5)C=C4)cc2)[C@H]2CC[C@@H]1O2
REMARK SMILES IDX 19 1 18 2 17 3 16 4 15 5 13 6 14 7 12 9 11 10 91 11 88 12
REMARK SMILES IDX 90 13 92 14 89 15 9 16 1 17 2 18 3 19 8 20 4 21 6 22 5 23
REMARK SMILES IDX 7 24 10 25 20 26 21 27 22 28 23 29 24 31 25 32 26 33 87 34
REMARK SMILES IDX 27 35 86 36 28 37 29 38 30 39 80 40 31 41 85 42 79 43 81 44
REMARK SMILES IDX 32 45 84 46 78 47 77 48 33 50 65 51 45 52 64 53 46 54 49 55
REMARK SMILES IDX 63 56 82 57 47 58 48 59 62 61 83 62 50 63 34 64 35 65 43 66
REMARK SMILES IDX 36 67 37 68 41 69 44 70 38 71 39 72 42 73 40 74 66 75 67 76
REMARK SMILES IDX 75 77 68 78 69 79 73 80 76 81 70 82 71 83 74 84 72 85 51 86
REMARK SMILES IDX 52 87 60 88 53 89 54 90 58 91 61 92 55 93 56 94 59 95 57 96
REMARK H PARENT 15 8 22 30 81 49 49 60
REMARK Flexibility Score: inf
ROOT
ATOM      1  C   UNL A   1      31.433  30.896  26.004  1.00  0.00     0.002 C 
ENDROOT
BRANCH   1   2
ATOM      2  C   UNL A   1      32.389  30.003  26.799  1.00  0.00     0.002 C 
BRANCH   2   3
ATOM      3  C   UNL A   1      31.774  28.710  27.334  1.00  0.00     0.021 C 
BRANCH   3   4
ATOM      4  C   UNL A   1      32.481  27.437  26.881  1.00  0.00     0.116 C 
BRANCH   4   5
ATOM      5  N   UNL A   1      31.516  26.367  26.669  1.00  0.00    -0.356 N 
ATOM      6  C   UNL A   1      30.999  25.718  25.605  1.00  0.00     0.226 C 
ATOM      7  O   UNL A   1      30.277  24.751  25.894  1.00  0.00    -0.275 OA
ATOM      8  H   UNL A   1      31.149  26.031  27.519  1.00  0.00     0.163 HD
BRANCH   6   9
ATOM      9  C   UNL A   1      31.244  26.017  24.122  1.00  0.00     0.122 C 
ATOM     10  C   UNL A   1      32.389  25.245  23.435  1.00  0.00     0.122 C 
ATOM     11  C   UNL A   1      32.761  26.227  22.311  1.00  0.00     0.132 C 
ATOM     12  C   UNL A   1      31.415  27.494  23.604  1.00  0.00     0.132 C 
ATOM     13  C   UNL A   1      33.626  27.449  22.549  1.00  0.00     0.035 C 
ATOM     14  O   UNL A   1      31.491  26.933  22.236  1.00  0.00    -0.373 OA
ATOM     15  C   UNL A   1      32.628  28.412  23.185  1.00  0.00     0.035 C 
BRANCH  10  16
ATOM     16  C   UNL A   1      33.475  24.760  24.384  1.00  0.00     0.229 C 
ATOM     17  C   UNL A   1      32.126  22.206  23.005  1.00  0.00     0.031 C 
ATOM     18  C   UNL A   1      32.850  22.190  24.352  1.00  0.00     0.082 C 
ATOM     19  C   UNL A   1      33.881  21.034  24.249  1.00  0.00     0.025 C 
ATOM     20  N   UNL A   1      33.512  23.442  24.862  1.00  0.00    -0.337 N 
ATOM     21  C   UNL A   1      34.713  20.829  25.506  1.00  0.00     0.004 C 
ATOM     22  C   UNL A   1      34.312  23.237  26.105  1.00  0.00     0.082 C 
ATOM     23  C   UNL A   1      35.360  22.139  25.917  1.00  0.00     0.025 C 
ATOM     24  C   UNL A   1      33.432  22.956  27.333  1.00  0.00     0.031 C 
ATOM     25  O   UNL A   1      34.284  25.594  24.808  1.00  0.00    -0.274 OA
ENDBRANCH  10  16
ENDBRANCH   6   9
ENDBRANCH   4   5
ENDBRANCH   3   4
ENDBRANCH   2   3
ENDBRANCH   1   2
BRANCH   1  26
ATOM     26  C   UNL A   1      31.269  32.321  26.537  1.00  0.00     0.021 C 
BRANCH  26  27
ATOM     27  C   UNL A   1      32.510  32.909  27.199  1.00  0.00     0.116 C 
BRANCH  27  28
ATOM     28  N   UNL A   1      32.318  34.282  27.627  1.00  0.00    -0.352 N 
ATOM     29  C   UNL A   1      32.948  34.959  28.637  1.00  0.00     0.251 C 
ATOM     30  H   UNL A   1      31.645  34.796  27.124  1.00  0.00     0.163 HD
ATOM     31  O   UNL A   1      32.562  36.076  28.974  1.00  0.00    -0.269 OA
BRANCH  29  32
ATOM     32  C   UNL A   1      34.082  34.327  29.340  1.00  0.00     0.039 A 
ATOM     33  C   UNL A   1      33.817  33.521  30.448  1.00  0.00     0.014 A 
ATOM     34  C   UNL A   1      35.397  34.531  28.911  1.00  0.00     0.014 A 
ATOM     35  C   UNL A   1      34.873  32.892  31.109  1.00  0.00     0.010 A 
ATOM     36  C   UNL A   1      36.439  33.837  29.518  1.00  0.00     0.010 A 
ATOM     37  C   UNL A   1      36.190  33.029  30.638  1.00  0.00    -0.014 A 
BRANCH  37  38
ATOM     38  C   UNL A   1      37.314  32.359  31.337  1.00  0.00     0.031 A 
ATOM     39  C   UNL A   1      38.039  31.219  30.677  1.00  0.00     0.074 A 
ATOM     40  C   UNL A   1      37.666  32.764  32.571  1.00  0.00     0.049 A 
ATOM     41  N   UNL A   1      39.048  30.511  31.119  1.00  0.00    -0.248 NA
ATOM     42  C   UNL A   1      37.550  30.798  29.353  1.00  0.00     0.031 C 
ATOM     43  C   UNL A   1      37.003  33.823  33.334  1.00  0.00     0.029 A 
ATOM     44  N   UNL A   1      38.671  32.334  33.401  1.00  0.00    -0.354 N 
ATOM     45  C   UNL A   1      39.306  29.565  30.136  1.00  0.00     0.074 A 
ATOM     46  C   UNL A   1      38.307  29.741  29.105  1.00  0.00     0.031 C 
ATOM     47  C   UNL A   1      37.642  33.986  34.505  1.00  0.00     0.029 A 
ATOM     48  C   UNL A   1      38.735  33.021  34.589  1.00  0.00     0.049 A 
ATOM     49  H   UNL A   1      39.289  31.604  33.167  1.00  0.00     0.167 HD
ATOM     50  C   UNL A   1      40.305  28.651  30.082  1.00  0.00     0.037 A 
ATOM     51  C   UNL A   1      39.581  32.886  35.626  1.00  0.00     0.037 A 
ATOM     52  C   UNL A   1      41.308  28.494  31.103  1.00  0.00     0.049 A 
ATOM     53  C   UNL A   1      40.679  31.859  35.544  1.00  0.00     0.074 A 
ATOM     54  C   UNL A   1      42.393  27.635  31.122  1.00  0.00     0.029 A 
ATOM     55  N   UNL A   1      41.343  29.209  32.291  1.00  0.00    -0.354 N 
ATOM     56  N   UNL A   1      40.961  31.022  34.575  1.00  0.00    -0.248 NA
ATOM     57  C   UNL A   1      41.585  31.770  36.696  1.00  0.00     0.031 C 
ATOM     58  C   UNL A   1      43.051  27.792  32.347  1.00  0.00     0.029 A 
ATOM     59  C   UNL A   1      42.416  28.794  33.063  1.00  0.00     0.049 A 
ATOM     60  H   UNL A   1      40.700  29.910  32.548  1.00  0.00     0.167 HD
ATOM     61  C   UNL A   1      42.090  30.327  34.987  1.00  0.00     0.074 A 
ATOM     62  C   UNL A   1      42.456  30.861  36.283  1.00  0.00     0.031 C 
ATOM     63  C   UNL A   1      42.765  29.336  34.353  1.00  0.00     0.037 A 
BRANCH  50  64
ATOM     64  C   UNL A   1      40.361  27.754  28.878  1.00  0.00     0.064 A 
ATOM     65  C   UNL A   1      39.646  26.546  28.824  1.00  0.00     0.173 A 
ATOM     66  C   UNL A   1      41.116  28.116  27.752  1.00  0.00     0.173 A 
ATOM     67  F   UNL A   1      38.917  26.144  29.876  1.00  0.00    -0.203 F 
ATOM     68  C   UNL A   1      39.715  25.721  27.704  1.00  0.00     0.198 A 
ATOM     69  C   UNL A   1      41.153  27.306  26.621  1.00  0.00     0.198 A 
ATOM     70  F   UNL A   1      41.816  29.261  27.747  1.00  0.00    -0.203 F 
ATOM     71  F   UNL A   1      39.069  24.546  27.700  1.00  0.00    -0.200 F 
ATOM     72  C   UNL A   1      40.461  26.105  26.601  1.00  0.00     0.200 A 
ATOM     73  F   UNL A   1      41.865  27.685  25.550  1.00  0.00    -0.200 F 
ATOM     74  F   UNL A   1      40.519  25.314  25.520  1.00  0.00    -0.200 F 
ENDBRANCH  50  64
BRANCH  51  75
ATOM     75  C   UNL A   1      39.444  33.763  36.820  1.00  0.00     0.064 A 
ATOM     76  C   UNL A   1      40.098  35.002  36.886  1.00  0.00     0.173 A 
ATOM     77  C   UNL A   1      38.672  33.376  37.925  1.00  0.00     0.173 A 
ATOM     78  F   UNL A   1      40.864  35.409  35.863  1.00  0.00    -0.203 F 
ATOM     79  C   UNL A   1      40.008  35.806  38.019  1.00  0.00     0.198 A 
ATOM     80  C   UNL A   1      38.554  34.196  39.045  1.00  0.00     0.198 A 
ATOM     81  F   UNL A   1      38.019  32.205  37.911  1.00  0.00    -0.203 F 
ATOM     82  F   UNL A   1      40.688  36.959  38.077  1.00  0.00    -0.200 F 
ATOM     83  C   UNL A   1      39.231  35.405  39.097  1.00  0.00     0.200 A 
ATOM     84  F   UNL A   1      37.789  33.813  40.076  1.00  0.00    -0.200 F 
ATOM     85  F   UNL A   1      39.143  36.179  40.186  1.00  0.00    -0.200 F 
ENDBRANCH  51  75
BRANCH  63  86
ATOM     86  C   UNL A   1      43.985  28.790  35.040  1.00  0.00     0.064 A 
ATOM     87  C   UNL A   1      43.919  27.679  35.895  1.00  0.00     0.173 A 
ATOM     88  C   UNL A   1      45.241  29.381  34.831  1.00  0.00     0.173 A 
ATOM     89  F   UNL A   1      42.740  27.085  36.138  1.00  0.00    -0.203 F 
ATOM     90  C   UNL A   1      45.054  27.209  36.548  1.00  0.00     0.198 A 
ATOM     91  C   UNL A   1      46.381  28.884  35.455  1.00  0.00     0.198 A 
ATOM     92  F   UNL A   1      45.365  30.440  34.016  1.00  0.00    -0.203 F 
ATOM     93  F   UNL A   1      44.953  26.190  37.413  1.00  0.00    -0.200 F 
ATOM     94  C   UNL A   1      46.284  27.807  36.324  1.00  0.00     0.200 A 
ATOM     95  F   UNL A   1      47.572  29.452  35.223  1.00  0.00    -0.200 F 
ATOM     96  F   UNL A   1      47.377  27.353  36.952  1.00  0.00    -0.200 F 
ENDBRANCH  63  86
ENDBRANCH  37  38
ENDBRANCH  29  32
ENDBRANCH  27  28
ENDBRANCH  26  27
ENDBRANCH   1  26
TORSDOF 14
ENDMDL
