MODEL 1
REMARK VINA RESULT:     -13.4      0.000      0.000
REMARK SMILES O=C(NCCCCCCNC(=O)c1cc(S(=O)(=O)Nc2ccccc2-n2cc(Br)cn2)c[nH]1)c1ccc(-c2c3nc(c(-c4c(F)c(F)c(F)c(F)c4F)c4ccc([nH]4)c(-c4c(F)c(F)c(F)c(F)c4F)c4nc(c(-c5c(F)c(F)c(F)c(F)c5F)c5ccc2[nH]5)C=C4)C=C3)cc1
REMARK SMILES IDX 7 1 6 2 5 3 4 4 3 5 1 6 2 7 34 9 35 10 96 11 36 12 95 13
REMARK SMILES IDX 37 14 38 15 39 16 89 17 40 18 94 19 88 20 90 21 41 22 93 23
REMARK SMILES IDX 87 24 86 25 42 27 74 28 54 29 73 30 55 31 58 32 72 33 91 34
REMARK SMILES IDX 56 35 57 36 71 38 92 39 59 40 43 41 44 42 52 43 45 44 46 45
REMARK SMILES IDX 50 46 53 47 47 48 48 49 51 50 49 51 75 52 76 53 84 54 77 55
REMARK SMILES IDX 78 56 82 57 85 58 79 59 80 60 83 61 81 62 60 63 61 64 69 65
REMARK SMILES IDX 62 66 63 67 67 68 70 69 64 70 65 71 68 72 66 73 8 74 9 75
REMARK SMILES IDX 10 76 11 77 12 79 13 80 14 81 33 82 15 83 32 84 16 86 17 87
REMARK SMILES IDX 18 88 19 89 20 91 21 92 25 93 22 94 24 95 23 96 26 97 27 98
REMARK SMILES IDX 31 99 28 100 30 101 29 102
REMARK H PARENT 3 8 90 26 58 37 10 78 33 85 19 90
REMARK Flexibility Score: inf
ROOT
ATOM      1  C   UNL A   1      32.202  29.239  24.850  1.00  0.00     0.002 C 
ENDROOT
BRANCH   1   2
ATOM      2  C   UNL A   1      32.059  28.953  26.348  1.00  0.00     0.002 C 
BRANCH   2   3
ATOM      3  C   UNL A   1      33.252  28.256  27.007  1.00  0.00     0.021 C 
BRANCH   3   4
ATOM      4  C   UNL A   1      34.621  28.827  26.630  1.00  0.00     0.116 C 
BRANCH   4   5
ATOM      5  N   UNL A   1      34.931  30.121  27.204  1.00  0.00    -0.352 N 
ATOM      6  O   UNL A   1      36.089  31.797  28.140  1.00  0.00    -0.269 OA
ATOM      7  C   UNL A   1      36.082  30.635  27.740  1.00  0.00     0.251 C 
ATOM      8  H   UNL A   1      34.173  30.748  27.209  1.00  0.00     0.163 HD
BRANCH   7   9
ATOM      9  C   UNL A   1      37.301  29.813  27.905  1.00  0.00     0.039 A 
ATOM     10  C   UNL A   1      38.338  29.809  26.968  1.00  0.00     0.014 A 
ATOM     11  C   UNL A   1      37.421  29.057  29.080  1.00  0.00     0.014 A 
ATOM     12  C   UNL A   1      39.447  29.000  27.163  1.00  0.00     0.010 A 
ATOM     13  C   UNL A   1      38.556  28.279  29.306  1.00  0.00     0.010 A 
ATOM     14  C   UNL A   1      39.573  28.261  28.345  1.00  0.00    -0.014 A 
BRANCH  14  15
ATOM     15  C   UNL A   1      40.912  27.694  28.629  1.00  0.00     0.031 A 
ATOM     16  C   UNL A   1      41.027  26.241  28.157  1.00  0.00     0.074 A 
ATOM     17  C   UNL A   1      41.793  28.465  29.325  1.00  0.00     0.049 A 
ATOM     18  N   UNL A   1      41.748  25.269  28.626  1.00  0.00    -0.248 NA
ATOM     19  C   UNL A   1      40.145  25.780  27.049  1.00  0.00     0.031 C 
ATOM     20  C   UNL A   1      41.545  29.866  29.699  1.00  0.00     0.029 A 
ATOM     21  N   UNL A   1      43.046  28.242  29.871  1.00  0.00    -0.354 N 
ATOM     22  C   UNL A   1      41.555  24.161  27.776  1.00  0.00     0.074 A 
ATOM     23  C   UNL A   1      40.468  24.494  26.907  1.00  0.00     0.031 C 
ATOM     24  C   UNL A   1      42.556  30.343  30.452  1.00  0.00     0.029 A 
ATOM     25  C   UNL A   1      43.566  29.318  30.636  1.00  0.00     0.049 A 
ATOM     26  H   UNL A   1      43.539  27.401  29.738  1.00  0.00     0.167 HD
ATOM     27  C   UNL A   1      42.393  23.086  27.742  1.00  0.00     0.037 A 
ATOM     28  C   UNL A   1      44.706  29.375  31.395  1.00  0.00     0.037 A 
ATOM     29  C   UNL A   1      43.420  23.217  28.718  1.00  0.00     0.049 A 
ATOM     30  C   UNL A   1      45.413  28.105  31.162  1.00  0.00     0.074 A 
ATOM     31  C   UNL A   1      43.452  23.061  30.077  1.00  0.00     0.029 A 
ATOM     32  N   UNL A   1      44.586  23.814  28.313  1.00  0.00    -0.354 N 
ATOM     33  N   UNL A   1      46.072  27.814  30.079  1.00  0.00    -0.248 NA
ATOM     34  C   UNL A   1      45.355  27.058  32.190  1.00  0.00     0.031 C 
ATOM     35  C   UNL A   1      44.499  23.905  30.506  1.00  0.00     0.029 A 
ATOM     36  C   UNL A   1      45.104  24.491  29.389  1.00  0.00     0.049 A 
ATOM     37  H   UNL A   1      44.981  23.766  27.413  1.00  0.00     0.167 HD
ATOM     38  C   UNL A   1      46.220  26.449  30.182  1.00  0.00     0.074 A 
ATOM     39  C   UNL A   1      46.073  26.120  31.579  1.00  0.00     0.031 C 
ATOM     40  C   UNL A   1      45.901  25.668  29.121  1.00  0.00     0.037 A 
BRANCH  27  41
ATOM     41  C   UNL A   1      42.552  21.983  26.732  1.00  0.00     0.064 A 
ATOM     42  C   UNL A   1      42.026  20.705  27.048  1.00  0.00     0.173 A 
ATOM     43  C   UNL A   1      43.472  22.029  25.675  1.00  0.00     0.173 A 
ATOM     44  F   UNL A   1      41.108  20.562  28.017  1.00  0.00    -0.203 F 
ATOM     45  C   UNL A   1      42.496  19.541  26.442  1.00  0.00     0.198 A 
ATOM     46  C   UNL A   1      43.901  20.862  25.034  1.00  0.00     0.198 A 
ATOM     47  F   UNL A   1      44.055  23.178  25.311  1.00  0.00    -0.203 F 
ATOM     48  F   UNL A   1      42.074  18.346  26.877  1.00  0.00    -0.200 F 
ATOM     49  C   UNL A   1      43.448  19.620  25.446  1.00  0.00     0.200 A 
ATOM     50  F   UNL A   1      44.821  20.942  24.062  1.00  0.00    -0.200 F 
ATOM     51  F   UNL A   1      43.953  18.503  24.908  1.00  0.00    -0.200 F 
ENDBRANCH  27  41
BRANCH  28  52
ATOM     52  C   UNL A   1      45.351  30.329  32.387  1.00  0.00     0.064 A 
ATOM     53  C   UNL A   1      46.328  31.290  32.094  1.00  0.00     0.173 A 
ATOM     54  C   UNL A   1      44.939  30.335  33.753  1.00  0.00     0.173 A 
ATOM     55  F   UNL A   1      46.923  31.340  30.899  1.00  0.00    -0.203 F 
ATOM     56  C   UNL A   1      46.763  32.237  33.040  1.00  0.00     0.198 A 
ATOM     57  C   UNL A   1      45.344  31.293  34.684  1.00  0.00     0.198 A 
ATOM     58  F   UNL A   1      44.118  29.401  34.248  1.00  0.00    -0.203 F 
ATOM     59  F   UNL A   1      47.688  33.143  32.691  1.00  0.00    -0.200 F 
ATOM     60  C   UNL A   1      46.248  32.261  34.322  1.00  0.00     0.200 A 
ATOM     61  F   UNL A   1      44.834  31.272  35.924  1.00  0.00    -0.200 F 
ATOM     62  F   UNL A   1      46.627  33.195  35.203  1.00  0.00    -0.200 F 
ENDBRANCH  28  52
BRANCH  40  63
ATOM     63  C   UNL A   1      46.006  26.396  27.797  1.00  0.00     0.064 A 
ATOM     64  C   UNL A   1      44.845  26.760  27.099  1.00  0.00     0.173 A 
ATOM     65  C   UNL A   1      47.222  26.606  27.127  1.00  0.00     0.173 A 
ATOM     66  F   UNL A   1      43.642  26.596  27.670  1.00  0.00    -0.203 F 
ATOM     67  C   UNL A   1      44.904  27.285  25.804  1.00  0.00     0.198 A 
ATOM     68  C   UNL A   1      47.288  27.139  25.841  1.00  0.00     0.198 A 
ATOM     69  F   UNL A   1      48.375  26.289  27.710  1.00  0.00    -0.203 F 
ATOM     70  F   UNL A   1      43.774  27.611  25.163  1.00  0.00    -0.200 F 
ATOM     71  C   UNL A   1      46.125  27.472  25.175  1.00  0.00     0.200 A 
ATOM     72  F   UNL A   1      48.479  27.327  25.253  1.00  0.00    -0.200 F 
ATOM     73  F   UNL A   1      46.182  27.980  23.935  1.00  0.00    -0.200 F 
ENDBRANCH  40  63
ENDBRANCH  14  15
ENDBRANCH   7   9
ENDBRANCH   4   5
ENDBRANCH   3   4
ENDBRANCH   2   3
ENDBRANCH   1   2
BRANCH   1  74
ATOM     74  C   UNL A   1      30.892  29.359  24.070  1.00  0.00     0.021 C 
BRANCH  74  75
ATOM     75  C   UNL A   1      30.507  28.122  23.272  1.00  0.00     0.116 C 
BRANCH  75  76
ATOM     76  N   UNL A   1      31.531  27.773  22.309  1.00  0.00    -0.351 N 
ATOM     77  C   UNL A   1      32.370  26.688  22.269  1.00  0.00     0.267 C 
ATOM     78  H   UNL A   1      31.642  28.412  21.569  1.00  0.00     0.163 HD
ATOM     79  O   UNL A   1      33.367  26.762  21.550  1.00  0.00    -0.268 OA
BRANCH  77  80
ATOM     80  C   UNL A   1      32.078  25.496  23.035  1.00  0.00     0.105 A 
ATOM     81  C   UNL A   1      32.216  25.198  24.377  1.00  0.00     0.055 A 
ATOM     82  N   UNL A   1      31.456  24.397  22.471  1.00  0.00    -0.356 N 
ATOM     83  C   UNL A   1      31.602  23.952  24.641  1.00  0.00     0.106 A 
ATOM     84  C   UNL A   1      31.170  23.457  23.430  1.00  0.00     0.105 A 
ATOM     85  H   UNL A   1      31.248  24.302  21.513  1.00  0.00     0.166 HD
BRANCH  83  86
ATOM     86  S   UNL A   1      31.471  23.274  26.224  1.00  0.00     0.263 S 
ATOM     87  O   UNL A   1      31.455  24.415  27.125  1.00  0.00    -0.201 OA
ATOM     88  O   UNL A   1      30.354  22.369  26.136  1.00  0.00    -0.201 OA
BRANCH  86  89
ATOM     89  N   UNL A   1      32.844  22.345  26.646  1.00  0.00    -0.277 N 
ATOM     90  H   UNL A   1      32.797  21.663  27.353  1.00  0.00     0.180 HD
BRANCH  89  91
ATOM     91  C   UNL A   1      34.071  22.589  25.934  1.00  0.00     0.075 A 
ATOM     92  C   UNL A   1      34.785  23.758  26.238  1.00  0.00     0.029 A 
ATOM     93  C   UNL A   1      34.656  21.624  25.088  1.00  0.00     0.089 A 
ATOM     94  C   UNL A   1      36.061  23.975  25.705  1.00  0.00     0.002 A 
ATOM     95  C   UNL A   1      35.951  21.844  24.579  1.00  0.00     0.030 A 
ATOM     96  C   UNL A   1      36.643  23.018  24.879  1.00  0.00     0.002 A 
BRANCH  93  97
ATOM     97  N   UNL A   1      34.025  20.382  24.796  1.00  0.00    -0.238 N 
ATOM     98  C   UNL A   1      34.582  19.123  24.744  1.00  0.00     0.130 A 
ATOM     99  N   UNL A   1      32.711  20.349  24.432  1.00  0.00    -0.175 NA
ATOM    100  C   UNL A   1      33.668  18.326  24.116  1.00  0.00     0.056 A 
ATOM    101  C   UNL A   1      32.540  19.123  23.928  1.00  0.00     0.151 A 
ATOM    102  Br  UNL A   1      33.861  16.546  23.602  1.00  0.00    -0.047 Br
ENDBRANCH  93  97
ENDBRANCH  89  91
ENDBRANCH  86  89
ENDBRANCH  83  86
ENDBRANCH  77  80
ENDBRANCH  75  76
ENDBRANCH  74  75
ENDBRANCH   1  74
TORSDOF 17
ENDMDL
MODEL 2
REMARK VINA RESULT:     -12.8      3.820      6.227
REMARK SMILES O=C(NCCCCCCNC(=O)c1cc(S(=O)(=O)Nc2ccccc2-n2cc(Br)cn2)c[nH]1)c1ccc(-c2c3nc(c(-c4c(F)c(F)c(F)c(F)c4F)c4ccc([nH]4)c(-c4c(F)c(F)c(F)c(F)c4F)c4nc(c(-c5c(F)c(F)c(F)c(F)c5F)c5ccc2[nH]5)C=C4)C=C3)cc1
REMARK SMILES IDX 7 1 6 2 5 3 4 4 3 5 1 6 2 7 34 9 35 10 96 11 36 12 95 13
REMARK SMILES IDX 37 14 38 15 39 16 89 17 40 18 94 19 88 20 90 21 41 22 93 23
REMARK SMILES IDX 87 24 86 25 42 27 74 28 54 29 73 30 55 31 58 32 72 33 91 34
REMARK SMILES IDX 56 35 57 36 71 38 92 39 59 40 43 41 44 42 52 43 45 44 46 45
REMARK SMILES IDX 50 46 53 47 47 48 48 49 51 50 49 51 75 52 76 53 84 54 77 55
REMARK SMILES IDX 78 56 82 57 85 58 79 59 80 60 83 61 81 62 60 63 61 64 69 65
REMARK SMILES IDX 62 66 63 67 67 68 70 69 64 70 65 71 68 72 66 73 8 74 9 75
REMARK SMILES IDX 10 76 11 77 12 79 13 80 14 81 33 82 15 83 32 84 16 86 17 87
REMARK SMILES IDX 18 88 19 89 20 91 21 92 25 93 22 94 24 95 23 96 26 97 27 98
REMARK SMILES IDX 31 99 28 100 30 101 29 102
REMARK H PARENT 3 8 90 26 58 37 10 78 33 85 19 90
REMARK Flexibility Score: inf
ROOT
ATOM      1  C   UNL A   1      31.141  29.789  24.615  1.00  0.00     0.002 C 
ENDROOT
BRANCH   1   2
ATOM      2  C   UNL A   1      31.859  30.156  25.918  1.00  0.00     0.002 C 
BRANCH   2   3
ATOM      3  C   UNL A   1      31.494  31.517  26.515  1.00  0.00     0.021 C 
BRANCH   3   4
ATOM      4  C   UNL A   1      32.643  32.241  27.220  1.00  0.00     0.116 C 
BRANCH   4   5
ATOM      5  N   UNL A   1      32.385  33.626  27.561  1.00  0.00    -0.352 N 
ATOM      6  O   UNL A   1      32.631  35.664  28.462  1.00  0.00    -0.269 OA
ATOM      7  C   UNL A   1      33.052  34.514  28.362  1.00  0.00     0.251 C 
ATOM      8  H   UNL A   1      31.579  33.999  27.137  1.00  0.00     0.163 HD
BRANCH   7   9
ATOM      9  C   UNL A   1      34.233  34.111  29.158  1.00  0.00     0.039 A 
ATOM     10  C   UNL A   1      34.130  33.348  30.324  1.00  0.00     0.014 A 
ATOM     11  C   UNL A   1      35.498  34.479  28.675  1.00  0.00     0.014 A 
ATOM     12  C   UNL A   1      35.270  33.020  31.043  1.00  0.00     0.010 A 
ATOM     13  C   UNL A   1      36.651  34.110  29.366  1.00  0.00     0.010 A 
ATOM     14  C   UNL A   1      36.532  33.371  30.549  1.00  0.00    -0.014 A 
BRANCH  14  15
ATOM     15  C   UNL A   1      37.695  32.710  31.183  1.00  0.00     0.031 A 
ATOM     16  C   UNL A   1      38.060  31.400  30.479  1.00  0.00     0.074 A 
ATOM     17  C   UNL A   1      38.207  33.272  32.314  1.00  0.00     0.049 A 
ATOM     18  N   UNL A   1      38.606  30.322  30.956  1.00  0.00    -0.248 NA
ATOM     19  C   UNL A   1      37.686  31.232  29.047  1.00  0.00     0.031 C 
ATOM     20  C   UNL A   1      37.759  34.560  32.868  1.00  0.00     0.029 A 
ATOM     21  N   UNL A   1      39.173  32.890  33.228  1.00  0.00    -0.354 N 
ATOM     22  C   UNL A   1      38.808  29.444  29.873  1.00  0.00     0.074 A 
ATOM     23  C   UNL A   1      38.110  30.002  28.755  1.00  0.00     0.031 C 
ATOM     24  C   UNL A   1      38.385  34.819  34.033  1.00  0.00     0.029 A 
ATOM     25  C   UNL A   1      39.308  33.746  34.352  1.00  0.00     0.049 A 
ATOM     26  H   UNL A   1      39.726  32.085  33.107  1.00  0.00     0.167 HD
ATOM     27  C   UNL A   1      39.656  28.378  29.919  1.00  0.00     0.037 A 
ATOM     28  C   UNL A   1      40.074  33.591  35.477  1.00  0.00     0.037 A 
ATOM     29  C   UNL A   1      40.233  28.249  31.213  1.00  0.00     0.049 A 
ATOM     30  C   UNL A   1      40.887  32.384  35.252  1.00  0.00     0.074 A 
ATOM     31  C   UNL A   1      39.761  27.787  32.412  1.00  0.00     0.029 A 
ATOM     32  N   UNL A   1      41.430  28.883  31.422  1.00  0.00    -0.354 N 
ATOM     33  N   UNL A   1      41.919  32.325  34.463  1.00  0.00    -0.248 NA
ATOM     34  C   UNL A   1      40.506  31.133  35.920  1.00  0.00     0.031 C 
ATOM     35  C   UNL A   1      40.521  28.476  33.381  1.00  0.00     0.029 A 
ATOM     36  C   UNL A   1      41.468  29.280  32.736  1.00  0.00     0.049 A 
ATOM     37  H   UNL A   1      42.136  29.027  30.753  1.00  0.00     0.167 HD
ATOM     38  C   UNL A   1      42.094  30.968  34.307  1.00  0.00     0.074 A 
ATOM     39  C   UNL A   1      41.452  30.335  35.434  1.00  0.00     0.031 C 
ATOM     40  C   UNL A   1      42.240  30.459  33.059  1.00  0.00     0.037 A 
BRANCH  27  41
ATOM     41  C   UNL A   1      40.243  27.528  28.825  1.00  0.00     0.064 A 
ATOM     42  C   UNL A   1      41.063  28.158  27.855  1.00  0.00     0.173 A 
ATOM     43  C   UNL A   1      39.763  26.254  28.494  1.00  0.00     0.173 A 
ATOM     44  F   UNL A   1      41.605  29.363  28.094  1.00  0.00    -0.203 F 
ATOM     45  C   UNL A   1      41.269  27.609  26.591  1.00  0.00     0.198 A 
ATOM     46  C   UNL A   1      40.017  25.683  27.242  1.00  0.00     0.198 A 
ATOM     47  F   UNL A   1      38.954  25.580  29.321  1.00  0.00    -0.203 F 
ATOM     48  F   UNL A   1      41.931  28.310  25.660  1.00  0.00    -0.200 F 
ATOM     49  C   UNL A   1      40.731  26.378  26.280  1.00  0.00     0.200 A 
ATOM     50  F   UNL A   1      39.497  24.484  26.945  1.00  0.00    -0.200 F 
ATOM     51  F   UNL A   1      40.867  25.876  25.045  1.00  0.00    -0.200 F 
ENDBRANCH  27  41
BRANCH  28  52
ATOM     52  C   UNL A   1      40.246  34.273  36.825  1.00  0.00     0.064 A 
ATOM     53  C   UNL A   1      39.279  34.362  37.835  1.00  0.00     0.173 A 
ATOM     54  C   UNL A   1      41.498  34.857  37.181  1.00  0.00     0.173 A 
ATOM     55  F   UNL A   1      38.015  33.987  37.627  1.00  0.00    -0.203 F 
ATOM     56  C   UNL A   1      39.569  34.877  39.113  1.00  0.00     0.198 A 
ATOM     57  C   UNL A   1      41.797  35.337  38.457  1.00  0.00     0.198 A 
ATOM     58  F   UNL A   1      42.495  34.988  36.297  1.00  0.00    -0.203 F 
ATOM     59  F   UNL A   1      38.603  34.919  40.043  1.00  0.00    -0.200 F 
ATOM     60  C   UNL A   1      40.833  35.332  39.434  1.00  0.00     0.200 A 
ATOM     61  F   UNL A   1      43.031  35.787  38.725  1.00  0.00    -0.200 F 
ATOM     62  F   UNL A   1      41.117  35.774  40.666  1.00  0.00    -0.200 F 
ENDBRANCH  28  52
BRANCH  40  63
ATOM     63  C   UNL A   1      42.793  31.466  32.071  1.00  0.00     0.064 A 
ATOM     64  C   UNL A   1      44.141  31.847  32.134  1.00  0.00     0.173 A 
ATOM     65  C   UNL A   1      41.991  32.177  31.164  1.00  0.00     0.173 A 
ATOM     66  F   UNL A   1      44.977  31.215  32.972  1.00  0.00    -0.203 F 
ATOM     67  C   UNL A   1      44.645  32.888  31.347  1.00  0.00     0.198 A 
ATOM     68  C   UNL A   1      42.489  33.209  30.369  1.00  0.00     0.198 A 
ATOM     69  F   UNL A   1      40.699  31.887  31.037  1.00  0.00    -0.203 F 
ATOM     70  F   UNL A   1      45.936  33.233  31.443  1.00  0.00    -0.200 F 
ATOM     71  C   UNL A   1      43.818  33.569  30.468  1.00  0.00     0.200 A 
ATOM     72  F   UNL A   1      41.678  33.847  29.513  1.00  0.00    -0.200 F 
ATOM     73  F   UNL A   1      44.303  34.565  29.711  1.00  0.00    -0.200 F 
ENDBRANCH  40  63
ENDBRANCH  14  15
ENDBRANCH   7   9
ENDBRANCH   4   5
ENDBRANCH   3   4
ENDBRANCH   2   3
ENDBRANCH   1   2
BRANCH   1  74
ATOM     74  C   UNL A   1      31.120  28.300  24.267  1.00  0.00     0.021 C 
BRANCH  74  75
ATOM     75  C   UNL A   1      30.668  27.981  22.850  1.00  0.00     0.116 C 
BRANCH  75  76
ATOM     76  N   UNL A   1      31.772  27.521  22.033  1.00  0.00    -0.351 N 
ATOM     77  C   UNL A   1      32.563  26.408  22.167  1.00  0.00     0.267 C 
ATOM     78  H   UNL A   1      31.988  28.094  21.263  1.00  0.00     0.163 HD
ATOM     79  O   UNL A   1      33.633  26.389  21.558  1.00  0.00    -0.268 OA
BRANCH  77  80
ATOM     80  C   UNL A   1      32.140  25.292  22.986  1.00  0.00     0.105 A 
ATOM     81  C   UNL A   1      32.392  24.959  24.303  1.00  0.00     0.055 A 
ATOM     82  N   UNL A   1      31.241  24.347  22.527  1.00  0.00    -0.356 N 
ATOM     83  C   UNL A   1      31.580  23.860  24.666  1.00  0.00     0.106 A 
ATOM     84  C   UNL A   1      30.901  23.474  23.531  1.00  0.00     0.105 A 
ATOM     85  H   UNL A   1      30.892  24.306  21.607  1.00  0.00     0.166 HD
BRANCH  83  86
ATOM     86  S   UNL A   1      31.525  23.206  26.264  1.00  0.00     0.263 S 
ATOM     87  O   UNL A   1      31.532  24.363  27.146  1.00  0.00    -0.201 OA
ATOM     88  O   UNL A   1      30.418  22.287  26.239  1.00  0.00    -0.201 OA
BRANCH  86  89
ATOM     89  N   UNL A   1      32.927  22.302  26.642  1.00  0.00    -0.277 N 
ATOM     90  H   UNL A   1      32.917  21.625  27.356  1.00  0.00     0.180 HD
BRANCH  89  91
ATOM     91  C   UNL A   1      34.123  22.560  25.884  1.00  0.00     0.075 A 
ATOM     92  C   UNL A   1      34.870  23.704  26.203  1.00  0.00     0.029 A 
ATOM     93  C   UNL A   1      34.653  21.625  24.970  1.00  0.00     0.089 A 
ATOM     94  C   UNL A   1      36.122  23.926  25.620  1.00  0.00     0.002 A 
ATOM     95  C   UNL A   1      35.926  21.849  24.410  1.00  0.00     0.030 A 
ATOM     96  C   UNL A   1      36.650  22.998  24.727  1.00  0.00     0.002 A 
BRANCH  93  97
ATOM     97  N   UNL A   1      33.989  20.406  24.655  1.00  0.00    -0.238 N 
ATOM     98  C   UNL A   1      34.461  19.115  24.759  1.00  0.00     0.130 A 
ATOM     99  N   UNL A   1      32.743  20.426  24.099  1.00  0.00    -0.175 NA
ATOM    100  C   UNL A   1      33.597  18.334  24.044  1.00  0.00     0.056 A 
ATOM    101  C   UNL A   1      32.565  19.182  23.645  1.00  0.00     0.151 A 
ATOM    102  Br  UNL A   1      33.742  16.516  23.665  1.00  0.00    -0.047 Br
ENDBRANCH  93  97
ENDBRANCH  89  91
ENDBRANCH  86  89
ENDBRANCH  83  86
ENDBRANCH  77  80
ENDBRANCH  75  76
ENDBRANCH  74  75
ENDBRANCH   1  74
TORSDOF 17
ENDMDL
MODEL 3
REMARK VINA RESULT:     -12.7      2.062      7.868
REMARK SMILES O=C(NCCCCCCNC(=O)c1cc(S(=O)(=O)Nc2ccccc2-n2cc(Br)cn2)c[nH]1)c1ccc(-c2c3nc(c(-c4c(F)c(F)c(F)c(F)c4F)c4ccc([nH]4)c(-c4c(F)c(F)c(F)c(F)c4F)c4nc(c(-c5c(F)c(F)c(F)c(F)c5F)c5ccc2[nH]5)C=C4)C=C3)cc1
REMARK SMILES IDX 7 1 6 2 5 3 4 4 3 5 1 6 2 7 34 9 35 10 96 11 36 12 95 13
REMARK SMILES IDX 37 14 38 15 39 16 89 17 40 18 94 19 88 20 90 21 41 22 93 23
REMARK SMILES IDX 87 24 86 25 42 27 74 28 54 29 73 30 55 31 58 32 72 33 91 34
REMARK SMILES IDX 56 35 57 36 71 38 92 39 59 40 43 41 44 42 52 43 45 44 46 45
REMARK SMILES IDX 50 46 53 47 47 48 48 49 51 50 49 51 75 52 76 53 84 54 77 55
REMARK SMILES IDX 78 56 82 57 85 58 79 59 80 60 83 61 81 62 60 63 61 64 69 65
REMARK SMILES IDX 62 66 63 67 67 68 70 69 64 70 65 71 68 72 66 73 8 74 9 75
REMARK SMILES IDX 10 76 11 77 12 79 13 80 14 81 33 82 15 83 32 84 16 86 17 87
REMARK SMILES IDX 18 88 19 89 20 91 21 92 25 93 22 94 24 95 23 96 26 97 27 98
REMARK SMILES IDX 31 99 28 100 30 101 29 102
REMARK H PARENT 3 8 90 26 58 37 10 78 33 85 19 90
REMARK Flexibility Score: inf
ROOT
ATOM      1  C   UNL A   1      32.426  28.960  24.134  1.00  0.00     0.002 C 
ENDROOT
BRANCH   1   2
ATOM      2  C   UNL A   1      33.561  28.220  24.848  1.00  0.00     0.002 C 
BRANCH   2   3
ATOM      3  C   UNL A   1      34.159  28.935  26.062  1.00  0.00     0.021 C 
BRANCH   3   4
ATOM      4  C   UNL A   1      33.168  29.230  27.190  1.00  0.00     0.116 C 
BRANCH   4   5
ATOM      5  N   UNL A   1      33.271  30.553  27.773  1.00  0.00    -0.352 N 
ATOM      6  O   UNL A   1      34.149  32.380  28.729  1.00  0.00    -0.269 OA
ATOM      7  C   UNL A   1      34.324  31.233  28.324  1.00  0.00     0.251 C 
ATOM      8  H   UNL A   1      32.425  31.057  27.773  1.00  0.00     0.163 HD
BRANCH   7   9
ATOM      9  C   UNL A   1      35.653  30.606  28.499  1.00  0.00     0.039 A 
ATOM     10  C   UNL A   1      36.664  30.708  27.541  1.00  0.00     0.014 A 
ATOM     11  C   UNL A   1      35.899  29.932  29.705  1.00  0.00     0.014 A 
ATOM     12  C   UNL A   1      37.883  30.079  27.748  1.00  0.00     0.010 A 
ATOM     13  C   UNL A   1      37.139  29.340  29.940  1.00  0.00     0.010 A 
ATOM     14  C   UNL A   1      38.134  29.424  28.959  1.00  0.00    -0.014 A 
BRANCH  14  15
ATOM     15  C   UNL A   1      39.544  29.072  29.239  1.00  0.00     0.031 A 
ATOM     16  C   UNL A   1      40.309  30.240  29.869  1.00  0.00     0.074 A 
ATOM     17  C   UNL A   1      39.987  27.849  28.832  1.00  0.00     0.049 A 
ATOM     18  N   UNL A   1      41.570  30.546  29.795  1.00  0.00    -0.248 NA
ATOM     19  C   UNL A   1      39.543  31.269  30.625  1.00  0.00     0.031 C 
ATOM     20  C   UNL A   1      39.120  26.812  28.251  1.00  0.00     0.029 A 
ATOM     21  N   UNL A   1      41.226  27.233  28.802  1.00  0.00    -0.354 N 
ATOM     22  C   UNL A   1      41.775  31.664  30.628  1.00  0.00     0.074 A 
ATOM     23  C   UNL A   1      40.479  32.139  31.007  1.00  0.00     0.031 C 
ATOM     24  C   UNL A   1      39.847  25.744  27.868  1.00  0.00     0.029 A 
ATOM     25  C   UNL A   1      41.250  25.964  28.169  1.00  0.00     0.049 A 
ATOM     26  H   UNL A   1      42.031  27.646  29.191  1.00  0.00     0.167 HD
ATOM     27  C   UNL A   1      43.003  32.052  31.074  1.00  0.00     0.037 A 
ATOM     28  C   UNL A   1      42.318  25.159  27.871  1.00  0.00     0.037 A 
ATOM     29  C   UNL A   1      44.023  31.224  30.527  1.00  0.00     0.049 A 
ATOM     30  C   UNL A   1      43.495  25.807  28.475  1.00  0.00     0.074 A 
ATOM     31  C   UNL A   1      44.614  31.149  29.296  1.00  0.00     0.029 A 
ATOM     32  N   UNL A   1      44.387  30.126  31.262  1.00  0.00    -0.354 N 
ATOM     33  N   UNL A   1      43.767  25.807  29.747  1.00  0.00    -0.248 NA
ATOM     34  C   UNL A   1      44.423  26.547  27.610  1.00  0.00     0.031 C 
ATOM     35  C   UNL A   1      45.040  29.808  29.189  1.00  0.00     0.029 A 
ATOM     36  C   UNL A   1      44.750  29.137  30.382  1.00  0.00     0.049 A 
ATOM     37  H   UNL A   1      44.390  30.057  32.243  1.00  0.00     0.167 HD
ATOM     38  C   UNL A   1      44.707  26.808  29.847  1.00  0.00     0.074 A 
ATOM     39  C   UNL A   1      45.281  26.971  28.533  1.00  0.00     0.031 C 
ATOM     40  C   UNL A   1      44.555  27.765  30.796  1.00  0.00     0.037 A 
BRANCH  27  41
ATOM     41  C   UNL A   1      43.407  32.986  32.182  1.00  0.00     0.064 A 
ATOM     42  C   UNL A   1      43.118  32.606  33.517  1.00  0.00     0.173 A 
ATOM     43  C   UNL A   1      43.720  34.337  31.979  1.00  0.00     0.173 A 
ATOM     44  F   UNL A   1      42.846  31.327  33.822  1.00  0.00    -0.203 F 
ATOM     45  C   UNL A   1      43.014  33.540  34.546  1.00  0.00     0.198 A 
ATOM     46  C   UNL A   1      43.666  35.262  33.027  1.00  0.00     0.198 A 
ATOM     47  F   UNL A   1      43.979  34.814  30.755  1.00  0.00    -0.203 F 
ATOM     48  F   UNL A   1      42.597  33.151  35.759  1.00  0.00    -0.200 F 
ATOM     49  C   UNL A   1      43.272  34.872  34.296  1.00  0.00     0.200 A 
ATOM     50  F   UNL A   1      43.923  36.554  32.782  1.00  0.00    -0.200 F 
ATOM     51  F   UNL A   1      43.107  35.783  35.263  1.00  0.00    -0.200 F 
ENDBRANCH  27  41
BRANCH  28  52
ATOM     52  C   UNL A   1      42.584  23.885  27.087  1.00  0.00     0.064 A 
ATOM     53  C   UNL A   1      43.188  23.802  25.826  1.00  0.00     0.173 A 
ATOM     54  C   UNL A   1      42.255  22.614  27.646  1.00  0.00     0.173 A 
ATOM     55  F   UNL A   1      43.443  24.893  25.099  1.00  0.00    -0.203 F 
ATOM     56  C   UNL A   1      43.536  22.572  25.235  1.00  0.00     0.198 A 
ATOM     57  C   UNL A   1      42.628  21.394  27.078  1.00  0.00     0.198 A 
ATOM     58  F   UNL A   1      41.550  22.499  28.778  1.00  0.00    -0.203 F 
ATOM     59  F   UNL A   1      44.130  22.561  24.033  1.00  0.00    -0.200 F 
ATOM     60  C   UNL A   1      43.288  21.373  25.874  1.00  0.00     0.200 A 
ATOM     61  F   UNL A   1      42.354  20.250  27.721  1.00  0.00    -0.200 F 
ATOM     62  F   UNL A   1      43.666  20.208  25.332  1.00  0.00    -0.200 F 
ENDBRANCH  28  52
BRANCH  40  63
ATOM     63  C   UNL A   1      43.743  27.295  31.985  1.00  0.00     0.064 A 
ATOM     64  C   UNL A   1      42.467  27.826  32.221  1.00  0.00     0.173 A 
ATOM     65  C   UNL A   1      44.255  26.450  32.983  1.00  0.00     0.173 A 
ATOM     66  F   UNL A   1      41.903  28.640  31.315  1.00  0.00    -0.203 F 
ATOM     67  C   UNL A   1      41.759  27.538  33.392  1.00  0.00     0.198 A 
ATOM     68  C   UNL A   1      43.550  26.150  34.147  1.00  0.00     0.198 A 
ATOM     69  F   UNL A   1      45.460  25.902  32.846  1.00  0.00    -0.203 F 
ATOM     70  F   UNL A   1      40.547  28.072  33.588  1.00  0.00    -0.200 F 
ATOM     71  C   UNL A   1      42.302  26.702  34.355  1.00  0.00     0.200 A 
ATOM     72  F   UNL A   1      44.085  25.327  35.062  1.00  0.00    -0.200 F 
ATOM     73  F   UNL A   1      41.622  26.422  35.476  1.00  0.00    -0.200 F 
ENDBRANCH  40  63
ENDBRANCH  14  15
ENDBRANCH   7   9
ENDBRANCH   4   5
ENDBRANCH   3   4
ENDBRANCH   2   3
ENDBRANCH   1   2
BRANCH   1  74
ATOM     74  C   UNL A   1      31.069  28.256  24.140  1.00  0.00     0.021 C 
BRANCH  74  75
ATOM     75  C   UNL A   1      30.623  27.715  22.789  1.00  0.00     0.116 C 
BRANCH  75  76
ATOM     76  N   UNL A   1      31.752  27.268  21.999  1.00  0.00    -0.351 N 
ATOM     77  C   UNL A   1      32.567  26.178  22.165  1.00  0.00     0.267 C 
ATOM     78  H   UNL A   1      31.967  27.834  21.223  1.00  0.00     0.163 HD
ATOM     79  O   UNL A   1      33.648  26.175  21.575  1.00  0.00    -0.268 OA
BRANCH  77  80
ATOM     80  C   UNL A   1      32.159  25.066  22.997  1.00  0.00     0.105 A 
ATOM     81  C   UNL A   1      32.320  24.806  24.344  1.00  0.00     0.055 A 
ATOM     82  N   UNL A   1      31.373  24.038  22.509  1.00  0.00    -0.356 N 
ATOM     83  C   UNL A   1      31.562  23.663  24.689  1.00  0.00     0.106 A 
ATOM     84  C   UNL A   1      31.012  23.182  23.521  1.00  0.00     0.105 A 
ATOM     85  H   UNL A   1      31.108  23.934  21.566  1.00  0.00     0.166 HD
BRANCH  83  86
ATOM     86  S   UNL A   1      31.418  23.071  26.306  1.00  0.00     0.263 S 
ATOM     87  O   UNL A   1      31.496  24.252  27.150  1.00  0.00    -0.201 OA
ATOM     88  O   UNL A   1      30.243  22.240  26.281  1.00  0.00    -0.201 OA
BRANCH  86  89
ATOM     89  N   UNL A   1      32.736  22.073  26.748  1.00  0.00    -0.277 N 
ATOM     90  H   UNL A   1      32.620  21.337  27.391  1.00  0.00     0.180 HD
BRANCH  89  91
ATOM     91  C   UNL A   1      34.018  22.342  26.153  1.00  0.00     0.075 A 
ATOM     92  C   UNL A   1      34.722  23.474  26.590  1.00  0.00     0.029 A 
ATOM     93  C   UNL A   1      34.656  21.425  25.291  1.00  0.00     0.089 A 
ATOM     94  C   UNL A   1      36.038  23.702  26.174  1.00  0.00     0.002 A 
ATOM     95  C   UNL A   1      35.990  21.654  24.901  1.00  0.00     0.030 A 
ATOM     96  C   UNL A   1      36.671  22.792  25.333  1.00  0.00     0.002 A 
BRANCH  93  97
ATOM     97  N   UNL A   1      34.033  20.217  24.867  1.00  0.00    -0.238 N 
ATOM     98  C   UNL A   1      34.609  18.988  24.627  1.00  0.00     0.130 A 
ATOM     99  N   UNL A   1      32.704  20.200  24.560  1.00  0.00    -0.175 NA
ATOM    100  C   UNL A   1      33.681  18.258  23.941  1.00  0.00     0.056 A 
ATOM    101  C   UNL A   1      32.531  19.046  23.909  1.00  0.00     0.151 A 
ATOM    102  Br  UNL A   1      33.880  16.565  23.190  1.00  0.00    -0.047 Br
ENDBRANCH  93  97
ENDBRANCH  89  91
ENDBRANCH  86  89
ENDBRANCH  83  86
ENDBRANCH  77  80
ENDBRANCH  75  76
ENDBRANCH  74  75
ENDBRANCH   1  74
TORSDOF 17
ENDMDL
