MODEL 1
REMARK VINA RESULT:     -12.3      0.000      0.000
REMARK SMILES COc1cccc(-c2ccc(=O)n(CC(=O)N[C@@H](C(=O)NCCCCCCNC(=O)c3ccc(-c4c5nc(c(-c6c(F)c(F)c(F)c(F)c6F)c6ccc([nH]6)c(-c6c(F)c(F)c(F)c(F)c6F)c6nc(c(-c7c(F)c(F)c(F)c(F)c7F)c7ccc4[nH]7)C=C6)C=C5)cc3)C(C)C)n2)c1
REMARK SMILES IDX 23 1 22 2 21 3 19 4 20 5 18 7 17 8 15 9 16 10 14 12 13 13
REMARK SMILES IDX 8 14 9 15 97 16 10 17 11 18 12 19 7 20 3 21 4 22 98 23 5 24
REMARK SMILES IDX 6 25 2 26 1 27 94 28 95 29 96 30 24 31 25 32 26 33 27 34
REMARK SMILES IDX 28 35 29 36 30 38 31 39 32 40 93 41 33 42 92 43 34 44 35 45
REMARK SMILES IDX 36 46 86 47 37 48 91 49 85 50 87 51 38 52 90 53 84 54 83 55
REMARK SMILES IDX 39 57 71 58 51 59 70 60 52 61 55 62 69 63 88 64 53 65 54 66
REMARK SMILES IDX 68 68 89 69 56 70 40 71 41 72 49 73 42 74 43 75 47 76 50 77
REMARK SMILES IDX 44 78 45 79 48 80 46 81 72 82 73 83 81 84 74 85 75 86 79 87
REMARK SMILES IDX 82 88 76 89 77 90 80 91 78 92 57 93 58 94 66 95 59 96 60 97
REMARK SMILES IDX 64 98 67 99 61 100 62 101 65 102 63 103
REMARK H PARENT 21 6 17 11 28 37 87 56 55 67
REMARK Flexibility Score: inf
ROOT
ATOM      1  C   UNL A   1      32.920  28.839  27.157  1.00  0.00     0.021 C 
ENDROOT
BRANCH   1   2
ATOM      2  C   UNL A   1      34.046  28.347  26.253  1.00  0.00     0.116 C 
BRANCH   2   3
ATOM      3  N   UNL A   1      33.931  28.841  24.900  1.00  0.00    -0.354 N 
ATOM      4  C   UNL A   1      33.202  28.356  23.849  1.00  0.00     0.242 C 
ATOM      5  O   UNL A   1      33.171  29.065  22.840  1.00  0.00    -0.273 OA
ATOM      6  H   UNL A   1      34.458  29.649  24.705  1.00  0.00     0.163 HD
BRANCH   4   7
ATOM      7  C   UNL A   1      32.357  27.048  23.981  1.00  0.00     0.173 C 
BRANCH   7   8
ATOM      8  N   UNL A   1      32.508  26.245  22.762  1.00  0.00    -0.342 N 
ATOM      9  C   UNL A   1      33.345  25.201  22.483  1.00  0.00     0.242 C 
ATOM     10  O   UNL A   1      33.251  24.701  21.357  1.00  0.00    -0.273 OA
ATOM     11  H   UNL A   1      31.907  26.500  22.025  1.00  0.00     0.164 HD
BRANCH   9  12
ATOM     12  C   UNL A   1      34.293  24.605  23.535  1.00  0.00     0.248 C 
BRANCH  12  13
ATOM     13  N   UNL A   1      33.725  23.558  24.384  1.00  0.00    -0.220 N 
ATOM     14  C   UNL A   1      33.146  21.352  24.560  1.00  0.00     0.091 A 
ATOM     15  C   UNL A   1      32.690  21.499  25.952  1.00  0.00     0.036 A 
ATOM     16  N   UNL A   1      33.634  22.298  23.827  1.00  0.00    -0.169 NA
ATOM     17  C   UNL A   1      32.877  22.699  26.500  1.00  0.00     0.075 A 
ATOM     18  C   UNL A   1      33.421  23.829  25.712  1.00  0.00     0.267 A 
ATOM     19  O   UNL A   1      33.524  24.926  26.255  1.00  0.00    -0.268 OA
BRANCH  14  20
ATOM     20  C   UNL A   1      33.088  19.986  24.030  1.00  0.00     0.006 A 
ATOM     21  C   UNL A   1      33.822  17.702  24.237  1.00  0.00     0.119 A 
ATOM     22  C   UNL A   1      33.056  17.380  23.112  1.00  0.00     0.046 A 
ATOM     23  C   UNL A   1      33.853  19.017  24.686  1.00  0.00     0.056 A 
ATOM     24  C   UNL A   1      32.300  18.358  22.456  1.00  0.00     0.005 A 
ATOM     25  C   UNL A   1      32.310  19.673  22.915  1.00  0.00     0.011 A 
BRANCH  21  26
ATOM     26  O   UNL A   1      34.516  16.668  24.802  1.00  0.00    -0.497 OA
ATOM     27  C   UNL A   1      33.721  15.600  25.312  1.00  0.00     0.278 C 
ENDBRANCH  21  26
ENDBRANCH  14  20
ENDBRANCH  12  13
ENDBRANCH   9  12
ENDBRANCH   7   8
BRANCH   7  28
ATOM     28  C   UNL A   1      30.864  27.372  24.275  1.00  0.00     0.015 C 
ATOM     29  C   UNL A   1      30.012  27.554  23.014  1.00  0.00     0.010 C 
ATOM     30  C   UNL A   1      30.224  26.266  25.129  1.00  0.00     0.010 C 
ENDBRANCH   7  28
ENDBRANCH   4   7
ENDBRANCH   2   3
ENDBRANCH   1   2
BRANCH   1  31
ATOM     31  C   UNL A   1      32.748  30.360  27.168  1.00  0.00     0.002 C 
BRANCH  31  32
ATOM     32  C   UNL A   1      33.949  31.151  27.700  1.00  0.00     0.002 C 
BRANCH  32  33
ATOM     33  C   UNL A   1      33.854  32.672  27.560  1.00  0.00     0.021 C 
BRANCH  33  34
ATOM     34  C   UNL A   1      32.444  33.249  27.568  1.00  0.00     0.116 C 
BRANCH  34  35
ATOM     35  N   UNL A   1      32.423  34.653  27.941  1.00  0.00    -0.352 N 
ATOM     36  C   UNL A   1      33.160  35.340  28.870  1.00  0.00     0.251 C 
ATOM     37  H   UNL A   1      31.772  35.200  27.445  1.00  0.00     0.163 HD
ATOM     38  O   UNL A   1      32.857  36.499  29.143  1.00  0.00    -0.269 OA
BRANCH  36  39
ATOM     39  C   UNL A   1      34.301  34.704  29.569  1.00  0.00     0.039 A 
ATOM     40  C   UNL A   1      34.055  34.051  30.781  1.00  0.00     0.014 A 
ATOM     41  C   UNL A   1      35.607  34.777  29.075  1.00  0.00     0.014 A 
ATOM     42  C   UNL A   1      35.101  33.430  31.466  1.00  0.00     0.010 A 
ATOM     43  C   UNL A   1      36.636  34.093  29.720  1.00  0.00     0.010 A 
ATOM     44  C   UNL A   1      36.397  33.419  30.925  1.00  0.00    -0.014 A 
BRANCH  44  45
ATOM     45  C   UNL A   1      37.497  32.696  31.615  1.00  0.00     0.031 A 
ATOM     46  C   UNL A   1      38.170  31.521  30.962  1.00  0.00     0.074 A 
ATOM     47  C   UNL A   1      37.866  33.080  32.852  1.00  0.00     0.049 A 
ATOM     48  N   UNL A   1      39.146  30.771  31.412  1.00  0.00    -0.248 NA
ATOM     49  C   UNL A   1      37.667  31.118  29.640  1.00  0.00     0.031 C 
ATOM     50  C   UNL A   1      37.250  34.165  33.617  1.00  0.00     0.029 A 
ATOM     51  N   UNL A   1      38.845  32.601  33.685  1.00  0.00    -0.354 N 
ATOM     52  C   UNL A   1      39.365  29.808  30.435  1.00  0.00     0.074 A 
ATOM     53  C   UNL A   1      38.386  30.032  29.394  1.00  0.00     0.031 C 
ATOM     54  C   UNL A   1      37.886  34.290  34.793  1.00  0.00     0.029 A 
ATOM     55  C   UNL A   1      38.932  33.276  34.879  1.00  0.00     0.049 A 
ATOM     56  H   UNL A   1      39.431  31.845  33.451  1.00  0.00     0.167 HD
ATOM     57  C   UNL A   1      40.311  28.838  30.400  1.00  0.00     0.037 A 
ATOM     58  C   UNL A   1      39.762  33.098  35.923  1.00  0.00     0.037 A 
ATOM     59  C   UNL A   1      41.298  28.629  31.428  1.00  0.00     0.049 A 
ATOM     60  C   UNL A   1      40.812  32.024  35.852  1.00  0.00     0.074 A 
ATOM     61  C   UNL A   1      42.338  27.717  31.454  1.00  0.00     0.029 A 
ATOM     62  N   UNL A   1      41.362  29.341  32.616  1.00  0.00    -0.354 N 
ATOM     63  N   UNL A   1      41.060  31.172  34.887  1.00  0.00    -0.248 NA
ATOM     64  C   UNL A   1      41.704  31.896  37.012  1.00  0.00     0.031 C 
ATOM     65  C   UNL A   1      43.006  27.848  32.677  1.00  0.00     0.029 A 
ATOM     66  C   UNL A   1      42.411  28.874  33.393  1.00  0.00     0.049 A 
ATOM     67  H   UNL A   1      40.753  30.071  32.871  1.00  0.00     0.167 HD
ATOM     68  C   UNL A   1      42.147  30.421  35.313  1.00  0.00     0.074 A 
ATOM     69  C   UNL A   1      42.526  30.936  36.612  1.00  0.00     0.031 C 
ATOM     70  C   UNL A   1      42.772  29.393  34.687  1.00  0.00     0.037 A 
BRANCH  57  71
ATOM     71  C   UNL A   1      40.330  27.931  29.202  1.00  0.00     0.064 A 
ATOM     72  C   UNL A   1      39.551  26.765  29.153  1.00  0.00     0.173 A 
ATOM     73  C   UNL A   1      41.105  28.250  28.077  1.00  0.00     0.173 A 
ATOM     74  F   UNL A   1      38.801  26.409  30.207  1.00  0.00    -0.203 F 
ATOM     75  C   UNL A   1      39.570  25.936  28.034  1.00  0.00     0.198 A 
ATOM     76  C   UNL A   1      41.099  27.435  26.948  1.00  0.00     0.198 A 
ATOM     77  F   UNL A   1      41.862  29.356  28.068  1.00  0.00    -0.203 F 
ATOM     78  F   UNL A   1      38.854  24.803  28.029  1.00  0.00    -0.200 F 
ATOM     79  C   UNL A   1      40.338  26.275  26.930  1.00  0.00     0.200 A 
ATOM     80  F   UNL A   1      41.830  27.770  25.877  1.00  0.00    -0.200 F 
ATOM     81  F   UNL A   1      40.349  25.481  25.851  1.00  0.00    -0.200 F 
ENDBRANCH  57  71
BRANCH  58  82
ATOM     82  C   UNL A   1      39.657  33.983  37.112  1.00  0.00     0.064 A 
ATOM     83  C   UNL A   1      40.322  35.217  37.151  1.00  0.00     0.173 A 
ATOM     84  C   UNL A   1      38.894  33.616  38.230  1.00  0.00     0.173 A 
ATOM     85  F   UNL A   1      41.079  35.602  36.113  1.00  0.00    -0.203 F 
ATOM     86  C   UNL A   1      40.244  36.041  38.271  1.00  0.00     0.198 A 
ATOM     87  C   UNL A   1      38.794  34.454  39.338  1.00  0.00     0.198 A 
ATOM     88  F   UNL A   1      38.233  32.450  38.240  1.00  0.00    -0.203 F 
ATOM     89  F   UNL A   1      40.926  37.195  38.301  1.00  0.00    -0.200 F 
ATOM     90  C   UNL A   1      39.476  35.662  39.362  1.00  0.00     0.200 A 
ATOM     91  F   UNL A   1      38.038  34.092  40.384  1.00  0.00    -0.200 F 
ATOM     92  F   UNL A   1      39.397  36.457  40.437  1.00  0.00    -0.200 F 
ENDBRANCH  58  82
BRANCH  70  93
ATOM     93  C   UNL A   1      43.941  28.773  35.397  1.00  0.00     0.064 A 
ATOM     94  C   UNL A   1      43.775  27.702  36.287  1.00  0.00     0.173 A 
ATOM     95  C   UNL A   1      45.243  29.249  35.176  1.00  0.00     0.173 A 
ATOM     96  F   UNL A   1      42.549  27.222  36.545  1.00  0.00    -0.203 F 
ATOM     97  C   UNL A   1      44.866  27.152  36.957  1.00  0.00     0.198 A 
ATOM     98  C   UNL A   1      46.334  28.676  35.823  1.00  0.00     0.198 A 
ATOM     99  F   UNL A   1      45.456  30.267  34.329  1.00  0.00    -0.203 F 
ATOM    100  F   UNL A   1      44.676  26.169  37.847  1.00  0.00    -0.200 F 
ATOM    101  C   UNL A   1      46.143  27.636  36.720  1.00  0.00     0.200 A 
ATOM    102  F   UNL A   1      47.569  29.136  35.584  1.00  0.00    -0.200 F 
ATOM    103  F   UNL A   1      47.191  27.107  37.366  1.00  0.00    -0.200 F 
ENDBRANCH  70  93
ENDBRANCH  44  45
ENDBRANCH  36  39
ENDBRANCH  34  35
ENDBRANCH  33  34
ENDBRANCH  32  33
ENDBRANCH  31  32
ENDBRANCH   1  31
TORSDOF 19
ENDMDL
MODEL 2
REMARK VINA RESULT:     -12.2      1.923      4.557
REMARK SMILES COc1cccc(-c2ccc(=O)n(CC(=O)N[C@@H](C(=O)NCCCCCCNC(=O)c3ccc(-c4c5nc(c(-c6c(F)c(F)c(F)c(F)c6F)c6ccc([nH]6)c(-c6c(F)c(F)c(F)c(F)c6F)c6nc(c(-c7c(F)c(F)c(F)c(F)c7F)c7ccc4[nH]7)C=C6)C=C5)cc3)C(C)C)n2)c1
REMARK SMILES IDX 23 1 22 2 21 3 19 4 20 5 18 7 17 8 15 9 16 10 14 12 13 13
REMARK SMILES IDX 8 14 9 15 97 16 10 17 11 18 12 19 7 20 3 21 4 22 98 23 5 24
REMARK SMILES IDX 6 25 2 26 1 27 94 28 95 29 96 30 24 31 25 32 26 33 27 34
REMARK SMILES IDX 28 35 29 36 30 38 31 39 32 40 93 41 33 42 92 43 34 44 35 45
REMARK SMILES IDX 36 46 86 47 37 48 91 49 85 50 87 51 38 52 90 53 84 54 83 55
REMARK SMILES IDX 39 57 71 58 51 59 70 60 52 61 55 62 69 63 88 64 53 65 54 66
REMARK SMILES IDX 68 68 89 69 56 70 40 71 41 72 49 73 42 74 43 75 47 76 50 77
REMARK SMILES IDX 44 78 45 79 48 80 46 81 72 82 73 83 81 84 74 85 75 86 79 87
REMARK SMILES IDX 82 88 76 89 77 90 80 91 78 92 57 93 58 94 66 95 59 96 60 97
REMARK SMILES IDX 64 98 67 99 61 100 62 101 65 102 63 103
REMARK H PARENT 21 6 17 11 28 37 87 56 55 67
REMARK Flexibility Score: inf
ROOT
ATOM      1  C   UNL A   1      34.321  28.751  26.990  1.00  0.00     0.021 C 
ENDROOT
BRANCH   1   2
ATOM      2  C   UNL A   1      33.787  27.654  26.075  1.00  0.00     0.116 C 
BRANCH   2   3
ATOM      3  N   UNL A   1      32.412  27.311  26.360  1.00  0.00    -0.354 N 
ATOM      4  C   UNL A   1      31.742  26.136  26.157  1.00  0.00     0.242 C 
ATOM      5  O   UNL A   1      30.605  26.073  26.632  1.00  0.00    -0.273 OA
ATOM      6  H   UNL A   1      31.877  28.033  26.762  1.00  0.00     0.163 HD
BRANCH   4   7
ATOM      7  C   UNL A   1      32.435  24.912  25.475  1.00  0.00     0.173 C 
BRANCH   7   8
ATOM      8  N   UNL A   1      31.436  24.137  24.733  1.00  0.00    -0.342 N 
ATOM      9  C   UNL A   1      31.233  24.004  23.387  1.00  0.00     0.242 C 
ATOM     10  O   UNL A   1      30.304  23.270  23.037  1.00  0.00    -0.273 OA
ATOM     11  H   UNL A   1      30.809  23.627  25.296  1.00  0.00     0.164 HD
BRANCH   9  12
ATOM     12  C   UNL A   1      32.161  24.653  22.349  1.00  0.00     0.248 C 
BRANCH  12  13
ATOM     13  N   UNL A   1      32.215  26.115  22.367  1.00  0.00    -0.220 N 
ATOM     14  C   UNL A   1      31.024  28.065  22.455  1.00  0.00     0.091 A 
ATOM     15  C   UNL A   1      32.235  28.900  22.443  1.00  0.00     0.036 A 
ATOM     16  N   UNL A   1      31.004  26.773  22.428  1.00  0.00    -0.169 NA
ATOM     17  C   UNL A   1      33.394  28.244  22.482  1.00  0.00     0.075 A 
ATOM     18  C   UNL A   1      33.441  26.764  22.441  1.00  0.00     0.267 A 
ATOM     19  O   UNL A   1      34.539  26.213  22.429  1.00  0.00    -0.268 OA
BRANCH  14  20
ATOM     20  C   UNL A   1      29.763  28.803  22.583  1.00  0.00     0.006 A 
ATOM     21  C   UNL A   1      28.588  30.876  22.241  1.00  0.00     0.119 A 
ATOM     22  C   UNL A   1      27.441  30.288  22.782  1.00  0.00     0.046 A 
ATOM     23  C   UNL A   1      29.761  30.135  22.160  1.00  0.00     0.056 A 
ATOM     24  C   UNL A   1      27.454  28.955  23.212  1.00  0.00     0.005 A 
ATOM     25  C   UNL A   1      28.621  28.201  23.113  1.00  0.00     0.011 A 
BRANCH  21  26
ATOM     26  O   UNL A   1      28.460  32.180  21.848  1.00  0.00    -0.497 OA
ATOM     27  C   UNL A   1      27.937  32.378  20.536  1.00  0.00     0.278 C 
ENDBRANCH  21  26
ENDBRANCH  14  20
ENDBRANCH  12  13
ENDBRANCH   9  12
ENDBRANCH   7   8
BRANCH   7  28
ATOM     28  C   UNL A   1      33.181  24.036  26.523  1.00  0.00     0.015 C 
ATOM     29  C   UNL A   1      32.540  22.662  26.747  1.00  0.00     0.010 C 
ATOM     30  C   UNL A   1      34.645  23.820  26.110  1.00  0.00     0.010 C 
ENDBRANCH   7  28
ENDBRANCH   4   7
ENDBRANCH   2   3
ENDBRANCH   1   2
BRANCH   1  31
ATOM     31  C   UNL A   1      33.423  29.988  27.072  1.00  0.00     0.002 C 
BRANCH  31  32
ATOM     32  C   UNL A   1      34.015  31.176  27.840  1.00  0.00     0.002 C 
BRANCH  32  33
ATOM     33  C   UNL A   1      33.704  32.558  27.260  1.00  0.00     0.021 C 
BRANCH  33  34
ATOM     34  C   UNL A   1      32.321  33.113  27.581  1.00  0.00     0.116 C 
BRANCH  34  35
ATOM     35  N   UNL A   1      32.350  34.537  27.867  1.00  0.00    -0.352 N 
ATOM     36  C   UNL A   1      33.130  35.257  28.735  1.00  0.00     0.251 C 
ATOM     37  H   UNL A   1      31.703  35.073  27.353  1.00  0.00     0.163 HD
ATOM     38  O   UNL A   1      32.866  36.439  28.942  1.00  0.00    -0.269 OA
BRANCH  36  39
ATOM     39  C   UNL A   1      34.268  34.631  29.445  1.00  0.00     0.039 A 
ATOM     40  C   UNL A   1      34.013  33.964  30.648  1.00  0.00     0.014 A 
ATOM     41  C   UNL A   1      35.580  34.725  28.971  1.00  0.00     0.014 A 
ATOM     42  C   UNL A   1      35.058  33.352  31.344  1.00  0.00     0.010 A 
ATOM     43  C   UNL A   1      36.610  34.050  29.626  1.00  0.00     0.010 A 
ATOM     44  C   UNL A   1      36.362  33.363  30.822  1.00  0.00    -0.014 A 
BRANCH  44  45
ATOM     45  C   UNL A   1      37.462  32.649  31.521  1.00  0.00     0.031 A 
ATOM     46  C   UNL A   1      38.153  31.482  30.873  1.00  0.00     0.074 A 
ATOM     47  C   UNL A   1      37.813  33.034  32.764  1.00  0.00     0.049 A 
ATOM     48  N   UNL A   1      39.131  30.741  31.331  1.00  0.00    -0.248 NA
ATOM     49  C   UNL A   1      37.669  31.078  29.544  1.00  0.00     0.031 C 
ATOM     50  C   UNL A   1      37.178  34.110  33.525  1.00  0.00     0.029 A 
ATOM     51  N   UNL A   1      38.787  32.562  33.606  1.00  0.00    -0.354 N 
ATOM     52  C   UNL A   1      39.371  29.783  30.355  1.00  0.00     0.074 A 
ATOM     53  C   UNL A   1      38.401  30.000  29.304  1.00  0.00     0.031 C 
ATOM     54  C   UNL A   1      37.799  34.238  34.707  1.00  0.00     0.029 A 
ATOM     55  C   UNL A   1      38.854  33.234  34.802  1.00  0.00     0.049 A 
ATOM     56  H   UNL A   1      39.384  31.812  33.376  1.00  0.00     0.167 HD
ATOM     57  C   UNL A   1      40.328  28.823  30.327  1.00  0.00     0.037 A 
ATOM     58  C   UNL A   1      39.675  33.062  35.855  1.00  0.00     0.037 A 
ATOM     59  C   UNL A   1      41.305  28.621  31.366  1.00  0.00     0.049 A 
ATOM     60  C   UNL A   1      40.736  31.999  35.793  1.00  0.00     0.074 A 
ATOM     61  C   UNL A   1      42.354  27.719  31.401  1.00  0.00     0.029 A 
ATOM     62  N   UNL A   1      41.349  29.330  32.556  1.00  0.00    -0.354 N 
ATOM     63  N   UNL A   1      41.004  31.152  34.828  1.00  0.00    -0.248 NA
ATOM     64  C   UNL A   1      41.617  31.877  36.962  1.00  0.00     0.031 C 
ATOM     65  C   UNL A   1      43.007  27.853  32.632  1.00  0.00     0.029 A 
ATOM     66  C   UNL A   1      42.394  28.872  33.343  1.00  0.00     0.049 A 
ATOM     67  H   UNL A   1      40.730  30.054  32.806  1.00  0.00     0.167 HD
ATOM     68  C   UNL A   1      42.093  30.411  35.265  1.00  0.00     0.074 A 
ATOM     69  C   UNL A   1      42.453  30.926  36.570  1.00  0.00     0.031 C 
ATOM     70  C   UNL A   1      42.736  29.390  34.643  1.00  0.00     0.037 A 
BRANCH  57  71
ATOM     71  C   UNL A   1      40.369  27.919  29.128  1.00  0.00     0.064 A 
ATOM     72  C   UNL A   1      39.617  26.735  29.075  1.00  0.00     0.173 A 
ATOM     73  C   UNL A   1      41.137  28.258  28.004  1.00  0.00     0.173 A 
ATOM     74  F   UNL A   1      38.874  26.359  30.127  1.00  0.00    -0.203 F 
ATOM     75  C   UNL A   1      39.657  25.910  27.954  1.00  0.00     0.198 A 
ATOM     76  C   UNL A   1      41.150  27.446  26.873  1.00  0.00     0.198 A 
ATOM     77  F   UNL A   1      41.868  29.383  27.998  1.00  0.00    -0.203 F 
ATOM     78  F   UNL A   1      38.967  24.760  27.946  1.00  0.00    -0.200 F 
ATOM     79  C   UNL A   1      40.417  26.269  26.852  1.00  0.00     0.200 A 
ATOM     80  F   UNL A   1      41.874  27.801  25.803  1.00  0.00    -0.200 F 
ATOM     81  F   UNL A   1      40.448  25.478  25.771  1.00  0.00    -0.200 F 
ENDBRANCH  57  71
BRANCH  58  82
ATOM     82  C   UNL A   1      39.548  33.943  37.045  1.00  0.00     0.064 A 
ATOM     83  C   UNL A   1      40.173  35.197  37.081  1.00  0.00     0.173 A 
ATOM     84  C   UNL A   1      38.803  33.551  38.167  1.00  0.00     0.173 A 
ATOM     85  F   UNL A   1      40.911  35.607  36.040  1.00  0.00    -0.203 F 
ATOM     86  C   UNL A   1      40.075  36.018  38.202  1.00  0.00     0.198 A 
ATOM     87  C   UNL A   1      38.683  34.385  39.276  1.00  0.00     0.198 A 
ATOM     88  F   UNL A   1      38.180  32.364  38.180  1.00  0.00    -0.203 F 
ATOM     89  F   UNL A   1      40.719  37.193  38.229  1.00  0.00    -0.200 F 
ATOM     90  C   UNL A   1      39.325  35.614  39.297  1.00  0.00     0.200 A 
ATOM     91  F   UNL A   1      37.945  33.999  40.326  1.00  0.00    -0.200 F 
ATOM     92  F   UNL A   1      39.227  36.406  40.373  1.00  0.00    -0.200 F 
ENDBRANCH  58  82
BRANCH  70  93
ATOM     93  C   UNL A   1      43.902  28.781  35.364  1.00  0.00     0.064 A 
ATOM     94  C   UNL A   1      45.213  29.235  35.154  1.00  0.00     0.173 A 
ATOM     95  C   UNL A   1      43.707  27.738  36.283  1.00  0.00     0.173 A 
ATOM     96  F   UNL A   1      45.454  30.218  34.274  1.00  0.00    -0.203 F 
ATOM     97  C   UNL A   1      46.289  28.644  35.813  1.00  0.00     0.198 A 
ATOM     98  C   UNL A   1      44.781  27.171  36.962  1.00  0.00     0.198 A 
ATOM     99  F   UNL A   1      42.473  27.272  36.524  1.00  0.00    -0.203 F 
ATOM    100  F   UNL A   1      47.538  29.055  35.553  1.00  0.00    -0.200 F 
ATOM    101  C   UNL A   1      46.072  27.618  36.719  1.00  0.00     0.200 A 
ATOM    102  F   UNL A   1      44.569  26.188  37.846  1.00  0.00    -0.200 F 
ATOM    103  F   UNL A   1      47.108  27.049  37.350  1.00  0.00    -0.200 F 
ENDBRANCH  70  93
ENDBRANCH  44  45
ENDBRANCH  36  39
ENDBRANCH  34  35
ENDBRANCH  33  34
ENDBRANCH  32  33
ENDBRANCH  31  32
ENDBRANCH   1  31
TORSDOF 19
ENDMDL
MODEL 3
REMARK VINA RESULT:     -11.8      0.849      2.104
REMARK SMILES COc1cccc(-c2ccc(=O)n(CC(=O)N[C@@H](C(=O)NCCCCCCNC(=O)c3ccc(-c4c5nc(c(-c6c(F)c(F)c(F)c(F)c6F)c6ccc([nH]6)c(-c6c(F)c(F)c(F)c(F)c6F)c6nc(c(-c7c(F)c(F)c(F)c(F)c7F)c7ccc4[nH]7)C=C6)C=C5)cc3)C(C)C)n2)c1
REMARK SMILES IDX 23 1 22 2 21 3 19 4 20 5 18 7 17 8 15 9 16 10 14 12 13 13
REMARK SMILES IDX 8 14 9 15 97 16 10 17 11 18 12 19 7 20 3 21 4 22 98 23 5 24
REMARK SMILES IDX 6 25 2 26 1 27 94 28 95 29 96 30 24 31 25 32 26 33 27 34
REMARK SMILES IDX 28 35 29 36 30 38 31 39 32 40 93 41 33 42 92 43 34 44 35 45
REMARK SMILES IDX 36 46 86 47 37 48 91 49 85 50 87 51 38 52 90 53 84 54 83 55
REMARK SMILES IDX 39 57 71 58 51 59 70 60 52 61 55 62 69 63 88 64 53 65 54 66
REMARK SMILES IDX 68 68 89 69 56 70 40 71 41 72 49 73 42 74 43 75 47 76 50 77
REMARK SMILES IDX 44 78 45 79 48 80 46 81 72 82 73 83 81 84 74 85 75 86 79 87
REMARK SMILES IDX 82 88 76 89 77 90 80 91 78 92 57 93 58 94 66 95 59 96 60 97
REMARK SMILES IDX 64 98 67 99 61 100 62 101 65 102 63 103
REMARK H PARENT 21 6 17 11 28 37 87 56 55 67
REMARK Flexibility Score: inf
ROOT
ATOM      1  C   UNL A   1      34.137  28.867  27.367  1.00  0.00     0.021 C 
ENDROOT
BRANCH   1   2
ATOM      2  C   UNL A   1      33.348  27.696  26.790  1.00  0.00     0.116 C 
BRANCH   2   3
ATOM      3  N   UNL A   1      33.732  27.380  25.433  1.00  0.00    -0.354 N 
ATOM      4  C   UNL A   1      32.974  26.920  24.392  1.00  0.00     0.242 C 
ATOM      5  O   UNL A   1      33.533  26.875  23.294  1.00  0.00    -0.273 OA
ATOM      6  H   UNL A   1      34.685  27.517  25.227  1.00  0.00     0.163 HD
BRANCH   4   7
ATOM      7  C   UNL A   1      31.455  26.598  24.573  1.00  0.00     0.173 C 
BRANCH   7   8
ATOM      8  N   UNL A   1      31.101  25.437  23.751  1.00  0.00    -0.342 N 
ATOM      9  C   UNL A   1      31.189  24.098  24.016  1.00  0.00     0.242 C 
ATOM     10  O   UNL A   1      30.808  23.330  23.127  1.00  0.00    -0.273 OA
ATOM     11  H   UNL A   1      30.740  25.657  22.861  1.00  0.00     0.164 HD
BRANCH   9  12
ATOM     12  C   UNL A   1      31.646  23.561  25.381  1.00  0.00     0.248 C 
BRANCH  12  13
ATOM     13  N   UNL A   1      32.821  22.689  25.362  1.00  0.00    -0.220 N 
ATOM     14  C   UNL A   1      33.656  20.628  24.831  1.00  0.00     0.091 A 
ATOM     15  C   UNL A   1      35.019  20.980  25.259  1.00  0.00     0.036 A 
ATOM     16  N   UNL A   1      32.632  21.415  24.867  1.00  0.00    -0.169 NA
ATOM     17  C   UNL A   1      35.200  22.244  25.641  1.00  0.00     0.075 A 
ATOM     18  C   UNL A   1      34.066  23.193  25.717  1.00  0.00     0.267 A 
ATOM     19  O   UNL A   1      34.281  24.332  26.125  1.00  0.00    -0.268 OA
BRANCH  14  20
ATOM     20  C   UNL A   1      33.514  19.286  24.255  1.00  0.00     0.006 A 
ATOM     21  C   UNL A   1      34.266  16.999  24.243  1.00  0.00     0.119 A 
ATOM     22  C   UNL A   1      33.335  16.724  23.236  1.00  0.00     0.046 A 
ATOM     23  C   UNL A   1      34.369  18.293  24.740  1.00  0.00     0.056 A 
ATOM     24  C   UNL A   1      32.488  17.727  22.749  1.00  0.00     0.005 A 
ATOM     25  C   UNL A   1      32.573  19.020  23.260  1.00  0.00     0.011 A 
BRANCH  21  26
ATOM     26  O   UNL A   1      35.036  15.944  24.646  1.00  0.00    -0.497 OA
ATOM     27  C   UNL A   1      35.902  16.202  25.750  1.00  0.00     0.278 C 
ENDBRANCH  21  26
ENDBRANCH  14  20
ENDBRANCH  12  13
ENDBRANCH   9  12
ENDBRANCH   7   8
BRANCH   7  28
ATOM     28  C   UNL A   1      30.575  27.835  24.231  1.00  0.00     0.015 C 
ATOM     29  C   UNL A   1      31.320  29.171  24.339  1.00  0.00     0.010 C 
ATOM     30  C   UNL A   1      30.003  27.721  22.810  1.00  0.00     0.010 C 
ENDBRANCH   7  28
ENDBRANCH   4   7
ENDBRANCH   2   3
ENDBRANCH   1   2
BRANCH   1  31
ATOM     31  C   UNL A   1      33.437  30.221  27.225  1.00  0.00     0.002 C 
BRANCH  31  32
ATOM     32  C   UNL A   1      34.199  31.416  27.813  1.00  0.00     0.002 C 
BRANCH  32  33
ATOM     33  C   UNL A   1      33.813  32.786  27.252  1.00  0.00     0.021 C 
BRANCH  33  34
ATOM     34  C   UNL A   1      32.414  33.276  27.607  1.00  0.00     0.116 C 
BRANCH  34  35
ATOM     35  N   UNL A   1      32.401  34.675  27.999  1.00  0.00    -0.352 N 
ATOM     36  C   UNL A   1      33.145  35.346  28.936  1.00  0.00     0.251 C 
ATOM     37  H   UNL A   1      31.752  35.232  27.513  1.00  0.00     0.163 HD
ATOM     38  O   UNL A   1      32.848  36.502  29.225  1.00  0.00    -0.269 OA
BRANCH  36  39
ATOM     39  C   UNL A   1      34.284  34.694  29.622  1.00  0.00     0.039 A 
ATOM     40  C   UNL A   1      34.028  33.973  30.793  1.00  0.00     0.014 A 
ATOM     41  C   UNL A   1      35.598  34.818  29.159  1.00  0.00     0.014 A 
ATOM     42  C   UNL A   1      35.073  33.336  31.465  1.00  0.00     0.010 A 
ATOM     43  C   UNL A   1      36.628  34.119  29.787  1.00  0.00     0.010 A 
ATOM     44  C   UNL A   1      36.379  33.377  30.950  1.00  0.00    -0.014 A 
BRANCH  44  45
ATOM     45  C   UNL A   1      37.481  32.639  31.622  1.00  0.00     0.031 A 
ATOM     46  C   UNL A   1      38.155  31.481  30.940  1.00  0.00     0.074 A 
ATOM     47  C   UNL A   1      37.849  32.994  32.868  1.00  0.00     0.049 A 
ATOM     48  N   UNL A   1      39.131  30.722  31.372  1.00  0.00    -0.248 NA
ATOM     49  C   UNL A   1      37.652  31.110  29.609  1.00  0.00     0.031 C 
ATOM     50  C   UNL A   1      37.232  34.059  33.659  1.00  0.00     0.029 A 
ATOM     51  N   UNL A   1      38.828  32.495  33.689  1.00  0.00    -0.354 N 
ATOM     52  C   UNL A   1      39.351  29.783  30.373  1.00  0.00     0.074 A 
ATOM     53  C   UNL A   1      38.372  30.031  29.337  1.00  0.00     0.031 C 
ATOM     54  C   UNL A   1      37.867  34.156  34.837  1.00  0.00     0.029 A 
ATOM     55  C   UNL A   1      38.914  33.141  34.899  1.00  0.00     0.049 A 
ATOM     56  H   UNL A   1      39.415  31.746  33.436  1.00  0.00     0.167 HD
ATOM     57  C   UNL A   1      40.299  28.815  30.313  1.00  0.00     0.037 A 
ATOM     58  C   UNL A   1      39.745  32.940  35.938  1.00  0.00     0.037 A 
ATOM     59  C   UNL A   1      41.286  28.582  31.336  1.00  0.00     0.049 A 
ATOM     60  C   UNL A   1      40.796  31.869  35.841  1.00  0.00     0.074 A 
ATOM     61  C   UNL A   1      42.327  27.671  31.340  1.00  0.00     0.029 A 
ATOM     62  N   UNL A   1      41.349  29.265  32.541  1.00  0.00    -0.354 N 
ATOM     63  N   UNL A   1      41.045  31.040  34.856  1.00  0.00    -0.248 NA
ATOM     64  C   UNL A   1      41.688  31.714  36.998  1.00  0.00     0.031 C 
ATOM     65  C   UNL A   1      42.995  27.773  32.566  1.00  0.00     0.029 A 
ATOM     66  C   UNL A   1      42.399  28.781  33.307  1.00  0.00     0.049 A 
ATOM     67  H   UNL A   1      40.739  29.989  32.814  1.00  0.00     0.167 HD
ATOM     68  C   UNL A   1      42.133  30.281  35.264  1.00  0.00     0.074 A 
ATOM     69  C   UNL A   1      42.512  30.764  36.575  1.00  0.00     0.031 C 
ATOM     70  C   UNL A   1      42.759  29.269  34.613  1.00  0.00     0.037 A 
BRANCH  57  71
ATOM     71  C   UNL A   1      40.319  27.938  29.095  1.00  0.00     0.064 A 
ATOM     72  C   UNL A   1      41.051  28.288  27.950  1.00  0.00     0.173 A 
ATOM     73  C   UNL A   1      39.629  26.716  29.083  1.00  0.00     0.173 A 
ATOM     74  F   UNL A   1      41.719  29.450  27.905  1.00  0.00    -0.203 F 
ATOM     75  C   UNL A   1      41.069  27.461  26.829  1.00  0.00     0.198 A 
ATOM     76  C   UNL A   1      39.674  25.878  27.972  1.00  0.00     0.198 A 
ATOM     77  F   UNL A   1      38.920  26.329  30.153  1.00  0.00    -0.203 F 
ATOM     78  F   UNL A   1      41.737  27.840  25.730  1.00  0.00    -0.200 F 
ATOM     79  C   UNL A   1      40.386  26.255  26.843  1.00  0.00     0.200 A 
ATOM     80  F   UNL A   1      39.025  24.706  27.992  1.00  0.00    -0.200 F 
ATOM     81  F   UNL A   1      40.411  25.457  25.766  1.00  0.00    -0.200 F 
ENDBRANCH  57  71
BRANCH  58  82
ATOM     82  C   UNL A   1      39.639  33.795  37.148  1.00  0.00     0.064 A 
ATOM     83  C   UNL A   1      38.845  33.408  38.237  1.00  0.00     0.173 A 
ATOM     84  C   UNL A   1      40.327  35.014  37.242  1.00  0.00     0.173 A 
ATOM     85  F   UNL A   1      38.154  32.260  38.185  1.00  0.00    -0.203 F 
ATOM     86  C   UNL A   1      38.726  34.216  39.364  1.00  0.00     0.198 A 
ATOM     87  C   UNL A   1      40.230  35.808  38.383  1.00  0.00     0.198 A 
ATOM     88  F   UNL A   1      41.106  35.427  36.232  1.00  0.00    -0.203 F 
ATOM     89  F   UNL A   1      37.925  33.843  40.372  1.00  0.00    -0.200 F 
ATOM     90  C   UNL A   1      39.423  35.413  39.440  1.00  0.00     0.200 A 
ATOM     91  F   UNL A   1      40.917  36.956  38.459  1.00  0.00    -0.200 F 
ATOM     92  F   UNL A   1      39.313  36.187  40.527  1.00  0.00    -0.200 F 
ENDBRANCH  58  82
BRANCH  70  93
ATOM     93  C   UNL A   1      43.928  28.634  35.308  1.00  0.00     0.064 A 
ATOM     94  C   UNL A   1      45.239  29.093  35.108  1.00  0.00     0.173 A 
ATOM     95  C   UNL A   1      43.736  27.561  36.191  1.00  0.00     0.173 A 
ATOM     96  F   UNL A   1      45.478  30.105  34.260  1.00  0.00    -0.203 F 
ATOM     97  C   UNL A   1      46.317  28.479  35.741  1.00  0.00     0.198 A 
ATOM     98  C   UNL A   1      44.812  26.970  36.846  1.00  0.00     0.198 A 
ATOM     99  F   UNL A   1      42.502  27.088  36.422  1.00  0.00    -0.203 F 
ATOM    100  F   UNL A   1      47.565  28.896  35.490  1.00  0.00    -0.200 F 
ATOM    101  C   UNL A   1      46.102  27.423  36.612  1.00  0.00     0.200 A 
ATOM    102  F   UNL A   1      44.602  25.957  37.698  1.00  0.00    -0.200 F 
ATOM    103  F   UNL A   1      47.141  26.832  37.219  1.00  0.00    -0.200 F 
ENDBRANCH  70  93
ENDBRANCH  44  45
ENDBRANCH  36  39
ENDBRANCH  34  35
ENDBRANCH  33  34
ENDBRANCH  32  33
ENDBRANCH  31  32
ENDBRANCH   1  31
TORSDOF 19
ENDMDL
