MODEL 1
REMARK VINA RESULT:     -14.0      0.000      0.000
REMARK SMILES CC1(C)O[C@H]2C[C@H]3[C@@H]4CCC5=CC(=O)C=C[C@]5(C)[C@@]4(F)[C@H](O)C[C@@]3(C)[C@@]2(C(=O)NCCCCCCNC(=O)c2ccc(-c3c4nc(c(-c5c(F)c(F)c(F)c(F)c5F)c5ccc([nH]5)c(-c5c(F)c(F)c(F)c(F)c5F)c5nc(c(-c6c(F)c(F)c(F)c(F)c6F)c6ccc3[nH]6)C=C5)C=C4)cc2)O1
REMARK SMILES IDX 33 1 32 2 31 3 30 4 29 5 27 6 28 7 26 9 1 10 2 11 3 12 4 13
REMARK SMILES IDX 102 14 5 15 6 16 24 17 7 18 23 19 25 20 8 21 21 22 9 23
REMARK SMILES IDX 19 24 10 25 17 26 20 27 11 28 16 29 18 30 12 31 15 32 13 33
REMARK SMILES IDX 14 34 22 35 34 37 35 38 36 39 37 40 38 42 39 43 40 44 101 45
REMARK SMILES IDX 41 46 100 47 42 48 43 49 44 50 94 51 45 52 99 53 93 54 95 55
REMARK SMILES IDX 46 56 98 57 92 58 91 59 47 61 79 62 59 63 78 64 60 65 63 66
REMARK SMILES IDX 77 67 96 68 61 69 62 70 76 72 97 73 64 74 48 75 49 76 57 77
REMARK SMILES IDX 50 78 51 79 55 80 58 81 52 82 53 83 56 84 54 85 80 86 81 87
REMARK SMILES IDX 89 88 82 89 83 90 87 91 90 92 84 93 85 94 88 95 86 96 65 97
REMARK SMILES IDX 66 98 74 99 67 100 68 101 72 102 75 103 69 104 70 105 73 106
REMARK SMILES IDX 71 107
REMARK H PARENT 29 8 22 36 36 41 95 60 63 71
REMARK Flexibility Score: inf
ROOT
ATOM      1  C   UNL A   1      39.694  21.622  26.545  1.00  0.00     0.002 C 
ENDROOT
BRANCH   1   2
ATOM      2  C   UNL A   1      38.486  21.812  25.616  1.00  0.00     0.002 C 
BRANCH   2   3
ATOM      3  C   UNL A   1      37.703  20.556  25.226  1.00  0.00     0.021 C 
BRANCH   3   4
ATOM      4  C   UNL A   1      36.189  20.667  25.330  1.00  0.00     0.116 C 
BRANCH   4   5
ATOM      5  N   UNL A   1      35.604  21.266  26.509  1.00  0.00    -0.353 N 
ATOM      6  C   UNL A   1      34.596  22.217  26.543  1.00  0.00     0.255 C 
ATOM      7  O   UNL A   1      34.062  22.458  27.627  1.00  0.00    -0.272 OA
ATOM      8  H   UNL A   1      35.959  20.968  27.377  1.00  0.00     0.163 HD
BRANCH   6   9
ATOM      9  C   UNL A   1      34.201  22.981  25.248  1.00  0.00     0.181 C 
ATOM     10  C   UNL A   1      31.188  22.460  23.429  1.00  0.00     0.075 C 
ATOM     11  C   UNL A   1      32.334  21.941  24.306  1.00  0.00     0.164 C 
ATOM     12  C   UNL A   1      31.861  20.719  25.081  1.00  0.00     0.075 C 
ATOM     13  O   UNL A   1      33.416  21.539  23.468  1.00  0.00    -0.344 OA
ATOM     14  O   UNL A   1      32.744  22.984  25.213  1.00  0.00    -0.331 OA
ATOM     15  C   UNL A   1      34.573  22.272  23.878  1.00  0.00     0.164 C 
ATOM     16  C   UNL A   1      34.824  23.434  22.795  1.00  0.00     0.040 C 
ATOM     17  C   UNL A   1      34.862  24.408  24.994  1.00  0.00     0.014 C 
ATOM     18  C   UNL A   1      34.278  24.645  23.560  1.00  0.00     0.008 C 
ATOM     19  C   UNL A   1      34.673  25.679  25.820  1.00  0.00     0.046 C 
ATOM     20  C   UNL A   1      36.417  24.196  25.071  1.00  0.00     0.015 C 
ATOM     21  C   UNL A   1      33.208  25.766  23.282  1.00  0.00     0.035 C 
ATOM     22  C   UNL A   1      33.327  26.355  25.732  1.00  0.00     0.154 C 
ATOM     23  C   UNL A   1      33.063  26.259  21.851  1.00  0.00     0.012 C 
ATOM     24  C   UNL A   1      33.066  26.915  24.308  1.00  0.00     0.152 C 
ATOM     25  C   UNL A   1      31.619  26.764  21.668  1.00  0.00     0.032 C 
ATOM     26  C   UNL A   1      31.634  27.600  24.180  1.00  0.00     0.044 C 
ATOM     27  F   UNL A   1      34.032  27.837  24.013  1.00  0.00    -0.239 F 
ATOM     28  C   UNL A   1      31.153  27.751  22.720  1.00  0.00    -0.053 C 
ATOM     29  C   UNL A   1      31.596  28.975  24.854  1.00  0.00    -0.009 C 
ATOM     30  C   UNL A   1      30.543  26.736  24.901  1.00  0.00     0.024 C 
ATOM     31  C   UNL A   1      30.233  28.684  22.400  1.00  0.00     0.052 C 
ATOM     32  C   UNL A   1      30.689  29.910  24.541  1.00  0.00     0.048 C 
ATOM     33  C   UNL A   1      29.765  29.668  23.410  1.00  0.00     0.178 C 
ATOM     34  O   UNL A   1      28.718  30.273  23.291  1.00  0.00    -0.290 OA
BRANCH  22  35
ATOM     35  O   UNL A   1      33.322  27.343  26.765  1.00  0.00    -0.390 OA
ATOM     36  H   UNL A   1      32.420  27.676  26.890  1.00  0.00     0.211 HD
ENDBRANCH  22  35
ENDBRANCH   6   9
ENDBRANCH   4   5
ENDBRANCH   3   4
ENDBRANCH   2   3
ENDBRANCH   1   2
BRANCH   1  37
ATOM     37  C   UNL A   1      40.963  21.016  25.933  1.00  0.00     0.021 C 
BRANCH  37  38
ATOM     38  C   UNL A   1      42.290  21.506  26.506  1.00  0.00     0.116 C 
BRANCH  38  39
ATOM     39  N   UNL A   1      43.124  22.169  25.518  1.00  0.00    -0.352 N 
ATOM     40  C   UNL A   1      43.434  23.496  25.356  1.00  0.00     0.251 C 
ATOM     41  H   UNL A   1      43.536  21.567  24.857  1.00  0.00     0.163 HD
ATOM     42  O   UNL A   1      44.053  23.857  24.358  1.00  0.00    -0.269 OA
BRANCH  40  43
ATOM     43  C   UNL A   1      43.015  24.503  26.357  1.00  0.00     0.039 A 
ATOM     44  C   UNL A   1      42.010  24.162  27.269  1.00  0.00     0.014 A 
ATOM     45  C   UNL A   1      43.566  25.786  26.378  1.00  0.00     0.014 A 
ATOM     46  C   UNL A   1      41.605  25.082  28.238  1.00  0.00     0.010 A 
ATOM     47  C   UNL A   1      43.211  26.680  27.389  1.00  0.00     0.010 A 
ATOM     48  C   UNL A   1      42.226  26.338  28.329  1.00  0.00    -0.014 A 
BRANCH  48  49
ATOM     49  C   UNL A   1      41.862  27.300  29.402  1.00  0.00     0.031 A 
ATOM     50  C   UNL A   1      42.637  27.337  30.689  1.00  0.00     0.074 A 
ATOM     51  C   UNL A   1      40.792  28.103  29.238  1.00  0.00     0.049 A 
ATOM     52  N   UNL A   1      42.431  28.061  31.762  1.00  0.00    -0.248 NA
ATOM     53  C   UNL A   1      43.784  26.422  30.796  1.00  0.00     0.031 C 
ATOM     54  C   UNL A   1      39.934  28.134  28.052  1.00  0.00     0.029 A 
ATOM     55  N   UNL A   1      40.237  29.041  30.073  1.00  0.00    -0.354 N 
ATOM     56  C   UNL A   1      43.410  27.681  32.669  1.00  0.00     0.074 A 
ATOM     57  C   UNL A   1      44.177  26.624  32.046  1.00  0.00     0.031 C 
ATOM     58  C   UNL A   1      38.976  29.059  28.227  1.00  0.00     0.029 A 
ATOM     59  C   UNL A   1      39.124  29.654  29.551  1.00  0.00     0.049 A 
ATOM     60  H   UNL A   1      40.601  29.252  30.964  1.00  0.00     0.167 HD
ATOM     61  C   UNL A   1      43.662  28.183  33.903  1.00  0.00     0.037 A 
ATOM     62  C   UNL A   1      38.310  30.586  30.083  1.00  0.00     0.037 A 
ATOM     63  C   UNL A   1      42.907  29.246  34.515  1.00  0.00     0.049 A 
ATOM     64  C   UNL A   1      38.598  31.110  31.465  1.00  0.00     0.074 A 
ATOM     65  C   UNL A   1      43.116  29.861  35.736  1.00  0.00     0.029 A 
ATOM     66  N   UNL A   1      41.790  29.847  33.951  1.00  0.00    -0.354 N 
ATOM     67  N   UNL A   1      39.569  30.792  32.285  1.00  0.00    -0.248 NA
ATOM     68  C   UNL A   1      37.679  32.128  31.991  1.00  0.00     0.031 C 
ATOM     69  C   UNL A   1      42.094  30.794  35.938  1.00  0.00     0.029 A 
ATOM     70  C   UNL A   1      41.285  30.807  34.813  1.00  0.00     0.049 A 
ATOM     71  H   UNL A   1      41.413  29.625  33.069  1.00  0.00     0.167 HD
ATOM     72  C   UNL A   1      39.398  31.591  33.408  1.00  0.00     0.074 A 
ATOM     73  C   UNL A   1      38.238  32.421  33.156  1.00  0.00     0.031 C 
ATOM     74  C   UNL A   1      40.135  31.634  34.546  1.00  0.00     0.037 A 
BRANCH  61  75
ATOM     75  C   UNL A   1      44.805  27.588  34.677  1.00  0.00     0.064 A 
ATOM     76  C   UNL A   1      46.105  28.110  34.591  1.00  0.00     0.173 A 
ATOM     77  C   UNL A   1      44.591  26.508  35.547  1.00  0.00     0.173 A 
ATOM     78  F   UNL A   1      46.368  29.136  33.769  1.00  0.00    -0.203 F 
ATOM     79  C   UNL A   1      47.153  27.552  35.321  1.00  0.00     0.198 A 
ATOM     80  C   UNL A   1      45.634  25.975  36.301  1.00  0.00     0.198 A 
ATOM     81  F   UNL A   1      43.366  25.973  35.675  1.00  0.00    -0.203 F 
ATOM     82  F   UNL A   1      48.395  28.033  35.180  1.00  0.00    -0.200 F 
ATOM     83  C   UNL A   1      46.915  26.490  36.180  1.00  0.00     0.200 A 
ATOM     84  F   UNL A   1      45.398  24.958  37.143  1.00  0.00    -0.200 F 
ATOM     85  F   UNL A   1      47.922  25.960  36.888  1.00  0.00    -0.200 F 
ENDBRANCH  61  75
BRANCH  62  86
ATOM     86  C   UNL A   1      37.152  31.098  29.301  1.00  0.00     0.064 A 
ATOM     87  C   UNL A   1      37.168  32.388  28.752  1.00  0.00     0.173 A 
ATOM     88  C   UNL A   1      36.005  30.317  29.098  1.00  0.00     0.173 A 
ATOM     89  F   UNL A   1      38.234  33.180  28.936  1.00  0.00    -0.203 F 
ATOM     90  C   UNL A   1      36.072  32.886  28.051  1.00  0.00     0.198 A 
ATOM     91  C   UNL A   1      34.922  30.805  28.369  1.00  0.00     0.198 A 
ATOM     92  F   UNL A   1      35.939  29.073  29.597  1.00  0.00    -0.203 F 
ATOM     93  F   UNL A   1      36.094  34.140  27.582  1.00  0.00    -0.200 F 
ATOM     94  C   UNL A   1      34.953  32.092  27.855  1.00  0.00     0.200 A 
ATOM     95  F   UNL A   1      33.849  30.029  28.168  1.00  0.00    -0.200 F 
ATOM     96  F   UNL A   1      33.899  32.571  27.179  1.00  0.00    -0.200 F 
ENDBRANCH  62  86
BRANCH  74  97
ATOM     97  C   UNL A   1      39.737  32.640  35.589  1.00  0.00     0.064 A 
ATOM     98  C   UNL A   1      38.831  32.327  36.612  1.00  0.00     0.173 A 
ATOM     99  C   UNL A   1      40.301  33.925  35.583  1.00  0.00     0.173 A 
ATOM    100  F   UNL A   1      38.252  31.118  36.655  1.00  0.00    -0.203 F 
ATOM    101  C   UNL A   1      38.482  33.273  37.574  1.00  0.00     0.198 A 
ATOM    102  C   UNL A   1      39.977  34.857  36.565  1.00  0.00     0.198 A 
ATOM    103  F   UNL A   1      41.179  34.276  34.630  1.00  0.00    -0.203 F 
ATOM    104  F   UNL A   1      37.574  32.968  38.511  1.00  0.00    -0.200 F 
ATOM    105  C   UNL A   1      39.061  34.532  37.555  1.00  0.00     0.200 A 
ATOM    106  F   UNL A   1      40.550  36.068  36.555  1.00  0.00    -0.200 F 
ATOM    107  F   UNL A   1      38.731  35.438  38.486  1.00  0.00    -0.200 F 
ENDBRANCH  74  97
ENDBRANCH  48  49
ENDBRANCH  40  43
ENDBRANCH  38  39
ENDBRANCH  37  38
ENDBRANCH   1  37
TORSDOF 14
ENDMDL
MODEL 2
REMARK VINA RESULT:     -13.8      3.920      5.179
REMARK SMILES CC1(C)O[C@H]2C[C@H]3[C@@H]4CCC5=CC(=O)C=C[C@]5(C)[C@@]4(F)[C@H](O)C[C@@]3(C)[C@@]2(C(=O)NCCCCCCNC(=O)c2ccc(-c3c4nc(c(-c5c(F)c(F)c(F)c(F)c5F)c5ccc([nH]5)c(-c5c(F)c(F)c(F)c(F)c5F)c5nc(c(-c6c(F)c(F)c(F)c(F)c6F)c6ccc3[nH]6)C=C5)C=C4)cc2)O1
REMARK SMILES IDX 33 1 32 2 31 3 30 4 29 5 27 6 28 7 26 9 1 10 2 11 3 12 4 13
REMARK SMILES IDX 102 14 5 15 6 16 24 17 7 18 23 19 25 20 8 21 21 22 9 23
REMARK SMILES IDX 19 24 10 25 17 26 20 27 11 28 16 29 18 30 12 31 15 32 13 33
REMARK SMILES IDX 14 34 22 35 34 37 35 38 36 39 37 40 38 42 39 43 40 44 101 45
REMARK SMILES IDX 41 46 100 47 42 48 43 49 44 50 94 51 45 52 99 53 93 54 95 55
REMARK SMILES IDX 46 56 98 57 92 58 91 59 47 61 79 62 59 63 78 64 60 65 63 66
REMARK SMILES IDX 77 67 96 68 61 69 62 70 76 72 97 73 64 74 48 75 49 76 57 77
REMARK SMILES IDX 50 78 51 79 55 80 58 81 52 82 53 83 56 84 54 85 80 86 81 87
REMARK SMILES IDX 89 88 82 89 83 90 87 91 90 92 84 93 85 94 88 95 86 96 65 97
REMARK SMILES IDX 66 98 74 99 67 100 68 101 72 102 75 103 69 104 70 105 73 106
REMARK SMILES IDX 71 107
REMARK H PARENT 29 8 22 36 36 41 95 60 63 71
REMARK Flexibility Score: inf
ROOT
ATOM      1  C   UNL A   1      39.933  21.225  26.103  1.00  0.00     0.002 C 
ENDROOT
BRANCH   1   2
ATOM      2  C   UNL A   1      38.460  21.588  25.858  1.00  0.00     0.002 C 
BRANCH   2   3
ATOM      3  C   UNL A   1      37.637  20.618  25.009  1.00  0.00     0.021 C 
BRANCH   3   4
ATOM      4  C   UNL A   1      36.134  20.646  25.249  1.00  0.00     0.116 C 
BRANCH   4   5
ATOM      5  N   UNL A   1      35.623  21.282  26.442  1.00  0.00    -0.353 N 
ATOM      6  C   UNL A   1      34.643  22.260  26.506  1.00  0.00     0.255 C 
ATOM      7  O   UNL A   1      34.167  22.535  27.609  1.00  0.00    -0.272 OA
ATOM      8  H   UNL A   1      36.010  20.990  27.299  1.00  0.00     0.163 HD
BRANCH   6   9
ATOM      9  C   UNL A   1      34.206  23.011  25.216  1.00  0.00     0.181 C 
ATOM     10  C   UNL A   1      31.115  22.508  23.528  1.00  0.00     0.075 C 
ATOM     11  C   UNL A   1      32.288  21.985  24.366  1.00  0.00     0.164 C 
ATOM     12  C   UNL A   1      31.829  20.781  25.177  1.00  0.00     0.075 C 
ATOM     13  O   UNL A   1      33.329  21.555  23.492  1.00  0.00    -0.344 OA
ATOM     14  O   UNL A   1      32.749  23.035  25.240  1.00  0.00    -0.331 OA
ATOM     15  C   UNL A   1      34.512  22.277  23.843  1.00  0.00     0.164 C 
ATOM     16  C   UNL A   1      34.735  23.419  22.733  1.00  0.00     0.040 C 
ATOM     17  C   UNL A   1      34.876  24.424  24.915  1.00  0.00     0.014 C 
ATOM     18  C   UNL A   1      34.238  24.649  23.502  1.00  0.00     0.008 C 
ATOM     19  C   UNL A   1      34.739  25.710  25.728  1.00  0.00     0.046 C 
ATOM     20  C   UNL A   1      36.430  24.190  24.932  1.00  0.00     0.015 C 
ATOM     21  C   UNL A   1      33.174  25.782  23.250  1.00  0.00     0.035 C 
ATOM     22  C   UNL A   1      33.400  26.404  25.684  1.00  0.00     0.154 C 
ATOM     23  C   UNL A   1      32.978  26.256  21.819  1.00  0.00     0.012 C 
ATOM     24  C   UNL A   1      33.090  26.947  24.264  1.00  0.00     0.152 C 
ATOM     25  C   UNL A   1      31.535  26.779  21.686  1.00  0.00     0.032 C 
ATOM     26  C   UNL A   1      31.663  27.652  24.183  1.00  0.00     0.044 C 
ATOM     27  F   UNL A   1      34.056  27.850  23.916  1.00  0.00    -0.239 F 
ATOM     28  C   UNL A   1      31.126  27.788  22.741  1.00  0.00    -0.053 C 
ATOM     29  C   UNL A   1      31.672  29.037  24.837  1.00  0.00    -0.009 C 
ATOM     30  C   UNL A   1      30.591  26.814  24.960  1.00  0.00     0.024 C 
ATOM     31  C   UNL A   1      30.207  28.729  22.445  1.00  0.00     0.052 C 
ATOM     32  C   UNL A   1      30.766  29.980  24.546  1.00  0.00     0.048 C 
ATOM     33  C   UNL A   1      29.794  29.735  23.457  1.00  0.00     0.178 C 
ATOM     34  O   UNL A   1      28.752  30.354  23.372  1.00  0.00    -0.290 OA
BRANCH  22  35
ATOM     35  O   UNL A   1      33.451  27.407  26.701  1.00  0.00    -0.390 OA
ATOM     36  H   UNL A   1      32.642  27.368  27.234  1.00  0.00     0.211 HD
ENDBRANCH  22  35
ENDBRANCH   6   9
ENDBRANCH   4   5
ENDBRANCH   3   4
ENDBRANCH   2   3
ENDBRANCH   1   2
BRANCH   1  37
ATOM     37  C   UNL A   1      40.319  19.745  25.999  1.00  0.00     0.021 C 
BRANCH  37  38
ATOM     38  C   UNL A   1      41.669  19.355  26.595  1.00  0.00     0.116 C 
BRANCH  38  39
ATOM     39  N   UNL A   1      42.709  19.200  25.592  1.00  0.00    -0.352 N 
ATOM     40  C   UNL A   1      43.572  20.120  25.052  1.00  0.00     0.251 C 
ATOM     41  H   UNL A   1      42.813  18.285  25.245  1.00  0.00     0.163 HD
ATOM     42  O   UNL A   1      44.286  19.799  24.105  1.00  0.00    -0.269 OA
BRANCH  40  43
ATOM     43  C   UNL A   1      43.641  21.501  25.579  1.00  0.00     0.039 A 
ATOM     44  C   UNL A   1      43.790  21.684  26.959  1.00  0.00     0.014 A 
ATOM     45  C   UNL A   1      43.518  22.612  24.741  1.00  0.00     0.014 A 
ATOM     46  C   UNL A   1      43.878  22.974  27.487  1.00  0.00     0.010 A 
ATOM     47  C   UNL A   1      43.676  23.897  25.259  1.00  0.00     0.010 A 
ATOM     48  C   UNL A   1      43.857  24.092  26.638  1.00  0.00    -0.014 A 
BRANCH  48  49
ATOM     49  C   UNL A   1      44.027  25.468  27.174  1.00  0.00     0.031 A 
ATOM     50  C   UNL A   1      45.401  26.041  27.383  1.00  0.00     0.074 A 
ATOM     51  C   UNL A   1      42.940  26.182  27.527  1.00  0.00     0.049 A 
ATOM     52  N   UNL A   1      45.750  27.194  27.899  1.00  0.00    -0.248 NA
ATOM     53  C   UNL A   1      46.537  25.196  26.985  1.00  0.00     0.031 C 
ATOM     54  C   UNL A   1      41.555  25.723  27.410  1.00  0.00     0.029 A 
ATOM     55  N   UNL A   1      42.828  27.440  28.065  1.00  0.00    -0.354 N 
ATOM     56  C   UNL A   1      47.138  27.207  27.895  1.00  0.00     0.074 A 
ATOM     57  C   UNL A   1      47.570  25.926  27.380  1.00  0.00     0.031 C 
ATOM     58  C   UNL A   1      40.732  26.693  27.841  1.00  0.00     0.029 A 
ATOM     59  C   UNL A   1      41.531  27.824  28.305  1.00  0.00     0.049 A 
ATOM     60  H   UNL A   1      43.605  28.014  28.261  1.00  0.00     0.167 HD
ATOM     61  C   UNL A   1      47.977  28.204  28.266  1.00  0.00     0.037 A 
ATOM     62  C   UNL A   1      41.041  28.956  28.847  1.00  0.00     0.037 A 
ATOM     63  C   UNL A   1      47.543  29.485  28.764  1.00  0.00     0.049 A 
ATOM     64  C   UNL A   1      41.995  30.039  29.273  1.00  0.00     0.074 A 
ATOM     65  C   UNL A   1      48.312  30.579  29.116  1.00  0.00     0.029 A 
ATOM     66  N   UNL A   1      46.219  29.838  28.987  1.00  0.00    -0.354 N 
ATOM     67  N   UNL A   1      43.304  30.066  29.199  1.00  0.00    -0.248 NA
ATOM     68  C   UNL A   1      41.403  31.252  29.852  1.00  0.00     0.031 C 
ATOM     69  C   UNL A   1      47.460  31.575  29.605  1.00  0.00     0.029 A 
ATOM     70  C   UNL A   1      46.154  31.125  29.497  1.00  0.00     0.049 A 
ATOM     71  H   UNL A   1      45.443  29.260  28.809  1.00  0.00     0.167 HD
ATOM     72  C   UNL A   1      43.689  31.307  29.691  1.00  0.00     0.074 A 
ATOM     73  C   UNL A   1      42.472  32.010  30.044  1.00  0.00     0.031 C 
ATOM     74  C   UNL A   1      44.936  31.818  29.836  1.00  0.00     0.037 A 
BRANCH  61  75
ATOM     75  C   UNL A   1      49.454  27.952  28.148  1.00  0.00     0.064 A 
ATOM     76  C   UNL A   1      50.169  28.289  26.989  1.00  0.00     0.173 A 
ATOM     77  C   UNL A   1      50.171  27.405  29.223  1.00  0.00     0.173 A 
ATOM     78  F   UNL A   1      49.533  28.807  25.928  1.00  0.00    -0.203 F 
ATOM     79  C   UNL A   1      51.540  28.056  26.898  1.00  0.00     0.198 A 
ATOM     80  C   UNL A   1      51.548  27.206  29.141  1.00  0.00     0.198 A 
ATOM     81  F   UNL A   1      49.540  27.072  30.360  1.00  0.00    -0.203 F 
ATOM     82  F   UNL A   1      52.191  28.335  25.761  1.00  0.00    -0.200 F 
ATOM     83  C   UNL A   1      52.229  27.522  27.976  1.00  0.00     0.200 A 
ATOM     84  F   UNL A   1      52.215  26.703  30.191  1.00  0.00    -0.200 F 
ATOM     85  F   UNL A   1      53.549  27.306  27.890  1.00  0.00    -0.200 F 
ENDBRANCH  61  75
BRANCH  62  86
ATOM     86  C   UNL A   1      39.572  29.132  29.001  1.00  0.00     0.064 A 
ATOM     87  C   UNL A   1      38.767  29.465  27.903  1.00  0.00     0.173 A 
ATOM     88  C   UNL A   1      38.945  28.983  30.248  1.00  0.00     0.173 A 
ATOM     89  F   UNL A   1      39.321  29.638  26.695  1.00  0.00    -0.203 F 
ATOM     90  C   UNL A   1      37.396  29.668  28.049  1.00  0.00     0.198 A 
ATOM     91  C   UNL A   1      37.569  29.155  30.386  1.00  0.00     0.198 A 
ATOM     92  F   UNL A   1      39.667  28.659  31.330  1.00  0.00    -0.203 F 
ATOM     93  F   UNL A   1      36.659  30.038  26.993  1.00  0.00    -0.200 F 
ATOM     94  C   UNL A   1      36.797  29.507  29.289  1.00  0.00     0.200 A 
ATOM     95  F   UNL A   1      36.992  28.983  31.583  1.00  0.00    -0.200 F 
ATOM     96  F   UNL A   1      35.479  29.701  29.429  1.00  0.00    -0.200 F 
ENDBRANCH  62  86
BRANCH  74  97
ATOM     97  C   UNL A   1      45.051  33.221  30.361  1.00  0.00     0.064 A 
ATOM     98  C   UNL A   1      45.195  33.490  31.730  1.00  0.00     0.173 A 
ATOM     99  C   UNL A   1      45.052  34.309  29.475  1.00  0.00     0.173 A 
ATOM    100  F   UNL A   1      45.185  32.486  32.620  1.00  0.00    -0.203 F 
ATOM    101  C   UNL A   1      45.308  34.798  32.194  1.00  0.00     0.198 A 
ATOM    102  C   UNL A   1      45.200  35.613  29.940  1.00  0.00     0.198 A 
ATOM    103  F   UNL A   1      44.924  34.109  28.154  1.00  0.00    -0.203 F 
ATOM    104  F   UNL A   1      45.392  35.034  33.511  1.00  0.00    -0.200 F 
ATOM    105  C   UNL A   1      45.319  35.857  31.299  1.00  0.00     0.200 A 
ATOM    106  F   UNL A   1      45.228  36.634  29.071  1.00  0.00    -0.200 F 
ATOM    107  F   UNL A   1      45.437  37.115  31.748  1.00  0.00    -0.200 F 
ENDBRANCH  74  97
ENDBRANCH  48  49
ENDBRANCH  40  43
ENDBRANCH  38  39
ENDBRANCH  37  38
ENDBRANCH   1  37
TORSDOF 14
ENDMDL
MODEL 3
REMARK VINA RESULT:     -13.8      4.359      6.216
REMARK SMILES CC1(C)O[C@H]2C[C@H]3[C@@H]4CCC5=CC(=O)C=C[C@]5(C)[C@@]4(F)[C@H](O)C[C@@]3(C)[C@@]2(C(=O)NCCCCCCNC(=O)c2ccc(-c3c4nc(c(-c5c(F)c(F)c(F)c(F)c5F)c5ccc([nH]5)c(-c5c(F)c(F)c(F)c(F)c5F)c5nc(c(-c6c(F)c(F)c(F)c(F)c6F)c6ccc3[nH]6)C=C5)C=C4)cc2)O1
REMARK SMILES IDX 33 1 32 2 31 3 30 4 29 5 27 6 28 7 26 9 1 10 2 11 3 12 4 13
REMARK SMILES IDX 102 14 5 15 6 16 24 17 7 18 23 19 25 20 8 21 21 22 9 23
REMARK SMILES IDX 19 24 10 25 17 26 20 27 11 28 16 29 18 30 12 31 15 32 13 33
REMARK SMILES IDX 14 34 22 35 34 37 35 38 36 39 37 40 38 42 39 43 40 44 101 45
REMARK SMILES IDX 41 46 100 47 42 48 43 49 44 50 94 51 45 52 99 53 93 54 95 55
REMARK SMILES IDX 46 56 98 57 92 58 91 59 47 61 79 62 59 63 78 64 60 65 63 66
REMARK SMILES IDX 77 67 96 68 61 69 62 70 76 72 97 73 64 74 48 75 49 76 57 77
REMARK SMILES IDX 50 78 51 79 55 80 58 81 52 82 53 83 56 84 54 85 80 86 81 87
REMARK SMILES IDX 89 88 82 89 83 90 87 91 90 92 84 93 85 94 88 95 86 96 65 97
REMARK SMILES IDX 66 98 74 99 67 100 68 101 72 102 75 103 69 104 70 105 73 106
REMARK SMILES IDX 71 107
REMARK H PARENT 29 8 22 36 36 41 95 60 63 71
REMARK Flexibility Score: inf
ROOT
ATOM      1  C   UNL A   1      39.693  21.222  26.181  1.00  0.00     0.002 C 
ENDROOT
BRANCH   1   2
ATOM      2  C   UNL A   1      38.310  21.732  25.750  1.00  0.00     0.002 C 
BRANCH   2   3
ATOM      3  C   UNL A   1      37.462  20.798  24.884  1.00  0.00     0.021 C 
BRANCH   3   4
ATOM      4  C   UNL A   1      36.013  20.634  25.318  1.00  0.00     0.116 C 
BRANCH   4   5
ATOM      5  N   UNL A   1      35.548  21.324  26.501  1.00  0.00    -0.353 N 
ATOM      6  C   UNL A   1      34.594  22.328  26.555  1.00  0.00     0.255 C 
ATOM      7  O   UNL A   1      34.155  22.653  27.660  1.00  0.00    -0.272 OA
ATOM      8  H   UNL A   1      35.951  21.052  27.357  1.00  0.00     0.163 HD
BRANCH   6   9
ATOM      9  C   UNL A   1      34.141  23.044  25.251  1.00  0.00     0.181 C 
ATOM     10  C   UNL A   1      31.038  22.481  23.604  1.00  0.00     0.075 C 
ATOM     11  C   UNL A   1      32.221  21.986  24.444  1.00  0.00     0.164 C 
ATOM     12  C   UNL A   1      31.778  20.800  25.289  1.00  0.00     0.075 C 
ATOM     13  O   UNL A   1      33.258  21.540  23.571  1.00  0.00    -0.344 OA
ATOM     14  O   UNL A   1      32.684  23.060  25.288  1.00  0.00    -0.331 OA
ATOM     15  C   UNL A   1      34.439  22.278  23.894  1.00  0.00     0.164 C 
ATOM     16  C   UNL A   1      34.645  23.393  22.754  1.00  0.00     0.040 C 
ATOM     17  C   UNL A   1      34.800  24.453  24.909  1.00  0.00     0.014 C 
ATOM     18  C   UNL A   1      34.148  24.640  23.496  1.00  0.00     0.008 C 
ATOM     19  C   UNL A   1      34.663  25.758  25.691  1.00  0.00     0.046 C 
ATOM     20  C   UNL A   1      36.355  24.229  24.917  1.00  0.00     0.015 C 
ATOM     21  C   UNL A   1      33.075  25.759  23.227  1.00  0.00     0.035 C 
ATOM     22  C   UNL A   1      33.319  26.443  25.642  1.00  0.00     0.154 C 
ATOM     23  C   UNL A   1      32.862  26.196  21.786  1.00  0.00     0.012 C 
ATOM     24  C   UNL A   1      32.992  26.949  24.212  1.00  0.00     0.152 C 
ATOM     25  C   UNL A   1      31.415  26.708  21.654  1.00  0.00     0.032 C 
ATOM     26  C   UNL A   1      31.561  27.643  24.127  1.00  0.00     0.044 C 
ATOM     27  F   UNL A   1      33.949  27.849  23.833  1.00  0.00    -0.239 F 
ATOM     28  C   UNL A   1      31.010  27.740  22.687  1.00  0.00    -0.053 C 
ATOM     29  C   UNL A   1      31.567  29.043  24.746  1.00  0.00    -0.009 C 
ATOM     30  C   UNL A   1      30.501  26.818  24.935  1.00  0.00     0.024 C 
ATOM     31  C   UNL A   1      30.082  28.669  22.376  1.00  0.00     0.052 C 
ATOM     32  C   UNL A   1      30.653  29.974  24.441  1.00  0.00     0.048 C 
ATOM     33  C   UNL A   1      29.673  29.696  23.367  1.00  0.00     0.178 C 
ATOM     34  O   UNL A   1      28.626  30.307  23.276  1.00  0.00    -0.290 OA
BRANCH  22  35
ATOM     35  O   UNL A   1      33.373  27.471  26.634  1.00  0.00    -0.390 OA
ATOM     36  H   UNL A   1      34.289  27.584  26.932  1.00  0.00     0.211 HD
ENDBRANCH  22  35
ENDBRANCH   6   9
ENDBRANCH   4   5
ENDBRANCH   3   4
ENDBRANCH   2   3
ENDBRANCH   1   2
BRANCH   1  37
ATOM     37  C   UNL A   1      39.973  19.723  26.014  1.00  0.00     0.021 C 
BRANCH  37  38
ATOM     38  C   UNL A   1      41.160  19.166  26.796  1.00  0.00     0.116 C 
BRANCH  38  39
ATOM     39  N   UNL A   1      42.271  18.781  25.943  1.00  0.00    -0.352 N 
ATOM     40  C   UNL A   1      43.265  19.539  25.376  1.00  0.00     0.251 C 
ATOM     41  H   UNL A   1      42.321  17.819  25.741  1.00  0.00     0.163 HD
ATOM     42  O   UNL A   1      44.032  19.025  24.566  1.00  0.00    -0.269 OA
BRANCH  40  43
ATOM     43  C   UNL A   1      43.413  20.974  25.709  1.00  0.00     0.039 A 
ATOM     44  C   UNL A   1      43.524  21.340  27.054  1.00  0.00     0.014 A 
ATOM     45  C   UNL A   1      43.402  21.959  24.719  1.00  0.00     0.014 A 
ATOM     46  C   UNL A   1      43.684  22.684  27.401  1.00  0.00     0.010 A 
ATOM     47  C   UNL A   1      43.632  23.292  25.061  1.00  0.00     0.010 A 
ATOM     48  C   UNL A   1      43.775  23.669  26.405  1.00  0.00    -0.014 A 
BRANCH  48  49
ATOM     49  C   UNL A   1      44.024  25.093  26.752  1.00  0.00     0.031 A 
ATOM     50  C   UNL A   1      45.400  25.681  26.619  1.00  0.00     0.074 A 
ATOM     51  C   UNL A   1      43.017  25.841  27.244  1.00  0.00     0.049 A 
ATOM     52  N   UNL A   1      45.824  26.881  26.932  1.00  0.00    -0.248 NA
ATOM     53  C   UNL A   1      46.448  24.797  26.086  1.00  0.00     0.031 C 
ATOM     54  C   UNL A   1      41.646  25.376  27.458  1.00  0.00     0.029 A 
ATOM     55  N   UNL A   1      42.992  27.149  27.662  1.00  0.00    -0.354 N 
ATOM     56  C   UNL A   1      47.182  26.890  26.645  1.00  0.00     0.074 A 
ATOM     57  C   UNL A   1      47.526  25.562  26.187  1.00  0.00     0.031 C 
ATOM     58  C   UNL A   1      40.909  26.387  27.946  1.00  0.00     0.029 A 
ATOM     59  C   UNL A   1      41.763  27.558  28.120  1.00  0.00     0.049 A 
ATOM     60  H   UNL A   1      43.781  27.738  27.637  1.00  0.00     0.167 HD
ATOM     61  C   UNL A   1      48.059  27.920  26.734  1.00  0.00     0.037 A 
ATOM     62  C   UNL A   1      41.370  28.741  28.631  1.00  0.00     0.037 A 
ATOM     63  C   UNL A   1      47.710  29.246  27.176  1.00  0.00     0.049 A 
ATOM     64  C   UNL A   1      42.370  29.861  28.742  1.00  0.00     0.074 A 
ATOM     65  C   UNL A   1      48.513  30.370  27.251  1.00  0.00     0.029 A 
ATOM     66  N   UNL A   1      46.452  29.623  27.626  1.00  0.00    -0.354 N 
ATOM     67  N   UNL A   1      43.636  29.877  28.402  1.00  0.00    -0.248 NA
ATOM     68  C   UNL A   1      41.884  31.129  29.302  1.00  0.00     0.031 C 
ATOM     69  C   UNL A   1      47.758  31.412  27.798  1.00  0.00     0.029 A 
ATOM     70  C   UNL A   1      46.467  30.956  28.005  1.00  0.00     0.049 A 
ATOM     71  H   UNL A   1      45.667  29.031  27.669  1.00  0.00     0.167 HD
ATOM     72  C   UNL A   1      44.088  31.161  28.675  1.00  0.00     0.074 A 
ATOM     73  C   UNL A   1      42.955  31.900  29.195  1.00  0.00     0.031 C 
ATOM     74  C   UNL A   1      45.329  31.683  28.511  1.00  0.00     0.037 A 
BRANCH  61  75
ATOM     75  C   UNL A   1      49.487  27.654  26.345  1.00  0.00     0.064 A 
ATOM     76  C   UNL A   1      50.479  27.406  27.307  1.00  0.00     0.173 A 
ATOM     77  C   UNL A   1      49.860  27.606  24.994  1.00  0.00     0.173 A 
ATOM     78  F   UNL A   1      50.180  27.447  28.613  1.00  0.00    -0.203 F 
ATOM     79  C   UNL A   1      51.796  27.152  26.930  1.00  0.00     0.198 A 
ATOM     80  C   UNL A   1      51.170  27.318  24.620  1.00  0.00     0.198 A 
ATOM     81  F   UNL A   1      48.951  27.827  24.032  1.00  0.00    -0.203 F 
ATOM     82  F   UNL A   1      52.736  26.972  27.867  1.00  0.00    -0.200 F 
ATOM     83  C   UNL A   1      52.139  27.101  25.587  1.00  0.00     0.200 A 
ATOM     84  F   UNL A   1      51.497  27.254  23.321  1.00  0.00    -0.200 F 
ATOM     85  F   UNL A   1      53.405  26.850  25.226  1.00  0.00    -0.200 F 
ENDBRANCH  61  75
BRANCH  62  86
ATOM     86  C   UNL A   1      39.960  28.935  29.062  1.00  0.00     0.064 A 
ATOM     87  C   UNL A   1      39.576  28.716  30.393  1.00  0.00     0.173 A 
ATOM     88  C   UNL A   1      38.965  29.328  28.154  1.00  0.00     0.173 A 
ATOM     89  F   UNL A   1      40.486  28.320  31.295  1.00  0.00    -0.203 F 
ATOM     90  C   UNL A   1      38.250  28.861  30.794  1.00  0.00     0.198 A 
ATOM     91  C   UNL A   1      37.645  29.503  28.563  1.00  0.00     0.198 A 
ATOM     92  F   UNL A   1      39.279  29.555  26.870  1.00  0.00    -0.203 F 
ATOM     93  F   UNL A   1      37.903  28.595  32.060  1.00  0.00    -0.200 F 
ATOM     94  C   UNL A   1      37.287  29.259  29.880  1.00  0.00     0.200 A 
ATOM     95  F   UNL A   1      36.720  29.903  27.681  1.00  0.00    -0.200 F 
ATOM     96  F   UNL A   1      36.011  29.399  30.267  1.00  0.00    -0.200 F 
ENDBRANCH  62  86
BRANCH  74  97
ATOM     97  C   UNL A   1      45.521  33.133  28.856  1.00  0.00     0.064 A 
ATOM     98  C   UNL A   1      45.282  34.153  27.923  1.00  0.00     0.173 A 
ATOM     99  C   UNL A   1      45.915  33.506  30.150  1.00  0.00     0.173 A 
ATOM    100  F   UNL A   1      44.918  33.849  26.668  1.00  0.00    -0.203 F 
ATOM    101  C   UNL A   1      45.458  35.491  28.267  1.00  0.00     0.198 A 
ATOM    102  C   UNL A   1      46.056  34.846  30.499  1.00  0.00     0.198 A 
ATOM    103  F   UNL A   1      46.150  32.571  31.083  1.00  0.00    -0.203 F 
ATOM    104  F   UNL A   1      45.275  36.447  27.344  1.00  0.00    -0.200 F 
ATOM    105  C   UNL A   1      45.836  35.837  29.555  1.00  0.00     0.200 A 
ATOM    106  F   UNL A   1      46.405  35.178  31.750  1.00  0.00    -0.200 F 
ATOM    107  F   UNL A   1      45.997  37.126  29.885  1.00  0.00    -0.200 F 
ENDBRANCH  74  97
ENDBRANCH  48  49
ENDBRANCH  40  43
ENDBRANCH  38  39
ENDBRANCH  37  38
ENDBRANCH   1  37
TORSDOF 14
ENDMDL
