MODEL 1
REMARK VINA RESULT:     -12.0      0.000      0.000
REMARK SMILES CN(CC(=O)N1C[C@@H](O)C[C@H]1C(=O)NCCCCCCNC(=O)c1ccc(-c2c3nc(c(-c4c(F)c(F)c(F)c(F)c4F)c4ccc([nH]4)c(-c4c(F)c(F)c(F)c(F)c4F)c4nc(c(-c5c(F)c(F)c(F)c(F)c5F)c5ccc2[nH]5)C=C4)C=C3)cc1)C(=O)c1cccs1
REMARK SMILES IDX 16 1 15 2 14 3 12 4 13 5 11 7 6 8 7 9 8 10 10 11 4 12 5 13
REMARK SMILES IDX 3 14 2 15 1 16 87 17 88 18 89 19 90 20 93 21 91 22 92 23
REMARK SMILES IDX 9 24 17 26 18 27 19 28 20 29 21 30 22 31 23 33 24 34 25 35
REMARK SMILES IDX 86 36 26 37 85 38 27 39 28 40 29 41 79 42 30 43 84 44 78 45
REMARK SMILES IDX 80 46 31 47 83 48 77 49 76 50 32 52 64 53 44 54 63 55 45 56
REMARK SMILES IDX 48 57 62 58 81 59 46 60 47 61 61 63 82 64 49 65 33 66 34 67
REMARK SMILES IDX 42 68 35 69 36 70 40 71 43 72 37 73 38 74 41 75 39 76 65 77
REMARK SMILES IDX 66 78 74 79 67 80 68 81 72 82 75 83 69 84 70 85 73 86 71 87
REMARK SMILES IDX 50 88 51 89 59 90 52 91 53 92 57 93 60 94 54 95 55 96 58 97
REMARK SMILES IDX 56 98
REMARK H PARENT 14 6 9 25 21 32 80 51 48 62
REMARK Flexibility Score: inf
ROOT
ATOM      1  C   UNL A   1      32.795  28.811  27.242  1.00  0.00     0.021 C 
ENDROOT
BRANCH   1   2
ATOM      2  C   UNL A   1      32.760  27.350  26.817  1.00  0.00     0.116 C 
BRANCH   2   3
ATOM      3  N   UNL A   1      31.416  26.816  26.804  1.00  0.00    -0.354 N 
ATOM      4  C   UNL A   1      30.809  25.921  25.974  1.00  0.00     0.242 C 
ATOM      5  O   UNL A   1      29.717  25.480  26.348  1.00  0.00    -0.273 OA
ATOM      6  H   UNL A   1      30.835  27.160  27.522  1.00  0.00     0.163 HD
BRANCH   4   7
ATOM      7  C   UNL A   1      31.492  25.356  24.706  1.00  0.00     0.177 C 
ATOM      8  N   UNL A   1      31.959  26.341  23.719  1.00  0.00    -0.326 N 
ATOM      9  C   UNL A   1      33.371  26.185  23.442  1.00  0.00     0.152 C 
ATOM     10  C   UNL A   1      33.761  24.825  24.019  1.00  0.00     0.136 C 
ATOM     11  C   UNL A   1      32.706  24.498  25.069  1.00  0.00     0.069 C 
BRANCH   8  12
ATOM     12  C   UNL A   1      31.029  27.022  22.957  1.00  0.00     0.242 C 
ATOM     13  O   UNL A   1      31.068  26.939  21.723  1.00  0.00    -0.273 OA
BRANCH  12  14
ATOM     14  C   UNL A   1      30.001  27.998  23.579  1.00  0.00     0.219 C 
BRANCH  14  15
ATOM     15  N   UNL A   1      28.564  27.790  23.392  1.00  0.00    -0.332 N 
ATOM     16  C   UNL A   1      28.013  26.528  23.877  1.00  0.00     0.147 C 
BRANCH  15  17
ATOM     17  C   UNL A   1      27.622  28.805  23.134  1.00  0.00     0.264 C 
ATOM     18  O   UNL A   1      26.456  28.630  23.499  1.00  0.00    -0.268 OA
BRANCH  17  19
ATOM     19  C   UNL A   1      28.025  30.050  22.484  1.00  0.00     0.092 A 
ATOM     20  C   UNL A   1      28.032  30.452  21.162  1.00  0.00     0.025 A 
ATOM     21  S   UNL A   1      28.546  31.344  23.501  1.00  0.00    -0.139 S 
ATOM     22  C   UNL A   1      28.448  31.806  20.986  1.00  0.00     0.012 A 
ATOM     23  C   UNL A   1      28.764  32.403  22.181  1.00  0.00     0.065 A 
ENDBRANCH  17  19
ENDBRANCH  15  17
ENDBRANCH  14  15
ENDBRANCH  12  14
ENDBRANCH   8  12
BRANCH  10  24
ATOM     24  O   UNL A   1      35.064  24.830  24.581  1.00  0.00    -0.391 OA
ATOM     25  H   UNL A   1      35.044  25.277  25.441  1.00  0.00     0.211 HD
ENDBRANCH  10  24
ENDBRANCH   4   7
ENDBRANCH   2   3
ENDBRANCH   1   2
BRANCH   1  26
ATOM     26  C   UNL A   1      31.525  29.600  26.923  1.00  0.00     0.002 C 
BRANCH  26  27
ATOM     27  C   UNL A   1      31.731  30.800  25.994  1.00  0.00     0.002 C 
BRANCH  27  28
ATOM     28  C   UNL A   1      31.445  32.163  26.629  1.00  0.00     0.021 C 
BRANCH  28  29
ATOM     29  C   UNL A   1      32.645  32.801  27.320  1.00  0.00     0.116 C 
BRANCH  29  30
ATOM     30  N   UNL A   1      32.413  34.204  27.627  1.00  0.00    -0.352 N 
ATOM     31  C   UNL A   1      32.984  34.978  28.604  1.00  0.00     0.251 C 
ATOM     32  H   UNL A   1      31.756  34.660  27.053  1.00  0.00     0.163 HD
ATOM     33  O   UNL A   1      32.529  36.088  28.870  1.00  0.00    -0.269 OA
BRANCH  31  34
ATOM     34  C   UNL A   1      34.146  34.459  29.352  1.00  0.00     0.039 A 
ATOM     35  C   UNL A   1      33.940  33.837  30.585  1.00  0.00     0.014 A 
ATOM     36  C   UNL A   1      35.436  34.579  28.826  1.00  0.00     0.014 A 
ATOM     37  C   UNL A   1      35.024  33.278  31.264  1.00  0.00     0.010 A 
ATOM     38  C   UNL A   1      36.501  33.954  29.466  1.00  0.00     0.010 A 
ATOM     39  C   UNL A   1      36.307  33.301  30.692  1.00  0.00    -0.014 A 
BRANCH  39  40
ATOM     40  C   UNL A   1      37.465  32.658  31.362  1.00  0.00     0.031 A 
ATOM     41  C   UNL A   1      38.193  31.533  30.683  1.00  0.00     0.074 A 
ATOM     42  C   UNL A   1      37.814  33.038  32.606  1.00  0.00     0.049 A 
ATOM     43  N   UNL A   1      39.163  30.779  31.136  1.00  0.00    -0.248 NA
ATOM     44  C   UNL A   1      37.753  31.192  29.321  1.00  0.00     0.031 C 
ATOM     45  C   UNL A   1      37.163  34.094  33.382  1.00  0.00     0.029 A 
ATOM     46  N   UNL A   1      38.794  32.567  33.444  1.00  0.00    -0.354 N 
ATOM     47  C   UNL A   1      39.437  29.870  30.123  1.00  0.00     0.074 A 
ATOM     48  C   UNL A   1      38.495  30.127  29.056  1.00  0.00     0.031 C 
ATOM     49  C   UNL A   1      37.774  34.207  34.572  1.00  0.00     0.029 A 
ATOM     50  C   UNL A   1      38.828  33.200  34.662  1.00  0.00     0.049 A 
ATOM     51  H   UNL A   1      39.414  31.844  33.195  1.00  0.00     0.167 HD
ATOM     52  C   UNL A   1      40.406  28.924  30.076  1.00  0.00     0.037 A 
ATOM     53  C   UNL A   1      39.613  32.984  35.735  1.00  0.00     0.037 A 
ATOM     54  C   UNL A   1      41.349  28.683  31.137  1.00  0.00     0.049 A 
ATOM     55  C   UNL A   1      40.655  31.898  35.673  1.00  0.00     0.074 A 
ATOM     56  C   UNL A   1      42.397  27.779  31.171  1.00  0.00     0.029 A 
ATOM     57  N   UNL A   1      41.354  29.347  32.355  1.00  0.00    -0.354 N 
ATOM     58  N   UNL A   1      40.948  31.086  34.688  1.00  0.00    -0.248 NA
ATOM     59  C   UNL A   1      41.478  31.702  36.876  1.00  0.00     0.031 C 
ATOM     60  C   UNL A   1      43.000  27.857  32.429  1.00  0.00     0.029 A 
ATOM     61  C   UNL A   1      42.370  28.854  33.158  1.00  0.00     0.049 A 
ATOM     62  H   UNL A   1      40.728  30.063  32.611  1.00  0.00     0.167 HD
ATOM     63  C   UNL A   1      42.009  30.309  35.134  1.00  0.00     0.074 A 
ATOM     64  C   UNL A   1      42.314  30.754  36.478  1.00  0.00     0.031 C 
ATOM     65  C   UNL A   1      42.672  29.320  34.488  1.00  0.00     0.037 A 
BRANCH  52  66
ATOM     66  C   UNL A   1      40.489  28.077  28.838  1.00  0.00     0.064 A 
ATOM     67  C   UNL A   1      39.795  26.862  28.728  1.00  0.00     0.173 A 
ATOM     68  C   UNL A   1      41.248  28.499  27.735  1.00  0.00     0.173 A 
ATOM     69  F   UNL A   1      39.063  26.406  29.756  1.00  0.00    -0.203 F 
ATOM     70  C   UNL A   1      39.889  26.083  27.577  1.00  0.00     0.198 A 
ATOM     71  C   UNL A   1      41.310  27.735  26.572  1.00  0.00     0.198 A 
ATOM     72  F   UNL A   1      41.924  29.656  27.781  1.00  0.00    -0.203 F 
ATOM     73  F   UNL A   1      39.265  24.899  27.519  1.00  0.00    -0.200 F 
ATOM     74  C   UNL A   1      40.639  26.523  26.498  1.00  0.00     0.200 A 
ATOM     75  F   UNL A   1      42.022  28.170  25.524  1.00  0.00    -0.200 F 
ATOM     76  F   UNL A   1      40.723  25.777  25.389  1.00  0.00    -0.200 F 
ENDBRANCH  52  66
BRANCH  53  77
ATOM     77  C   UNL A   1      39.459  33.824  36.952  1.00  0.00     0.064 A 
ATOM     78  C   UNL A   1      40.106  35.063  37.056  1.00  0.00     0.173 A 
ATOM     79  C   UNL A   1      38.673  33.407  38.037  1.00  0.00     0.173 A 
ATOM     80  F   UNL A   1      40.885  35.497  36.053  1.00  0.00    -0.203 F 
ATOM     81  C   UNL A   1      39.992  35.842  38.205  1.00  0.00     0.198 A 
ATOM     82  C   UNL A   1      38.535  34.201  39.173  1.00  0.00     0.198 A 
ATOM     83  F   UNL A   1      38.028  32.232  37.988  1.00  0.00    -0.203 F 
ATOM     84  F   UNL A   1      40.661  37.000  38.296  1.00  0.00    -0.200 F 
ATOM     85  C   UNL A   1      39.201  35.414  39.261  1.00  0.00     0.200 A 
ATOM     86  F   UNL A   1      37.756  33.791  40.184  1.00  0.00    -0.200 F 
ATOM     87  F   UNL A   1      39.088  36.165  40.364  1.00  0.00    -0.200 F 
ENDBRANCH  53  77
BRANCH  65  88
ATOM     88  C   UNL A   1      43.829  28.678  35.201  1.00  0.00     0.064 A 
ATOM     89  C   UNL A   1      45.104  29.261  35.218  1.00  0.00     0.173 A 
ATOM     90  C   UNL A   1      43.639  27.490  35.924  1.00  0.00     0.173 A 
ATOM     91  F   UNL A   1      45.341  30.388  34.529  1.00  0.00    -0.203 F 
ATOM     92  C   UNL A   1      46.152  28.667  35.915  1.00  0.00     0.198 A 
ATOM     93  C   UNL A   1      44.681  26.917  36.648  1.00  0.00     0.198 A 
ATOM     94  F   UNL A   1      42.437  26.896  35.947  1.00  0.00    -0.203 F 
ATOM     95  F   UNL A   1      47.375  29.216  35.881  1.00  0.00    -0.200 F 
ATOM     96  C   UNL A   1      45.938  27.502  36.637  1.00  0.00     0.200 A 
ATOM     97  F   UNL A   1      44.467  25.802  37.359  1.00  0.00    -0.200 F 
ATOM     98  F   UNL A   1      46.945  26.939  37.319  1.00  0.00    -0.200 F 
ENDBRANCH  65  88
ENDBRANCH  39  40
ENDBRANCH  31  34
ENDBRANCH  29  30
ENDBRANCH  28  29
ENDBRANCH  27  28
ENDBRANCH  26  27
ENDBRANCH   1  26
TORSDOF 19
ENDMDL
MODEL 2
REMARK VINA RESULT:     -11.9      5.360     10.595
REMARK SMILES CN(CC(=O)N1C[C@@H](O)C[C@H]1C(=O)NCCCCCCNC(=O)c1ccc(-c2c3nc(c(-c4c(F)c(F)c(F)c(F)c4F)c4ccc([nH]4)c(-c4c(F)c(F)c(F)c(F)c4F)c4nc(c(-c5c(F)c(F)c(F)c(F)c5F)c5ccc2[nH]5)C=C4)C=C3)cc1)C(=O)c1cccs1
REMARK SMILES IDX 16 1 15 2 14 3 12 4 13 5 11 7 6 8 7 9 8 10 10 11 4 12 5 13
REMARK SMILES IDX 3 14 2 15 1 16 87 17 88 18 89 19 90 20 93 21 91 22 92 23
REMARK SMILES IDX 9 24 17 26 18 27 19 28 20 29 21 30 22 31 23 33 24 34 25 35
REMARK SMILES IDX 86 36 26 37 85 38 27 39 28 40 29 41 79 42 30 43 84 44 78 45
REMARK SMILES IDX 80 46 31 47 83 48 77 49 76 50 32 52 64 53 44 54 63 55 45 56
REMARK SMILES IDX 48 57 62 58 81 59 46 60 47 61 61 63 82 64 49 65 33 66 34 67
REMARK SMILES IDX 42 68 35 69 36 70 40 71 43 72 37 73 38 74 41 75 39 76 65 77
REMARK SMILES IDX 66 78 74 79 67 80 68 81 72 82 75 83 69 84 70 85 73 86 71 87
REMARK SMILES IDX 50 88 51 89 59 90 52 91 53 92 57 93 60 94 54 95 55 96 58 97
REMARK SMILES IDX 56 98
REMARK H PARENT 14 6 9 25 21 32 80 51 48 62
REMARK Flexibility Score: inf
ROOT
ATOM      1  C   UNL A   1      35.349  22.677  23.680  1.00  0.00     0.021 C 
ENDROOT
BRANCH   1   2
ATOM      2  C   UNL A   1      34.878  24.002  24.262  1.00  0.00     0.116 C 
BRANCH   2   3
ATOM      3  N   UNL A   1      33.513  23.937  24.736  1.00  0.00    -0.354 N 
ATOM      4  C   UNL A   1      32.590  24.915  24.963  1.00  0.00     0.242 C 
ATOM      5  O   UNL A   1      31.428  24.538  25.148  1.00  0.00    -0.273 OA
ATOM      6  H   UNL A   1      33.194  23.026  24.930  1.00  0.00     0.163 HD
BRANCH   4   7
ATOM      7  C   UNL A   1      32.919  26.422  24.851  1.00  0.00     0.177 C 
ATOM      8  N   UNL A   1      31.792  27.318  24.548  1.00  0.00    -0.326 N 
ATOM      9  C   UNL A   1      31.654  28.353  25.550  1.00  0.00     0.152 C 
ATOM     10  C   UNL A   1      32.953  28.330  26.355  1.00  0.00     0.136 C 
ATOM     11  C   UNL A   1      33.552  26.946  26.143  1.00  0.00     0.069 C 
BRANCH   8  12
ATOM     12  C   UNL A   1      31.249  27.307  23.278  1.00  0.00     0.242 C 
ATOM     13  O   UNL A   1      31.727  26.564  22.413  1.00  0.00    -0.273 OA
BRANCH  12  14
ATOM     14  C   UNL A   1      30.132  28.288  22.846  1.00  0.00     0.219 C 
BRANCH  14  15
ATOM     15  N   UNL A   1      28.725  27.986  23.116  1.00  0.00    -0.332 N 
ATOM     16  C   UNL A   1      28.442  26.726  23.796  1.00  0.00     0.147 C 
BRANCH  15  17
ATOM     17  C   UNL A   1      27.677  28.926  23.119  1.00  0.00     0.264 C 
ATOM     18  O   UNL A   1      26.539  28.537  23.395  1.00  0.00    -0.268 OA
BRANCH  17  19
ATOM     19  C   UNL A   1      27.938  30.337  22.839  1.00  0.00     0.092 A 
ATOM     20  C   UNL A   1      28.142  31.429  23.662  1.00  0.00     0.025 A 
ATOM     21  S   UNL A   1      28.103  30.801  21.185  1.00  0.00    -0.139 S 
ATOM     22  C   UNL A   1      28.439  32.627  22.947  1.00  0.00     0.012 A 
ATOM     23  C   UNL A   1      28.443  32.424  21.589  1.00  0.00     0.065 A 
ENDBRANCH  17  19
ENDBRANCH  15  17
ENDBRANCH  14  15
ENDBRANCH  12  14
ENDBRANCH   8  12
BRANCH  10  24
ATOM     24  O   UNL A   1      32.740  28.595  27.732  1.00  0.00    -0.391 OA
ATOM     25  H   UNL A   1      32.778  29.551  27.888  1.00  0.00     0.211 HD
ENDBRANCH  10  24
ENDBRANCH   4   7
ENDBRANCH   2   3
ENDBRANCH   1   2
BRANCH   1  26
ATOM     26  C   UNL A   1      36.685  22.177  24.228  1.00  0.00     0.002 C 
BRANCH  26  27
ATOM     27  C   UNL A   1      36.610  20.850  24.989  1.00  0.00     0.002 C 
BRANCH  27  28
ATOM     28  C   UNL A   1      37.844  19.956  24.850  1.00  0.00     0.021 C 
BRANCH  28  29
ATOM     29  C   UNL A   1      39.025  20.368  25.723  1.00  0.00     0.116 C 
BRANCH  29  30
ATOM     30  N   UNL A   1      39.983  19.286  25.886  1.00  0.00    -0.352 N 
ATOM     31  C   UNL A   1      41.338  19.359  26.086  1.00  0.00     0.251 C 
ATOM     32  H   UNL A   1      39.607  18.377  25.848  1.00  0.00     0.163 HD
ATOM     33  O   UNL A   1      42.039  18.354  25.994  1.00  0.00    -0.269 OA
BRANCH  31  34
ATOM     34  C   UNL A   1      41.956  20.663  26.397  1.00  0.00     0.039 A 
ATOM     35  C   UNL A   1      42.289  21.525  25.350  1.00  0.00     0.014 A 
ATOM     36  C   UNL A   1      42.191  21.035  27.724  1.00  0.00     0.014 A 
ATOM     37  C   UNL A   1      42.805  22.790  25.638  1.00  0.00     0.010 A 
ATOM     38  C   UNL A   1      42.631  22.323  28.010  1.00  0.00     0.010 A 
ATOM     39  C   UNL A   1      42.946  23.211  26.971  1.00  0.00    -0.014 A 
BRANCH  39  40
ATOM     40  C   UNL A   1      43.431  24.574  27.305  1.00  0.00     0.031 A 
ATOM     41  C   UNL A   1      42.476  25.594  27.859  1.00  0.00     0.074 A 
ATOM     42  C   UNL A   1      44.708  24.912  27.043  1.00  0.00     0.049 A 
ATOM     43  N   UNL A   1      42.677  26.860  28.124  1.00  0.00    -0.248 NA
ATOM     44  C   UNL A   1      41.104  25.134  28.125  1.00  0.00     0.031 C 
ATOM     45  C   UNL A   1      45.720  24.021  26.476  1.00  0.00     0.029 A 
ATOM     46  N   UNL A   1      45.370  26.104  27.208  1.00  0.00    -0.354 N 
ATOM     47  C   UNL A   1      41.457  27.348  28.573  1.00  0.00     0.074 A 
ATOM     48  C   UNL A   1      40.508  26.260  28.489  1.00  0.00     0.031 C 
ATOM     49  C   UNL A   1      46.879  24.689  26.360  1.00  0.00     0.029 A 
ATOM     50  C   UNL A   1      46.680  26.067  26.799  1.00  0.00     0.049 A 
ATOM     51  H   UNL A   1      44.944  26.909  27.582  1.00  0.00     0.167 HD
ATOM     52  C   UNL A   1      41.162  28.586  29.038  1.00  0.00     0.037 A 
ATOM     53  C   UNL A   1      47.612  27.039  26.770  1.00  0.00     0.037 A 
ATOM     54  C   UNL A   1      42.115  29.661  29.131  1.00  0.00     0.049 A 
ATOM     55  C   UNL A   1      47.247  28.418  27.254  1.00  0.00     0.074 A 
ATOM     56  C   UNL A   1      41.929  30.938  29.629  1.00  0.00     0.029 A 
ATOM     57  N   UNL A   1      43.435  29.584  28.710  1.00  0.00    -0.354 N 
ATOM     58  N   UNL A   1      46.108  28.853  27.735  1.00  0.00    -0.248 NA
ATOM     59  C   UNL A   1      48.301  29.441  27.193  1.00  0.00     0.031 C 
ATOM     60  C   UNL A   1      43.119  31.651  29.459  1.00  0.00     0.029 A 
ATOM     61  C   UNL A   1      44.067  30.800  28.913  1.00  0.00     0.049 A 
ATOM     62  H   UNL A   1      43.859  28.784  28.324  1.00  0.00     0.167 HD
ATOM     63  C   UNL A   1      46.317  30.185  28.067  1.00  0.00     0.074 A 
ATOM     64  C   UNL A   1      47.695  30.485  27.741  1.00  0.00     0.031 C 
ATOM     65  C   UNL A   1      45.446  31.078  28.598  1.00  0.00     0.037 A 
BRANCH  52  66
ATOM     66  C   UNL A   1      39.748  28.842  29.477  1.00  0.00     0.064 A 
ATOM     67  C   UNL A   1      38.772  29.310  28.584  1.00  0.00     0.173 A 
ATOM     68  C   UNL A   1      39.357  28.590  30.802  1.00  0.00     0.173 A 
ATOM     69  F   UNL A   1      39.095  29.576  27.310  1.00  0.00    -0.203 F 
ATOM     70  C   UNL A   1      37.467  29.552  29.008  1.00  0.00     0.198 A 
ATOM     71  C   UNL A   1      38.042  28.799  31.213  1.00  0.00     0.198 A 
ATOM     72  F   UNL A   1      40.246  28.134  31.696  1.00  0.00    -0.203 F 
ATOM     73  F   UNL A   1      36.568  30.053  28.151  1.00  0.00    -0.200 F 
ATOM     74  C   UNL A   1      37.102  29.289  30.319  1.00  0.00     0.200 A 
ATOM     75  F   UNL A   1      37.687  28.528  32.476  1.00  0.00    -0.200 F 
ATOM     76  F   UNL A   1      35.845  29.515  30.724  1.00  0.00    -0.200 F 
ENDBRANCH  52  66
BRANCH  53  77
ATOM     77  C   UNL A   1      48.985  26.741  26.284  1.00  0.00     0.064 A 
ATOM     78  C   UNL A   1      49.354  27.014  24.960  1.00  0.00     0.173 A 
ATOM     79  C   UNL A   1      49.953  26.171  27.126  1.00  0.00     0.173 A 
ATOM     80  F   UNL A   1      48.458  27.540  24.111  1.00  0.00    -0.203 F 
ATOM     81  C   UNL A   1      50.629  26.709  24.489  1.00  0.00     0.198 A 
ATOM     82  C   UNL A   1      51.237  25.897  26.662  1.00  0.00     0.198 A 
ATOM     83  F   UNL A   1      49.654  25.895  28.404  1.00  0.00    -0.203 F 
ATOM     84  F   UNL A   1      50.939  26.937  23.205  1.00  0.00    -0.200 F 
ATOM     85  C   UNL A   1      51.572  26.156  25.342  1.00  0.00     0.200 A 
ATOM     86  F   UNL A   1      52.151  25.378  27.494  1.00  0.00    -0.200 F 
ATOM     87  F   UNL A   1      52.800  25.868  24.890  1.00  0.00    -0.200 F 
ENDBRANCH  53  77
BRANCH  65  88
ATOM     88  C   UNL A   1      45.965  32.453  28.908  1.00  0.00     0.064 A 
ATOM     89  C   UNL A   1      45.856  33.510  27.994  1.00  0.00     0.173 A 
ATOM     90  C   UNL A   1      46.530  32.726  30.165  1.00  0.00     0.173 A 
ATOM     91  F   UNL A   1      45.339  33.297  26.773  1.00  0.00    -0.203 F 
ATOM     92  C   UNL A   1      46.312  34.785  28.316  1.00  0.00     0.198 A 
ATOM     93  C   UNL A   1      46.953  34.010  30.496  1.00  0.00     0.198 A 
ATOM     94  F   UNL A   1      46.650  31.753  31.078  1.00  0.00    -0.203 F 
ATOM     95  F   UNL A   1      46.240  35.770  27.410  1.00  0.00    -0.200 F 
ATOM     96  C   UNL A   1      46.850  35.037  29.569  1.00  0.00     0.200 A 
ATOM     97  F   UNL A   1      47.457  34.254  31.713  1.00  0.00    -0.200 F 
ATOM     98  F   UNL A   1      47.276  36.268  29.883  1.00  0.00    -0.200 F 
ENDBRANCH  65  88
ENDBRANCH  39  40
ENDBRANCH  31  34
ENDBRANCH  29  30
ENDBRANCH  28  29
ENDBRANCH  27  28
ENDBRANCH  26  27
ENDBRANCH   1  26
TORSDOF 19
ENDMDL
MODEL 3
REMARK VINA RESULT:     -11.8      1.883      4.028
REMARK SMILES CN(CC(=O)N1C[C@@H](O)C[C@H]1C(=O)NCCCCCCNC(=O)c1ccc(-c2c3nc(c(-c4c(F)c(F)c(F)c(F)c4F)c4ccc([nH]4)c(-c4c(F)c(F)c(F)c(F)c4F)c4nc(c(-c5c(F)c(F)c(F)c(F)c5F)c5ccc2[nH]5)C=C4)C=C3)cc1)C(=O)c1cccs1
REMARK SMILES IDX 16 1 15 2 14 3 12 4 13 5 11 7 6 8 7 9 8 10 10 11 4 12 5 13
REMARK SMILES IDX 3 14 2 15 1 16 87 17 88 18 89 19 90 20 93 21 91 22 92 23
REMARK SMILES IDX 9 24 17 26 18 27 19 28 20 29 21 30 22 31 23 33 24 34 25 35
REMARK SMILES IDX 86 36 26 37 85 38 27 39 28 40 29 41 79 42 30 43 84 44 78 45
REMARK SMILES IDX 80 46 31 47 83 48 77 49 76 50 32 52 64 53 44 54 63 55 45 56
REMARK SMILES IDX 48 57 62 58 81 59 46 60 47 61 61 63 82 64 49 65 33 66 34 67
REMARK SMILES IDX 42 68 35 69 36 70 40 71 43 72 37 73 38 74 41 75 39 76 65 77
REMARK SMILES IDX 66 78 74 79 67 80 68 81 72 82 75 83 69 84 70 85 73 86 71 87
REMARK SMILES IDX 50 88 51 89 59 90 52 91 53 92 57 93 60 94 54 95 55 96 58 97
REMARK SMILES IDX 56 98
REMARK H PARENT 14 6 9 25 21 32 80 51 48 62
REMARK Flexibility Score: inf
ROOT
ATOM      1  C   UNL A   1      33.897  29.419  26.680  1.00  0.00     0.021 C 
ENDROOT
BRANCH   1   2
ATOM      2  C   UNL A   1      34.067  27.913  26.551  1.00  0.00     0.116 C 
BRANCH   2   3
ATOM      3  N   UNL A   1      32.798  27.217  26.542  1.00  0.00    -0.354 N 
ATOM      4  C   UNL A   1      31.994  26.821  25.515  1.00  0.00     0.242 C 
ATOM      5  O   UNL A   1      31.081  26.041  25.805  1.00  0.00    -0.273 OA
ATOM      6  H   UNL A   1      32.454  26.990  27.437  1.00  0.00     0.163 HD
BRANCH   4   7
ATOM      7  C   UNL A   1      32.275  27.188  24.039  1.00  0.00     0.177 C 
ATOM      8  N   UNL A   1      31.983  26.150  23.038  1.00  0.00    -0.326 N 
ATOM      9  C   UNL A   1      31.060  26.630  22.031  1.00  0.00     0.152 C 
ATOM     10  C   UNL A   1      31.017  28.148  22.196  1.00  0.00     0.136 C 
ATOM     11  C   UNL A   1      31.484  28.429  23.619  1.00  0.00     0.069 C 
BRANCH   8  12
ATOM     12  C   UNL A   1      32.808  25.045  22.956  1.00  0.00     0.242 C 
ATOM     13  O   UNL A   1      33.976  25.179  22.574  1.00  0.00    -0.273 OA
BRANCH  12  14
ATOM     14  C   UNL A   1      32.293  23.606  23.204  1.00  0.00     0.219 C 
BRANCH  14  15
ATOM     15  N   UNL A   1      32.662  22.878  24.419  1.00  0.00    -0.332 N 
ATOM     16  C   UNL A   1      31.635  22.754  25.449  1.00  0.00     0.147 C 
BRANCH  15  17
ATOM     17  C   UNL A   1      33.752  21.995  24.539  1.00  0.00     0.264 C 
ATOM     18  O   UNL A   1      33.573  20.802  24.277  1.00  0.00    -0.268 OA
BRANCH  17  19
ATOM     19  C   UNL A   1      35.072  22.486  24.929  1.00  0.00     0.092 A 
ATOM     20  C   UNL A   1      35.528  23.734  25.309  1.00  0.00     0.025 A 
ATOM     21  S   UNL A   1      36.353  21.333  25.021  1.00  0.00    -0.139 S 
ATOM     22  C   UNL A   1      36.906  23.744  25.680  1.00  0.00     0.012 A 
ATOM     23  C   UNL A   1      37.475  22.500  25.562  1.00  0.00     0.065 A 
ENDBRANCH  17  19
ENDBRANCH  15  17
ENDBRANCH  14  15
ENDBRANCH  12  14
ENDBRANCH   8  12
BRANCH  10  24
ATOM     24  O   UNL A   1      29.722  28.680  21.963  1.00  0.00    -0.391 OA
ATOM     25  H   UNL A   1      29.762  29.326  21.241  1.00  0.00     0.211 HD
ENDBRANCH  10  24
ENDBRANCH   4   7
ENDBRANCH   2   3
ENDBRANCH   1   2
BRANCH   1  26
ATOM     26  C   UNL A   1      32.551  29.864  27.254  1.00  0.00     0.002 C 
BRANCH  26  27
ATOM     27  C   UNL A   1      31.684  30.684  26.295  1.00  0.00     0.002 C 
BRANCH  27  28
ATOM     28  C   UNL A   1      31.459  32.139  26.713  1.00  0.00     0.021 C 
BRANCH  28  29
ATOM     29  C   UNL A   1      32.695  32.833  27.276  1.00  0.00     0.116 C 
BRANCH  29  30
ATOM     30  N   UNL A   1      32.430  34.222  27.617  1.00  0.00    -0.352 N 
ATOM     31  C   UNL A   1      32.982  34.984  28.615  1.00  0.00     0.251 C 
ATOM     32  H   UNL A   1      31.764  34.678  27.053  1.00  0.00     0.163 HD
ATOM     33  O   UNL A   1      32.500  36.076  28.908  1.00  0.00    -0.269 OA
BRANCH  31  34
ATOM     34  C   UNL A   1      34.153  34.473  29.353  1.00  0.00     0.039 A 
ATOM     35  C   UNL A   1      33.962  33.852  30.589  1.00  0.00     0.014 A 
ATOM     36  C   UNL A   1      35.438  34.597  28.814  1.00  0.00     0.014 A 
ATOM     37  C   UNL A   1      35.055  33.300  31.259  1.00  0.00     0.010 A 
ATOM     38  C   UNL A   1      36.512  33.979  29.446  1.00  0.00     0.010 A 
ATOM     39  C   UNL A   1      36.333  33.328  30.676  1.00  0.00    -0.014 A 
BRANCH  39  40
ATOM     40  C   UNL A   1      37.500  32.693  31.336  1.00  0.00     0.031 A 
ATOM     41  C   UNL A   1      38.207  31.548  30.667  1.00  0.00     0.074 A 
ATOM     42  C   UNL A   1      37.877  33.098  32.564  1.00  0.00     0.049 A 
ATOM     43  N   UNL A   1      39.181  30.797  31.117  1.00  0.00    -0.248 NA
ATOM     44  C   UNL A   1      37.737  31.179  29.323  1.00  0.00     0.031 C 
ATOM     45  C   UNL A   1      37.249  34.177  33.328  1.00  0.00     0.029 A 
ATOM     46  N   UNL A   1      38.872  32.640  33.391  1.00  0.00    -0.354 N 
ATOM     47  C   UNL A   1      39.429  29.865  30.120  1.00  0.00     0.074 A 
ATOM     48  C   UNL A   1      38.466  30.103  29.067  1.00  0.00     0.031 C 
ATOM     49  C   UNL A   1      37.886  34.312  34.502  1.00  0.00     0.029 A 
ATOM     50  C   UNL A   1      38.935  33.300  34.593  1.00  0.00     0.049 A 
ATOM     51  H   UNL A   1      39.482  31.907  33.146  1.00  0.00     0.167 HD
ATOM     52  C   UNL A   1      40.390  28.910  30.075  1.00  0.00     0.037 A 
ATOM     53  C   UNL A   1      39.740  33.103  35.655  1.00  0.00     0.037 A 
ATOM     54  C   UNL A   1      41.354  28.687  31.120  1.00  0.00     0.049 A 
ATOM     55  C   UNL A   1      40.774  32.009  35.596  1.00  0.00     0.074 A 
ATOM     56  C   UNL A   1      42.396  27.777  31.154  1.00  0.00     0.029 A 
ATOM     57  N   UNL A   1      41.388  29.378  32.323  1.00  0.00    -0.354 N 
ATOM     58  N   UNL A   1      41.042  31.173  34.624  1.00  0.00    -0.248 NA
ATOM     59  C   UNL A   1      41.621  31.835  36.786  1.00  0.00     0.031 C 
ATOM     60  C   UNL A   1      43.026  27.880  32.397  1.00  0.00     0.029 A 
ATOM     61  C   UNL A   1      42.418  28.897  33.116  1.00  0.00     0.049 A 
ATOM     62  H   UNL A   1      40.772  30.104  32.575  1.00  0.00     0.167 HD
ATOM     63  C   UNL A   1      42.107  30.399  35.065  1.00  0.00     0.074 A 
ATOM     64  C   UNL A   1      42.443  30.872  36.392  1.00  0.00     0.031 C 
ATOM     65  C   UNL A   1      42.750  29.391  34.428  1.00  0.00     0.037 A 
BRANCH  52  66
ATOM     66  C   UNL A   1      40.441  28.036  28.855  1.00  0.00     0.064 A 
ATOM     67  C   UNL A   1      41.197  28.389  27.726  1.00  0.00     0.173 A 
ATOM     68  C   UNL A   1      39.750  26.815  28.823  1.00  0.00     0.173 A 
ATOM     69  F   UNL A   1      41.869  29.549  27.699  1.00  0.00    -0.203 F 
ATOM     70  C   UNL A   1      41.228  27.572  26.598  1.00  0.00     0.198 A 
ATOM     71  C   UNL A   1      39.812  25.983  27.707  1.00  0.00     0.198 A 
ATOM     72  F   UNL A   1      39.019  26.423  29.877  1.00  0.00    -0.203 F 
ATOM     73  F   UNL A   1      41.910  27.959  25.511  1.00  0.00    -0.200 F 
ATOM     74  C   UNL A   1      40.542  26.367  26.592  1.00  0.00     0.200 A 
ATOM     75  F   UNL A   1      39.163  24.811  27.710  1.00  0.00    -0.200 F 
ATOM     76  F   UNL A   1      40.579  25.579  25.509  1.00  0.00    -0.200 F 
ENDBRANCH  52  66
BRANCH  53  77
ATOM     77  C   UNL A   1      39.618  33.972  36.855  1.00  0.00     0.064 A 
ATOM     78  C   UNL A   1      38.851  33.569  37.958  1.00  0.00     0.173 A 
ATOM     79  C   UNL A   1      40.253  35.221  36.925  1.00  0.00     0.173 A 
ATOM     80  F   UNL A   1      38.207  32.392  37.931  1.00  0.00    -0.203 F 
ATOM     81  C   UNL A   1      38.706  34.390  39.074  1.00  0.00     0.198 A 
ATOM     82  C   UNL A   1      40.133  36.027  38.055  1.00  0.00     0.198 A 
ATOM     83  F   UNL A   1      41.003  35.652  35.900  1.00  0.00    -0.203 F 
ATOM     84  F   UNL A   1      37.928  34.001  40.092  1.00  0.00    -0.200 F 
ATOM     85  C   UNL A   1      39.352  35.616  39.124  1.00  0.00     0.200 A 
ATOM     86  F   UNL A   1      40.773  37.203  38.106  1.00  0.00    -0.200 F 
ATOM     87  F   UNL A   1      39.216  36.403  40.200  1.00  0.00    -0.200 F 
ENDBRANCH  53  77
BRANCH  65  88
ATOM     88  C   UNL A   1      43.917  28.758  35.132  1.00  0.00     0.064 A 
ATOM     89  C   UNL A   1      43.758  27.663  35.993  1.00  0.00     0.173 A 
ATOM     90  C   UNL A   1      45.220  29.224  34.894  1.00  0.00     0.173 A 
ATOM     91  F   UNL A   1      42.532  27.191  36.267  1.00  0.00    -0.203 F 
ATOM     92  C   UNL A   1      44.858  27.070  36.607  1.00  0.00     0.198 A 
ATOM     93  C   UNL A   1      46.321  28.607  35.483  1.00  0.00     0.198 A 
ATOM     94  F   UNL A   1      45.428  30.263  34.073  1.00  0.00    -0.203 F 
ATOM     95  F   UNL A   1      44.679  26.054  37.462  1.00  0.00    -0.200 F 
ATOM     96  C   UNL A   1      46.138  27.535  36.344  1.00  0.00     0.200 A 
ATOM     97  F   UNL A   1      47.557  29.047  35.214  1.00  0.00    -0.200 F 
ATOM     98  F   UNL A   1      47.197  26.954  36.925  1.00  0.00    -0.200 F 
ENDBRANCH  65  88
ENDBRANCH  39  40
ENDBRANCH  31  34
ENDBRANCH  29  30
ENDBRANCH  28  29
ENDBRANCH  27  28
ENDBRANCH  26  27
ENDBRANCH   1  26
TORSDOF 19
ENDMDL
