MODEL 1
REMARK VINA RESULT:     -12.6      0.000      0.000
REMARK SMILES C[C@@H]1CCC[C@@]1(C(=O)NCCCCCCNC(=O)c1ccc(-c2c3nc(c(-c4c(F)c(F)c(F)c(F)c4F)c4ccc([nH]4)c(-c4c(F)c(F)c(F)c(F)c4F)c4nc(c(-c5c(F)c(F)c(F)c(F)c5F)c5ccc2[nH]5)C=C4)C=C3)cc1)c1ccc(Cl)cc1Cl
REMARK SMILES IDX 13 1 12 2 11 3 10 4 9 5 7 6 8 7 6 9 1 10 2 11 3 12 4 13 5 14
REMARK SMILES IDX 82 15 83 16 88 17 84 18 87 19 89 20 85 21 86 22 14 23 15 24
REMARK SMILES IDX 16 25 17 26 18 28 19 29 20 30 81 31 21 32 80 33 22 34 23 35
REMARK SMILES IDX 24 36 74 37 25 38 79 39 73 40 75 41 26 42 78 43 72 44 71 45
REMARK SMILES IDX 27 47 59 48 39 49 58 50 40 51 43 52 57 53 76 54 41 55 42 56
REMARK SMILES IDX 56 58 77 59 44 60 28 61 29 62 37 63 30 64 31 65 35 66 38 67
REMARK SMILES IDX 32 68 33 69 36 70 34 71 60 72 61 73 69 74 62 75 63 76 67 77
REMARK SMILES IDX 70 78 64 79 65 80 68 81 66 82 45 83 46 84 54 85 47 86 48 87
REMARK SMILES IDX 52 88 55 89 49 90 50 91 53 92 51 93
REMARK H PARENT 9 8 16 27 75 46 43 57
REMARK Flexibility Score: inf
ROOT
ATOM      1  C   UNL A   1      31.676  30.697  26.199  1.00  0.00     0.002 C 
ENDROOT
BRANCH   1   2
ATOM      2  C   UNL A   1      32.330  29.801  27.257  1.00  0.00     0.002 C 
BRANCH   2   3
ATOM      3  C   UNL A   1      33.593  29.082  26.789  1.00  0.00     0.021 C 
BRANCH   3   4
ATOM      4  C   UNL A   1      33.320  27.752  26.103  1.00  0.00     0.116 C 
BRANCH   4   5
ATOM      5  N   UNL A   1      32.113  27.123  26.597  1.00  0.00    -0.355 N 
ATOM      6  C   UNL A   1      31.122  26.481  25.899  1.00  0.00     0.230 C 
ATOM      7  O   UNL A   1      30.181  26.013  26.542  1.00  0.00    -0.274 OA
ATOM      8  H   UNL A   1      31.985  27.161  27.573  1.00  0.00     0.163 HD
BRANCH   6   9
ATOM      9  C   UNL A   1      31.190  26.428  24.347  1.00  0.00     0.078 C 
ATOM     10  C   UNL A   1      31.286  23.858  24.969  1.00  0.00     0.009 C 
ATOM     11  C   UNL A   1      30.814  24.934  23.958  1.00  0.00     0.006 C 
ATOM     12  C   UNL A   1      31.536  24.637  22.640  1.00  0.00     0.005 C 
ATOM     13  C   UNL A   1      32.724  25.585  22.591  1.00  0.00     0.002 C 
ATOM     14  C   UNL A   1      32.641  26.503  23.817  1.00  0.00     0.022 C 
BRANCH   9  15
ATOM     15  C   UNL A   1      30.362  27.592  23.697  1.00  0.00    -0.013 A 
ATOM     16  C   UNL A   1      31.012  28.745  23.212  1.00  0.00     0.008 A 
ATOM     17  C   UNL A   1      28.954  27.554  23.499  1.00  0.00     0.046 A 
ATOM     18  C   UNL A   1      30.343  29.728  22.470  1.00  0.00     0.021 A 
ATOM     19  C   UNL A   1      28.298  28.506  22.698  1.00  0.00     0.041 A 
ATOM     20  Cl  UNL A   1      27.891  26.395  24.223  1.00  0.00    -0.084 Cl
ATOM     21  C   UNL A   1      28.999  29.578  22.175  1.00  0.00     0.042 A 
ATOM     22  Cl  UNL A   1      28.202  30.728  21.177  1.00  0.00    -0.084 Cl
ENDBRANCH   9  15
ENDBRANCH   6   9
ENDBRANCH   4   5
ENDBRANCH   3   4
ENDBRANCH   2   3
ENDBRANCH   1   2
BRANCH   1  23
ATOM     23  C   UNL A   1      31.456  32.150  26.626  1.00  0.00     0.021 C 
BRANCH  23  24
ATOM     24  C   UNL A   1      32.672  32.812  27.259  1.00  0.00     0.116 C 
BRANCH  24  25
ATOM     25  N   UNL A   1      32.426  34.206  27.585  1.00  0.00    -0.352 N 
ATOM     26  C   UNL A   1      32.994  34.971  28.568  1.00  0.00     0.251 C 
ATOM     27  H   UNL A   1      31.759  34.663  27.023  1.00  0.00     0.163 HD
ATOM     28  O   UNL A   1      32.537  36.077  28.844  1.00  0.00    -0.269 OA
BRANCH  26  29
ATOM     29  C   UNL A   1      34.156  34.443  29.307  1.00  0.00     0.039 A 
ATOM     30  C   UNL A   1      33.943  33.773  30.512  1.00  0.00     0.014 A 
ATOM     31  C   UNL A   1      35.449  34.597  28.797  1.00  0.00     0.014 A 
ATOM     32  C   UNL A   1      35.027  33.208  31.183  1.00  0.00     0.010 A 
ATOM     33  C   UNL A   1      36.515  33.964  29.423  1.00  0.00     0.010 A 
ATOM     34  C   UNL A   1      36.315  33.271  30.627  1.00  0.00    -0.014 A 
BRANCH  34  35
ATOM     35  C   UNL A   1      37.473  32.630  31.296  1.00  0.00     0.031 A 
ATOM     36  C   UNL A   1      38.199  31.500  30.619  1.00  0.00     0.074 A 
ATOM     37  C   UNL A   1      37.830  33.023  32.532  1.00  0.00     0.049 A 
ATOM     38  N   UNL A   1      39.186  30.765  31.065  1.00  0.00    -0.248 NA
ATOM     39  C   UNL A   1      37.731  31.129  29.275  1.00  0.00     0.031 C 
ATOM     40  C   UNL A   1      37.177  34.080  33.305  1.00  0.00     0.029 A 
ATOM     41  N   UNL A   1      38.826  32.572  33.361  1.00  0.00    -0.354 N 
ATOM     42  C   UNL A   1      39.449  29.841  30.062  1.00  0.00     0.074 A 
ATOM     43  C   UNL A   1      38.476  30.064  29.015  1.00  0.00     0.031 C 
ATOM     44  C   UNL A   1      37.807  34.218  34.482  1.00  0.00     0.029 A 
ATOM     45  C   UNL A   1      38.878  33.229  34.566  1.00  0.00     0.049 A 
ATOM     46  H   UNL A   1      39.445  31.846  33.117  1.00  0.00     0.167 HD
ATOM     47  C   UNL A   1      40.431  28.911  30.006  1.00  0.00     0.037 A 
ATOM     48  C   UNL A   1      39.693  33.047  35.622  1.00  0.00     0.037 A 
ATOM     49  C   UNL A   1      41.403  28.703  31.049  1.00  0.00     0.049 A 
ATOM     50  C   UNL A   1      40.753  31.983  35.552  1.00  0.00     0.074 A 
ATOM     51  C   UNL A   1      42.465  27.818  31.074  1.00  0.00     0.029 A 
ATOM     52  N   UNL A   1      41.423  29.387  32.256  1.00  0.00    -0.354 N 
ATOM     53  N   UNL A   1      41.036  31.156  34.573  1.00  0.00    -0.248 NA
ATOM     54  C   UNL A   1      41.614  31.829  36.733  1.00  0.00     0.031 C 
ATOM     55  C   UNL A   1      43.094  27.925  32.319  1.00  0.00     0.029 A 
ATOM     56  C   UNL A   1      42.464  28.924  33.045  1.00  0.00     0.049 A 
ATOM     57  H   UNL A   1      40.791  30.097  32.514  1.00  0.00     0.167 HD
ATOM     58  C   UNL A   1      42.126  30.411  35.003  1.00  0.00     0.074 A 
ATOM     59  C   UNL A   1      42.460  30.891  36.328  1.00  0.00     0.031 C 
ATOM     60  C   UNL A   1      42.790  29.419  34.360  1.00  0.00     0.037 A 
BRANCH  47  61
ATOM     61  C   UNL A   1      40.496  28.045  28.779  1.00  0.00     0.064 A 
ATOM     62  C   UNL A   1      39.807  26.824  28.699  1.00  0.00     0.173 A 
ATOM     63  C   UNL A   1      41.242  28.447  27.660  1.00  0.00     0.173 A 
ATOM     64  F   UNL A   1      39.088  26.385  29.743  1.00  0.00    -0.203 F 
ATOM     65  C   UNL A   1      39.898  26.021  27.566  1.00  0.00     0.198 A 
ATOM     66  C   UNL A   1      41.300  27.659  26.514  1.00  0.00     0.198 A 
ATOM     67  F   UNL A   1      41.915  29.608  27.677  1.00  0.00    -0.203 F 
ATOM     68  F   UNL A   1      39.285  24.828  27.541  1.00  0.00    -0.200 F 
ATOM     69  C   UNL A   1      40.639  26.441  26.472  1.00  0.00     0.200 A 
ATOM     70  F   UNL A   1      42.003  28.075  25.452  1.00  0.00    -0.200 F 
ATOM     71  F   UNL A   1      40.723  25.669  25.381  1.00  0.00    -0.200 F 
ENDBRANCH  47  61
BRANCH  48  72
ATOM     72  C   UNL A   1      39.556  33.912  36.824  1.00  0.00     0.064 A 
ATOM     73  C   UNL A   1      38.803  33.492  37.929  1.00  0.00     0.173 A 
ATOM     74  C   UNL A   1      40.172  35.170  36.896  1.00  0.00     0.173 A 
ATOM     75  F   UNL A   1      38.179  32.304  37.900  1.00  0.00    -0.203 F 
ATOM     76  C   UNL A   1      38.651  34.305  39.049  1.00  0.00     0.198 A 
ATOM     77  C   UNL A   1      40.046  35.970  38.030  1.00  0.00     0.198 A 
ATOM     78  F   UNL A   1      40.910  35.618  35.869  1.00  0.00    -0.203 F 
ATOM     79  F   UNL A   1      37.885  33.899  40.070  1.00  0.00    -0.200 F 
ATOM     80  C   UNL A   1      39.278  35.541  39.102  1.00  0.00     0.200 A 
ATOM     81  F   UNL A   1      40.666  37.156  38.083  1.00  0.00    -0.200 F 
ATOM     82  F   UNL A   1      39.135  36.321  40.182  1.00  0.00    -0.200 F 
ENDBRANCH  48  72
BRANCH  60  83
ATOM     83  C   UNL A   1      43.976  28.817  35.058  1.00  0.00     0.064 A 
ATOM     84  C   UNL A   1      45.269  29.338  34.906  1.00  0.00     0.173 A 
ATOM     85  C   UNL A   1      43.807  27.725  35.924  1.00  0.00     0.173 A 
ATOM     86  F   UNL A   1      45.488  30.372  34.080  1.00  0.00    -0.203 F 
ATOM     87  C   UNL A   1      46.352  28.771  35.573  1.00  0.00     0.198 A 
ATOM     88  C   UNL A   1      44.886  27.184  36.617  1.00  0.00     0.198 A 
ATOM     89  F   UNL A   1      42.589  27.192  36.112  1.00  0.00    -0.203 F 
ATOM     90  F   UNL A   1      47.587  29.252  35.371  1.00  0.00    -0.200 F 
ATOM     91  C   UNL A   1      46.158  27.700  36.433  1.00  0.00     0.200 A 
ATOM     92  F   UNL A   1      44.692  26.161  37.461  1.00  0.00    -0.200 F 
ATOM     93  F   UNL A   1      47.200  27.163  37.082  1.00  0.00    -0.200 F 
ENDBRANCH  60  83
ENDBRANCH  34  35
ENDBRANCH  26  29
ENDBRANCH  24  25
ENDBRANCH  23  24
ENDBRANCH   1  23
TORSDOF 14
ENDMDL
MODEL 2
REMARK VINA RESULT:     -12.5      1.580      2.796
REMARK SMILES C[C@@H]1CCC[C@@]1(C(=O)NCCCCCCNC(=O)c1ccc(-c2c3nc(c(-c4c(F)c(F)c(F)c(F)c4F)c4ccc([nH]4)c(-c4c(F)c(F)c(F)c(F)c4F)c4nc(c(-c5c(F)c(F)c(F)c(F)c5F)c5ccc2[nH]5)C=C4)C=C3)cc1)c1ccc(Cl)cc1Cl
REMARK SMILES IDX 13 1 12 2 11 3 10 4 9 5 7 6 8 7 6 9 1 10 2 11 3 12 4 13 5 14
REMARK SMILES IDX 82 15 83 16 88 17 84 18 87 19 89 20 85 21 86 22 14 23 15 24
REMARK SMILES IDX 16 25 17 26 18 28 19 29 20 30 81 31 21 32 80 33 22 34 23 35
REMARK SMILES IDX 24 36 74 37 25 38 79 39 73 40 75 41 26 42 78 43 72 44 71 45
REMARK SMILES IDX 27 47 59 48 39 49 58 50 40 51 43 52 57 53 76 54 41 55 42 56
REMARK SMILES IDX 56 58 77 59 44 60 28 61 29 62 37 63 30 64 31 65 35 66 38 67
REMARK SMILES IDX 32 68 33 69 36 70 34 71 60 72 61 73 69 74 62 75 63 76 67 77
REMARK SMILES IDX 70 78 64 79 65 80 68 81 66 82 45 83 46 84 54 85 47 86 48 87
REMARK SMILES IDX 52 88 55 89 49 90 50 91 53 92 51 93
REMARK H PARENT 9 8 16 27 75 46 43 57
REMARK Flexibility Score: inf
ROOT
ATOM      1  C   UNL A   1      31.658  30.577  26.103  1.00  0.00     0.002 C 
ENDROOT
BRANCH   1   2
ATOM      2  C   UNL A   1      32.725  29.801  26.882  1.00  0.00     0.002 C 
BRANCH   2   3
ATOM      3  C   UNL A   1      33.728  29.047  26.010  1.00  0.00     0.021 C 
BRANCH   3   4
ATOM      4  C   UNL A   1      33.637  27.535  26.144  1.00  0.00     0.116 C 
BRANCH   4   5
ATOM      5  N   UNL A   1      32.353  27.111  26.664  1.00  0.00    -0.355 N 
ATOM      6  C   UNL A   1      31.526  26.111  26.220  1.00  0.00     0.230 C 
ATOM      7  O   UNL A   1      30.473  25.926  26.833  1.00  0.00    -0.274 OA
ATOM      8  H   UNL A   1      32.029  27.611  27.448  1.00  0.00     0.163 HD
BRANCH   6   9
ATOM      9  C   UNL A   1      31.910  25.309  24.946  1.00  0.00     0.078 C 
ATOM     10  C   UNL A   1      30.709  27.421  23.899  1.00  0.00     0.009 C 
ATOM     11  C   UNL A   1      31.818  26.349  23.748  1.00  0.00     0.006 C 
ATOM     12  C   UNL A   1      31.466  25.536  22.498  1.00  0.00     0.005 C 
ATOM     13  C   UNL A   1      30.775  24.277  22.998  1.00  0.00     0.002 C 
ATOM     14  C   UNL A   1      30.815  24.299  24.531  1.00  0.00     0.022 C 
BRANCH   9  15
ATOM     15  C   UNL A   1      33.257  24.529  25.145  1.00  0.00    -0.013 A 
ATOM     16  C   UNL A   1      34.328  24.715  24.246  1.00  0.00     0.008 A 
ATOM     17  C   UNL A   1      33.519  23.654  26.235  1.00  0.00     0.046 A 
ATOM     18  C   UNL A   1      35.603  24.181  24.475  1.00  0.00     0.021 A 
ATOM     19  C   UNL A   1      34.814  23.175  26.499  1.00  0.00     0.041 A 
ATOM     20  Cl  UNL A   1      32.314  23.052  27.322  1.00  0.00    -0.084 Cl
ATOM     21  C   UNL A   1      35.852  23.454  25.627  1.00  0.00     0.042 A 
ATOM     22  Cl  UNL A   1      37.440  22.888  25.963  1.00  0.00    -0.084 Cl
ENDBRANCH   9  15
ENDBRANCH   6   9
ENDBRANCH   4   5
ENDBRANCH   3   4
ENDBRANCH   2   3
ENDBRANCH   1   2
BRANCH   1  23
ATOM     23  C   UNL A   1      31.416  32.009  26.586  1.00  0.00     0.021 C 
BRANCH  23  24
ATOM     24  C   UNL A   1      32.618  32.660  27.258  1.00  0.00     0.116 C 
BRANCH  24  25
ATOM     25  N   UNL A   1      32.384  34.063  27.552  1.00  0.00    -0.352 N 
ATOM     26  C   UNL A   1      32.961  34.844  28.516  1.00  0.00     0.251 C 
ATOM     27  H   UNL A   1      31.721  34.512  26.981  1.00  0.00     0.163 HD
ATOM     28  O   UNL A   1      32.514  35.961  28.768  1.00  0.00    -0.269 OA
BRANCH  26  29
ATOM     29  C   UNL A   1      34.119  34.323  29.267  1.00  0.00     0.039 A 
ATOM     30  C   UNL A   1      33.894  33.526  30.389  1.00  0.00     0.014 A 
ATOM     31  C   UNL A   1      35.421  34.609  28.846  1.00  0.00     0.014 A 
ATOM     32  C   UNL A   1      34.981  32.970  31.063  1.00  0.00     0.010 A 
ATOM     33  C   UNL A   1      36.497  33.988  29.468  1.00  0.00     0.010 A 
ATOM     34  C   UNL A   1      36.287  33.171  30.589  1.00  0.00    -0.014 A 
BRANCH  34  35
ATOM     35  C   UNL A   1      37.453  32.543  31.257  1.00  0.00     0.031 A 
ATOM     36  C   UNL A   1      38.193  31.423  30.580  1.00  0.00     0.074 A 
ATOM     37  C   UNL A   1      37.803  32.939  32.495  1.00  0.00     0.049 A 
ATOM     38  N   UNL A   1      39.189  30.700  31.025  1.00  0.00    -0.248 NA
ATOM     39  C   UNL A   1      37.731  31.047  29.235  1.00  0.00     0.031 C 
ATOM     40  C   UNL A   1      37.136  33.987  33.268  1.00  0.00     0.029 A 
ATOM     41  N   UNL A   1      38.805  32.500  33.324  1.00  0.00    -0.354 N 
ATOM     42  C   UNL A   1      39.465  29.781  30.022  1.00  0.00     0.074 A 
ATOM     43  C   UNL A   1      38.489  29.992  28.974  1.00  0.00     0.031 C 
ATOM     44  C   UNL A   1      37.764  34.131  34.445  1.00  0.00     0.029 A 
ATOM     45  C   UNL A   1      38.847  33.156  34.529  1.00  0.00     0.049 A 
ATOM     46  H   UNL A   1      39.433  31.782  33.079  1.00  0.00     0.167 HD
ATOM     47  C   UNL A   1      40.459  28.863  29.966  1.00  0.00     0.037 A 
ATOM     48  C   UNL A   1      39.664  32.984  35.586  1.00  0.00     0.037 A 
ATOM     49  C   UNL A   1      41.432  28.666  31.009  1.00  0.00     0.049 A 
ATOM     50  C   UNL A   1      40.738  31.933  35.515  1.00  0.00     0.074 A 
ATOM     51  C   UNL A   1      42.506  27.795  31.034  1.00  0.00     0.029 A 
ATOM     52  N   UNL A   1      41.443  29.350  32.217  1.00  0.00    -0.354 N 
ATOM     53  N   UNL A   1      41.032  31.111  34.536  1.00  0.00    -0.248 NA
ATOM     54  C   UNL A   1      41.599  31.788  36.696  1.00  0.00     0.031 C 
ATOM     55  C   UNL A   1      43.132  27.909  32.279  1.00  0.00     0.029 A 
ATOM     56  C   UNL A   1      42.489  28.899  33.006  1.00  0.00     0.049 A 
ATOM     57  H   UNL A   1      40.802  30.052  32.475  1.00  0.00     0.167 HD
ATOM     58  C   UNL A   1      42.130  30.379  34.966  1.00  0.00     0.074 A 
ATOM     59  C   UNL A   1      42.457  30.862  36.292  1.00  0.00     0.031 C 
ATOM     60  C   UNL A   1      42.808  29.397  34.321  1.00  0.00     0.037 A 
BRANCH  47  61
ATOM     61  C   UNL A   1      40.535  28.000  28.738  1.00  0.00     0.064 A 
ATOM     62  C   UNL A   1      39.863  26.770  28.656  1.00  0.00     0.173 A 
ATOM     63  C   UNL A   1      41.276  28.414  27.619  1.00  0.00     0.173 A 
ATOM     64  F   UNL A   1      39.150  26.320  29.700  1.00  0.00    -0.203 F 
ATOM     65  C   UNL A   1      39.965  25.969  27.523  1.00  0.00     0.198 A 
ATOM     66  C   UNL A   1      41.345  27.628  26.473  1.00  0.00     0.198 A 
ATOM     67  F   UNL A   1      41.933  29.584  27.638  1.00  0.00    -0.203 F 
ATOM     68  F   UNL A   1      39.369  24.768  27.496  1.00  0.00    -0.200 F 
ATOM     69  C   UNL A   1      40.700  26.400  26.429  1.00  0.00     0.200 A 
ATOM     70  F   UNL A   1      42.042  28.054  25.411  1.00  0.00    -0.200 F 
ATOM     71  F   UNL A   1      40.795  25.631  25.337  1.00  0.00    -0.200 F 
ENDBRANCH  47  61
BRANCH  48  72
ATOM     72  C   UNL A   1      39.515  33.845  36.789  1.00  0.00     0.064 A 
ATOM     73  C   UNL A   1      40.117  35.110  36.844  1.00  0.00     0.173 A 
ATOM     74  C   UNL A   1      38.773  33.427  37.903  1.00  0.00     0.173 A 
ATOM     75  F   UNL A   1      40.853  35.547  35.811  1.00  0.00    -0.203 F 
ATOM     76  C   UNL A   1      40.001  35.914  37.976  1.00  0.00     0.198 A 
ATOM     77  C   UNL A   1      38.631  34.245  39.022  1.00  0.00     0.198 A 
ATOM     78  F   UNL A   1      38.171  32.228  37.899  1.00  0.00    -0.203 F 
ATOM     79  F   UNL A   1      40.627  37.098  38.020  1.00  0.00    -0.200 F 
ATOM     80  C   UNL A   1      39.253  35.484  39.061  1.00  0.00     0.200 A 
ATOM     81  F   UNL A   1      37.894  33.832  40.062  1.00  0.00    -0.200 F 
ATOM     82  F   UNL A   1      39.138  36.260  40.148  1.00  0.00    -0.200 F 
ENDBRANCH  48  72
BRANCH  60  83
ATOM     83  C   UNL A   1      44.000  28.809  35.020  1.00  0.00     0.064 A 
ATOM     84  C   UNL A   1      45.284  29.360  34.888  1.00  0.00     0.173 A 
ATOM     85  C   UNL A   1      43.848  27.699  35.866  1.00  0.00     0.173 A 
ATOM     86  F   UNL A   1      45.487  30.412  34.080  1.00  0.00    -0.203 F 
ATOM     87  C   UNL A   1      46.372  28.806  35.555  1.00  0.00     0.198 A 
ATOM     88  C   UNL A   1      44.933  27.170  36.559  1.00  0.00     0.198 A 
ATOM     89  F   UNL A   1      42.641  27.137  36.035  1.00  0.00    -0.203 F 
ATOM     90  F   UNL A   1      47.598  29.317  35.371  1.00  0.00    -0.200 F 
ATOM     91  C   UNL A   1      46.195  27.717  36.395  1.00  0.00     0.200 A 
ATOM     92  F   UNL A   1      44.755  26.130  37.385  1.00  0.00    -0.200 F 
ATOM     93  F   UNL A   1      47.244  27.192  37.044  1.00  0.00    -0.200 F 
ENDBRANCH  60  83
ENDBRANCH  34  35
ENDBRANCH  26  29
ENDBRANCH  24  25
ENDBRANCH  23  24
ENDBRANCH   1  23
TORSDOF 14
ENDMDL
MODEL 3
REMARK VINA RESULT:     -12.5      0.962      2.296
REMARK SMILES C[C@@H]1CCC[C@@]1(C(=O)NCCCCCCNC(=O)c1ccc(-c2c3nc(c(-c4c(F)c(F)c(F)c(F)c4F)c4ccc([nH]4)c(-c4c(F)c(F)c(F)c(F)c4F)c4nc(c(-c5c(F)c(F)c(F)c(F)c5F)c5ccc2[nH]5)C=C4)C=C3)cc1)c1ccc(Cl)cc1Cl
REMARK SMILES IDX 13 1 12 2 11 3 10 4 9 5 7 6 8 7 6 9 1 10 2 11 3 12 4 13 5 14
REMARK SMILES IDX 82 15 83 16 88 17 84 18 87 19 89 20 85 21 86 22 14 23 15 24
REMARK SMILES IDX 16 25 17 26 18 28 19 29 20 30 81 31 21 32 80 33 22 34 23 35
REMARK SMILES IDX 24 36 74 37 25 38 79 39 73 40 75 41 26 42 78 43 72 44 71 45
REMARK SMILES IDX 27 47 59 48 39 49 58 50 40 51 43 52 57 53 76 54 41 55 42 56
REMARK SMILES IDX 56 58 77 59 44 60 28 61 29 62 37 63 30 64 31 65 35 66 38 67
REMARK SMILES IDX 32 68 33 69 36 70 34 71 60 72 61 73 69 74 62 75 63 76 67 77
REMARK SMILES IDX 70 78 64 79 65 80 68 81 66 82 45 83 46 84 54 85 47 86 48 87
REMARK SMILES IDX 52 88 55 89 49 90 50 91 53 92 51 93
REMARK H PARENT 9 8 16 27 75 46 43 57
REMARK Flexibility Score: inf
ROOT
ATOM      1  C   UNL A   1      31.691  30.660  25.920  1.00  0.00     0.002 C 
ENDROOT
BRANCH   1   2
ATOM      2  C   UNL A   1      32.390  29.646  26.833  1.00  0.00     0.002 C 
BRANCH   2   3
ATOM      3  C   UNL A   1      31.455  28.643  27.504  1.00  0.00     0.021 C 
BRANCH   3   4
ATOM      4  C   UNL A   1      31.495  27.258  26.878  1.00  0.00     0.116 C 
BRANCH   4   5
ATOM      5  N   UNL A   1      32.838  26.870  26.501  1.00  0.00    -0.355 N 
ATOM      6  C   UNL A   1      33.255  26.108  25.439  1.00  0.00     0.230 C 
ATOM      7  O   UNL A   1      34.465  25.913  25.315  1.00  0.00    -0.274 OA
ATOM      8  H   UNL A   1      33.554  27.200  27.090  1.00  0.00     0.163 HD
BRANCH   6   9
ATOM      9  C   UNL A   1      32.199  25.477  24.489  1.00  0.00     0.078 C 
ATOM     10  C   UNL A   1      32.412  23.614  26.356  1.00  0.00     0.009 C 
ATOM     11  C   UNL A   1      31.490  24.338  25.342  1.00  0.00     0.006 C 
ATOM     12  C   UNL A   1      31.028  23.275  24.341  1.00  0.00     0.005 C 
ATOM     13  C   UNL A   1      31.930  23.423  23.126  1.00  0.00     0.002 C 
ATOM     14  C   UNL A   1      32.845  24.631  23.367  1.00  0.00     0.022 C 
BRANCH   9  15
ATOM     15  C   UNL A   1      31.294  26.575  23.828  1.00  0.00    -0.013 A 
ATOM     16  C   UNL A   1      29.890  26.492  23.919  1.00  0.00     0.008 A 
ATOM     17  C   UNL A   1      31.797  27.727  23.162  1.00  0.00     0.046 A 
ATOM     18  C   UNL A   1      29.047  27.530  23.501  1.00  0.00     0.021 A 
ATOM     19  C   UNL A   1      30.955  28.795  22.805  1.00  0.00     0.041 A 
ATOM     20  Cl  UNL A   1      33.446  27.944  22.684  1.00  0.00    -0.084 Cl
ATOM     21  C   UNL A   1      29.588  28.698  22.990  1.00  0.00     0.042 A 
ATOM     22  Cl  UNL A   1      28.563  30.014  22.575  1.00  0.00    -0.084 Cl
ENDBRANCH   9  15
ENDBRANCH   6   9
ENDBRANCH   4   5
ENDBRANCH   3   4
ENDBRANCH   2   3
ENDBRANCH   1   2
BRANCH   1  23
ATOM     23  C   UNL A   1      31.402  32.019  26.563  1.00  0.00     0.021 C 
BRANCH  23  24
ATOM     24  C   UNL A   1      32.598  32.654  27.260  1.00  0.00     0.116 C 
BRANCH  24  25
ATOM     25  N   UNL A   1      32.379  34.061  27.546  1.00  0.00    -0.352 N 
ATOM     26  C   UNL A   1      32.964  34.843  28.505  1.00  0.00     0.251 C 
ATOM     27  H   UNL A   1      31.719  34.514  26.973  1.00  0.00     0.163 HD
ATOM     28  O   UNL A   1      32.528  35.965  28.751  1.00  0.00    -0.269 OA
BRANCH  26  29
ATOM     29  C   UNL A   1      34.117  34.315  29.257  1.00  0.00     0.039 A 
ATOM     30  C   UNL A   1      33.888  33.612  30.440  1.00  0.00     0.014 A 
ATOM     31  C   UNL A   1      35.418  34.502  28.780  1.00  0.00     0.014 A 
ATOM     32  C   UNL A   1      34.967  33.047  31.121  1.00  0.00     0.010 A 
ATOM     33  C   UNL A   1      36.480  33.870  29.414  1.00  0.00     0.010 A 
ATOM     34  C   UNL A   1      36.266  33.145  30.596  1.00  0.00    -0.014 A 
BRANCH  34  35
ATOM     35  C   UNL A   1      37.419  32.505  31.274  1.00  0.00     0.031 A 
ATOM     36  C   UNL A   1      38.151  31.375  30.605  1.00  0.00     0.074 A 
ATOM     37  C   UNL A   1      37.766  32.900  32.513  1.00  0.00     0.049 A 
ATOM     38  N   UNL A   1      39.135  30.641  31.059  1.00  0.00    -0.248 NA
ATOM     39  C   UNL A   1      37.694  31.002  29.257  1.00  0.00     0.031 C 
ATOM     40  C   UNL A   1      37.106  33.958  33.279  1.00  0.00     0.029 A 
ATOM     41  N   UNL A   1      38.756  32.452  33.350  1.00  0.00    -0.354 N 
ATOM     42  C   UNL A   1      39.407  29.717  30.059  1.00  0.00     0.074 A 
ATOM     43  C   UNL A   1      38.441  29.937  29.004  1.00  0.00     0.031 C 
ATOM     44  C   UNL A   1      37.727  34.097  34.461  1.00  0.00     0.029 A 
ATOM     45  C   UNL A   1      38.798  33.110  34.555  1.00  0.00     0.049 A 
ATOM     46  H   UNL A   1      39.377  31.725  33.111  1.00  0.00     0.167 HD
ATOM     47  C   UNL A   1      40.390  28.787  30.012  1.00  0.00     0.037 A 
ATOM     48  C   UNL A   1      39.605  32.930  35.617  1.00  0.00     0.037 A 
ATOM     49  C   UNL A   1      41.354  28.581  31.062  1.00  0.00     0.049 A 
ATOM     50  C   UNL A   1      40.667  31.866  35.556  1.00  0.00     0.074 A 
ATOM     51  C   UNL A   1      42.417  27.697  31.097  1.00  0.00     0.029 A 
ATOM     52  N   UNL A   1      41.365  29.267  32.269  1.00  0.00    -0.354 N 
ATOM     53  N   UNL A   1      40.958  31.039  34.581  1.00  0.00    -0.248 NA
ATOM     54  C   UNL A   1      41.518  31.714  36.744  1.00  0.00     0.031 C 
ATOM     55  C   UNL A   1      43.035  27.806  32.347  1.00  0.00     0.029 A 
ATOM     56  C   UNL A   1      42.400  28.806  33.066  1.00  0.00     0.049 A 
ATOM     57  H   UNL A   1      40.730  29.977  32.521  1.00  0.00     0.167 HD
ATOM     58  C   UNL A   1      42.045  30.295  35.020  1.00  0.00     0.074 A 
ATOM     59  C   UNL A   1      42.368  30.777  36.347  1.00  0.00     0.031 C 
ATOM     60  C   UNL A   1      42.715  29.303  34.383  1.00  0.00     0.037 A 
BRANCH  47  61
ATOM     61  C   UNL A   1      40.465  27.921  28.786  1.00  0.00     0.064 A 
ATOM     62  C   UNL A   1      41.231  28.286  27.668  1.00  0.00     0.173 A 
ATOM     63  C   UNL A   1      39.775  26.700  28.732  1.00  0.00     0.173 A 
ATOM     64  F   UNL A   1      41.902  29.449  27.661  1.00  0.00    -0.203 F 
ATOM     65  C   UNL A   1      41.269  27.487  26.530  1.00  0.00     0.198 A 
ATOM     66  C   UNL A   1      39.845  25.884  27.607  1.00  0.00     0.198 A 
ATOM     67  F   UNL A   1      39.032  26.296  29.774  1.00  0.00    -0.203 F 
ATOM     68  F   UNL A   1      41.954  27.890  25.450  1.00  0.00    -0.200 F 
ATOM     69  C   UNL A   1      40.581  26.283  26.501  1.00  0.00     0.200 A 
ATOM     70  F   UNL A   1      39.193  24.713  27.588  1.00  0.00    -0.200 F 
ATOM     71  F   UNL A   1      40.621  25.512  25.407  1.00  0.00    -0.200 F 
ENDBRANCH  47  61
BRANCH  48  72
ATOM     72  C   UNL A   1      39.458  33.796  36.817  1.00  0.00     0.064 A 
ATOM     73  C   UNL A   1      40.093  35.044  36.883  1.00  0.00     0.173 A 
ATOM     74  C   UNL A   1      38.685  33.399  37.918  1.00  0.00     0.173 A 
ATOM     75  F   UNL A   1      40.859  35.460  35.864  1.00  0.00    -0.203 F 
ATOM     76  C   UNL A   1      39.978  35.852  38.012  1.00  0.00     0.198 A 
ATOM     77  C   UNL A   1      38.545  34.221  39.034  1.00  0.00     0.198 A 
ATOM     78  F   UNL A   1      38.051  32.216  37.903  1.00  0.00    -0.203 F 
ATOM     79  F   UNL A   1      40.636  37.018  38.068  1.00  0.00    -0.200 F 
ATOM     80  C   UNL A   1      39.200  35.442  39.084  1.00  0.00     0.200 A 
ATOM     81  F   UNL A   1      37.779  33.829  40.060  1.00  0.00    -0.200 F 
ATOM     82  F   UNL A   1      39.087  36.222  40.168  1.00  0.00    -0.200 F 
ENDBRANCH  48  72
BRANCH  60  83
ATOM     83  C   UNL A   1      43.895  28.703  35.091  1.00  0.00     0.064 A 
ATOM     84  C   UNL A   1      43.770  27.578  35.920  1.00  0.00     0.173 A 
ATOM     85  C   UNL A   1      45.179  29.239  34.904  1.00  0.00     0.173 A 
ATOM     86  F   UNL A   1      42.564  27.035  36.144  1.00  0.00    -0.203 F 
ATOM     87  C   UNL A   1      44.881  27.031  36.556  1.00  0.00     0.198 A 
ATOM     88  C   UNL A   1      46.292  28.667  35.514  1.00  0.00     0.198 A 
ATOM     89  F   UNL A   1      45.358  30.310  34.116  1.00  0.00    -0.203 F 
ATOM     90  F   UNL A   1      44.729  25.989  37.387  1.00  0.00    -0.200 F 
ATOM     91  C   UNL A   1      46.141  27.570  36.347  1.00  0.00     0.200 A 
ATOM     92  F   UNL A   1      47.511  29.180  35.295  1.00  0.00    -0.200 F 
ATOM     93  F   UNL A   1      47.210  27.035  36.953  1.00  0.00    -0.200 F 
ENDBRANCH  60  83
ENDBRANCH  34  35
ENDBRANCH  26  29
ENDBRANCH  24  25
ENDBRANCH  23  24
ENDBRANCH   1  23
TORSDOF 14
ENDMDL
