MODEL 1
REMARK VINA RESULT:     -12.3      0.000      0.000
REMARK SMILES CC(C)CN(C)c1cc2c(cc1Cl)C=C(C(=O)NCCCCCCNC(=O)c1ccc(-c3c4nc(c(-c5c(F)c(F)c(F)c(F)c5F)c5ccc([nH]5)c(-c5c(F)c(F)c(F)c(F)c5F)c5nc(c(-c6c(F)c(F)c(F)c(F)c6F)c6ccc3[nH]6)C=C5)C=C4)cc1)[C@@H](C(F)(F)F)O2
REMARK SMILES IDX 21 1 20 2 19 3 18 4 16 5 17 6 15 8 7 9 8 10 12 11 9 12 11 13
REMARK SMILES IDX 13 14 10 15 96 16 14 17 91 18 5 19 6 20 4 21 2 22 1 23 3 24
REMARK SMILES IDX 92 25 93 26 94 27 95 28 22 29 23 30 24 31 25 32 26 33 27 35
REMARK SMILES IDX 28 36 29 37 90 38 30 39 89 40 31 41 32 42 33 43 83 44 34 45
REMARK SMILES IDX 88 46 82 47 84 48 35 49 87 50 81 51 80 52 36 54 68 55 48 56
REMARK SMILES IDX 67 57 49 58 52 59 66 60 85 61 50 62 51 63 65 65 86 66 53 67
REMARK SMILES IDX 37 68 38 69 46 70 39 71 40 72 44 73 47 74 41 75 42 76 45 77
REMARK SMILES IDX 43 78 69 79 70 80 78 81 71 82 72 83 76 84 79 85 73 86 74 87
REMARK SMILES IDX 77 88 75 89 54 90 55 91 63 92 56 93 57 94 61 95 64 96 58 97
REMARK SMILES IDX 59 98 62 99 60 100
REMARK H PARENT 18 7 25 34 84 53 52 64
REMARK Flexibility Score: inf
ROOT
ATOM      1  C   UNL A   1      31.768  29.130  26.033  1.00  0.00     0.002 C 
ENDROOT
BRANCH   1   2
ATOM      2  C   UNL A   1      31.205  29.750  24.751  1.00  0.00     0.021 C 
BRANCH   2   3
ATOM      3  C   UNL A   1      31.021  28.754  23.609  1.00  0.00     0.116 C 
BRANCH   3   4
ATOM      4  N   UNL A   1      29.780  28.015  23.747  1.00  0.00    -0.352 N 
ATOM      5  C   UNL A   1      29.408  26.725  23.916  1.00  0.00     0.251 C 
ATOM      6  O   UNL A   1      28.193  26.542  24.032  1.00  0.00    -0.270 OA
ATOM      7  H   UNL A   1      28.999  28.612  23.707  1.00  0.00     0.163 HD
BRANCH   5   8
ATOM      8  C   UNL A   1      30.335  25.560  23.961  1.00  0.00     0.067 C 
ATOM      9  C   UNL A   1      33.105  21.612  25.463  1.00  0.00     0.059 A 
ATOM     10  C   UNL A   1      32.422  21.946  24.283  1.00  0.00     0.074 A 
ATOM     11  C   UNL A   1      33.079  22.547  26.522  1.00  0.00     0.065 A 
ATOM     12  C   UNL A   1      31.710  23.139  24.189  1.00  0.00     0.130 A 
ATOM     13  C   UNL A   1      32.287  23.701  26.453  1.00  0.00     0.034 A 
ATOM     14  Cl  UNL A   1      34.025  22.337  27.955  1.00  0.00    -0.082 Cl
ATOM     15  C   UNL A   1      31.585  23.989  25.287  1.00  0.00     0.019 A 
ATOM     16  O   UNL A   1      31.124  23.423  22.986  1.00  0.00    -0.475 OA
ATOM     17  C   UNL A   1      30.696  25.140  25.188  1.00  0.00     0.025 C 
ATOM     18  C   UNL A   1      30.883  24.843  22.759  1.00  0.00     0.314 C 
BRANCH   9  19
ATOM     19  N   UNL A   1      33.750  20.370  25.574  1.00  0.00    -0.373 N 
ATOM     20  C   UNL A   1      35.101  20.318  25.016  1.00  0.00     0.143 C 
BRANCH  19  21
ATOM     21  C   UNL A   1      32.902  19.178  25.354  1.00  0.00     0.119 C 
BRANCH  21  22
ATOM     22  C   UNL A   1      33.465  18.244  24.263  1.00  0.00     0.002 C 
ATOM     23  C   UNL A   1      33.688  16.818  24.775  1.00  0.00     0.009 C 
ATOM     24  C   UNL A   1      32.529  18.189  23.052  1.00  0.00     0.009 C 
ENDBRANCH  21  22
ENDBRANCH  19  21
ENDBRANCH   9  19
BRANCH  18  25
ATOM     25  C   UNL A   1      32.151  25.532  22.209  1.00  0.00     0.429 C 
ATOM     26  F   UNL A   1      32.895  24.657  21.488  1.00  0.00    -0.167 F 
ATOM     27  F   UNL A   1      31.853  26.558  21.374  1.00  0.00    -0.167 F 
ATOM     28  F   UNL A   1      32.945  26.038  23.178  1.00  0.00    -0.167 F 
ENDBRANCH  18  25
ENDBRANCH   5   8
ENDBRANCH   3   4
ENDBRANCH   2   3
ENDBRANCH   1   2
BRANCH   1  29
ATOM     29  C   UNL A   1      31.988  30.109  27.195  1.00  0.00     0.002 C 
BRANCH  29  30
ATOM     30  C   UNL A   1      31.749  31.584  26.868  1.00  0.00     0.021 C 
BRANCH  30  31
ATOM     31  C   UNL A   1      32.948  32.493  27.102  1.00  0.00     0.116 C 
BRANCH  31  32
ATOM     32  N   UNL A   1      32.564  33.843  27.479  1.00  0.00    -0.352 N 
ATOM     33  C   UNL A   1      33.058  34.633  28.488  1.00  0.00     0.251 C 
ATOM     34  H   UNL A   1      31.849  34.246  26.936  1.00  0.00     0.163 HD
ATOM     35  O   UNL A   1      32.517  35.698  28.770  1.00  0.00    -0.269 OA
BRANCH  33  36
ATOM     36  C   UNL A   1      34.227  34.171  29.262  1.00  0.00     0.039 A 
ATOM     37  C   UNL A   1      35.521  34.516  28.864  1.00  0.00     0.014 A 
ATOM     38  C   UNL A   1      34.026  33.348  30.372  1.00  0.00     0.014 A 
ATOM     39  C   UNL A   1      36.612  33.907  29.474  1.00  0.00     0.010 A 
ATOM     40  C   UNL A   1      35.125  32.800  31.034  1.00  0.00     0.010 A 
ATOM     41  C   UNL A   1      36.426  33.033  30.558  1.00  0.00    -0.014 A 
BRANCH  41  42
ATOM     42  C   UNL A   1      37.598  32.352  31.162  1.00  0.00     0.031 A 
ATOM     43  C   UNL A   1      38.034  32.684  32.563  1.00  0.00     0.074 A 
ATOM     44  C   UNL A   1      38.238  31.393  30.468  1.00  0.00     0.049 A 
ATOM     45  N   UNL A   1      39.042  32.207  33.251  1.00  0.00    -0.248 NA
ATOM     46  C   UNL A   1      37.236  33.686  33.289  1.00  0.00     0.031 C 
ATOM     47  C   UNL A   1      37.890  30.964  29.113  1.00  0.00     0.029 A 
ATOM     48  N   UNL A   1      39.297  30.592  30.810  1.00  0.00    -0.354 N 
ATOM     49  C   UNL A   1      39.009  32.861  34.477  1.00  0.00     0.074 A 
ATOM     50  C   UNL A   1      37.901  33.791  34.431  1.00  0.00     0.031 C 
ATOM     51  C   UNL A   1      38.688  29.946  28.758  1.00  0.00     0.029 A 
ATOM     52  C   UNL A   1      39.643  29.695  29.832  1.00  0.00     0.049 A 
ATOM     53  H   UNL A   1      39.764  30.656  31.675  1.00  0.00     0.167 HD
ATOM     54  C   UNL A   1      39.823  32.691  35.547  1.00  0.00     0.037 A 
ATOM     55  C   UNL A   1      40.631  28.781  29.796  1.00  0.00     0.037 A 
ATOM     56  C   UNL A   1      40.912  31.750  35.597  1.00  0.00     0.049 A 
ATOM     57  C   UNL A   1      41.556  28.655  30.973  1.00  0.00     0.074 A 
ATOM     58  C   UNL A   1      41.784  31.494  36.641  1.00  0.00     0.029 A 
ATOM     59  N   UNL A   1      41.275  30.907  34.557  1.00  0.00    -0.354 N 
ATOM     60  N   UNL A   1      41.524  29.287  32.120  1.00  0.00    -0.248 NA
ATOM     61  C   UNL A   1      42.663  27.697  30.843  1.00  0.00     0.031 C 
ATOM     62  C   UNL A   1      42.700  30.525  36.218  1.00  0.00     0.029 A 
ATOM     63  C   UNL A   1      42.372  30.144  34.927  1.00  0.00     0.049 A 
ATOM     64  H   UNL A   1      40.821  30.857  33.685  1.00  0.00     0.167 HD
ATOM     65  C   UNL A   1      42.599  28.805  32.851  1.00  0.00     0.074 A 
ATOM     66  C   UNL A   1      43.250  27.805  32.027  1.00  0.00     0.031 C 
ATOM     67  C   UNL A   1      43.015  29.163  34.090  1.00  0.00     0.037 A 
BRANCH  54  68
ATOM     68  C   UNL A   1      39.575  33.546  36.755  1.00  0.00     0.064 A 
ATOM     69  C   UNL A   1      38.724  33.130  37.790  1.00  0.00     0.173 A 
ATOM     70  C   UNL A   1      40.238  34.774  36.906  1.00  0.00     0.173 A 
ATOM     71  F   UNL A   1      38.057  31.970  37.688  1.00  0.00    -0.203 F 
ATOM     72  C   UNL A   1      38.532  33.919  38.921  1.00  0.00     0.198 A 
ATOM     73  C   UNL A   1      40.064  35.548  38.050  1.00  0.00     0.198 A 
ATOM     74  F   UNL A   1      41.067  35.217  35.948  1.00  0.00    -0.203 F 
ATOM     75  F   UNL A   1      37.685  33.518  39.878  1.00  0.00    -0.200 F 
ATOM     76  C   UNL A   1      39.207  35.123  39.054  1.00  0.00     0.200 A 
ATOM     77  F   UNL A   1      40.726  36.706  38.182  1.00  0.00    -0.200 F 
ATOM     78  F   UNL A   1      39.029  35.876  40.148  1.00  0.00    -0.200 F 
ENDBRANCH  54  68
BRANCH  55  79
ATOM     79  C   UNL A   1      40.786  27.919  28.598  1.00  0.00     0.064 A 
ATOM     80  C   UNL A   1      40.128  26.686  28.512  1.00  0.00     0.173 A 
ATOM     81  C   UNL A   1      41.559  28.326  27.500  1.00  0.00     0.173 A 
ATOM     82  F   UNL A   1      39.394  26.245  29.545  1.00  0.00    -0.203 F 
ATOM     83  C   UNL A   1      40.238  25.890  27.373  1.00  0.00     0.198 A 
ATOM     84  C   UNL A   1      41.647  27.543  26.352  1.00  0.00     0.198 A 
ATOM     85  F   UNL A   1      42.207  29.500  27.534  1.00  0.00    -0.203 F 
ATOM     86  F   UNL A   1      39.618  24.704  27.326  1.00  0.00    -0.200 F 
ATOM     87  C   UNL A   1      40.988  26.325  26.291  1.00  0.00     0.200 A 
ATOM     88  F   UNL A   1      42.360  27.974  25.302  1.00  0.00    -0.200 F 
ATOM     89  F   UNL A   1      41.078  25.568  25.188  1.00  0.00    -0.200 F 
ENDBRANCH  55  79
BRANCH  67  90
ATOM     90  C   UNL A   1      44.230  28.471  34.634  1.00  0.00     0.064 A 
ATOM     91  C   UNL A   1      45.514  29.007  34.454  1.00  0.00     0.173 A 
ATOM     92  C   UNL A   1      44.107  27.292  35.383  1.00  0.00     0.173 A 
ATOM     93  F   UNL A   1      45.685  30.124  33.732  1.00  0.00    -0.203 F 
ATOM     94  C   UNL A   1      46.633  28.375  34.991  1.00  0.00     0.198 A 
ATOM     95  C   UNL A   1      45.224  26.679  35.942  1.00  0.00     0.198 A 
ATOM     96  F   UNL A   1      42.899  26.745  35.589  1.00  0.00    -0.203 F 
ATOM     97  F   UNL A   1      47.854  28.882  34.774  1.00  0.00    -0.200 F 
ATOM     98  C   UNL A   1      46.487  27.217  35.741  1.00  0.00     0.200 A 
ATOM     99  F   UNL A   1      45.080  25.567  36.676  1.00  0.00    -0.200 F 
ATOM    100  F   UNL A   1      47.563  26.617  36.265  1.00  0.00    -0.200 F 
ENDBRANCH  67  90
ENDBRANCH  41  42
ENDBRANCH  33  36
ENDBRANCH  31  32
ENDBRANCH  30  31
ENDBRANCH  29  30
ENDBRANCH   1  29
TORSDOF 17
ENDMDL
MODEL 2
REMARK VINA RESULT:     -12.1      0.632      7.073
REMARK SMILES CC(C)CN(C)c1cc2c(cc1Cl)C=C(C(=O)NCCCCCCNC(=O)c1ccc(-c3c4nc(c(-c5c(F)c(F)c(F)c(F)c5F)c5ccc([nH]5)c(-c5c(F)c(F)c(F)c(F)c5F)c5nc(c(-c6c(F)c(F)c(F)c(F)c6F)c6ccc3[nH]6)C=C5)C=C4)cc1)[C@@H](C(F)(F)F)O2
REMARK SMILES IDX 21 1 20 2 19 3 18 4 16 5 17 6 15 8 7 9 8 10 12 11 9 12 11 13
REMARK SMILES IDX 13 14 10 15 96 16 14 17 91 18 5 19 6 20 4 21 2 22 1 23 3 24
REMARK SMILES IDX 92 25 93 26 94 27 95 28 22 29 23 30 24 31 25 32 26 33 27 35
REMARK SMILES IDX 28 36 29 37 90 38 30 39 89 40 31 41 32 42 33 43 83 44 34 45
REMARK SMILES IDX 88 46 82 47 84 48 35 49 87 50 81 51 80 52 36 54 68 55 48 56
REMARK SMILES IDX 67 57 49 58 52 59 66 60 85 61 50 62 51 63 65 65 86 66 53 67
REMARK SMILES IDX 37 68 38 69 46 70 39 71 40 72 44 73 47 74 41 75 42 76 45 77
REMARK SMILES IDX 43 78 69 79 70 80 78 81 71 82 72 83 76 84 79 85 73 86 74 87
REMARK SMILES IDX 77 88 75 89 54 90 55 91 63 92 56 93 57 94 61 95 64 96 58 97
REMARK SMILES IDX 59 98 62 99 60 100
REMARK H PARENT 18 7 25 34 84 53 52 64
REMARK Flexibility Score: inf
ROOT
ATOM      1  C   UNL A   1      31.381  29.890  25.611  1.00  0.00     0.002 C 
ENDROOT
BRANCH   1   2
ATOM      2  C   UNL A   1      32.209  29.062  24.624  1.00  0.00     0.021 C 
BRANCH   2   3
ATOM      3  C   UNL A   1      31.540  28.863  23.267  1.00  0.00     0.116 C 
BRANCH   3   4
ATOM      4  N   UNL A   1      30.263  28.186  23.401  1.00  0.00    -0.352 N 
ATOM      5  C   UNL A   1      29.829  26.923  23.611  1.00  0.00     0.251 C 
ATOM      6  O   UNL A   1      28.604  26.799  23.701  1.00  0.00    -0.270 OA
ATOM      7  H   UNL A   1      29.511  28.816  23.316  1.00  0.00     0.163 HD
BRANCH   5   8
ATOM      8  C   UNL A   1      30.700  25.720  23.727  1.00  0.00     0.067 C 
ATOM      9  C   UNL A   1      33.131  21.628  25.418  1.00  0.00     0.059 A 
ATOM     10  C   UNL A   1      32.600  22.018  24.179  1.00  0.00     0.074 A 
ATOM     11  C   UNL A   1      33.020  22.539  26.494  1.00  0.00     0.065 A 
ATOM     12  C   UNL A   1      31.948  23.240  24.039  1.00  0.00     0.130 A 
ATOM     13  C   UNL A   1      32.285  23.725  26.369  1.00  0.00     0.034 A 
ATOM     14  Cl  UNL A   1      33.789  22.256  28.018  1.00  0.00    -0.082 Cl
ATOM     15  C   UNL A   1      31.731  24.068  25.140  1.00  0.00     0.019 A 
ATOM     16  O   UNL A   1      31.513  23.577  22.786  1.00  0.00    -0.475 OA
ATOM     17  C   UNL A   1      30.903  25.257  24.974  1.00  0.00     0.025 C 
ATOM     18  C   UNL A   1      31.353  25.010  22.575  1.00  0.00     0.314 C 
BRANCH   9  19
ATOM     19  N   UNL A   1      33.712  20.359  25.566  1.00  0.00    -0.373 N 
ATOM     20  C   UNL A   1      35.057  20.222  25.010  1.00  0.00     0.143 C 
BRANCH  19  21
ATOM     21  C   UNL A   1      32.804  19.206  25.383  1.00  0.00     0.119 C 
BRANCH  21  22
ATOM     22  C   UNL A   1      33.282  18.247  24.273  1.00  0.00     0.002 C 
ATOM     23  C   UNL A   1      33.251  16.781  24.716  1.00  0.00     0.009 C 
ATOM     24  C   UNL A   1      32.422  18.396  23.014  1.00  0.00     0.009 C 
ENDBRANCH  21  22
ENDBRANCH  19  21
ENDBRANCH   9  19
BRANCH  18  25
ATOM     25  C   UNL A   1      32.701  25.660  22.190  1.00  0.00     0.429 C 
ATOM     26  F   UNL A   1      33.280  26.237  23.273  1.00  0.00    -0.167 F 
ATOM     27  F   UNL A   1      33.591  24.750  21.722  1.00  0.00    -0.167 F 
ATOM     28  F   UNL A   1      32.581  26.611  21.239  1.00  0.00    -0.167 F 
ENDBRANCH  18  25
ENDBRANCH   5   8
ENDBRANCH   3   4
ENDBRANCH   2   3
ENDBRANCH   1   2
BRANCH   1  29
ATOM     29  C   UNL A   1      32.163  30.476  26.795  1.00  0.00     0.002 C 
BRANCH  29  30
ATOM     30  C   UNL A   1      31.806  31.914  27.174  1.00  0.00     0.021 C 
BRANCH  30  31
ATOM     31  C   UNL A   1      32.990  32.869  27.246  1.00  0.00     0.116 C 
BRANCH  31  32
ATOM     32  N   UNL A   1      32.599  34.219  27.619  1.00  0.00    -0.352 N 
ATOM     33  C   UNL A   1      33.068  35.003  28.645  1.00  0.00     0.251 C 
ATOM     34  H   UNL A   1      31.901  34.627  27.057  1.00  0.00     0.163 HD
ATOM     35  O   UNL A   1      32.523  36.069  28.916  1.00  0.00    -0.269 OA
BRANCH  33  36
ATOM     36  C   UNL A   1      34.214  34.534  29.449  1.00  0.00     0.039 A 
ATOM     37  C   UNL A   1      35.513  34.607  28.940  1.00  0.00     0.014 A 
ATOM     38  C   UNL A   1      33.978  33.976  30.707  1.00  0.00     0.014 A 
ATOM     39  C   UNL A   1      36.551  33.975  29.616  1.00  0.00     0.010 A 
ATOM     40  C   UNL A   1      35.036  33.411  31.421  1.00  0.00     0.010 A 
ATOM     41  C   UNL A   1      36.321  33.360  30.858  1.00  0.00    -0.014 A 
BRANCH  41  42
ATOM     42  C   UNL A   1      37.429  32.645  31.540  1.00  0.00     0.031 A 
ATOM     43  C   UNL A   1      38.165  31.535  30.839  1.00  0.00     0.074 A 
ATOM     44  C   UNL A   1      37.809  33.032  32.771  1.00  0.00     0.049 A 
ATOM     45  N   UNL A   1      39.146  30.786  31.280  1.00  0.00    -0.248 NA
ATOM     46  C   UNL A   1      37.746  31.221  29.464  1.00  0.00     0.031 C 
ATOM     47  C   UNL A   1      37.191  34.113  33.539  1.00  0.00     0.029 A 
ATOM     48  N   UNL A   1      38.816  32.579  33.584  1.00  0.00    -0.354 N 
ATOM     49  C   UNL A   1      39.445  29.906  30.247  1.00  0.00     0.074 A 
ATOM     50  C   UNL A   1      38.524  30.191  29.168  1.00  0.00     0.031 C 
ATOM     51  C   UNL A   1      37.862  34.273  34.690  1.00  0.00     0.029 A 
ATOM     52  C   UNL A   1      38.914  33.265  34.768  1.00  0.00     0.049 A 
ATOM     53  H   UNL A   1      39.412  31.833  33.341  1.00  0.00     0.167 HD
ATOM     54  C   UNL A   1      40.409  28.955  30.201  1.00  0.00     0.037 A 
ATOM     55  C   UNL A   1      39.748  33.090  35.811  1.00  0.00     0.037 A 
ATOM     56  C   UNL A   1      41.337  28.687  31.269  1.00  0.00     0.049 A 
ATOM     57  C   UNL A   1      40.769  31.990  35.757  1.00  0.00     0.074 A 
ATOM     58  C   UNL A   1      42.359  27.754  31.312  1.00  0.00     0.029 A 
ATOM     59  N   UNL A   1      41.358  29.358  32.484  1.00  0.00    -0.354 N 
ATOM     60  N   UNL A   1      41.034  31.155  34.782  1.00  0.00    -0.248 NA
ATOM     61  C   UNL A   1      41.596  31.798  36.957  1.00  0.00     0.031 C 
ATOM     62  C   UNL A   1      42.971  27.833  32.567  1.00  0.00     0.029 A 
ATOM     63  C   UNL A   1      42.362  28.844  33.291  1.00  0.00     0.049 A 
ATOM     64  H   UNL A   1      40.750  30.090  32.736  1.00  0.00     0.167 HD
ATOM     65  C   UNL A   1      42.058  30.343  35.244  1.00  0.00     0.074 A 
ATOM     66  C   UNL A   1      42.386  30.802  36.579  1.00  0.00     0.031 C 
ATOM     67  C   UNL A   1      42.667  29.305  34.621  1.00  0.00     0.037 A 
BRANCH  54  68
ATOM     68  C   UNL A   1      40.509  28.121  28.957  1.00  0.00     0.064 A 
ATOM     69  C   UNL A   1      39.803  26.917  28.820  1.00  0.00     0.173 A 
ATOM     70  C   UNL A   1      41.277  28.559  27.867  1.00  0.00     0.173 A 
ATOM     71  F   UNL A   1      39.065  26.448  29.837  1.00  0.00    -0.203 F 
ATOM     72  C   UNL A   1      39.878  26.172  27.645  1.00  0.00     0.198 A 
ATOM     73  C   UNL A   1      41.328  27.826  26.684  1.00  0.00     0.198 A 
ATOM     74  F   UNL A   1      41.967  29.707  27.944  1.00  0.00    -0.203 F 
ATOM     75  F   UNL A   1      39.226  25.005  27.551  1.00  0.00    -0.200 F 
ATOM     76  C   UNL A   1      40.634  26.631  26.576  1.00  0.00     0.200 A 
ATOM     77  F   UNL A   1      42.050  28.276  25.648  1.00  0.00    -0.200 F 
ATOM     78  F   UNL A   1      40.696  25.918  25.443  1.00  0.00    -0.200 F 
ENDBRANCH  54  68
BRANCH  55  79
ATOM     79  C   UNL A   1      39.643  33.989  36.988  1.00  0.00     0.064 A 
ATOM     80  C   UNL A   1      40.282  35.235  36.998  1.00  0.00     0.173 A 
ATOM     81  C   UNL A   1      38.873  33.639  38.107  1.00  0.00     0.173 A 
ATOM     82  F   UNL A   1      41.046  35.605  35.959  1.00  0.00    -0.203 F 
ATOM     83  C   UNL A   1      40.154  36.099  38.084  1.00  0.00     0.198 A 
ATOM     84  C   UNL A   1      38.724  34.514  39.180  1.00  0.00     0.198 A 
ATOM     85  F   UNL A   1      38.240  32.456  38.143  1.00  0.00    -0.203 F 
ATOM     86  F   UNL A   1      40.794  37.275  38.079  1.00  0.00    -0.200 F 
ATOM     87  C   UNL A   1      39.367  35.742  39.168  1.00  0.00     0.200 A 
ATOM     88  F   UNL A   1      37.950  34.171  40.219  1.00  0.00    -0.200 F 
ATOM     89  F   UNL A   1      39.229  36.581  40.205  1.00  0.00    -0.200 F 
ENDBRANCH  55  79
BRANCH  67  90
ATOM     90  C   UNL A   1      43.751  28.592  35.374  1.00  0.00     0.064 A 
ATOM     91  C   UNL A   1      45.097  28.965  35.241  1.00  0.00     0.173 A 
ATOM     92  C   UNL A   1      43.439  27.563  36.275  1.00  0.00     0.173 A 
ATOM     93  F   UNL A   1      45.447  29.932  34.380  1.00  0.00    -0.203 F 
ATOM     94  C   UNL A   1      46.093  28.319  35.969  1.00  0.00     0.198 A 
ATOM     95  C   UNL A   1      44.434  26.940  37.021  1.00  0.00     0.198 A 
ATOM     96  F   UNL A   1      42.166  27.175  36.443  1.00  0.00    -0.203 F 
ATOM     97  F   UNL A   1      47.376  28.665  35.796  1.00  0.00    -0.200 F 
ATOM     98  C   UNL A   1      45.761  27.313  36.864  1.00  0.00     0.200 A 
ATOM     99  F   UNL A   1      44.110  25.976  37.895  1.00  0.00    -0.200 F 
ATOM    100  F   UNL A   1      46.719  26.701  37.571  1.00  0.00    -0.200 F 
ENDBRANCH  67  90
ENDBRANCH  41  42
ENDBRANCH  33  36
ENDBRANCH  31  32
ENDBRANCH  30  31
ENDBRANCH  29  30
ENDBRANCH   1  29
TORSDOF 17
ENDMDL
MODEL 3
REMARK VINA RESULT:     -12.0      0.767      1.811
REMARK SMILES CC(C)CN(C)c1cc2c(cc1Cl)C=C(C(=O)NCCCCCCNC(=O)c1ccc(-c3c4nc(c(-c5c(F)c(F)c(F)c(F)c5F)c5ccc([nH]5)c(-c5c(F)c(F)c(F)c(F)c5F)c5nc(c(-c6c(F)c(F)c(F)c(F)c6F)c6ccc3[nH]6)C=C5)C=C4)cc1)[C@@H](C(F)(F)F)O2
REMARK SMILES IDX 21 1 20 2 19 3 18 4 16 5 17 6 15 8 7 9 8 10 12 11 9 12 11 13
REMARK SMILES IDX 13 14 10 15 96 16 14 17 91 18 5 19 6 20 4 21 2 22 1 23 3 24
REMARK SMILES IDX 92 25 93 26 94 27 95 28 22 29 23 30 24 31 25 32 26 33 27 35
REMARK SMILES IDX 28 36 29 37 90 38 30 39 89 40 31 41 32 42 33 43 83 44 34 45
REMARK SMILES IDX 88 46 82 47 84 48 35 49 87 50 81 51 80 52 36 54 68 55 48 56
REMARK SMILES IDX 67 57 49 58 52 59 66 60 85 61 50 62 51 63 65 65 86 66 53 67
REMARK SMILES IDX 37 68 38 69 46 70 39 71 40 72 44 73 47 74 41 75 42 76 45 77
REMARK SMILES IDX 43 78 69 79 70 80 78 81 71 82 72 83 76 84 79 85 73 86 74 87
REMARK SMILES IDX 77 88 75 89 54 90 55 91 63 92 56 93 57 94 61 95 64 96 58 97
REMARK SMILES IDX 59 98 62 99 60 100
REMARK H PARENT 18 7 25 34 84 53 52 64
REMARK Flexibility Score: inf
ROOT
ATOM      1  C   UNL A   1      34.198  29.662  26.828  1.00  0.00     0.002 C 
ENDROOT
BRANCH   1   2
ATOM      2  C   UNL A   1      32.772  29.350  26.363  1.00  0.00     0.021 C 
BRANCH   2   3
ATOM      3  C   UNL A   1      32.508  29.688  24.898  1.00  0.00     0.116 C 
BRANCH   3   4
ATOM      4  N   UNL A   1      31.197  29.231  24.478  1.00  0.00    -0.352 N 
ATOM      5  C   UNL A   1      30.614  28.053  24.160  1.00  0.00     0.251 C 
ATOM      6  O   UNL A   1      29.412  28.121  23.886  1.00  0.00    -0.270 OA
ATOM      7  H   UNL A   1      30.562  29.979  24.404  1.00  0.00     0.163 HD
BRANCH   5   8
ATOM      8  C   UNL A   1      31.305  26.734  24.113  1.00  0.00     0.067 C 
ATOM      9  C   UNL A   1      32.988  22.091  25.176  1.00  0.00     0.059 A 
ATOM     10  C   UNL A   1      32.650  22.772  23.996  1.00  0.00     0.074 A 
ATOM     11  C   UNL A   1      32.877  22.799  26.395  1.00  0.00     0.065 A 
ATOM     12  C   UNL A   1      32.181  24.082  24.042  1.00  0.00     0.130 A 
ATOM     13  C   UNL A   1      32.319  24.083  26.441  1.00  0.00     0.034 A 
ATOM     14  Cl  UNL A   1      33.431  22.136  27.894  1.00  0.00    -0.082 Cl
ATOM     15  C   UNL A   1      31.953  24.721  25.260  1.00  0.00     0.019 A 
ATOM     16  O   UNL A   1      31.934  24.699  22.846  1.00  0.00    -0.475 OA
ATOM     17  C   UNL A   1      31.308  26.028  25.259  1.00  0.00     0.025 C 
ATOM     18  C   UNL A   1      31.984  26.155  22.904  1.00  0.00     0.314 C 
BRANCH   9  19
ATOM     19  N   UNL A   1      33.381  20.744  25.123  1.00  0.00    -0.373 N 
ATOM     20  C   UNL A   1      34.811  20.522  24.921  1.00  0.00     0.143 C 
BRANCH  19  21
ATOM     21  C   UNL A   1      32.465  19.831  24.406  1.00  0.00     0.119 C 
BRANCH  21  22
ATOM     22  C   UNL A   1      33.043  18.408  24.261  1.00  0.00     0.002 C 
ATOM     23  C   UNL A   1      32.517  17.453  25.338  1.00  0.00     0.009 C 
ATOM     24  C   UNL A   1      32.717  17.821  22.884  1.00  0.00     0.009 C 
ENDBRANCH  21  22
ENDBRANCH  19  21
ENDBRANCH   9  19
BRANCH  18  25
ATOM     25  C   UNL A   1      33.438  26.658  22.767  1.00  0.00     0.429 C 
ATOM     26  F   UNL A   1      33.495  27.742  21.953  1.00  0.00    -0.167 F 
ATOM     27  F   UNL A   1      33.957  27.048  23.957  1.00  0.00    -0.167 F 
ATOM     28  F   UNL A   1      34.278  25.728  22.263  1.00  0.00    -0.167 F 
ENDBRANCH  18  25
ENDBRANCH   5   8
ENDBRANCH   3   4
ENDBRANCH   2   3
ENDBRANCH   1   2
BRANCH   1  29
ATOM     29  C   UNL A   1      34.326  30.827  27.817  1.00  0.00     0.002 C 
BRANCH  29  30
ATOM     30  C   UNL A   1      33.887  32.194  27.288  1.00  0.00     0.021 C 
BRANCH  30  31
ATOM     31  C   UNL A   1      32.480  32.614  27.692  1.00  0.00     0.116 C 
BRANCH  31  32
ATOM     32  N   UNL A   1      32.338  34.057  27.806  1.00  0.00    -0.352 N 
ATOM     33  C   UNL A   1      33.052  34.938  28.580  1.00  0.00     0.251 C 
ATOM     34  H   UNL A   1      31.630  34.456  27.251  1.00  0.00     0.163 HD
ATOM     35  O   UNL A   1      32.704  36.112  28.673  1.00  0.00    -0.269 OA
BRANCH  33  36
ATOM     36  C   UNL A   1      34.225  34.454  29.334  1.00  0.00     0.039 A 
ATOM     37  C   UNL A   1      35.518  34.672  28.851  1.00  0.00     0.014 A 
ATOM     38  C   UNL A   1      34.024  33.735  30.514  1.00  0.00     0.014 A 
ATOM     39  C   UNL A   1      36.594  34.035  29.457  1.00  0.00     0.010 A 
ATOM     40  C   UNL A   1      35.116  33.160  31.167  1.00  0.00     0.010 A 
ATOM     41  C   UNL A   1      36.403  33.261  30.615  1.00  0.00    -0.014 A 
BRANCH  41  42
ATOM     42  C   UNL A   1      37.555  32.545  31.218  1.00  0.00     0.031 A 
ATOM     43  C   UNL A   1      38.019  32.883  32.608  1.00  0.00     0.074 A 
ATOM     44  C   UNL A   1      38.150  31.551  30.532  1.00  0.00     0.049 A 
ATOM     45  N   UNL A   1      39.016  32.378  33.293  1.00  0.00    -0.248 NA
ATOM     46  C   UNL A   1      37.270  33.926  33.326  1.00  0.00     0.031 C 
ATOM     47  C   UNL A   1      37.770  31.114  29.189  1.00  0.00     0.029 A 
ATOM     48  N   UNL A   1      39.181  30.715  30.876  1.00  0.00    -0.354 N 
ATOM     49  C   UNL A   1      39.023  33.052  34.508  1.00  0.00     0.074 A 
ATOM     50  C   UNL A   1      37.951  34.023  34.459  1.00  0.00     0.031 C 
ATOM     51  C   UNL A   1      38.524  30.060  28.842  1.00  0.00     0.029 A 
ATOM     52  C   UNL A   1      39.481  29.790  29.909  1.00  0.00     0.049 A 
ATOM     53  H   UNL A   1      39.660  30.775  31.735  1.00  0.00     0.167 HD
ATOM     54  C   UNL A   1      39.841  32.868  35.572  1.00  0.00     0.037 A 
ATOM     55  C   UNL A   1      40.433  28.838  29.878  1.00  0.00     0.037 A 
ATOM     56  C   UNL A   1      40.894  31.886  35.626  1.00  0.00     0.049 A 
ATOM     57  C   UNL A   1      41.365  28.695  31.046  1.00  0.00     0.074 A 
ATOM     58  C   UNL A   1      41.767  31.613  36.664  1.00  0.00     0.029 A 
ATOM     59  N   UNL A   1      41.213  31.013  34.596  1.00  0.00    -0.354 N 
ATOM     60  N   UNL A   1      41.371  29.346  32.183  1.00  0.00    -0.248 NA
ATOM     61  C   UNL A   1      42.433  27.694  30.920  1.00  0.00     0.031 C 
ATOM     62  C   UNL A   1      42.640  30.603  36.247  1.00  0.00     0.029 A 
ATOM     63  C   UNL A   1      42.283  30.214  34.966  1.00  0.00     0.049 A 
ATOM     64  H   UNL A   1      40.747  30.967  33.729  1.00  0.00     0.167 HD
ATOM     65  C   UNL A   1      42.435  28.834  32.910  1.00  0.00     0.074 A 
ATOM     66  C   UNL A   1      43.037  27.797  32.096  1.00  0.00     0.031 C 
ATOM     67  C   UNL A   1      42.878  29.196  34.139  1.00  0.00     0.037 A 
BRANCH  54  68
ATOM     68  C   UNL A   1      39.641  33.751  36.768  1.00  0.00     0.064 A 
ATOM     69  C   UNL A   1      40.220  35.026  36.847  1.00  0.00     0.173 A 
ATOM     70  C   UNL A   1      38.816  33.340  37.827  1.00  0.00     0.173 A 
ATOM     71  F   UNL A   1      41.028  35.461  35.868  1.00  0.00    -0.203 F 
ATOM     72  C   UNL A   1      39.997  35.848  37.948  1.00  0.00     0.198 A 
ATOM     73  C   UNL A   1      38.572  34.175  38.914  1.00  0.00     0.198 A 
ATOM     74  F   UNL A   1      38.232  32.132  37.799  1.00  0.00    -0.203 F 
ATOM     75  F   UNL A   1      40.592  37.047  38.019  1.00  0.00    -0.200 F 
ATOM     76  C   UNL A   1      39.167  35.426  38.977  1.00  0.00     0.200 A 
ATOM     77  F   UNL A   1      37.762  33.770  39.901  1.00  0.00    -0.200 F 
ATOM     78  F   UNL A   1      38.945  36.223  40.031  1.00  0.00    -0.200 F 
ENDBRANCH  54  68
BRANCH  55  79
ATOM     79  C   UNL A   1      40.540  27.951  28.692  1.00  0.00     0.064 A 
ATOM     80  C   UNL A   1      39.861  26.728  28.648  1.00  0.00     0.173 A 
ATOM     81  C   UNL A   1      41.290  28.326  27.566  1.00  0.00     0.173 A 
ATOM     82  F   UNL A   1      39.149  26.318  29.708  1.00  0.00    -0.203 F 
ATOM     83  C   UNL A   1      39.927  25.910  27.521  1.00  0.00     0.198 A 
ATOM     84  C   UNL A   1      41.332  27.520  26.431  1.00  0.00     0.198 A 
ATOM     85  F   UNL A   1      41.956  29.490  27.560  1.00  0.00    -0.203 F 
ATOM     86  F   UNL A   1      39.287  24.733  27.514  1.00  0.00    -0.200 F 
ATOM     87  C   UNL A   1      40.653  26.312  26.411  1.00  0.00     0.200 A 
ATOM     88  F   UNL A   1      42.023  27.920  25.354  1.00  0.00    -0.200 F 
ATOM     89  F   UNL A   1      40.701  25.534  25.321  1.00  0.00    -0.200 F 
ENDBRANCH  55  79
BRANCH  67  90
ATOM     90  C   UNL A   1      44.072  28.467  34.681  1.00  0.00     0.064 A 
ATOM     91  C   UNL A   1      43.932  27.261  35.383  1.00  0.00     0.173 A 
ATOM     92  C   UNL A   1      45.369  28.949  34.453  1.00  0.00     0.173 A 
ATOM     93  F   UNL A   1      42.711  26.767  35.640  1.00  0.00    -0.203 F 
ATOM     94  C   UNL A   1      45.048  26.574  35.854  1.00  0.00     0.198 A 
ATOM     95  C   UNL A   1      46.483  28.245  34.900  1.00  0.00     0.198 A 
ATOM     96  F   UNL A   1      45.556  30.095  33.779  1.00  0.00    -0.203 F 
ATOM     97  F   UNL A   1      44.889  25.444  36.557  1.00  0.00    -0.200 F 
ATOM     98  C   UNL A   1      46.322  27.062  35.605  1.00  0.00     0.200 A 
ATOM     99  F   UNL A   1      47.714  28.712  34.648  1.00  0.00    -0.200 F 
ATOM    100  F   UNL A   1      47.395  26.394  36.049  1.00  0.00    -0.200 F 
ENDBRANCH  67  90
ENDBRANCH  41  42
ENDBRANCH  33  36
ENDBRANCH  31  32
ENDBRANCH  30  31
ENDBRANCH  29  30
ENDBRANCH   1  29
TORSDOF 17
ENDMDL
