MODEL 1
REMARK VINA RESULT:     -11.9      0.000      0.000
REMARK SMILES O=C(N[C@@H]1C=C[C@@H](C(=O)NCCCCCCNC(=O)c2ccc(-c3c4nc(c(-c5c(F)c(F)c(F)c(F)c5F)c5ccc([nH]5)c(-c5c(F)c(F)c(F)c(F)c5F)c5nc(c(-c6c(F)c(F)c(F)c(F)c6F)c6ccc3[nH]6)C=C5)C=C4)cc2)C1)N[C@H]1CCCc2sccc21
REMARK SMILES IDX 13 1 12 2 11 3 10 4 8 5 9 6 7 8 4 9 5 10 83 11 6 12 3 13
REMARK SMILES IDX 1 14 2 15 84 16 85 19 86 20 93 21 87 22 89 23 92 24 88 25
REMARK SMILES IDX 90 26 91 27 14 28 15 29 16 30 17 31 18 32 19 34 20 35 21 36
REMARK SMILES IDX 82 37 22 38 81 39 23 40 24 41 25 42 75 43 26 44 80 45 74 46
REMARK SMILES IDX 76 47 27 48 79 49 73 50 72 51 28 53 60 54 40 55 59 56 41 57
REMARK SMILES IDX 44 58 58 59 77 60 42 61 43 62 57 64 78 65 45 66 29 67 30 68
REMARK SMILES IDX 38 69 31 70 32 71 36 72 39 73 33 74 34 75 37 76 35 77 61 78
REMARK SMILES IDX 62 79 70 80 63 81 64 82 68 83 71 84 65 85 66 86 69 87 67 88
REMARK SMILES IDX 46 89 47 90 55 91 48 92 49 93 53 94 56 95 50 96 51 97 54 98
REMARK SMILES IDX 52 99
REMARK H PARENT 10 7 3 17 84 18 17 33 76 52 44 63
REMARK Flexibility Score: inf
ROOT
ATOM      1  C   UNL A   1      41.708  21.436  26.956  1.00  0.00     0.002 C 
ENDROOT
BRANCH   1   2
ATOM      2  C   UNL A   1      40.634  22.362  27.528  1.00  0.00     0.021 C 
BRANCH   2   3
ATOM      3  C   UNL A   1      39.600  22.816  26.502  1.00  0.00     0.116 C 
BRANCH   3   4
ATOM      4  N   UNL A   1      39.033  21.686  25.795  1.00  0.00    -0.356 N 
ATOM      5  C   UNL A   1      37.863  21.563  25.109  1.00  0.00     0.227 C 
ATOM      6  O   UNL A   1      37.598  20.459  24.626  1.00  0.00    -0.274 OA
ATOM      7  H   UNL A   1      39.584  20.870  25.814  1.00  0.00     0.163 HD
BRANCH   5   8
ATOM      8  C   UNL A   1      36.900  22.734  24.937  1.00  0.00     0.103 C 
ATOM      9  C   UNL A   1      34.897  23.248  23.644  1.00  0.00     0.107 C 
ATOM     10  C   UNL A   1      34.556  22.837  25.041  1.00  0.00    -0.006 C 
ATOM     11  C   UNL A   1      36.382  22.911  23.503  1.00  0.00     0.047 C 
ATOM     12  C   UNL A   1      35.654  22.581  25.761  1.00  0.00    -0.016 C 
BRANCH   9  13
ATOM     13  N   UNL A   1      34.539  24.637  23.496  1.00  0.00    -0.332 N 
ATOM     14  O   UNL A   1      33.680  25.497  21.612  1.00  0.00    -0.249 OA
ATOM     15  C   UNL A   1      33.482  25.077  22.751  1.00  0.00     0.315 C 
ATOM     16  N   UNL A   1      32.368  25.281  23.505  1.00  0.00    -0.331 N 
ATOM     17  H   UNL A   1      35.091  25.308  23.960  1.00  0.00     0.165 HD
ATOM     18  H   UNL A   1      31.988  24.510  23.986  1.00  0.00     0.166 HD
BRANCH  16  19
ATOM     19  C   UNL A   1      31.701  26.566  23.643  1.00  0.00     0.115 C 
ATOM     20  C   UNL A   1      30.200  26.368  23.940  1.00  0.00     0.030 C 
ATOM     21  C   UNL A   1      32.302  27.463  24.673  1.00  0.00    -0.012 A 
ATOM     22  C   UNL A   1      29.880  25.953  25.390  1.00  0.00     0.008 C 
ATOM     23  C   UNL A   1      31.827  27.467  25.972  1.00  0.00     0.010 A 
ATOM     24  C   UNL A   1      33.318  28.450  24.489  1.00  0.00     0.018 A 
ATOM     25  C   UNL A   1      30.763  26.555  26.501  1.00  0.00     0.047 C 
ATOM     26  S   UNL A   1      32.613  28.607  26.958  1.00  0.00    -0.149 S 
ATOM     27  C   UNL A   1      33.580  29.143  25.652  1.00  0.00     0.065 A 
ENDBRANCH  16  19
ENDBRANCH   9  13
ENDBRANCH   5   8
ENDBRANCH   3   4
ENDBRANCH   2   3
ENDBRANCH   1   2
BRANCH   1  28
ATOM     28  C   UNL A   1      41.867  20.105  27.696  1.00  0.00     0.002 C 
BRANCH  28  29
ATOM     29  C   UNL A   1      42.523  18.984  26.884  1.00  0.00     0.021 C 
BRANCH  29  30
ATOM     30  C   UNL A   1      42.508  19.203  25.375  1.00  0.00     0.116 C 
BRANCH  30  31
ATOM     31  N   UNL A   1      43.746  18.769  24.752  1.00  0.00    -0.352 N 
ATOM     32  C   UNL A   1      44.828  19.517  24.378  1.00  0.00     0.251 C 
ATOM     33  H   UNL A   1      43.816  17.803  24.575  1.00  0.00     0.163 HD
ATOM     34  O   UNL A   1      45.716  19.025  23.680  1.00  0.00    -0.269 OA
BRANCH  32  35
ATOM     35  C   UNL A   1      44.925  20.925  24.805  1.00  0.00     0.039 A 
ATOM     36  C   UNL A   1      45.354  21.211  26.103  1.00  0.00     0.014 A 
ATOM     37  C   UNL A   1      44.579  21.958  23.927  1.00  0.00     0.014 A 
ATOM     38  C   UNL A   1      45.476  22.538  26.512  1.00  0.00     0.010 A 
ATOM     39  C   UNL A   1      44.757  23.282  24.317  1.00  0.00     0.010 A 
ATOM     40  C   UNL A   1      45.197  23.583  25.614  1.00  0.00    -0.014 A 
BRANCH  40  41
ATOM     41  C   UNL A   1      45.341  25.000  26.025  1.00  0.00     0.031 A 
ATOM     42  C   UNL A   1      46.682  25.671  25.944  1.00  0.00     0.074 A 
ATOM     43  C   UNL A   1      44.279  25.658  26.528  1.00  0.00     0.049 A 
ATOM     44  N   UNL A   1      47.031  26.873  26.325  1.00  0.00    -0.248 NA
ATOM     45  C   UNL A   1      47.787  24.875  25.385  1.00  0.00     0.031 C 
ATOM     46  C   UNL A   1      42.939  25.094  26.703  1.00  0.00     0.029 A 
ATOM     47  N   UNL A   1      44.164  26.940  27.002  1.00  0.00    -0.354 N 
ATOM     48  C   UNL A   1      48.393  26.969  26.074  1.00  0.00     0.074 A 
ATOM     49  C   UNL A   1      48.818  25.692  25.544  1.00  0.00     0.031 C 
ATOM     50  C   UNL A   1      42.136  26.029  27.235  1.00  0.00     0.029 A 
ATOM     51  C   UNL A   1      42.908  27.246  27.466  1.00  0.00     0.049 A 
ATOM     52  H   UNL A   1      44.912  27.581  27.009  1.00  0.00     0.167 HD
ATOM     53  C   UNL A   1      49.209  28.034  26.250  1.00  0.00     0.037 A 
ATOM     54  C   UNL A   1      42.438  28.378  28.022  1.00  0.00     0.037 A 
ATOM     55  C   UNL A   1      48.771  29.317  26.735  1.00  0.00     0.049 A 
ATOM     56  C   UNL A   1      43.361  29.556  28.177  1.00  0.00     0.074 A 
ATOM     57  C   UNL A   1      49.505  30.481  26.876  1.00  0.00     0.029 A 
ATOM     58  N   UNL A   1      47.480  29.602  27.152  1.00  0.00    -0.354 N 
ATOM     59  N   UNL A   1      44.631  29.658  27.868  1.00  0.00    -0.248 NA
ATOM     60  C   UNL A   1      42.784  30.780  28.750  1.00  0.00     0.031 C 
ATOM     61  C   UNL A   1      48.666  31.463  27.413  1.00  0.00     0.029 A 
ATOM     62  C   UNL A   1      47.400  30.921  27.568  1.00  0.00     0.049 A 
ATOM     63  H   UNL A   1      46.732  28.962  27.153  1.00  0.00     0.167 HD
ATOM     64  C   UNL A   1      44.997  30.959  28.181  1.00  0.00     0.074 A 
ATOM     65  C   UNL A   1      43.812  31.615  28.691  1.00  0.00     0.031 C 
ATOM     66  C   UNL A   1      46.206  31.558  28.059  1.00  0.00     0.037 A 
BRANCH  53  67
ATOM     67  C   UNL A   1      50.660  27.867  25.909  1.00  0.00     0.064 A 
ATOM     68  C   UNL A   1      51.617  27.581  26.893  1.00  0.00     0.173 A 
ATOM     69  C   UNL A   1      51.088  27.936  24.574  1.00  0.00     0.173 A 
ATOM     70  F   UNL A   1      51.259  27.517  28.185  1.00  0.00    -0.203 F 
ATOM     71  C   UNL A   1      52.954  27.388  26.556  1.00  0.00     0.198 A 
ATOM     72  C   UNL A   1      52.421  27.717  24.239  1.00  0.00     0.198 A 
ATOM     73  F   UNL A   1      50.211  28.204  23.595  1.00  0.00    -0.203 F 
ATOM     74  F   UNL A   1      53.858  27.151  27.517  1.00  0.00    -0.200 F 
ATOM     75  C   UNL A   1      53.353  27.446  25.229  1.00  0.00     0.200 A 
ATOM     76  F   UNL A   1      52.803  27.763  22.955  1.00  0.00    -0.200 F 
ATOM     77  F   UNL A   1      54.638  27.248  24.906  1.00  0.00    -0.200 F 
ENDBRANCH  53  67
BRANCH  54  78
ATOM     78  C   UNL A   1      41.020  28.461  28.456  1.00  0.00     0.064 A 
ATOM     79  C   UNL A   1      40.028  28.936  27.586  1.00  0.00     0.173 A 
ATOM     80  C   UNL A   1      40.629  28.083  29.748  1.00  0.00     0.173 A 
ATOM     81  F   UNL A   1      40.357  29.328  26.346  1.00  0.00    -0.203 F 
ATOM     82  C   UNL A   1      38.703  29.054  28.001  1.00  0.00     0.198 A 
ATOM     83  C   UNL A   1      39.301  28.176  30.154  1.00  0.00     0.198 A 
ATOM     84  F   UNL A   1      41.540  27.617  30.615  1.00  0.00    -0.203 F 
ATOM     85  F   UNL A   1      37.785  29.558  27.166  1.00  0.00    -0.200 F 
ATOM     86  C   UNL A   1      38.340  28.670  29.283  1.00  0.00     0.200 A 
ATOM     87  F   UNL A   1      38.950  27.792  31.389  1.00  0.00    -0.200 F 
ATOM     88  F   UNL A   1      37.067  28.785  29.684  1.00  0.00    -0.200 F 
ENDBRANCH  54  78
BRANCH  66  89
ATOM     89  C   UNL A   1      46.301  33.002  28.451  1.00  0.00     0.064 A 
ATOM     90  C   UNL A   1      46.665  33.388  29.748  1.00  0.00     0.173 A 
ATOM     91  C   UNL A   1      46.065  34.010  27.504  1.00  0.00     0.173 A 
ATOM     92  F   UNL A   1      46.884  32.460  30.692  1.00  0.00    -0.203 F 
ATOM     93  C   UNL A   1      46.769  34.733  30.091  1.00  0.00     0.198 A 
ATOM     94  C   UNL A   1      46.197  35.353  27.841  1.00  0.00     0.198 A 
ATOM     95  F   UNL A   1      45.721  33.690  26.248  1.00  0.00    -0.203 F 
ATOM     96  F   UNL A   1      47.079  35.080  31.347  1.00  0.00    -0.200 F 
ATOM     97  C   UNL A   1      46.543  35.714  29.135  1.00  0.00     0.200 A 
ATOM     98  F   UNL A   1      45.990  36.300  26.916  1.00  0.00    -0.200 F 
ATOM     99  F   UNL A   1      46.652  37.008  29.465  1.00  0.00    -0.200 F 
ENDBRANCH  66  89
ENDBRANCH  40  41
ENDBRANCH  32  35
ENDBRANCH  30  31
ENDBRANCH  29  30
ENDBRANCH  28  29
ENDBRANCH   1  28
TORSDOF 15
ENDMDL
MODEL 2
REMARK VINA RESULT:     -11.4      1.080      2.240
REMARK SMILES O=C(N[C@@H]1C=C[C@@H](C(=O)NCCCCCCNC(=O)c2ccc(-c3c4nc(c(-c5c(F)c(F)c(F)c(F)c5F)c5ccc([nH]5)c(-c5c(F)c(F)c(F)c(F)c5F)c5nc(c(-c6c(F)c(F)c(F)c(F)c6F)c6ccc3[nH]6)C=C5)C=C4)cc2)C1)N[C@H]1CCCc2sccc21
REMARK SMILES IDX 13 1 12 2 11 3 10 4 8 5 9 6 7 8 4 9 5 10 83 11 6 12 3 13
REMARK SMILES IDX 1 14 2 15 84 16 85 19 86 20 93 21 87 22 89 23 92 24 88 25
REMARK SMILES IDX 90 26 91 27 14 28 15 29 16 30 17 31 18 32 19 34 20 35 21 36
REMARK SMILES IDX 82 37 22 38 81 39 23 40 24 41 25 42 75 43 26 44 80 45 74 46
REMARK SMILES IDX 76 47 27 48 79 49 73 50 72 51 28 53 60 54 40 55 59 56 41 57
REMARK SMILES IDX 44 58 58 59 77 60 42 61 43 62 57 64 78 65 45 66 29 67 30 68
REMARK SMILES IDX 38 69 31 70 32 71 36 72 39 73 33 74 34 75 37 76 35 77 61 78
REMARK SMILES IDX 62 79 70 80 63 81 64 82 68 83 71 84 65 85 66 86 69 87 67 88
REMARK SMILES IDX 46 89 47 90 55 91 48 92 49 93 53 94 56 95 50 96 51 97 54 98
REMARK SMILES IDX 52 99
REMARK H PARENT 10 7 3 17 84 18 17 33 76 52 44 63
REMARK Flexibility Score: inf
ROOT
ATOM      1  C   UNL A   1      40.728  22.060  26.443  1.00  0.00     0.002 C 
ENDROOT
BRANCH   1   2
ATOM      2  C   UNL A   1      39.596  22.984  26.895  1.00  0.00     0.021 C 
BRANCH   2   3
ATOM      3  C   UNL A   1      38.379  22.963  25.977  1.00  0.00     0.116 C 
BRANCH   3   4
ATOM      4  N   UNL A   1      38.003  21.606  25.635  1.00  0.00    -0.356 N 
ATOM      5  C   UNL A   1      36.827  21.100  25.172  1.00  0.00     0.227 C 
ATOM      6  O   UNL A   1      36.761  19.880  24.997  1.00  0.00    -0.274 OA
ATOM      7  H   UNL A   1      38.716  20.939  25.759  1.00  0.00     0.163 HD
BRANCH   5   8
ATOM      8  C   UNL A   1      35.622  21.990  24.880  1.00  0.00     0.103 C 
ATOM      9  C   UNL A   1      35.001  24.332  25.152  1.00  0.00     0.107 C 
ATOM     10  C   UNL A   1      35.454  24.045  23.756  1.00  0.00    -0.006 C 
ATOM     11  C   UNL A   1      35.376  23.074  25.937  1.00  0.00     0.047 C 
ATOM     12  C   UNL A   1      35.770  22.755  23.596  1.00  0.00    -0.016 C 
BRANCH   9  13
ATOM     13  N   UNL A   1      33.597  24.658  25.100  1.00  0.00    -0.332 N 
ATOM     14  O   UNL A   1      32.116  23.991  26.645  1.00  0.00    -0.249 OA
ATOM     15  C   UNL A   1      32.827  24.892  26.204  1.00  0.00     0.315 C 
ATOM     16  N   UNL A   1      32.718  26.219  26.486  1.00  0.00    -0.331 N 
ATOM     17  H   UNL A   1      33.169  24.715  24.215  1.00  0.00     0.165 HD
ATOM     18  H   UNL A   1      33.544  26.717  26.687  1.00  0.00     0.166 HD
BRANCH  16  19
ATOM     19  C   UNL A   1      31.459  26.946  26.511  1.00  0.00     0.115 C 
ATOM     20  C   UNL A   1      31.537  28.129  27.499  1.00  0.00     0.030 C 
ATOM     21  C   UNL A   1      31.006  27.436  25.176  1.00  0.00    -0.012 A 
ATOM     22  C   UNL A   1      32.326  29.349  26.982  1.00  0.00     0.008 C 
ATOM     23  C   UNL A   1      31.334  28.707  24.741  1.00  0.00     0.010 A 
ATOM     24  C   UNL A   1      30.154  26.771  24.243  1.00  0.00     0.018 A 
ATOM     25  C   UNL A   1      32.213  29.668  25.478  1.00  0.00     0.047 C 
ATOM     26  S   UNL A   1      30.662  29.077  23.223  1.00  0.00    -0.149 S 
ATOM     27  C   UNL A   1      29.888  27.553  23.139  1.00  0.00     0.065 A 
ENDBRANCH  16  19
ENDBRANCH   9  13
ENDBRANCH   5   8
ENDBRANCH   3   4
ENDBRANCH   2   3
ENDBRANCH   1   2
BRANCH   1  28
ATOM     28  C   UNL A   1      41.451  21.329  27.578  1.00  0.00     0.002 C 
BRANCH  28  29
ATOM     29  C   UNL A   1      42.067  19.980  27.193  1.00  0.00     0.021 C 
BRANCH  29  30
ATOM     30  C   UNL A   1      41.879  19.593  25.731  1.00  0.00     0.116 C 
BRANCH  30  31
ATOM     31  N   UNL A   1      43.086  19.013  25.164  1.00  0.00    -0.352 N 
ATOM     32  C   UNL A   1      44.245  19.635  24.792  1.00  0.00     0.251 C 
ATOM     33  H   UNL A   1      43.065  18.038  25.032  1.00  0.00     0.163 HD
ATOM     34  O   UNL A   1      45.098  19.029  24.142  1.00  0.00    -0.269 OA
BRANCH  32  35
ATOM     35  C   UNL A   1      44.467  21.046  25.160  1.00  0.00     0.039 A 
ATOM     36  C   UNL A   1      44.032  22.049  24.291  1.00  0.00     0.014 A 
ATOM     37  C   UNL A   1      45.118  21.374  26.354  1.00  0.00     0.014 A 
ATOM     38  C   UNL A   1      44.211  23.387  24.638  1.00  0.00     0.010 A 
ATOM     39  C   UNL A   1      45.243  22.709  26.726  1.00  0.00     0.010 A 
ATOM     40  C   UNL A   1      44.801  23.726  25.868  1.00  0.00    -0.014 A 
BRANCH  40  41
ATOM     41  C   UNL A   1      44.981  25.143  26.262  1.00  0.00     0.031 A 
ATOM     42  C   UNL A   1      46.337  25.782  26.157  1.00  0.00     0.074 A 
ATOM     43  C   UNL A   1      43.941  25.830  26.774  1.00  0.00     0.049 A 
ATOM     44  N   UNL A   1      46.717  26.980  26.522  1.00  0.00    -0.248 NA
ATOM     45  C   UNL A   1      47.415  24.957  25.591  1.00  0.00     0.031 C 
ATOM     46  C   UNL A   1      42.592  25.298  26.971  1.00  0.00     0.029 A 
ATOM     47  N   UNL A   1      43.862  27.119  27.237  1.00  0.00    -0.354 N 
ATOM     48  C   UNL A   1      48.078  27.043  26.252  1.00  0.00     0.074 A 
ATOM     49  C   UNL A   1      48.467  25.752  25.729  1.00  0.00     0.031 C 
ATOM     50  C   UNL A   1      41.817  26.256  27.505  1.00  0.00     0.029 A 
ATOM     51  C   UNL A   1      42.620  27.457  27.714  1.00  0.00     0.049 A 
ATOM     52  H   UNL A   1      44.624  27.742  27.227  1.00  0.00     0.167 HD
ATOM     53  C   UNL A   1      48.920  28.091  26.407  1.00  0.00     0.037 A 
ATOM     54  C   UNL A   1      42.183  28.605  28.265  1.00  0.00     0.037 A 
ATOM     55  C   UNL A   1      48.518  29.388  26.885  1.00  0.00     0.049 A 
ATOM     56  C   UNL A   1      43.134  29.763  28.397  1.00  0.00     0.074 A 
ATOM     57  C   UNL A   1      49.279  30.537  27.005  1.00  0.00     0.029 A 
ATOM     58  N   UNL A   1      47.238  29.706  27.316  1.00  0.00    -0.354 N 
ATOM     59  N   UNL A   1      44.402  29.833  28.070  1.00  0.00    -0.248 NA
ATOM     60  C   UNL A   1      42.592  31.005  28.965  1.00  0.00     0.031 C 
ATOM     61  C   UNL A   1      48.470  31.542  27.544  1.00  0.00     0.029 A 
ATOM     62  C   UNL A   1      47.194  31.030  27.720  1.00  0.00     0.049 A 
ATOM     63  H   UNL A   1      46.476  29.083  27.334  1.00  0.00     0.167 HD
ATOM     64  C   UNL A   1      44.801  31.128  28.365  1.00  0.00     0.074 A 
ATOM     65  C   UNL A   1      43.638  31.816  28.885  1.00  0.00     0.031 C 
ATOM     66  C   UNL A   1      46.021  31.698  28.221  1.00  0.00     0.037 A 
BRANCH  53  67
ATOM     67  C   UNL A   1      50.361  27.888  26.048  1.00  0.00     0.064 A 
ATOM     68  C   UNL A   1      50.804  27.953  24.719  1.00  0.00     0.173 A 
ATOM     69  C   UNL A   1      51.321  27.686  27.052  1.00  0.00     0.173 A 
ATOM     70  F   UNL A   1      49.923  28.132  23.723  1.00  0.00    -0.203 F 
ATOM     71  C   UNL A   1      52.153  27.804  24.405  1.00  0.00     0.198 A 
ATOM     72  C   UNL A   1      52.672  27.563  26.736  1.00  0.00     0.198 A 
ATOM     73  F   UNL A   1      50.950  27.620  28.339  1.00  0.00    -0.203 F 
ATOM     74  F   UNL A   1      52.548  27.833  23.125  1.00  0.00    -0.200 F 
ATOM     75  C   UNL A   1      53.086  27.618  25.414  1.00  0.00     0.200 A 
ATOM     76  F   UNL A   1      53.573  27.395  27.713  1.00  0.00    -0.200 F 
ATOM     77  F   UNL A   1      54.384  27.487  25.111  1.00  0.00    -0.200 F 
ENDBRANCH  53  67
BRANCH  54  78
ATOM     78  C   UNL A   1      40.773  28.724  28.717  1.00  0.00     0.064 A 
ATOM     79  C   UNL A   1      40.413  28.420  30.038  1.00  0.00     0.173 A 
ATOM     80  C   UNL A   1      39.757  29.128  27.839  1.00  0.00     0.173 A 
ATOM     81  F   UNL A   1      41.347  28.011  30.909  1.00  0.00    -0.203 F 
ATOM     82  C   UNL A   1      39.086  28.491  30.456  1.00  0.00     0.198 A 
ATOM     83  C   UNL A   1      38.435  29.224  28.265  1.00  0.00     0.198 A 
ATOM     84  F   UNL A   1      40.052  29.435  26.568  1.00  0.00    -0.203 F 
ATOM     85  F   UNL A   1      38.763  28.148  31.710  1.00  0.00    -0.200 F 
ATOM     86  C   UNL A   1      38.099  28.898  29.571  1.00  0.00     0.200 A 
ATOM     87  F   UNL A   1      37.485  29.629  27.411  1.00  0.00    -0.200 F 
ATOM     88  F   UNL A   1      36.822  28.964  29.972  1.00  0.00    -0.200 F 
ENDBRANCH  54  78
BRANCH  66  89
ATOM     89  C   UNL A   1      46.154  33.143  28.598  1.00  0.00     0.064 A 
ATOM     90  C   UNL A   1      46.540  33.533  29.888  1.00  0.00     0.173 A 
ATOM     91  C   UNL A   1      45.932  34.148  27.643  1.00  0.00     0.173 A 
ATOM     92  F   UNL A   1      46.748  32.609  30.838  1.00  0.00    -0.203 F 
ATOM     93  C   UNL A   1      46.680  34.879  30.215  1.00  0.00     0.198 A 
ATOM     94  C   UNL A   1      46.098  35.491  27.966  1.00  0.00     0.198 A 
ATOM     95  F   UNL A   1      45.567  33.824  26.394  1.00  0.00    -0.203 F 
ATOM     96  F   UNL A   1      47.011  35.231  31.465  1.00  0.00    -0.200 F 
ATOM     97  C   UNL A   1      46.466  35.856  29.253  1.00  0.00     0.200 A 
ATOM     98  F   UNL A   1      45.903  36.433  27.034  1.00  0.00    -0.200 F 
ATOM     99  F   UNL A   1      46.609  37.150  29.569  1.00  0.00    -0.200 F 
ENDBRANCH  66  89
ENDBRANCH  40  41
ENDBRANCH  32  35
ENDBRANCH  30  31
ENDBRANCH  29  30
ENDBRANCH  28  29
ENDBRANCH   1  28
TORSDOF 15
ENDMDL
MODEL 3
REMARK VINA RESULT:     -11.1      3.543      8.843
REMARK SMILES O=C(N[C@@H]1C=C[C@@H](C(=O)NCCCCCCNC(=O)c2ccc(-c3c4nc(c(-c5c(F)c(F)c(F)c(F)c5F)c5ccc([nH]5)c(-c5c(F)c(F)c(F)c(F)c5F)c5nc(c(-c6c(F)c(F)c(F)c(F)c6F)c6ccc3[nH]6)C=C5)C=C4)cc2)C1)N[C@H]1CCCc2sccc21
REMARK SMILES IDX 13 1 12 2 11 3 10 4 8 5 9 6 7 8 4 9 5 10 83 11 6 12 3 13
REMARK SMILES IDX 1 14 2 15 84 16 85 19 86 20 93 21 87 22 89 23 92 24 88 25
REMARK SMILES IDX 90 26 91 27 14 28 15 29 16 30 17 31 18 32 19 34 20 35 21 36
REMARK SMILES IDX 82 37 22 38 81 39 23 40 24 41 25 42 75 43 26 44 80 45 74 46
REMARK SMILES IDX 76 47 27 48 79 49 73 50 72 51 28 53 60 54 40 55 59 56 41 57
REMARK SMILES IDX 44 58 58 59 77 60 42 61 43 62 57 64 78 65 45 66 29 67 30 68
REMARK SMILES IDX 38 69 31 70 32 71 36 72 39 73 33 74 34 75 37 76 35 77 61 78
REMARK SMILES IDX 62 79 70 80 63 81 64 82 68 83 71 84 65 85 66 86 69 87 67 88
REMARK SMILES IDX 46 89 47 90 55 91 48 92 49 93 53 94 56 95 50 96 51 97 54 98
REMARK SMILES IDX 52 99
REMARK H PARENT 10 7 3 17 84 18 17 33 76 52 44 63
REMARK Flexibility Score: inf
ROOT
ATOM      1  C   UNL A   1      36.748  29.456  29.774  1.00  0.00     0.002 C 
ENDROOT
BRANCH   1   2
ATOM      2  C   UNL A   1      36.723  30.561  28.716  1.00  0.00     0.021 C 
BRANCH   2   3
ATOM      3  C   UNL A   1      35.968  30.180  27.446  1.00  0.00     0.116 C 
BRANCH   3   4
ATOM      4  N   UNL A   1      34.657  30.796  27.410  1.00  0.00    -0.356 N 
ATOM      5  C   UNL A   1      33.428  30.257  27.179  1.00  0.00     0.227 C 
ATOM      6  O   UNL A   1      32.463  31.026  27.166  1.00  0.00    -0.274 OA
ATOM      7  H   UNL A   1      34.654  31.765  27.579  1.00  0.00     0.163 HD
BRANCH   5   8
ATOM      8  C   UNL A   1      33.232  28.763  26.937  1.00  0.00     0.103 C 
ATOM      9  C   UNL A   1      31.409  27.254  26.350  1.00  0.00     0.107 C 
ATOM     10  C   UNL A   1      32.238  27.602  25.155  1.00  0.00    -0.006 C 
ATOM     11  C   UNL A   1      31.886  28.223  27.434  1.00  0.00     0.047 C 
ATOM     12  C   UNL A   1      33.256  28.408  25.478  1.00  0.00    -0.016 C 
BRANCH   9  13
ATOM     13  N   UNL A   1      31.595  25.851  26.620  1.00  0.00    -0.332 N 
ATOM     14  O   UNL A   1      29.899  24.398  26.830  1.00  0.00    -0.249 OA
ATOM     15  C   UNL A   1      30.790  24.865  26.121  1.00  0.00     0.315 C 
ATOM     16  N   UNL A   1      31.296  24.308  24.988  1.00  0.00    -0.331 N 
ATOM     17  H   UNL A   1      32.347  25.587  27.198  1.00  0.00     0.165 HD
ATOM     18  H   UNL A   1      31.432  24.893  24.207  1.00  0.00     0.166 HD
BRANCH  16  19
ATOM     19  C   UNL A   1      31.647  22.903  24.857  1.00  0.00     0.115 C 
ATOM     20  C   UNL A   1      31.778  22.515  23.369  1.00  0.00     0.030 C 
ATOM     21  C   UNL A   1      32.886  22.508  25.589  1.00  0.00    -0.012 A 
ATOM     22  C   UNL A   1      33.079  22.989  22.691  1.00  0.00     0.008 C 
ATOM     23  C   UNL A   1      34.115  22.518  24.955  1.00  0.00     0.010 A 
ATOM     24  C   UNL A   1      32.993  22.007  26.922  1.00  0.00     0.018 A 
ATOM     25  C   UNL A   1      34.357  22.987  23.554  1.00  0.00     0.047 C 
ATOM     26  S   UNL A   1      35.377  21.973  25.956  1.00  0.00    -0.149 S 
ATOM     27  C   UNL A   1      34.291  21.677  27.246  1.00  0.00     0.065 A 
ENDBRANCH  16  19
ENDBRANCH   9  13
ENDBRANCH   5   8
ENDBRANCH   3   4
ENDBRANCH   2   3
ENDBRANCH   1   2
BRANCH   1  28
ATOM     28  C   UNL A   1      36.702  29.956  31.222  1.00  0.00     0.002 C 
BRANCH  28  29
ATOM     29  C   UNL A   1      35.855  31.212  31.448  1.00  0.00     0.021 C 
BRANCH  29  30
ATOM     30  C   UNL A   1      35.882  31.745  32.876  1.00  0.00     0.116 C 
BRANCH  30  31
ATOM     31  N   UNL A   1      36.104  33.181  32.914  1.00  0.00    -0.352 N 
ATOM     32  C   UNL A   1      37.231  33.885  32.590  1.00  0.00     0.251 C 
ATOM     33  H   UNL A   1      35.337  33.720  33.213  1.00  0.00     0.163 HD
ATOM     34  O   UNL A   1      37.321  35.081  32.868  1.00  0.00    -0.269 OA
BRANCH  32  35
ATOM     35  C   UNL A   1      38.350  33.202  31.915  1.00  0.00     0.039 A 
ATOM     36  C   UNL A   1      38.476  33.318  30.529  1.00  0.00     0.014 A 
ATOM     37  C   UNL A   1      39.262  32.436  32.649  1.00  0.00     0.014 A 
ATOM     38  C   UNL A   1      39.544  32.700  29.880  1.00  0.00     0.010 A 
ATOM     39  C   UNL A   1      40.360  31.870  32.008  1.00  0.00     0.010 A 
ATOM     40  C   UNL A   1      40.504  31.988  30.618  1.00  0.00    -0.014 A 
BRANCH  40  41
ATOM     41  C   UNL A   1      41.657  31.341  29.948  1.00  0.00     0.031 A 
ATOM     42  C   UNL A   1      42.899  32.136  29.663  1.00  0.00     0.074 A 
ATOM     43  C   UNL A   1      41.559  30.061  29.542  1.00  0.00     0.049 A 
ATOM     44  N   UNL A   1      43.982  31.777  29.020  1.00  0.00    -0.248 NA
ATOM     45  C   UNL A   1      42.918  33.528  30.139  1.00  0.00     0.031 C 
ATOM     46  C   UNL A   1      40.384  29.205  29.718  1.00  0.00     0.029 A 
ATOM     47  N   UNL A   1      42.456  29.261  28.881  1.00  0.00    -0.354 N 
ATOM     48  C   UNL A   1      44.796  32.902  28.996  1.00  0.00     0.074 A 
ATOM     49  C   UNL A   1      44.070  33.967  29.652  1.00  0.00     0.031 C 
ATOM     50  C   UNL A   1      40.637  27.998  29.188  1.00  0.00     0.029 A 
ATOM     51  C   UNL A   1      41.978  28.003  28.611  1.00  0.00     0.049 A 
ATOM     52  H   UNL A   1      43.358  29.561  28.626  1.00  0.00     0.167 HD
ATOM     53  C   UNL A   1      46.045  33.026  28.490  1.00  0.00     0.037 A 
ATOM     54  C   UNL A   1      42.554  26.973  27.962  1.00  0.00     0.037 A 
ATOM     55  C   UNL A   1      46.781  31.951  27.878  1.00  0.00     0.049 A 
ATOM     56  C   UNL A   1      43.955  27.131  27.437  1.00  0.00     0.074 A 
ATOM     57  C   UNL A   1      48.080  31.955  27.404  1.00  0.00     0.029 A 
ATOM     58  N   UNL A   1      46.279  30.676  27.663  1.00  0.00    -0.354 N 
ATOM     59  N   UNL A   1      44.743  28.178  27.484  1.00  0.00    -0.248 NA
ATOM     60  C   UNL A   1      44.551  25.962  26.776  1.00  0.00     0.031 C 
ATOM     61  C   UNL A   1      48.354  30.693  26.867  1.00  0.00     0.029 A 
ATOM     62  C   UNL A   1      47.239  29.891  27.045  1.00  0.00     0.049 A 
ATOM     63  H   UNL A   1      45.375  30.375  27.911  1.00  0.00     0.167 HD
ATOM     64  C   UNL A   1      45.933  27.788  26.888  1.00  0.00     0.074 A 
ATOM     65  C   UNL A   1      45.770  26.403  26.498  1.00  0.00     0.031 C 
ATOM     66  C   UNL A   1      47.059  28.510  26.679  1.00  0.00     0.037 A 
BRANCH  53  67
ATOM     67  C   UNL A   1      46.706  34.369  28.582  1.00  0.00     0.064 A 
ATOM     68  C   UNL A   1      47.507  34.720  29.678  1.00  0.00     0.173 A 
ATOM     69  C   UNL A   1      46.585  35.293  27.532  1.00  0.00     0.173 A 
ATOM     70  F   UNL A   1      47.644  33.875  30.711  1.00  0.00    -0.203 F 
ATOM     71  C   UNL A   1      48.148  35.955  29.730  1.00  0.00     0.198 A 
ATOM     72  C   UNL A   1      47.248  36.517  27.577  1.00  0.00     0.198 A 
ATOM     73  F   UNL A   1      45.832  35.005  26.460  1.00  0.00    -0.203 F 
ATOM     74  F   UNL A   1      48.879  36.284  30.804  1.00  0.00    -0.200 F 
ATOM     75  C   UNL A   1      48.025  36.848  28.676  1.00  0.00     0.200 A 
ATOM     76  F   UNL A   1      47.137  37.374  26.553  1.00  0.00    -0.200 F 
ATOM     77  F   UNL A   1      48.653  38.031  28.723  1.00  0.00    -0.200 F 
ENDBRANCH  53  67
BRANCH  54  78
ATOM     78  C   UNL A   1      41.817  25.696  27.789  1.00  0.00     0.064 A 
ATOM     79  C   UNL A   1      42.157  24.561  28.540  1.00  0.00     0.173 A 
ATOM     80  C   UNL A   1      40.771  25.577  26.863  1.00  0.00     0.173 A 
ATOM     81  F   UNL A   1      43.164  24.621  29.424  1.00  0.00    -0.203 F 
ATOM     82  C   UNL A   1      41.495  23.349  28.352  1.00  0.00     0.198 A 
ATOM     83  C   UNL A   1      40.092  24.373  26.695  1.00  0.00     0.198 A 
ATOM     84  F   UNL A   1      40.404  26.635  26.126  1.00  0.00    -0.203 F 
ATOM     85  F   UNL A   1      41.873  22.269  29.047  1.00  0.00    -0.200 F 
ATOM     86  C   UNL A   1      40.461  23.257  27.433  1.00  0.00     0.200 A 
ATOM     87  F   UNL A   1      39.084  24.290  25.816  1.00  0.00    -0.200 F 
ATOM     88  F   UNL A   1      39.825  22.092  27.251  1.00  0.00    -0.200 F 
ENDBRANCH  54  78
BRANCH  66  89
ATOM     89  C   UNL A   1      48.216  27.809  26.031  1.00  0.00     0.064 A 
ATOM     90  C   UNL A   1      48.312  27.686  24.638  1.00  0.00     0.173 A 
ATOM     91  C   UNL A   1      49.260  27.291  26.813  1.00  0.00     0.173 A 
ATOM     92  F   UNL A   1      47.331  28.151  23.850  1.00  0.00    -0.203 F 
ATOM     93  C   UNL A   1      49.402  27.051  24.051  1.00  0.00     0.198 A 
ATOM     94  C   UNL A   1      50.361  26.682  26.222  1.00  0.00     0.198 A 
ATOM     95  F   UNL A   1      49.216  27.391  28.150  1.00  0.00    -0.203 F 
ATOM     96  F   UNL A   1      49.455  26.908  22.719  1.00  0.00    -0.200 F 
ATOM     97  C   UNL A   1      50.430  26.556  24.842  1.00  0.00     0.200 A 
ATOM     98  F   UNL A   1      51.358  26.215  26.986  1.00  0.00    -0.200 F 
ATOM     99  F   UNL A   1      51.482  25.953  24.274  1.00  0.00    -0.200 F 
ENDBRANCH  66  89
ENDBRANCH  40  41
ENDBRANCH  32  35
ENDBRANCH  30  31
ENDBRANCH  29  30
ENDBRANCH  28  29
ENDBRANCH   1  28
TORSDOF 15
ENDMDL
