MODEL 1
REMARK VINA RESULT:     -12.1      0.000      0.000
REMARK SMILES O=C(NCCCCCCNC(=O)c1cc(Cl)cn(Cc2ccc(Cl)cc2)c1=O)c1ccc(-c2c3nc(c(-c4c(F)c(F)c(F)c(F)c4F)c4ccc([nH]4)c(-c4c(F)c(F)c(F)c(F)c4F)c4nc(c(-c5c(F)c(F)c(F)c(F)c5F)c5ccc2[nH]5)C=C4)C=C3)cc1
REMARK SMILES IDX 6 1 5 2 4 3 3 4 1 5 2 6 29 8 30 9 91 10 31 11 90 12 32 13
REMARK SMILES IDX 33 14 34 15 84 16 35 17 89 18 83 19 85 20 36 21 88 22 82 23
REMARK SMILES IDX 81 24 37 26 69 27 49 28 68 29 50 30 53 31 67 32 86 33 51 34
REMARK SMILES IDX 52 35 66 37 87 38 54 39 38 40 39 41 47 42 40 43 41 44 45 45
REMARK SMILES IDX 48 46 42 47 43 48 46 49 44 50 70 51 71 52 79 53 72 54 73 55
REMARK SMILES IDX 77 56 80 57 74 58 75 59 78 60 76 61 55 62 56 63 64 64 57 65
REMARK SMILES IDX 58 66 62 67 65 68 59 69 60 70 63 71 61 72 7 73 8 74 9 75
REMARK SMILES IDX 10 76 11 77 12 79 13 80 14 81 27 82 15 83 18 84 28 85 16 86
REMARK SMILES IDX 17 87 19 88 20 89 21 90 26 91 22 92 25 93 23 94 24 95
REMARK H PARENT 3 7 85 25 53 36 10 78
REMARK Flexibility Score: inf
ROOT
ATOM      1  C   UNL A   1      31.044  28.501  24.232  1.00  0.00     0.002 C 
ENDROOT
BRANCH   1   2
ATOM      2  C   UNL A   1      32.125  28.117  25.248  1.00  0.00     0.021 C 
BRANCH   2   3
ATOM      3  C   UNL A   1      33.233  29.148  25.453  1.00  0.00     0.116 C 
BRANCH   3   4
ATOM      4  N   UNL A   1      32.717  30.433  25.892  1.00  0.00    -0.352 N 
ATOM      5  O   UNL A   1      32.486  32.237  27.215  1.00  0.00    -0.269 OA
ATOM      6  C   UNL A   1      33.161  31.260  26.888  1.00  0.00     0.251 C 
ATOM      7  H   UNL A   1      31.931  30.758  25.397  1.00  0.00     0.163 HD
BRANCH   6   8
ATOM      8  C   UNL A   1      34.438  30.998  27.586  1.00  0.00     0.039 A 
ATOM      9  C   UNL A   1      34.695  29.701  28.046  1.00  0.00     0.014 A 
ATOM     10  C   UNL A   1      35.344  32.027  27.865  1.00  0.00     0.014 A 
ATOM     11  C   UNL A   1      35.864  29.429  28.760  1.00  0.00     0.010 A 
ATOM     12  C   UNL A   1      36.532  31.746  28.540  1.00  0.00     0.010 A 
ATOM     13  C   UNL A   1      36.795  30.449  29.007  1.00  0.00    -0.014 A 
BRANCH  13  14
ATOM     14  C   UNL A   1      38.018  30.196  29.810  1.00  0.00     0.031 A 
ATOM     15  C   UNL A   1      39.126  29.359  29.232  1.00  0.00     0.074 A 
ATOM     16  C   UNL A   1      38.130  30.695  31.055  1.00  0.00     0.049 A 
ATOM     17  N   UNL A   1      40.216  28.914  29.804  1.00  0.00    -0.248 NA
ATOM     18  C   UNL A   1      38.982  28.959  27.822  1.00  0.00     0.031 C 
ATOM     19  C   UNL A   1      37.140  31.541  31.720  1.00  0.00     0.029 A 
ATOM     20  N   UNL A   1      39.131  30.557  31.986  1.00  0.00    -0.354 N 
ATOM     21  C   UNL A   1      40.880  28.180  28.832  1.00  0.00     0.074 A 
ATOM     22  C   UNL A   1      40.058  28.205  27.642  1.00  0.00     0.031 C 
ATOM     23  C   UNL A   1      37.590  31.864  32.945  1.00  0.00     0.029 A 
ATOM     24  C   UNL A   1      38.878  31.212  33.166  1.00  0.00     0.049 A 
ATOM     25  H   UNL A   1      39.950  30.038  31.822  1.00  0.00     0.167 HD
ATOM     26  C   UNL A   1      42.078  27.554  28.920  1.00  0.00     0.037 A 
ATOM     27  C   UNL A   1      39.601  31.268  34.302  1.00  0.00     0.037 A 
ATOM     28  C   UNL A   1      42.907  27.542  30.096  1.00  0.00     0.049 A 
ATOM     29  C   UNL A   1      40.908  30.525  34.384  1.00  0.00     0.074 A 
ATOM     30  C   UNL A   1      44.119  26.905  30.292  1.00  0.00     0.029 A 
ATOM     31  N   UNL A   1      42.615  28.218  31.271  1.00  0.00    -0.354 N 
ATOM     32  N   UNL A   1      41.509  29.804  33.470  1.00  0.00    -0.248 NA
ATOM     33  C   UNL A   1      41.637  30.605  35.659  1.00  0.00     0.031 C 
ATOM     34  C   UNL A   1      44.555  27.183  31.591  1.00  0.00     0.029 A 
ATOM     35  C   UNL A   1      43.631  28.021  32.191  1.00  0.00     0.049 A 
ATOM     36  H   UNL A   1      41.806  28.758  31.426  1.00  0.00     0.167 HD
ATOM     37  C   UNL A   1      42.700  29.378  34.043  1.00  0.00     0.074 A 
ATOM     38  C   UNL A   1      42.740  29.923  35.383  1.00  0.00     0.031 C 
ATOM     39  C   UNL A   1      43.671  28.602  33.506  1.00  0.00     0.037 A 
BRANCH  26  40
ATOM     40  C   UNL A   1      42.583  26.836  27.704  1.00  0.00     0.064 A 
ATOM     41  C   UNL A   1      43.360  27.499  26.742  1.00  0.00     0.173 A 
ATOM     42  C   UNL A   1      42.361  25.462  27.541  1.00  0.00     0.173 A 
ATOM     43  F   UNL A   1      43.587  28.816  26.850  1.00  0.00    -0.203 F 
ATOM     44  C   UNL A   1      43.893  26.810  25.657  1.00  0.00     0.198 A 
ATOM     45  C   UNL A   1      42.914  24.772  26.465  1.00  0.00     0.198 A 
ATOM     46  F   UNL A   1      41.627  24.784  28.435  1.00  0.00    -0.203 F 
ATOM     47  F   UNL A   1      44.616  27.467  24.738  1.00  0.00    -0.200 F 
ATOM     48  C   UNL A   1      43.679  25.446  25.525  1.00  0.00     0.200 A 
ATOM     49  F   UNL A   1      42.717  23.452  26.345  1.00  0.00    -0.200 F 
ATOM     50  F   UNL A   1      44.210  24.781  24.490  1.00  0.00    -0.200 F 
ENDBRANCH  26  40
BRANCH  27  51
ATOM     51  C   UNL A   1      39.120  32.073  35.454  1.00  0.00     0.064 A 
ATOM     52  C   UNL A   1      39.456  33.430  35.567  1.00  0.00     0.173 A 
ATOM     53  C   UNL A   1      38.343  31.506  36.474  1.00  0.00     0.173 A 
ATOM     54  F   UNL A   1      40.220  34.010  34.629  1.00  0.00    -0.203 F 
ATOM     55  C   UNL A   1      39.049  34.184  36.666  1.00  0.00     0.198 A 
ATOM     56  C   UNL A   1      37.916  32.267  37.559  1.00  0.00     0.198 A 
ATOM     57  F   UNL A   1      37.997  30.212  36.414  1.00  0.00    -0.203 F 
ATOM     58  F   UNL A   1      39.425  35.466  36.772  1.00  0.00    -0.200 F 
ATOM     59  C   UNL A   1      38.276  33.603  37.658  1.00  0.00     0.200 A 
ATOM     60  F   UNL A   1      37.160  31.705  38.513  1.00  0.00    -0.200 F 
ATOM     61  F   UNL A   1      37.887  34.327  38.716  1.00  0.00    -0.200 F 
ENDBRANCH  27  51
BRANCH  39  62
ATOM     62  C   UNL A   1      44.893  28.346  34.337  1.00  0.00     0.064 A 
ATOM     63  C   UNL A   1      44.987  27.234  35.184  1.00  0.00     0.173 A 
ATOM     64  C   UNL A   1      46.004  29.197  34.237  1.00  0.00     0.173 A 
ATOM     65  F   UNL A   1      43.945  26.399  35.321  1.00  0.00    -0.203 F 
ATOM     66  C   UNL A   1      46.145  26.992  35.917  1.00  0.00     0.198 A 
ATOM     67  C   UNL A   1      47.168  28.939  34.954  1.00  0.00     0.198 A 
ATOM     68  F   UNL A   1      45.964  30.271  33.434  1.00  0.00    -0.203 F 
ATOM     69  F   UNL A   1      46.202  25.942  36.748  1.00  0.00    -0.200 F 
ATOM     70  C   UNL A   1      47.237  27.839  35.796  1.00  0.00     0.200 A 
ATOM     71  F   UNL A   1      48.226  29.752  34.827  1.00  0.00    -0.200 F 
ATOM     72  F   UNL A   1      48.354  27.598  36.496  1.00  0.00    -0.200 F 
ENDBRANCH  39  62
ENDBRANCH  13  14
ENDBRANCH   6   8
ENDBRANCH   3   4
ENDBRANCH   2   3
ENDBRANCH   1   2
BRANCH   1  73
ATOM     73  C   UNL A   1      30.237  27.338  23.647  1.00  0.00     0.002 C 
BRANCH  73  74
ATOM     74  C   UNL A   1      31.045  26.093  23.273  1.00  0.00     0.021 C 
BRANCH  74  75
ATOM     75  C   UNL A   1      30.422  24.762  23.685  1.00  0.00     0.116 C 
BRANCH  75  76
ATOM     76  N   UNL A   1      30.294  24.628  25.126  1.00  0.00    -0.352 N 
ATOM     77  C   UNL A   1      31.054  23.890  25.988  1.00  0.00     0.256 C 
ATOM     78  H   UNL A   1      29.560  25.138  25.537  1.00  0.00     0.163 HD
ATOM     79  O   UNL A   1      30.776  23.862  27.186  1.00  0.00    -0.269 OA
BRANCH  77  80
ATOM     80  C   UNL A   1      32.125  23.038  25.433  1.00  0.00     0.106 A 
ATOM     81  C   UNL A   1      31.845  21.730  25.309  1.00  0.00     0.041 A 
ATOM     82  C   UNL A   1      33.435  23.583  24.960  1.00  0.00     0.263 A 
ATOM     83  C   UNL A   1      32.776  20.845  24.662  1.00  0.00     0.058 A 
ATOM     84  N   UNL A   1      34.264  22.669  24.296  1.00  0.00    -0.309 N 
ATOM     85  O   UNL A   1      33.719  24.768  25.113  1.00  0.00    -0.268 OA
ATOM     86  Cl  UNL A   1      32.362  19.186  24.491  1.00  0.00    -0.083 Cl
ATOM     87  C   UNL A   1      33.919  21.330  24.161  1.00  0.00     0.110 A 
BRANCH  84  88
ATOM     88  C   UNL A   1      35.533  23.145  23.744  1.00  0.00     0.161 C 
BRANCH  88  89
ATOM     89  C   UNL A   1      36.711  22.862  24.650  1.00  0.00    -0.028 A 
ATOM     90  C   UNL A   1      37.187  23.840  25.536  1.00  0.00     0.007 A 
ATOM     91  C   UNL A   1      37.355  21.616  24.608  1.00  0.00     0.007 A 
ATOM     92  C   UNL A   1      38.287  23.585  26.356  1.00  0.00     0.021 A 
ATOM     93  C   UNL A   1      38.447  21.355  25.442  1.00  0.00     0.021 A 
ATOM     94  C   UNL A   1      38.910  22.341  26.309  1.00  0.00     0.041 A 
ATOM     95  Cl  UNL A   1      40.260  22.025  27.326  1.00  0.00    -0.084 Cl
ENDBRANCH  88  89
ENDBRANCH  84  88
ENDBRANCH  77  80
ENDBRANCH  75  76
ENDBRANCH  74  75
ENDBRANCH  73  74
ENDBRANCH   1  73
TORSDOF 15
ENDMDL
MODEL 2
REMARK VINA RESULT:     -12.0      4.540      9.697
REMARK SMILES O=C(NCCCCCCNC(=O)c1cc(Cl)cn(Cc2ccc(Cl)cc2)c1=O)c1ccc(-c2c3nc(c(-c4c(F)c(F)c(F)c(F)c4F)c4ccc([nH]4)c(-c4c(F)c(F)c(F)c(F)c4F)c4nc(c(-c5c(F)c(F)c(F)c(F)c5F)c5ccc2[nH]5)C=C4)C=C3)cc1
REMARK SMILES IDX 6 1 5 2 4 3 3 4 1 5 2 6 29 8 30 9 91 10 31 11 90 12 32 13
REMARK SMILES IDX 33 14 34 15 84 16 35 17 89 18 83 19 85 20 36 21 88 22 82 23
REMARK SMILES IDX 81 24 37 26 69 27 49 28 68 29 50 30 53 31 67 32 86 33 51 34
REMARK SMILES IDX 52 35 66 37 87 38 54 39 38 40 39 41 47 42 40 43 41 44 45 45
REMARK SMILES IDX 48 46 42 47 43 48 46 49 44 50 70 51 71 52 79 53 72 54 73 55
REMARK SMILES IDX 77 56 80 57 74 58 75 59 78 60 76 61 55 62 56 63 64 64 57 65
REMARK SMILES IDX 58 66 62 67 65 68 59 69 60 70 63 71 61 72 7 73 8 74 9 75
REMARK SMILES IDX 10 76 11 77 12 79 13 80 14 81 27 82 15 83 18 84 28 85 16 86
REMARK SMILES IDX 17 87 19 88 20 89 21 90 26 91 22 92 25 93 23 94 24 95
REMARK H PARENT 3 7 85 25 53 36 10 78
REMARK Flexibility Score: inf
ROOT
ATOM      1  C   UNL A   1      37.331  20.844  24.635  1.00  0.00     0.002 C 
ENDROOT
BRANCH   1   2
ATOM      2  C   UNL A   1      38.274  19.690  24.991  1.00  0.00     0.021 C 
BRANCH   2   3
ATOM      3  C   UNL A   1      39.386  20.031  25.980  1.00  0.00     0.116 C 
BRANCH   3   4
ATOM      4  N   UNL A   1      40.491  19.091  25.915  1.00  0.00    -0.352 N 
ATOM      5  O   UNL A   1      42.628  18.402  25.775  1.00  0.00    -0.269 OA
ATOM      6  C   UNL A   1      41.838  19.314  26.021  1.00  0.00     0.251 C 
ATOM      7  H   UNL A   1      40.233  18.152  25.773  1.00  0.00     0.163 HD
BRANCH   6   8
ATOM      8  C   UNL A   1      42.363  20.636  26.424  1.00  0.00     0.039 A 
ATOM      9  C   UNL A   1      42.372  20.966  27.784  1.00  0.00     0.014 A 
ATOM     10  C   UNL A   1      42.769  21.582  25.476  1.00  0.00     0.014 A 
ATOM     11  C   UNL A   1      42.806  22.228  28.197  1.00  0.00     0.010 A 
ATOM     12  C   UNL A   1      43.244  22.826  25.892  1.00  0.00     0.010 A 
ATOM     13  C   UNL A   1      43.252  23.166  27.254  1.00  0.00    -0.014 A 
BRANCH  13  14
ATOM     14  C   UNL A   1      43.667  24.531  27.664  1.00  0.00     0.031 A 
ATOM     15  C   UNL A   1      42.620  25.551  28.018  1.00  0.00     0.074 A 
ATOM     16  C   UNL A   1      44.971  24.863  27.700  1.00  0.00     0.049 A 
ATOM     17  N   UNL A   1      42.758  26.826  28.278  1.00  0.00    -0.248 NA
ATOM     18  C   UNL A   1      41.229  25.074  28.076  1.00  0.00     0.031 C 
ATOM     19  C   UNL A   1      46.083  23.960  27.405  1.00  0.00     0.029 A 
ATOM     20  N   UNL A   1      45.581  26.057  27.999  1.00  0.00    -0.354 N 
ATOM     21  C   UNL A   1      41.478  27.303  28.522  1.00  0.00     0.074 A 
ATOM     22  C   UNL A   1      40.569  26.191  28.345  1.00  0.00     0.031 C 
ATOM     23  C   UNL A   1      47.241  24.625  27.556  1.00  0.00     0.029 A 
ATOM     24  C   UNL A   1      46.951  26.012  27.915  1.00  0.00     0.049 A 
ATOM     25  H   UNL A   1      45.083  26.867  28.250  1.00  0.00     0.167 HD
ATOM     26  C   UNL A   1      41.097  28.553  28.879  1.00  0.00     0.037 A 
ATOM     27  C   UNL A   1      47.867  26.983  28.097  1.00  0.00     0.037 A 
ATOM     28  C   UNL A   1      42.001  29.655  29.073  1.00  0.00     0.049 A 
ATOM     29  C   UNL A   1      47.409  28.373  28.450  1.00  0.00     0.074 A 
ATOM     30  C   UNL A   1      41.705  30.967  29.398  1.00  0.00     0.029 A 
ATOM     31  N   UNL A   1      43.381  29.567  28.978  1.00  0.00    -0.354 N 
ATOM     32  N   UNL A   1      46.193  28.821  28.643  1.00  0.00    -0.248 NA
ATOM     33  C   UNL A   1      48.455  29.395  28.609  1.00  0.00     0.031 C 
ATOM     34  C   UNL A   1      42.906  31.678  29.487  1.00  0.00     0.029 A 
ATOM     35  C   UNL A   1      43.950  30.800  29.251  1.00  0.00     0.049 A 
ATOM     36  H   UNL A   1      43.881  28.750  28.752  1.00  0.00     0.167 HD
ATOM     37  C   UNL A   1      46.329  30.160  28.983  1.00  0.00     0.074 A 
ATOM     38  C   UNL A   1      47.745  30.454  28.973  1.00  0.00     0.031 C 
ATOM     39  C   UNL A   1      45.364  31.065  29.274  1.00  0.00     0.037 A 
BRANCH  26  40
ATOM     40  C   UNL A   1      39.636  28.801  29.101  1.00  0.00     0.064 A 
ATOM     41  C   UNL A   1      39.058  28.644  30.370  1.00  0.00     0.173 A 
ATOM     42  C   UNL A   1      38.825  29.279  28.061  1.00  0.00     0.173 A 
ATOM     43  F   UNL A   1      39.792  28.177  31.390  1.00  0.00    -0.203 F 
ATOM     44  C   UNL A   1      37.719  28.953  30.588  1.00  0.00     0.198 A 
ATOM     45  C   UNL A   1      37.491  29.608  28.289  1.00  0.00     0.198 A 
ATOM     46  F   UNL A   1      39.332  29.449  26.831  1.00  0.00    -0.203 F 
ATOM     47  F   UNL A   1      37.182  28.776  31.803  1.00  0.00    -0.200 F 
ATOM     48  C   UNL A   1      36.940  29.445  29.551  1.00  0.00     0.200 A 
ATOM     49  F   UNL A   1      36.743  30.094  27.289  1.00  0.00    -0.200 F 
ATOM     50  F   UNL A   1      35.656  29.761  29.768  1.00  0.00    -0.200 F 
ENDBRANCH  26  40
BRANCH  27  51
ATOM     51  C   UNL A   1      49.315  26.678  27.969  1.00  0.00     0.064 A 
ATOM     52  C   UNL A   1      49.919  26.598  26.705  1.00  0.00     0.173 A 
ATOM     53  C   UNL A   1      50.118  26.437  29.092  1.00  0.00     0.173 A 
ATOM     54  F   UNL A   1      49.185  26.795  25.600  1.00  0.00    -0.203 F 
ATOM     55  C   UNL A   1      51.266  26.268  26.571  1.00  0.00     0.198 A 
ATOM     56  C   UNL A   1      51.470  26.132  28.958  1.00  0.00     0.198 A 
ATOM     57  F   UNL A   1      49.587  26.500  30.323  1.00  0.00    -0.203 F 
ATOM     58  F   UNL A   1      51.805  26.151  25.350  1.00  0.00    -0.200 F 
ATOM     59  C   UNL A   1      52.041  26.041  27.697  1.00  0.00     0.200 A 
ATOM     60  F   UNL A   1      52.219  25.922  30.049  1.00  0.00    -0.200 F 
ATOM     61  F   UNL A   1      53.335  25.721  27.567  1.00  0.00    -0.200 F 
ENDBRANCH  27  51
BRANCH  39  62
ATOM     62  C   UNL A   1      45.802  32.442  29.672  1.00  0.00     0.064 A 
ATOM     63  C   UNL A   1      46.098  32.763  31.003  1.00  0.00     0.173 A 
ATOM     64  C   UNL A   1      45.985  33.433  28.696  1.00  0.00     0.173 A 
ATOM     65  F   UNL A   1      45.927  31.851  31.972  1.00  0.00    -0.203 F 
ATOM     66  C   UNL A   1      46.543  34.037  31.347  1.00  0.00     0.198 A 
ATOM     67  C   UNL A   1      46.452  34.698  29.040  1.00  0.00     0.198 A 
ATOM     68  F   UNL A   1      45.723  33.171  27.407  1.00  0.00    -0.203 F 
ATOM     69  F   UNL A   1      46.786  34.335  32.631  1.00  0.00    -0.200 F 
ATOM     70  C   UNL A   1      46.727  35.000  30.366  1.00  0.00     0.200 A 
ATOM     71  F   UNL A   1      46.640  35.623  28.090  1.00  0.00    -0.200 F 
ATOM     72  F   UNL A   1      47.164  36.222  30.699  1.00  0.00    -0.200 F 
ENDBRANCH  39  62
ENDBRANCH  13  14
ENDBRANCH   6   8
ENDBRANCH   3   4
ENDBRANCH   2   3
ENDBRANCH   1   2
BRANCH   1  73
ATOM     73  C   UNL A   1      35.924  20.764  25.236  1.00  0.00     0.002 C 
BRANCH  73  74
ATOM     74  C   UNL A   1      35.576  21.854  26.253  1.00  0.00     0.021 C 
BRANCH  74  75
ATOM     75  C   UNL A   1      34.278  21.636  27.025  1.00  0.00     0.116 C 
BRANCH  75  76
ATOM     76  N   UNL A   1      33.470  20.564  26.468  1.00  0.00    -0.352 N 
ATOM     77  C   UNL A   1      32.579  20.613  25.434  1.00  0.00     0.256 C 
ATOM     78  H   UNL A   1      33.580  19.683  26.893  1.00  0.00     0.163 HD
ATOM     79  O   UNL A   1      31.947  19.607  25.117  1.00  0.00    -0.269 OA
BRANCH  77  80
ATOM     80  C   UNL A   1      32.305  21.917  24.798  1.00  0.00     0.106 A 
ATOM     81  C   UNL A   1      32.857  22.120  23.590  1.00  0.00     0.041 A 
ATOM     82  C   UNL A   1      31.409  22.948  25.407  1.00  0.00     0.263 A 
ATOM     83  C   UNL A   1      32.544  23.305  22.838  1.00  0.00     0.058 A 
ATOM     84  N   UNL A   1      31.113  24.047  24.591  1.00  0.00    -0.309 N 
ATOM     85  O   UNL A   1      30.939  22.792  26.531  1.00  0.00    -0.268 OA
ATOM     86  Cl  UNL A   1      33.243  23.508  21.280  1.00  0.00    -0.083 Cl
ATOM     87  C   UNL A   1      31.681  24.201  23.333  1.00  0.00     0.110 A 
BRANCH  84  88
ATOM     88  C   UNL A   1      30.188  25.064  25.093  1.00  0.00     0.161 C 
BRANCH  88  89
ATOM     89  C   UNL A   1      30.875  26.370  25.428  1.00  0.00    -0.028 A 
ATOM     90  C   UNL A   1      30.750  27.485  24.585  1.00  0.00     0.007 A 
ATOM     91  C   UNL A   1      31.661  26.482  26.586  1.00  0.00     0.007 A 
ATOM     92  C   UNL A   1      31.401  28.682  24.884  1.00  0.00     0.021 A 
ATOM     93  C   UNL A   1      32.300  27.687  26.894  1.00  0.00     0.021 A 
ATOM     94  C   UNL A   1      32.170  28.780  26.040  1.00  0.00     0.041 A 
ATOM     95  Cl  UNL A   1      32.965  30.259  26.413  1.00  0.00    -0.084 Cl
ENDBRANCH  88  89
ENDBRANCH  84  88
ENDBRANCH  77  80
ENDBRANCH  75  76
ENDBRANCH  74  75
ENDBRANCH  73  74
ENDBRANCH   1  73
TORSDOF 15
ENDMDL
MODEL 3
REMARK VINA RESULT:     -12.0      2.076      3.569
REMARK SMILES O=C(NCCCCCCNC(=O)c1cc(Cl)cn(Cc2ccc(Cl)cc2)c1=O)c1ccc(-c2c3nc(c(-c4c(F)c(F)c(F)c(F)c4F)c4ccc([nH]4)c(-c4c(F)c(F)c(F)c(F)c4F)c4nc(c(-c5c(F)c(F)c(F)c(F)c5F)c5ccc2[nH]5)C=C4)C=C3)cc1
REMARK SMILES IDX 6 1 5 2 4 3 3 4 1 5 2 6 29 8 30 9 91 10 31 11 90 12 32 13
REMARK SMILES IDX 33 14 34 15 84 16 35 17 89 18 83 19 85 20 36 21 88 22 82 23
REMARK SMILES IDX 81 24 37 26 69 27 49 28 68 29 50 30 53 31 67 32 86 33 51 34
REMARK SMILES IDX 52 35 66 37 87 38 54 39 38 40 39 41 47 42 40 43 41 44 45 45
REMARK SMILES IDX 48 46 42 47 43 48 46 49 44 50 70 51 71 52 79 53 72 54 73 55
REMARK SMILES IDX 77 56 80 57 74 58 75 59 78 60 76 61 55 62 56 63 64 64 57 65
REMARK SMILES IDX 58 66 62 67 65 68 59 69 60 70 63 71 61 72 7 73 8 74 9 75
REMARK SMILES IDX 10 76 11 77 12 79 13 80 14 81 27 82 15 83 18 84 28 85 16 86
REMARK SMILES IDX 17 87 19 88 20 89 21 90 26 91 22 92 25 93 23 94 24 95
REMARK H PARENT 3 7 85 25 53 36 10 78
REMARK Flexibility Score: inf
ROOT
ATOM      1  C   UNL A   1      31.619  30.505  25.929  1.00  0.00     0.002 C 
ENDROOT
BRANCH   1   2
ATOM      2  C   UNL A   1      31.406  31.865  26.603  1.00  0.00     0.021 C 
BRANCH   2   3
ATOM      3  C   UNL A   1      32.662  32.520  27.174  1.00  0.00     0.116 C 
BRANCH   3   4
ATOM      4  N   UNL A   1      32.444  33.908  27.538  1.00  0.00    -0.352 N 
ATOM      5  O   UNL A   1      32.593  35.781  28.776  1.00  0.00    -0.269 OA
ATOM      6  C   UNL A   1      33.033  34.660  28.519  1.00  0.00     0.251 C 
ATOM      7  H   UNL A   1      31.771  34.381  26.997  1.00  0.00     0.163 HD
BRANCH   6   8
ATOM      8  C   UNL A   1      34.192  34.146  29.282  1.00  0.00     0.039 A 
ATOM      9  C   UNL A   1      35.480  34.477  28.844  1.00  0.00     0.014 A 
ATOM     10  C   UNL A   1      34.027  33.280  30.367  1.00  0.00     0.014 A 
ATOM     11  C   UNL A   1      36.598  33.962  29.504  1.00  0.00     0.010 A 
ATOM     12  C   UNL A   1      35.144  32.801  31.053  1.00  0.00     0.010 A 
ATOM     13  C   UNL A   1      36.438  33.125  30.618  1.00  0.00    -0.014 A 
BRANCH  13  14
ATOM     14  C   UNL A   1      37.610  32.524  31.303  1.00  0.00     0.031 A 
ATOM     15  C   UNL A   1      38.370  31.410  30.635  1.00  0.00     0.074 A 
ATOM     16  C   UNL A   1      37.982  32.956  32.522  1.00  0.00     0.049 A 
ATOM     17  N   UNL A   1      39.337  30.666  31.107  1.00  0.00    -0.248 NA
ATOM     18  C   UNL A   1      37.980  31.083  29.254  1.00  0.00     0.031 C 
ATOM     19  C   UNL A   1      37.346  34.044  33.265  1.00  0.00     0.029 A 
ATOM     20  N   UNL A   1      38.988  32.528  33.354  1.00  0.00    -0.354 N 
ATOM     21  C   UNL A   1      39.665  29.782  30.088  1.00  0.00     0.074 A 
ATOM     22  C   UNL A   1      38.772  30.055  28.983  1.00  0.00     0.031 C 
ATOM     23  C   UNL A   1      37.987  34.211  34.434  1.00  0.00     0.029 A 
ATOM     24  C   UNL A   1      39.051  33.215  34.541  1.00  0.00     0.049 A 
ATOM     25  H   UNL A   1      39.604  31.798  33.121  1.00  0.00     0.167 HD
ATOM     26  C   UNL A   1      40.637  28.838  30.071  1.00  0.00     0.037 A 
ATOM     27  C   UNL A   1      39.867  33.050  35.600  1.00  0.00     0.037 A 
ATOM     28  C   UNL A   1      41.538  28.577  31.161  1.00  0.00     0.049 A 
ATOM     29  C   UNL A   1      40.908  31.963  35.568  1.00  0.00     0.074 A 
ATOM     30  C   UNL A   1      42.530  27.617  31.250  1.00  0.00     0.029 A 
ATOM     31  N   UNL A   1      41.568  29.296  32.346  1.00  0.00    -0.354 N 
ATOM     32  N   UNL A   1      41.185  31.109  34.613  1.00  0.00    -0.248 NA
ATOM     33  C   UNL A   1      41.750  31.816  36.765  1.00  0.00     0.031 C 
ATOM     34  C   UNL A   1      43.153  27.744  32.496  1.00  0.00     0.029 A 
ATOM     35  C   UNL A   1      42.571  28.806  33.166  1.00  0.00     0.049 A 
ATOM     36  H   UNL A   1      40.968  30.043  32.570  1.00  0.00     0.167 HD
ATOM     37  C   UNL A   1      42.254  30.354  35.076  1.00  0.00     0.074 A 
ATOM     38  C   UNL A   1      42.579  30.849  36.396  1.00  0.00     0.031 C 
ATOM     39  C   UNL A   1      42.905  29.337  34.461  1.00  0.00     0.037 A 
BRANCH  26  40
ATOM     40  C   UNL A   1      40.793  28.019  28.825  1.00  0.00     0.064 A 
ATOM     41  C   UNL A   1      40.058  26.839  28.637  1.00  0.00     0.173 A 
ATOM     42  C   UNL A   1      41.617  28.458  27.779  1.00  0.00     0.173 A 
ATOM     43  F   UNL A   1      39.268  26.374  29.615  1.00  0.00    -0.203 F 
ATOM     44  C   UNL A   1      40.147  26.125  27.446  1.00  0.00     0.198 A 
ATOM     45  C   UNL A   1      41.686  27.752  26.580  1.00  0.00     0.198 A 
ATOM     46  F   UNL A   1      42.337  29.582  27.910  1.00  0.00    -0.203 F 
ATOM     47  F   UNL A   1      39.452  24.989  27.294  1.00  0.00    -0.200 F 
ATOM     48  C   UNL A   1      40.952  26.588  26.415  1.00  0.00     0.200 A 
ATOM     49  F   UNL A   1      42.455  28.206  25.581  1.00  0.00    -0.200 F 
ATOM     50  F   UNL A   1      41.020  25.909  25.261  1.00  0.00    -0.200 F 
ENDBRANCH  26  40
BRANCH  27  51
ATOM     51  C   UNL A   1      39.752  33.946  36.779  1.00  0.00     0.064 A 
ATOM     52  C   UNL A   1      40.461  35.156  36.828  1.00  0.00     0.173 A 
ATOM     53  C   UNL A   1      38.960  33.609  37.885  1.00  0.00     0.173 A 
ATOM     54  F   UNL A   1      41.253  35.508  35.804  1.00  0.00    -0.203 F 
ATOM     55  C   UNL A   1      40.397  35.983  37.947  1.00  0.00     0.198 A 
ATOM     56  C   UNL A   1      38.877  34.448  38.993  1.00  0.00     0.198 A 
ATOM     57  F   UNL A   1      38.265  32.462  37.888  1.00  0.00    -0.203 F 
ATOM     58  F   UNL A   1      41.123  37.109  37.986  1.00  0.00    -0.200 F 
ATOM     59  C   UNL A   1      39.602  35.632  39.026  1.00  0.00     0.200 A 
ATOM     60  F   UNL A   1      38.100  34.111  40.031  1.00  0.00    -0.200 F 
ATOM     61  F   UNL A   1      39.542  36.426  40.103  1.00  0.00    -0.200 F 
ENDBRANCH  27  51
BRANCH  39  62
ATOM     62  C   UNL A   1      44.077  28.733  35.174  1.00  0.00     0.064 A 
ATOM     63  C   UNL A   1      43.927  27.652  36.052  1.00  0.00     0.173 A 
ATOM     64  C   UNL A   1      45.374  29.209  34.928  1.00  0.00     0.173 A 
ATOM     65  F   UNL A   1      42.705  27.170  36.328  1.00  0.00    -0.203 F 
ATOM     66  C   UNL A   1      45.033  27.079  36.674  1.00  0.00     0.198 A 
ATOM     67  C   UNL A   1      46.479  28.620  35.533  1.00  0.00     0.198 A 
ATOM     68  F   UNL A   1      45.569  30.238  34.089  1.00  0.00    -0.203 F 
ATOM     69  F   UNL A   1      44.864  26.068  37.537  1.00  0.00    -0.200 F 
ATOM     70  C   UNL A   1      46.308  27.557  36.409  1.00  0.00     0.200 A 
ATOM     71  F   UNL A   1      47.710  29.075  35.266  1.00  0.00    -0.200 F 
ATOM     72  F   UNL A   1      47.371  26.998  37.001  1.00  0.00    -0.200 F 
ENDBRANCH  39  62
ENDBRANCH  13  14
ENDBRANCH   6   8
ENDBRANCH   3   4
ENDBRANCH   2   3
ENDBRANCH   1   2
BRANCH   1  73
ATOM     73  C   UNL A   1      32.009  29.354  26.861  1.00  0.00     0.002 C 
BRANCH  73  74
ATOM     74  C   UNL A   1      32.824  28.228  26.217  1.00  0.00     0.021 C 
BRANCH  74  75
ATOM     75  C   UNL A   1      32.050  27.327  25.259  1.00  0.00     0.116 C 
BRANCH  75  76
ATOM     76  N   UNL A   1      32.599  27.342  23.913  1.00  0.00    -0.352 N 
ATOM     77  C   UNL A   1      33.245  26.344  23.241  1.00  0.00     0.256 C 
ATOM     78  H   UNL A   1      32.491  28.187  23.419  1.00  0.00     0.163 HD
ATOM     79  O   UNL A   1      33.682  26.545  22.110  1.00  0.00    -0.269 OA
BRANCH  77  80
ATOM     80  C   UNL A   1      33.510  25.074  23.947  1.00  0.00     0.106 A 
ATOM     81  C   UNL A   1      34.724  24.945  24.508  1.00  0.00     0.041 A 
ATOM     82  C   UNL A   1      32.481  24.001  24.108  1.00  0.00     0.263 A 
ATOM     83  C   UNL A   1      35.030  23.801  25.324  1.00  0.00     0.058 A 
ATOM     84  N   UNL A   1      32.838  22.946  24.957  1.00  0.00    -0.309 N 
ATOM     85  O   UNL A   1      31.386  24.089  23.558  1.00  0.00    -0.268 OA
ATOM     86  Cl  UNL A   1      36.583  23.694  26.054  1.00  0.00    -0.083 Cl
ATOM     87  C   UNL A   1      34.095  22.870  25.545  1.00  0.00     0.110 A 
BRANCH  84  88
ATOM     88  C   UNL A   1      31.856  21.892  25.218  1.00  0.00     0.161 C 
BRANCH  88  89
ATOM     89  C   UNL A   1      32.322  20.529  24.757  1.00  0.00    -0.028 A 
ATOM     90  C   UNL A   1      32.262  20.169  23.402  1.00  0.00     0.007 A 
ATOM     91  C   UNL A   1      32.810  19.595  25.684  1.00  0.00     0.007 A 
ATOM     92  C   UNL A   1      32.672  18.903  22.981  1.00  0.00     0.021 A 
ATOM     93  C   UNL A   1      33.237  18.333  25.259  1.00  0.00     0.021 A 
ATOM     94  C   UNL A   1      33.162  17.991  23.911  1.00  0.00     0.041 A 
ATOM     95  Cl  UNL A   1      33.676  16.435  23.390  1.00  0.00    -0.084 Cl
ENDBRANCH  88  89
ENDBRANCH  84  88
ENDBRANCH  77  80
ENDBRANCH  75  76
ENDBRANCH  74  75
ENDBRANCH  73  74
ENDBRANCH   1  73
TORSDOF 15
ENDMDL
