MODEL 1
REMARK VINA RESULT:     -10.9      0.000      0.000
REMARK SMILES CSCc1ccc(C(=O)N[C@](C)(C(=O)NCCCCCCNC(=O)c2ccc(-c3c4nc(c(-c5c(F)c(F)c(F)c(F)c5F)c5ccc([nH]5)c(-c5c(F)c(F)c(F)c(F)c5F)c5nc(c(-c6c(F)c(F)c(F)c(F)c6F)c6ccc3[nH]6)C=C5)C=C4)cc2)C(F)(F)F)o1
REMARK SMILES IDX 17 1 16 2 15 3 13 4 14 5 11 7 12 8 10 9 8 10 9 11 7 13 4 14
REMARK SMILES IDX 5 15 92 16 6 17 3 18 2 19 1 20 88 21 89 22 90 23 91 24 18 25
REMARK SMILES IDX 19 26 20 27 21 28 22 29 23 30 24 32 25 33 26 34 87 35 27 36
REMARK SMILES IDX 86 37 28 38 29 39 30 40 80 41 31 42 85 43 79 44 81 45 32 46
REMARK SMILES IDX 84 47 78 48 77 49 33 51 65 52 45 53 64 54 46 55 49 56 63 57
REMARK SMILES IDX 82 58 47 59 48 60 62 62 83 63 50 64 34 65 35 66 43 67 36 68
REMARK SMILES IDX 37 69 41 70 44 71 38 72 39 73 42 74 40 75 66 76 67 77 75 78
REMARK SMILES IDX 68 79 69 80 73 81 76 82 70 83 71 84 74 85 72 86 51 87 52 88
REMARK SMILES IDX 60 89 53 90 54 91 58 92 61 93 55 94 56 95 59 96 57 97
REMARK H PARENT 15 6 10 12 22 31 81 50 49 61
REMARK Flexibility Score: inf
ROOT
ATOM      1  C   UNL A   1      30.449  27.653  22.564  1.00  0.00     0.021 C 
ENDROOT
BRANCH   1   2
ATOM      2  C   UNL A   1      30.800  26.323  23.224  1.00  0.00     0.116 C 
BRANCH   2   3
ATOM      3  N   UNL A   1      30.172  26.153  24.513  1.00  0.00    -0.354 N 
ATOM      4  C   UNL A   1      30.470  25.374  25.590  1.00  0.00     0.254 C 
ATOM      5  O   UNL A   1      29.661  25.483  26.519  1.00  0.00    -0.272 OA
ATOM      6  H   UNL A   1      29.370  26.709  24.637  1.00  0.00     0.163 HD
BRANCH   4   7
ATOM      7  C   UNL A   1      31.560  24.268  25.598  1.00  0.00     0.212 C 
ATOM      8  C   UNL A   1      31.374  23.427  26.854  1.00  0.00     0.056 C 
BRANCH   7   9
ATOM      9  N   UNL A   1      31.680  23.471  24.319  1.00  0.00    -0.328 N 
ATOM     10  C   UNL A   1      32.426  22.530  23.667  1.00  0.00     0.288 C 
ATOM     11  O   UNL A   1      31.941  22.226  22.571  1.00  0.00    -0.266 OA
ATOM     12  H   UNL A   1      30.934  23.728  23.731  1.00  0.00     0.165 HD
BRANCH  10  13
ATOM     13  C   UNL A   1      33.610  21.855  24.170  1.00  0.00     0.191 A 
ATOM     14  C   UNL A   1      35.825  21.809  24.442  1.00  0.00     0.114 A 
ATOM     15  C   UNL A   1      35.343  20.652  25.005  1.00  0.00     0.047 A 
ATOM     16  O   UNL A   1      34.795  22.519  23.911  1.00  0.00    -0.455 OA
ATOM     17  C   UNL A   1      33.931  20.700  24.859  1.00  0.00     0.056 A 
BRANCH  14  18
ATOM     18  C   UNL A   1      37.178  22.404  24.324  1.00  0.00     0.144 C 
BRANCH  18  19
ATOM     19  S   UNL A   1      38.200  22.053  25.789  1.00  0.00    -0.157 SA
ATOM     20  C   UNL A   1      38.488  23.750  26.355  1.00  0.00     0.085 C 
ENDBRANCH  18  19
ENDBRANCH  14  18
ENDBRANCH  10  13
ENDBRANCH   7   9
BRANCH   7  21
ATOM     21  C   UNL A   1      32.906  25.040  25.770  1.00  0.00     0.420 C 
ATOM     22  F   UNL A   1      32.819  26.174  26.492  1.00  0.00    -0.168 F 
ATOM     23  F   UNL A   1      33.808  24.247  26.412  1.00  0.00    -0.168 F 
ATOM     24  F   UNL A   1      33.456  25.333  24.566  1.00  0.00    -0.168 F 
ENDBRANCH   7  21
ENDBRANCH   4   7
ENDBRANCH   2   3
ENDBRANCH   1   2
BRANCH   1  25
ATOM     25  C   UNL A   1      31.494  28.754  22.765  1.00  0.00     0.002 C 
BRANCH  25  26
ATOM     26  C   UNL A   1      32.917  28.264  23.057  1.00  0.00     0.002 C 
BRANCH  26  27
ATOM     27  C   UNL A   1      33.725  29.113  24.046  1.00  0.00     0.021 C 
BRANCH  27  28
ATOM     28  C   UNL A   1      33.193  29.131  25.477  1.00  0.00     0.116 C 
BRANCH  28  29
ATOM     29  N   UNL A   1      32.778  30.458  25.893  1.00  0.00    -0.352 N 
ATOM     30  C   UNL A   1      33.256  31.274  26.886  1.00  0.00     0.251 C 
ATOM     31  H   UNL A   1      32.029  30.836  25.377  1.00  0.00     0.163 HD
ATOM     32  O   UNL A   1      32.631  32.287  27.185  1.00  0.00    -0.269 OA
BRANCH  30  33
ATOM     33  C   UNL A   1      34.508  30.953  27.609  1.00  0.00     0.039 A 
ATOM     34  C   UNL A   1      34.652  29.667  28.141  1.00  0.00     0.014 A 
ATOM     35  C   UNL A   1      35.500  31.911  27.836  1.00  0.00     0.014 A 
ATOM     36  C   UNL A   1      35.796  29.335  28.868  1.00  0.00     0.010 A 
ATOM     37  C   UNL A   1      36.673  31.560  28.506  1.00  0.00     0.010 A 
ATOM     38  C   UNL A   1      36.826  30.274  29.042  1.00  0.00    -0.014 A 
BRANCH  38  39
ATOM     39  C   UNL A   1      38.054  29.908  29.795  1.00  0.00     0.031 A 
ATOM     40  C   UNL A   1      38.280  30.422  31.191  1.00  0.00     0.074 A 
ATOM     41  C   UNL A   1      38.979  29.124  29.210  1.00  0.00     0.049 A 
ATOM     42  N   UNL A   1      39.274  30.185  32.009  1.00  0.00    -0.248 NA
ATOM     43  C   UNL A   1      37.266  31.341  31.730  1.00  0.00     0.031 C 
ATOM     44  C   UNL A   1      38.904  28.608  27.843  1.00  0.00     0.029 A 
ATOM     45  N   UNL A   1      40.160  28.619  29.693  1.00  0.00    -0.354 N 
ATOM     46  C   UNL A   1      39.011  30.928  33.152  1.00  0.00     0.074 A 
ATOM     47  C   UNL A   1      37.792  31.667  32.903  1.00  0.00     0.031 C 
ATOM     48  C   UNL A   1      39.976  27.834  27.607  1.00  0.00     0.029 A 
ATOM     49  C   UNL A   1      40.822  27.817  28.795  1.00  0.00     0.049 A 
ATOM     50  H   UNL A   1      40.502  28.813  30.595  1.00  0.00     0.167 HD
ATOM     51  C   UNL A   1      39.708  30.973  34.314  1.00  0.00     0.037 A 
ATOM     52  C   UNL A   1      41.976  27.135  28.922  1.00  0.00     0.037 A 
ATOM     53  C   UNL A   1      40.909  30.219  34.569  1.00  0.00     0.049 A 
ATOM     54  C   UNL A   1      42.714  27.176  30.232  1.00  0.00     0.074 A 
ATOM     55  C   UNL A   1      41.661  30.156  35.730  1.00  0.00     0.029 A 
ATOM     56  N   UNL A   1      41.534  29.395  33.645  1.00  0.00    -0.354 N 
ATOM     57  N   UNL A   1      42.415  27.823  31.331  1.00  0.00    -0.248 NA
ATOM     58  C   UNL A   1      43.943  26.374  30.323  1.00  0.00     0.031 C 
ATOM     59  C   UNL A   1      42.761  29.324  35.496  1.00  0.00     0.029 A 
ATOM     60  C   UNL A   1      42.668  28.828  34.206  1.00  0.00     0.049 A 
ATOM     61  H   UNL A   1      41.218  29.234  32.727  1.00  0.00     0.167 HD
ATOM     62  C   UNL A   1      43.396  27.486  32.252  1.00  0.00     0.074 A 
ATOM     63  C   UNL A   1      44.291  26.561  31.587  1.00  0.00     0.031 C 
ATOM     64  C   UNL A   1      43.545  27.903  33.534  1.00  0.00     0.037 A 
BRANCH  51  65
ATOM     65  C   UNL A   1      39.184  31.863  35.404  1.00  0.00     0.064 A 
ATOM     66  C   UNL A   1      38.359  31.365  36.425  1.00  0.00     0.173 A 
ATOM     67  C   UNL A   1      39.538  33.220  35.451  1.00  0.00     0.173 A 
ATOM     68  F   UNL A   1      37.982  30.078  36.421  1.00  0.00    -0.203 F 
ATOM     69  C   UNL A   1      37.885  32.199  37.435  1.00  0.00     0.198 A 
ATOM     70  C   UNL A   1      39.087  34.043  36.478  1.00  0.00     0.198 A 
ATOM     71  F   UNL A   1      40.329  33.745  34.504  1.00  0.00    -0.203 F 
ATOM     72  F   UNL A   1      37.060  31.712  38.372  1.00  0.00    -0.200 F 
ATOM     73  C   UNL A   1      38.255  33.535  37.465  1.00  0.00     0.200 A 
ATOM     74  F   UNL A   1      39.454  35.332  36.514  1.00  0.00    -0.200 F 
ATOM     75  F   UNL A   1      37.803  34.335  38.441  1.00  0.00    -0.200 F 
ENDBRANCH  51  65
BRANCH  52  76
ATOM     76  C   UNL A   1      42.477  26.312  27.791  1.00  0.00     0.064 A 
ATOM     77  C   UNL A   1      41.994  25.013  27.579  1.00  0.00     0.173 A 
ATOM     78  C   UNL A   1      43.442  26.804  26.903  1.00  0.00     0.173 A 
ATOM     79  F   UNL A   1      41.083  24.492  28.414  1.00  0.00    -0.203 F 
ATOM     80  C   UNL A   1      42.476  24.228  26.534  1.00  0.00     0.198 A 
ATOM     81  C   UNL A   1      43.903  26.028  25.840  1.00  0.00     0.198 A 
ATOM     82  F   UNL A   1      43.929  28.043  27.058  1.00  0.00    -0.203 F 
ATOM     83  F   UNL A   1      42.030  22.974  26.380  1.00  0.00    -0.200 F 
ATOM     84  C   UNL A   1      43.426  24.738  25.662  1.00  0.00     0.200 A 
ATOM     85  F   UNL A   1      44.811  26.530  24.992  1.00  0.00    -0.200 F 
ATOM     86  F   UNL A   1      43.886  23.985  24.654  1.00  0.00    -0.200 F 
ENDBRANCH  52  76
BRANCH  64  87
ATOM     87  C   UNL A   1      44.694  27.331  34.310  1.00  0.00     0.064 A 
ATOM     88  C   UNL A   1      44.553  26.179  35.098  1.00  0.00     0.173 A 
ATOM     89  C   UNL A   1      45.959  27.936  34.253  1.00  0.00     0.173 A 
ATOM     90  F   UNL A   1      43.361  25.571  35.198  1.00  0.00    -0.203 F 
ATOM     91  C   UNL A   1      45.626  25.676  35.829  1.00  0.00     0.198 A 
ATOM     92  C   UNL A   1      47.037  27.413  34.961  1.00  0.00     0.198 A 
ATOM     93  F   UNL A   1      46.149  29.036  33.507  1.00  0.00    -0.203 F 
ATOM     94  F   UNL A   1      45.453  24.609  36.621  1.00  0.00    -0.200 F 
ATOM     95  C   UNL A   1      46.868  26.290  35.756  1.00  0.00     0.200 A 
ATOM     96  F   UNL A   1      48.239  28.001  34.879  1.00  0.00    -0.200 F 
ATOM     97  F   UNL A   1      47.899  25.805  36.462  1.00  0.00    -0.200 F 
ENDBRANCH  64  87
ENDBRANCH  38  39
ENDBRANCH  30  33
ENDBRANCH  28  29
ENDBRANCH  27  28
ENDBRANCH  26  27
ENDBRANCH  25  26
ENDBRANCH   1  25
TORSDOF 18
ENDMDL
MODEL 2
REMARK VINA RESULT:     -10.9      2.446      4.228
REMARK SMILES CSCc1ccc(C(=O)N[C@](C)(C(=O)NCCCCCCNC(=O)c2ccc(-c3c4nc(c(-c5c(F)c(F)c(F)c(F)c5F)c5ccc([nH]5)c(-c5c(F)c(F)c(F)c(F)c5F)c5nc(c(-c6c(F)c(F)c(F)c(F)c6F)c6ccc3[nH]6)C=C5)C=C4)cc2)C(F)(F)F)o1
REMARK SMILES IDX 17 1 16 2 15 3 13 4 14 5 11 7 12 8 10 9 8 10 9 11 7 13 4 14
REMARK SMILES IDX 5 15 92 16 6 17 3 18 2 19 1 20 88 21 89 22 90 23 91 24 18 25
REMARK SMILES IDX 19 26 20 27 21 28 22 29 23 30 24 32 25 33 26 34 87 35 27 36
REMARK SMILES IDX 86 37 28 38 29 39 30 40 80 41 31 42 85 43 79 44 81 45 32 46
REMARK SMILES IDX 84 47 78 48 77 49 33 51 65 52 45 53 64 54 46 55 49 56 63 57
REMARK SMILES IDX 82 58 47 59 48 60 62 62 83 63 50 64 34 65 35 66 43 67 36 68
REMARK SMILES IDX 37 69 41 70 44 71 38 72 39 73 42 74 40 75 66 76 67 77 75 78
REMARK SMILES IDX 68 79 69 80 73 81 76 82 70 83 71 84 74 85 72 86 51 87 52 88
REMARK SMILES IDX 60 89 53 90 54 91 58 92 61 93 55 94 56 95 59 96 57 97
REMARK H PARENT 15 6 10 12 22 31 81 50 49 61
REMARK Flexibility Score: inf
ROOT
ATOM      1  C   UNL A   1      33.438  28.625  27.252  1.00  0.00     0.021 C 
ENDROOT
BRANCH   1   2
ATOM      2  C   UNL A   1      32.791  27.801  26.143  1.00  0.00     0.116 C 
BRANCH   2   3
ATOM      3  N   UNL A   1      32.010  26.697  26.648  1.00  0.00    -0.354 N 
ATOM      4  C   UNL A   1      31.845  25.412  26.225  1.00  0.00     0.254 C 
ATOM      5  O   UNL A   1      31.054  24.761  26.915  1.00  0.00    -0.272 OA
ATOM      6  H   UNL A   1      31.494  26.916  27.457  1.00  0.00     0.163 HD
BRANCH   4   7
ATOM      7  C   UNL A   1      32.385  24.856  24.879  1.00  0.00     0.212 C 
ATOM      8  C   UNL A   1      31.702  23.522  24.609  1.00  0.00     0.056 C 
BRANCH   7   9
ATOM      9  N   UNL A   1      32.350  25.826  23.719  1.00  0.00    -0.328 N 
ATOM     10  C   UNL A   1      31.549  26.675  23.011  1.00  0.00     0.288 C 
ATOM     11  O   UNL A   1      32.171  27.277  22.127  1.00  0.00    -0.266 OA
ATOM     12  H   UNL A   1      33.251  25.857  23.324  1.00  0.00     0.165 HD
BRANCH  10  13
ATOM     13  C   UNL A   1      30.145  26.959  23.258  1.00  0.00     0.191 A 
ATOM     14  C   UNL A   1      28.390  28.317  23.024  1.00  0.00     0.114 A 
ATOM     15  C   UNL A   1      27.950  27.240  23.755  1.00  0.00     0.047 A 
ATOM     16  O   UNL A   1      29.712  28.170  22.750  1.00  0.00    -0.455 OA
ATOM     17  C   UNL A   1      29.061  26.364  23.876  1.00  0.00     0.056 A 
BRANCH  14  18
ATOM     18  C   UNL A   1      27.728  29.532  22.491  1.00  0.00     0.144 C 
BRANCH  18  19
ATOM     19  S   UNL A   1      28.898  30.601  21.595  1.00  0.00    -0.157 SA
ATOM     20  C   UNL A   1      28.819  32.068  22.655  1.00  0.00     0.085 C 
ENDBRANCH  18  19
ENDBRANCH  14  18
ENDBRANCH  10  13
ENDBRANCH   7   9
BRANCH   7  21
ATOM     21  C   UNL A   1      33.889  24.544  25.154  1.00  0.00     0.420 C 
ATOM     22  F   UNL A   1      34.189  24.298  26.444  1.00  0.00    -0.168 F 
ATOM     23  F   UNL A   1      34.259  23.433  24.459  1.00  0.00    -0.168 F 
ATOM     24  F   UNL A   1      34.684  25.546  24.706  1.00  0.00    -0.168 F 
ENDBRANCH   7  21
ENDBRANCH   4   7
ENDBRANCH   2   3
ENDBRANCH   1   2
BRANCH   1  25
ATOM     25  C   UNL A   1      33.214  30.135  27.131  1.00  0.00     0.002 C 
BRANCH  25  26
ATOM     26  C   UNL A   1      31.775  30.562  26.813  1.00  0.00     0.002 C 
BRANCH  26  27
ATOM     27  C   UNL A   1      31.498  32.069  26.875  1.00  0.00     0.021 C 
BRANCH  27  28
ATOM     28  C   UNL A   1      32.737  32.961  26.871  1.00  0.00     0.116 C 
BRANCH  28  29
ATOM     29  N   UNL A   1      32.516  34.211  27.575  1.00  0.00    -0.352 N 
ATOM     30  C   UNL A   1      33.078  34.700  28.725  1.00  0.00     0.251 C 
ATOM     31  H   UNL A   1      31.852  34.807  27.158  1.00  0.00     0.163 HD
ATOM     32  O   UNL A   1      32.605  35.707  29.245  1.00  0.00    -0.269 OA
BRANCH  30  33
ATOM     33  C   UNL A   1      34.240  34.034  29.357  1.00  0.00     0.039 A 
ATOM     34  C   UNL A   1      35.522  34.454  28.987  1.00  0.00     0.014 A 
ATOM     35  C   UNL A   1      34.090  32.962  30.240  1.00  0.00     0.014 A 
ATOM     36  C   UNL A   1      36.646  33.824  29.524  1.00  0.00     0.010 A 
ATOM     37  C   UNL A   1      35.214  32.375  30.827  1.00  0.00     0.010 A 
ATOM     38  C   UNL A   1      36.503  32.790  30.463  1.00  0.00    -0.014 A 
BRANCH  38  39
ATOM     39  C   UNL A   1      37.702  32.139  31.052  1.00  0.00     0.031 A 
ATOM     40  C   UNL A   1      38.176  32.509  32.430  1.00  0.00     0.074 A 
ATOM     41  C   UNL A   1      38.377  31.224  30.331  1.00  0.00     0.049 A 
ATOM     42  N   UNL A   1      39.182  32.027  33.116  1.00  0.00    -0.248 NA
ATOM     43  C   UNL A   1      37.438  33.577  33.121  1.00  0.00     0.031 C 
ATOM     44  C   UNL A   1      38.052  30.820  28.964  1.00  0.00     0.029 A 
ATOM     45  N   UNL A   1      39.474  30.463  30.652  1.00  0.00    -0.354 N 
ATOM     46  C   UNL A   1      39.201  32.735  34.311  1.00  0.00     0.074 A 
ATOM     47  C   UNL A   1      38.142  33.717  34.236  1.00  0.00     0.031 C 
ATOM     48  C   UNL A   1      38.909  29.863  28.573  1.00  0.00     0.029 A 
ATOM     49  C   UNL A   1      39.857  29.603  29.652  1.00  0.00     0.049 A 
ATOM     50  H   UNL A   1      39.942  30.528  31.515  1.00  0.00     0.167 HD
ATOM     51  C   UNL A   1      40.013  32.566  35.383  1.00  0.00     0.037 A 
ATOM     52  C   UNL A   1      40.851  28.697  29.615  1.00  0.00     0.037 A 
ATOM     53  C   UNL A   1      41.053  31.573  35.466  1.00  0.00     0.049 A 
ATOM     54  C   UNL A   1      41.718  28.507  30.830  1.00  0.00     0.074 A 
ATOM     55  C   UNL A   1      41.895  31.288  36.527  1.00  0.00     0.029 A 
ATOM     56  N   UNL A   1      41.392  30.699  34.443  1.00  0.00    -0.354 N 
ATOM     57  N   UNL A   1      41.678  29.131  31.982  1.00  0.00    -0.248 NA
ATOM     58  C   UNL A   1      42.757  27.472  30.744  1.00  0.00     0.031 C 
ATOM     59  C   UNL A   1      42.768  30.268  36.133  1.00  0.00     0.029 A 
ATOM     60  C   UNL A   1      42.438  29.883  34.844  1.00  0.00     0.049 A 
ATOM     61  H   UNL A   1      40.953  30.663  33.563  1.00  0.00     0.167 HD
ATOM     62  C   UNL A   1      42.661  28.547  32.767  1.00  0.00     0.074 A 
ATOM     63  C   UNL A   1      43.270  27.505  31.965  1.00  0.00     0.031 C 
ATOM     64  C   UNL A   1      43.028  28.845  34.038  1.00  0.00     0.037 A 
BRANCH  51  65
ATOM     65  C   UNL A   1      39.803  33.473  36.562  1.00  0.00     0.064 A 
ATOM     66  C   UNL A   1      40.466  34.706  36.667  1.00  0.00     0.173 A 
ATOM     67  C   UNL A   1      38.903  33.125  37.581  1.00  0.00     0.173 A 
ATOM     68  F   UNL A   1      41.346  35.082  35.726  1.00  0.00    -0.203 F 
ATOM     69  C   UNL A   1      40.258  35.542  37.762  1.00  0.00     0.198 A 
ATOM     70  C   UNL A   1      38.676  33.976  38.658  1.00  0.00     0.198 A 
ATOM     71  F   UNL A   1      38.239  31.961  37.527  1.00  0.00    -0.203 F 
ATOM     72  F   UNL A   1      40.939  36.691  37.864  1.00  0.00    -0.200 F 
ATOM     73  C   UNL A   1      39.358  35.180  38.752  1.00  0.00     0.200 A 
ATOM     74  F   UNL A   1      37.796  33.631  39.609  1.00  0.00    -0.200 F 
ATOM     75  F   UNL A   1      39.153  35.988  39.801  1.00  0.00    -0.200 F 
ENDBRANCH  51  65
BRANCH  52  76
ATOM     76  C   UNL A   1      41.048  27.863  28.402  1.00  0.00     0.064 A 
ATOM     77  C   UNL A   1      41.906  28.279  27.375  1.00  0.00     0.173 A 
ATOM     78  C   UNL A   1      40.387  26.637  28.245  1.00  0.00     0.173 A 
ATOM     79  F   UNL A   1      42.546  29.453  27.472  1.00  0.00    -0.203 F 
ATOM     80  C   UNL A   1      42.078  27.511  26.225  1.00  0.00     0.198 A 
ATOM     81  C   UNL A   1      40.581  25.856  27.107  1.00  0.00     0.198 A 
ATOM     82  F   UNL A   1      39.562  26.191  29.203  1.00  0.00    -0.203 F 
ATOM     83  F   UNL A   1      42.869  27.954  25.238  1.00  0.00    -0.200 F 
ATOM     84  C   UNL A   1      41.420  26.298  26.094  1.00  0.00     0.200 A 
ATOM     85  F   UNL A   1      39.954  24.677  26.991  1.00  0.00    -0.200 F 
ATOM     86  F   UNL A   1      41.588  25.557  24.990  1.00  0.00    -0.200 F 
ENDBRANCH  52  76
BRANCH  64  87
ATOM     87  C   UNL A   1      44.112  28.007  34.650  1.00  0.00     0.064 A 
ATOM     88  C   UNL A   1      43.828  26.808  35.321  1.00  0.00     0.173 A 
ATOM     89  C   UNL A   1      45.455  28.402  34.552  1.00  0.00     0.173 A 
ATOM     90  F   UNL A   1      42.559  26.393  35.455  1.00  0.00    -0.203 F 
ATOM     91  C   UNL A   1      44.845  26.055  35.902  1.00  0.00     0.198 A 
ATOM     92  C   UNL A   1      46.471  27.632  35.109  1.00  0.00     0.198 A 
ATOM     93  F   UNL A   1      45.780  29.537  33.914  1.00  0.00    -0.203 F 
ATOM     94  F   UNL A   1      44.544  24.944  36.588  1.00  0.00    -0.200 F 
ATOM     95  C   UNL A   1      46.165  26.464  35.791  1.00  0.00     0.200 A 
ATOM     96  F   UNL A   1      47.748  28.022  34.990  1.00  0.00    -0.200 F 
ATOM     97  F   UNL A   1      47.142  25.739  36.354  1.00  0.00    -0.200 F 
ENDBRANCH  64  87
ENDBRANCH  38  39
ENDBRANCH  30  33
ENDBRANCH  28  29
ENDBRANCH  27  28
ENDBRANCH  26  27
ENDBRANCH  25  26
ENDBRANCH   1  25
TORSDOF 18
ENDMDL
MODEL 3
REMARK VINA RESULT:     -10.8      2.731      5.000
REMARK SMILES CSCc1ccc(C(=O)N[C@](C)(C(=O)NCCCCCCNC(=O)c2ccc(-c3c4nc(c(-c5c(F)c(F)c(F)c(F)c5F)c5ccc([nH]5)c(-c5c(F)c(F)c(F)c(F)c5F)c5nc(c(-c6c(F)c(F)c(F)c(F)c6F)c6ccc3[nH]6)C=C5)C=C4)cc2)C(F)(F)F)o1
REMARK SMILES IDX 17 1 16 2 15 3 13 4 14 5 11 7 12 8 10 9 8 10 9 11 7 13 4 14
REMARK SMILES IDX 5 15 92 16 6 17 3 18 2 19 1 20 88 21 89 22 90 23 91 24 18 25
REMARK SMILES IDX 19 26 20 27 21 28 22 29 23 30 24 32 25 33 26 34 87 35 27 36
REMARK SMILES IDX 86 37 28 38 29 39 30 40 80 41 31 42 85 43 79 44 81 45 32 46
REMARK SMILES IDX 84 47 78 48 77 49 33 51 65 52 45 53 64 54 46 55 49 56 63 57
REMARK SMILES IDX 82 58 47 59 48 60 62 62 83 63 50 64 34 65 35 66 43 67 36 68
REMARK SMILES IDX 37 69 41 70 44 71 38 72 39 73 42 74 40 75 66 76 67 77 75 78
REMARK SMILES IDX 68 79 69 80 73 81 76 82 70 83 71 84 74 85 72 86 51 87 52 88
REMARK SMILES IDX 60 89 53 90 54 91 58 92 61 93 55 94 56 95 59 96 57 97
REMARK H PARENT 15 6 10 12 22 31 81 50 49 61
REMARK Flexibility Score: inf
ROOT
ATOM      1  C   UNL A   1      35.210  31.486  27.927  1.00  0.00     0.021 C 
ENDROOT
BRANCH   1   2
ATOM      2  C   UNL A   1      34.218  30.519  27.286  1.00  0.00     0.116 C 
BRANCH   2   3
ATOM      3  N   UNL A   1      32.963  31.146  26.947  1.00  0.00    -0.354 N 
ATOM      4  C   UNL A   1      31.925  30.765  26.152  1.00  0.00     0.254 C 
ATOM      5  O   UNL A   1      31.017  31.601  26.085  1.00  0.00    -0.272 OA
ATOM      6  H   UNL A   1      32.831  32.023  27.375  1.00  0.00     0.163 HD
BRANCH   4   7
ATOM      7  C   UNL A   1      31.948  29.527  25.213  1.00  0.00     0.212 C 
ATOM      8  C   UNL A   1      30.650  29.511  24.417  1.00  0.00     0.056 C 
BRANCH   7   9
ATOM      9  N   UNL A   1      33.199  29.374  24.378  1.00  0.00    -0.328 N 
ATOM     10  C   UNL A   1      33.877  28.530  23.545  1.00  0.00     0.288 C 
ATOM     11  O   UNL A   1      34.913  29.042  23.102  1.00  0.00    -0.266 OA
ATOM     12  H   UNL A   1      33.727  30.199  24.470  1.00  0.00     0.165 HD
BRANCH  10  13
ATOM     13  C   UNL A   1      33.457  27.208  23.114  1.00  0.00     0.191 A 
ATOM     14  C   UNL A   1      33.416  25.001  23.446  1.00  0.00     0.114 A 
ATOM     15  C   UNL A   1      32.729  25.228  22.279  1.00  0.00     0.047 A 
ATOM     16  O   UNL A   1      33.882  26.180  23.935  1.00  0.00    -0.455 OA
ATOM     17  C   UNL A   1      32.730  26.636  22.086  1.00  0.00     0.056 A 
BRANCH  14  18
ATOM     18  C   UNL A   1      33.714  23.784  24.239  1.00  0.00     0.144 C 
BRANCH  18  19
ATOM     19  S   UNL A   1      35.407  23.810  24.907  1.00  0.00    -0.157 SA
ATOM     20  C   UNL A   1      36.291  23.129  23.479  1.00  0.00     0.085 C 
ENDBRANCH  18  19
ENDBRANCH  14  18
ENDBRANCH  10  13
ENDBRANCH   7   9
BRANCH   7  21
ATOM     21  C   UNL A   1      31.901  28.299  26.175  1.00  0.00     0.420 C 
ATOM     22  F   UNL A   1      31.258  28.517  27.339  1.00  0.00    -0.168 F 
ATOM     23  F   UNL A   1      31.250  27.269  25.568  1.00  0.00    -0.168 F 
ATOM     24  F   UNL A   1      33.149  27.845  26.446  1.00  0.00    -0.168 F 
ENDBRANCH   7  21
ENDBRANCH   4   7
ENDBRANCH   2   3
ENDBRANCH   1   2
BRANCH   1  25
ATOM     25  C   UNL A   1      34.613  32.368  29.026  1.00  0.00     0.002 C 
BRANCH  25  26
ATOM     26  C   UNL A   1      34.601  33.872  28.727  1.00  0.00     0.002 C 
BRANCH  26  27
ATOM     27  C   UNL A   1      33.247  34.573  28.888  1.00  0.00     0.021 C 
BRANCH  27  28
ATOM     28  C   UNL A   1      33.310  35.998  29.432  1.00  0.00     0.116 C 
BRANCH  28  29
ATOM     29  N   UNL A   1      32.517  36.162  30.637  1.00  0.00    -0.352 N 
ATOM     30  C   UNL A   1      32.673  35.628  31.889  1.00  0.00     0.251 C 
ATOM     31  H   UNL A   1      31.737  36.755  30.538  1.00  0.00     0.163 HD
ATOM     32  O   UNL A   1      31.774  35.756  32.715  1.00  0.00    -0.269 OA
BRANCH  30  33
ATOM     33  C   UNL A   1      33.904  34.894  32.264  1.00  0.00     0.039 A 
ATOM     34  C   UNL A   1      35.119  35.588  32.241  1.00  0.00     0.014 A 
ATOM     35  C   UNL A   1      33.892  33.528  32.560  1.00  0.00     0.014 A 
ATOM     36  C   UNL A   1      36.309  34.924  32.544  1.00  0.00     0.010 A 
ATOM     37  C   UNL A   1      35.073  32.880  32.926  1.00  0.00     0.010 A 
ATOM     38  C   UNL A   1      36.295  33.567  32.907  1.00  0.00    -0.014 A 
BRANCH  38  39
ATOM     39  C   UNL A   1      37.561  32.871  33.253  1.00  0.00     0.031 A 
ATOM     40  C   UNL A   1      38.269  33.166  34.547  1.00  0.00     0.074 A 
ATOM     41  C   UNL A   1      38.085  31.982  32.388  1.00  0.00     0.049 A 
ATOM     42  N   UNL A   1      39.365  32.636  35.030  1.00  0.00    -0.248 NA
ATOM     43  C   UNL A   1      37.682  34.209  35.401  1.00  0.00     0.031 C 
ATOM     44  C   UNL A   1      37.525  31.651  31.078  1.00  0.00     0.029 A 
ATOM     45  N   UNL A   1      39.202  31.191  32.483  1.00  0.00    -0.354 N 
ATOM     46  C   UNL A   1      39.601  33.285  36.236  1.00  0.00     0.074 A 
ATOM     47  C   UNL A   1      38.566  34.285  36.386  1.00  0.00     0.031 C 
ATOM     48  C   UNL A   1      38.283  30.702  30.504  1.00  0.00     0.029 A 
ATOM     49  C   UNL A   1      39.392  30.375  31.394  1.00  0.00     0.049 A 
ATOM     50  H   UNL A   1      39.810  31.207  33.256  1.00  0.00     0.167 HD
ATOM     51  C   UNL A   1      40.578  33.051  37.147  1.00  0.00     0.037 A 
ATOM     52  C   UNL A   1      40.345  29.458  31.148  1.00  0.00     0.037 A 
ATOM     53  C   UNL A   1      41.594  32.040  37.007  1.00  0.00     0.049 A 
ATOM     54  C   UNL A   1      41.399  29.196  32.190  1.00  0.00     0.074 A 
ATOM     55  C   UNL A   1      42.596  31.691  37.895  1.00  0.00     0.029 A 
ATOM     56  N   UNL A   1      41.736  31.213  35.902  1.00  0.00    -0.354 N 
ATOM     57  N   UNL A   1      41.568  29.763  33.358  1.00  0.00    -0.248 NA
ATOM     58  C   UNL A   1      42.386  28.151  31.881  1.00  0.00     0.031 C 
ATOM     59  C   UNL A   1      43.367  30.680  37.313  1.00  0.00     0.029 A 
ATOM     60  C   UNL A   1      42.816  30.363  36.082  1.00  0.00     0.049 A 
ATOM     61  H   UNL A   1      41.155  31.226  35.108  1.00  0.00     0.167 HD
ATOM     62  C   UNL A   1      42.656  29.127  33.938  1.00  0.00     0.074 A 
ATOM     63  C   UNL A   1      43.097  28.117  32.998  1.00  0.00     0.031 C 
ATOM     64  C   UNL A   1      43.238  29.357  35.141  1.00  0.00     0.037 A 
BRANCH  51  65
ATOM     65  C   UNL A   1      40.590  33.902  38.384  1.00  0.00     0.064 A 
ATOM     66  C   UNL A   1      41.364  35.071  38.464  1.00  0.00     0.173 A 
ATOM     67  C   UNL A   1      39.793  33.568  39.489  1.00  0.00     0.173 A 
ATOM     68  F   UNL A   1      42.152  35.430  37.440  1.00  0.00    -0.203 F 
ATOM     69  C   UNL A   1      41.361  35.856  39.614  1.00  0.00     0.198 A 
ATOM     70  C   UNL A   1      39.770  34.371  40.626  1.00  0.00     0.198 A 
ATOM     71  F   UNL A   1      39.030  32.465  39.464  1.00  0.00    -0.203 F 
ATOM     72  F   UNL A   1      42.145  36.941  39.685  1.00  0.00    -0.200 F 
ATOM     73  C   UNL A   1      40.559  35.510  40.691  1.00  0.00     0.200 A 
ATOM     74  F   UNL A   1      38.985  34.043  41.662  1.00  0.00    -0.200 F 
ATOM     75  F   UNL A   1      40.552  36.270  41.795  1.00  0.00    -0.200 F 
ENDBRANCH  51  65
BRANCH  52  76
ATOM     76  C   UNL A   1      40.316  28.681  29.883  1.00  0.00     0.064 A 
ATOM     77  C   UNL A   1      40.999  29.134  28.745  1.00  0.00     0.173 A 
ATOM     78  C   UNL A   1      39.609  27.475  29.783  1.00  0.00     0.173 A 
ATOM     79  F   UNL A   1      41.674  30.292  28.787  1.00  0.00    -0.203 F 
ATOM     80  C   UNL A   1      40.958  28.421  27.550  1.00  0.00     0.198 A 
ATOM     81  C   UNL A   1      39.592  26.748  28.595  1.00  0.00     0.198 A 
ATOM     82  F   UNL A   1      38.946  26.995  30.846  1.00  0.00    -0.203 F 
ATOM     83  F   UNL A   1      41.583  28.899  26.465  1.00  0.00    -0.200 F 
ATOM     84  C   UNL A   1      40.259  27.226  27.476  1.00  0.00     0.200 A 
ATOM     85  F   UNL A   1      38.926  25.586  28.532  1.00  0.00    -0.200 F 
ATOM     86  F   UNL A   1      40.222  26.538  26.327  1.00  0.00    -0.200 F 
ENDBRANCH  52  76
BRANCH  64  87
ATOM     87  C   UNL A   1      44.390  28.474  35.523  1.00  0.00     0.064 A 
ATOM     88  C   UNL A   1      45.714  28.808  35.203  1.00  0.00     0.173 A 
ATOM     89  C   UNL A   1      44.165  27.283  36.232  1.00  0.00     0.173 A 
ATOM     90  F   UNL A   1      45.981  29.928  34.514  1.00  0.00    -0.203 F 
ATOM     91  C   UNL A   1      46.767  27.964  35.546  1.00  0.00     0.198 A 
ATOM     92  C   UNL A   1      45.223  26.457  36.599  1.00  0.00     0.198 A 
ATOM     93  F   UNL A   1      42.918  26.922  36.569  1.00  0.00    -0.203 F 
ATOM     94  F   UNL A   1      48.018  28.274  35.178  1.00  0.00    -0.200 F 
ATOM     95  C   UNL A   1      46.522  26.793  36.247  1.00  0.00     0.200 A 
ATOM     96  F   UNL A   1      44.986  25.332  37.288  1.00  0.00    -0.200 F 
ATOM     97  F   UNL A   1      47.537  25.981  36.574  1.00  0.00    -0.200 F 
ENDBRANCH  64  87
ENDBRANCH  38  39
ENDBRANCH  30  33
ENDBRANCH  28  29
ENDBRANCH  27  28
ENDBRANCH  26  27
ENDBRANCH  25  26
ENDBRANCH   1  25
TORSDOF 18
ENDMDL
