MODEL 1
REMARK VINA RESULT:     -13.4      0.000      0.000
REMARK SMILES O=C(NCCCCCCNC(=O)[C@@H]1CCCN1S(=O)(=O)c1ccc2[nH]c(=O)c(=O)[nH]c2c1)c1ccc(-c2c3nc(c(-c4c(F)c(F)c(F)c(F)c4F)c4ccc([nH]4)c(-c4c(F)c(F)c(F)c(F)c4F)c4nc(c(-c5c(F)c(F)c(F)c(F)c5F)c5ccc2[nH]5)C=C4)C=C3)cc1
REMARK SMILES IDX 6 1 5 2 4 3 3 4 1 5 2 6 33 8 34 9 95 10 35 11 94 12 36 13
REMARK SMILES IDX 37 14 38 15 88 16 39 17 93 18 87 19 89 20 40 21 92 22 86 23
REMARK SMILES IDX 85 24 41 26 73 27 53 28 72 29 54 30 57 31 71 32 90 33 55 34
REMARK SMILES IDX 56 35 70 37 91 38 58 39 42 40 43 41 51 42 44 43 45 44 49 45
REMARK SMILES IDX 52 46 46 47 47 48 50 49 48 50 74 51 75 52 83 53 76 54 77 55
REMARK SMILES IDX 81 56 84 57 78 58 79 59 82 60 80 61 59 62 60 63 68 64 61 65
REMARK SMILES IDX 62 66 66 67 69 68 63 69 64 70 67 71 65 72 7 73 8 74 9 75
REMARK SMILES IDX 10 76 11 77 12 79 13 80 14 81 17 82 15 83 16 84 18 85 19 86
REMARK SMILES IDX 20 87 21 88 22 89 32 90 23 91 31 92 24 93 30 94 25 95 28 96
REMARK SMILES IDX 26 98 29 100 27 101
REMARK H PARENT 3 7 89 25 57 36 10 78 30 97 25 99
REMARK Flexibility Score: inf
ROOT
ATOM      1  C   UNL A   1      31.429  30.774  26.247  1.00  0.00     0.002 C 
ENDROOT
BRANCH   1   2
ATOM      2  C   UNL A   1      31.376  32.277  26.501  1.00  0.00     0.021 C 
BRANCH   2   3
ATOM      3  C   UNL A   1      32.626  32.853  27.155  1.00  0.00     0.116 C 
BRANCH   3   4
ATOM      4  N   UNL A   1      32.420  34.203  27.650  1.00  0.00    -0.352 N 
ATOM      5  O   UNL A   1      32.643  35.922  29.100  1.00  0.00    -0.269 OA
ATOM      6  C   UNL A   1      33.053  34.842  28.690  1.00  0.00     0.251 C 
ATOM      7  H   UNL A   1      31.737  34.730  27.178  1.00  0.00     0.163 HD
BRANCH   6   8
ATOM      8  C   UNL A   1      34.225  34.206  29.330  1.00  0.00     0.039 A 
ATOM      9  C   UNL A   1      35.519  34.544  28.928  1.00  0.00     0.014 A 
ATOM     10  C   UNL A   1      34.028  33.261  30.341  1.00  0.00     0.014 A 
ATOM     11  C   UNL A   1      36.603  33.835  29.430  1.00  0.00     0.010 A 
ATOM     12  C   UNL A   1      35.129  32.619  30.918  1.00  0.00     0.010 A 
ATOM     13  C   UNL A   1      36.424  32.884  30.450  1.00  0.00    -0.014 A 
BRANCH  13  14
ATOM     14  C   UNL A   1      37.629  32.263  31.058  1.00  0.00     0.031 A 
ATOM     15  C   UNL A   1      38.075  32.601  32.451  1.00  0.00     0.074 A 
ATOM     16  C   UNL A   1      38.288  31.333  30.340  1.00  0.00     0.049 A 
ATOM     17  N   UNL A   1      39.062  32.088  33.145  1.00  0.00    -0.248 NA
ATOM     18  C   UNL A   1      37.330  33.651  33.160  1.00  0.00     0.031 C 
ATOM     19  C   UNL A   1      37.962  30.950  28.963  1.00  0.00     0.029 A 
ATOM     20  N   UNL A   1      39.341  30.519  30.670  1.00  0.00    -0.354 N 
ATOM     21  C   UNL A   1      39.063  32.756  34.361  1.00  0.00     0.074 A 
ATOM     22  C   UNL A   1      37.996  33.733  34.305  1.00  0.00     0.031 C 
ATOM     23  C   UNL A   1      38.751  29.934  28.590  1.00  0.00     0.029 A 
ATOM     24  C   UNL A   1      39.678  29.635  29.675  1.00  0.00     0.049 A 
ATOM     25  H   UNL A   1      39.809  30.563  31.534  1.00  0.00     0.167 HD
ATOM     26  C   UNL A   1      39.878  32.563  35.427  1.00  0.00     0.037 A 
ATOM     27  C   UNL A   1      40.633  28.688  29.634  1.00  0.00     0.037 A 
ATOM     28  C   UNL A   1      40.936  31.585  35.478  1.00  0.00     0.049 A 
ATOM     29  C   UNL A   1      41.507  28.489  30.837  1.00  0.00     0.074 A 
ATOM     30  C   UNL A   1      41.811  31.309  36.515  1.00  0.00     0.029 A 
ATOM     31  N   UNL A   1      41.259  30.716  34.445  1.00  0.00    -0.354 N 
ATOM     32  N   UNL A   1      41.483  29.116  31.988  1.00  0.00    -0.248 NA
ATOM     33  C   UNL A   1      42.541  27.453  30.736  1.00  0.00     0.031 C 
ATOM     34  C   UNL A   1      42.684  30.298  36.098  1.00  0.00     0.029 A 
ATOM     35  C   UNL A   1      42.327  29.913  34.816  1.00  0.00     0.049 A 
ATOM     36  H   UNL A   1      40.798  30.677  33.575  1.00  0.00     0.167 HD
ATOM     37  C   UNL A   1      42.497  28.555  32.746  1.00  0.00     0.074 A 
ATOM     38  C   UNL A   1      43.091  27.507  31.941  1.00  0.00     0.031 C 
ATOM     39  C   UNL A   1      42.912  28.887  33.993  1.00  0.00     0.037 A 
BRANCH  26  40
ATOM     40  C   UNL A   1      39.666  33.429  36.636  1.00  0.00     0.064 A 
ATOM     41  C   UNL A   1      40.288  34.680  36.758  1.00  0.00     0.173 A 
ATOM     42  C   UNL A   1      38.782  33.035  37.651  1.00  0.00     0.173 A 
ATOM     43  F   UNL A   1      41.152  35.099  35.820  1.00  0.00    -0.203 F 
ATOM     44  C   UNL A   1      40.042  35.499  37.856  1.00  0.00     0.198 A 
ATOM     45  C   UNL A   1      38.520  33.866  38.737  1.00  0.00     0.198 A 
ATOM     46  F   UNL A   1      38.156  31.850  37.581  1.00  0.00    -0.203 F 
ATOM     47  F   UNL A   1      40.670  36.679  37.966  1.00  0.00    -0.200 F 
ATOM     48  C   UNL A   1      39.152  35.096  38.841  1.00  0.00     0.200 A 
ATOM     49  F   UNL A   1      37.651  33.480  39.682  1.00  0.00    -0.200 F 
ATOM     50  F   UNL A   1      38.906  35.891  39.892  1.00  0.00    -0.200 F 
ENDBRANCH  26  40
BRANCH  27  51
ATOM     51  C   UNL A   1      40.807  27.869  28.408  1.00  0.00     0.064 A 
ATOM     52  C   UNL A   1      41.625  28.301  27.357  1.00  0.00     0.173 A 
ATOM     53  C   UNL A   1      40.168  26.627  28.272  1.00  0.00     0.173 A 
ATOM     54  F   UNL A   1      42.243  29.489  27.434  1.00  0.00    -0.203 F 
ATOM     55  C   UNL A   1      41.787  27.530  26.208  1.00  0.00     0.198 A 
ATOM     56  C   UNL A   1      40.355  25.842  27.137  1.00  0.00     0.198 A 
ATOM     57  F   UNL A   1      39.380  26.166  29.254  1.00  0.00    -0.203 F 
ATOM     58  F   UNL A   1      42.542  27.985  25.199  1.00  0.00    -0.200 F 
ATOM     59  C   UNL A   1      41.157  26.298  26.103  1.00  0.00     0.200 A 
ATOM     60  F   UNL A   1      39.761  24.644  27.048  1.00  0.00    -0.200 F 
ATOM     61  F   UNL A   1      41.321  25.552  25.001  1.00  0.00    -0.200 F 
ENDBRANCH  27  51
BRANCH  39  62
ATOM     62  C   UNL A   1      44.062  28.103  34.549  1.00  0.00     0.064 A 
ATOM     63  C   UNL A   1      45.387  28.536  34.383  1.00  0.00     0.173 A 
ATOM     64  C   UNL A   1      43.841  26.908  35.250  1.00  0.00     0.173 A 
ATOM     65  F   UNL A   1      45.648  29.663  33.704  1.00  0.00    -0.203 F 
ATOM     66  C   UNL A   1      46.451  27.783  34.871  1.00  0.00     0.198 A 
ATOM     67  C   UNL A   1      44.907  26.172  35.760  1.00  0.00     0.198 A 
ATOM     68  F   UNL A   1      42.593  26.455  35.437  1.00  0.00    -0.203 F 
ATOM     69  F   UNL A   1      47.710  28.186  34.652  1.00  0.00    -0.200 F 
ATOM     70  C   UNL A   1      46.209  26.605  35.562  1.00  0.00     0.200 A 
ATOM     71  F   UNL A   1      44.673  25.037  36.433  1.00  0.00    -0.200 F 
ATOM     72  F   UNL A   1      47.236  25.878  36.025  1.00  0.00    -0.200 F 
ENDBRANCH  39  62
ENDBRANCH  13  14
ENDBRANCH   6   8
ENDBRANCH   3   4
ENDBRANCH   2   3
ENDBRANCH   1   2
BRANCH   1  73
ATOM     73  C   UNL A   1      32.288  29.978  27.230  1.00  0.00     0.002 C 
BRANCH  73  74
ATOM     74  C   UNL A   1      31.778  28.574  27.581  1.00  0.00     0.021 C 
BRANCH  74  75
ATOM     75  C   UNL A   1      31.582  27.619  26.407  1.00  0.00     0.116 C 
BRANCH  75  76
ATOM     76  N   UNL A   1      31.165  26.296  26.831  1.00  0.00    -0.355 N 
ATOM     77  C   UNL A   1      31.602  25.037  26.577  1.00  0.00     0.238 C 
ATOM     78  H   UNL A   1      30.392  26.317  27.439  1.00  0.00     0.163 HD
ATOM     79  O   UNL A   1      30.870  24.140  27.023  1.00  0.00    -0.273 OA
BRANCH  77  80
ATOM     80  C   UNL A   1      32.860  24.650  25.826  1.00  0.00     0.162 C 
ATOM     81  C   UNL A   1      34.002  25.648  25.703  1.00  0.00     0.032 C 
ATOM     82  N   UNL A   1      32.915  23.865  24.544  1.00  0.00    -0.185 NA
ATOM     83  C   UNL A   1      35.107  24.762  25.163  1.00  0.00     0.019 C 
ATOM     84  C   UNL A   1      34.385  23.880  24.148  1.00  0.00     0.103 C 
BRANCH  82  85
ATOM     85  S   UNL A   1      31.930  24.227  23.199  1.00  0.00     0.243 S 
ATOM     86  O   UNL A   1      32.702  23.929  22.005  1.00  0.00    -0.207 OA
ATOM     87  O   UNL A   1      30.682  23.535  23.417  1.00  0.00    -0.207 OA
BRANCH  85  88
ATOM     88  C   UNL A   1      31.524  25.961  23.180  1.00  0.00     0.084 A 
ATOM     89  C   UNL A   1      32.465  26.917  22.807  1.00  0.00     0.024 A 
ATOM     90  C   UNL A   1      30.189  26.355  23.348  1.00  0.00     0.050 A 
ATOM     91  C   UNL A   1      32.142  28.272  22.751  1.00  0.00     0.030 A 
ATOM     92  C   UNL A   1      29.844  27.703  23.205  1.00  0.00     0.066 A 
ATOM     93  C   UNL A   1      30.827  28.663  22.950  1.00  0.00     0.065 A 
ATOM     94  N   UNL A   1      28.504  28.093  23.272  1.00  0.00    -0.316 N 
ATOM     95  N   UNL A   1      30.490  30.013  22.861  1.00  0.00    -0.316 N 
ATOM     96  C   UNL A   1      28.089  29.400  23.123  1.00  0.00     0.314 A 
ATOM     97  H   UNL A   1      27.822  27.402  23.435  1.00  0.00     0.170 HD
ATOM     98  C   UNL A   1      29.196  30.473  22.961  1.00  0.00     0.314 A 
ATOM     99  H   UNL A   1      31.211  30.668  22.721  1.00  0.00     0.170 HD
ATOM    100  O   UNL A   1      26.903  29.703  23.113  1.00  0.00    -0.263 OA
ATOM    101  O   UNL A   1      28.934  31.667  22.912  1.00  0.00    -0.263 OA
ENDBRANCH  85  88
ENDBRANCH  82  85
ENDBRANCH  77  80
ENDBRANCH  75  76
ENDBRANCH  74  75
ENDBRANCH  73  74
ENDBRANCH   1  73
TORSDOF 15
ENDMDL
MODEL 2
REMARK VINA RESULT:     -13.1      2.033      4.130
REMARK SMILES O=C(NCCCCCCNC(=O)[C@@H]1CCCN1S(=O)(=O)c1ccc2[nH]c(=O)c(=O)[nH]c2c1)c1ccc(-c2c3nc(c(-c4c(F)c(F)c(F)c(F)c4F)c4ccc([nH]4)c(-c4c(F)c(F)c(F)c(F)c4F)c4nc(c(-c5c(F)c(F)c(F)c(F)c5F)c5ccc2[nH]5)C=C4)C=C3)cc1
REMARK SMILES IDX 6 1 5 2 4 3 3 4 1 5 2 6 33 8 34 9 95 10 35 11 94 12 36 13
REMARK SMILES IDX 37 14 38 15 88 16 39 17 93 18 87 19 89 20 40 21 92 22 86 23
REMARK SMILES IDX 85 24 41 26 73 27 53 28 72 29 54 30 57 31 71 32 90 33 55 34
REMARK SMILES IDX 56 35 70 37 91 38 58 39 42 40 43 41 51 42 44 43 45 44 49 45
REMARK SMILES IDX 52 46 46 47 47 48 50 49 48 50 74 51 75 52 83 53 76 54 77 55
REMARK SMILES IDX 81 56 84 57 78 58 79 59 82 60 80 61 59 62 60 63 68 64 61 65
REMARK SMILES IDX 62 66 66 67 69 68 63 69 64 70 67 71 65 72 7 73 8 74 9 75
REMARK SMILES IDX 10 76 11 77 12 79 13 80 14 81 17 82 15 83 16 84 18 85 19 86
REMARK SMILES IDX 20 87 21 88 22 89 32 90 23 91 31 92 24 93 30 94 25 95 28 96
REMARK SMILES IDX 26 98 29 100 27 101
REMARK H PARENT 3 7 89 25 57 36 10 78 30 97 25 99
REMARK Flexibility Score: inf
ROOT
ATOM      1  C   UNL A   1      31.782  30.573  26.670  1.00  0.00     0.002 C 
ENDROOT
BRANCH   1   2
ATOM      2  C   UNL A   1      31.490  32.058  26.854  1.00  0.00     0.021 C 
BRANCH   2   3
ATOM      3  C   UNL A   1      32.727  32.937  26.984  1.00  0.00     0.116 C 
BRANCH   3   4
ATOM      4  N   UNL A   1      32.436  34.215  27.607  1.00  0.00    -0.352 N 
ATOM      5  O   UNL A   1      32.551  35.795  29.219  1.00  0.00    -0.269 OA
ATOM      6  C   UNL A   1      33.029  34.788  28.707  1.00  0.00     0.251 C 
ATOM      7  H   UNL A   1      31.721  34.742  27.185  1.00  0.00     0.163 HD
BRANCH   6   8
ATOM      8  C   UNL A   1      34.240  34.169  29.288  1.00  0.00     0.039 A 
ATOM      9  C   UNL A   1      34.126  33.188  30.275  1.00  0.00     0.014 A 
ATOM     10  C   UNL A   1      35.501  34.574  28.843  1.00  0.00     0.014 A 
ATOM     11  C   UNL A   1      35.266  32.722  30.917  1.00  0.00     0.010 A 
ATOM     12  C   UNL A   1      36.652  34.028  29.422  1.00  0.00     0.010 A 
ATOM     13  C   UNL A   1      36.543  33.115  30.481  1.00  0.00    -0.014 A 
BRANCH  13  14
ATOM     14  C   UNL A   1      37.732  32.474  31.098  1.00  0.00     0.031 A 
ATOM     15  C   UNL A   1      38.190  32.824  32.485  1.00  0.00     0.074 A 
ATOM     16  C   UNL A   1      38.365  31.514  30.396  1.00  0.00     0.049 A 
ATOM     17  N   UNL A   1      39.164  32.297  33.185  1.00  0.00    -0.248 NA
ATOM     18  C   UNL A   1      37.474  33.906  33.176  1.00  0.00     0.031 C 
ATOM     19  C   UNL A   1      38.026  31.116  29.027  1.00  0.00     0.029 A 
ATOM     20  N   UNL A   1      39.397  30.678  30.738  1.00  0.00    -0.354 N 
ATOM     21  C   UNL A   1      39.185  32.987  34.390  1.00  0.00     0.074 A 
ATOM     22  C   UNL A   1      38.144  33.990  34.319  1.00  0.00     0.031 C 
ATOM     23  C   UNL A   1      38.787  30.073  28.670  1.00  0.00     0.029 A 
ATOM     24  C   UNL A   1      39.708  29.768  29.758  1.00  0.00     0.049 A 
ATOM     25  H   UNL A   1      39.868  30.725  31.601  1.00  0.00     0.167 HD
ATOM     26  C   UNL A   1      39.997  32.791  35.458  1.00  0.00     0.037 A 
ATOM     27  C   UNL A   1      40.638  28.796  29.733  1.00  0.00     0.037 A 
ATOM     28  C   UNL A   1      41.029  31.785  35.524  1.00  0.00     0.049 A 
ATOM     29  C   UNL A   1      41.508  28.595  30.938  1.00  0.00     0.074 A 
ATOM     30  C   UNL A   1      41.898  31.505  36.565  1.00  0.00     0.029 A 
ATOM     31  N   UNL A   1      41.326  30.891  34.506  1.00  0.00    -0.354 N 
ATOM     32  N   UNL A   1      41.503  29.242  32.077  1.00  0.00    -0.248 NA
ATOM     33  C   UNL A   1      42.514  27.529  30.853  1.00  0.00     0.031 C 
ATOM     34  C   UNL A   1      42.743  30.464  36.165  1.00  0.00     0.029 A 
ATOM     35  C   UNL A   1      42.374  30.066  34.890  1.00  0.00     0.049 A 
ATOM     36  H   UNL A   1      40.863  30.848  33.638  1.00  0.00     0.167 HD
ATOM     37  C   UNL A   1      42.503  28.667  32.844  1.00  0.00     0.074 A 
ATOM     38  C   UNL A   1      43.067  27.591  32.056  1.00  0.00     0.031 C 
ATOM     39  C   UNL A   1      42.929  29.010  34.085  1.00  0.00     0.037 A 
BRANCH  26  40
ATOM     40  C   UNL A   1      39.811  33.683  36.651  1.00  0.00     0.064 A 
ATOM     41  C   UNL A   1      40.438  34.934  36.734  1.00  0.00     0.173 A 
ATOM     42  C   UNL A   1      38.945  33.314  37.691  1.00  0.00     0.173 A 
ATOM     43  F   UNL A   1      41.285  35.330  35.771  1.00  0.00    -0.203 F 
ATOM     44  C   UNL A   1      40.215  35.778  37.820  1.00  0.00     0.198 A 
ATOM     45  C   UNL A   1      38.706  34.169  38.764  1.00  0.00     0.198 A 
ATOM     46  F   UNL A   1      38.315  32.130  37.659  1.00  0.00    -0.203 F 
ATOM     47  F   UNL A   1      40.849  36.957  37.892  1.00  0.00    -0.200 F 
ATOM     48  C   UNL A   1      39.343  35.398  38.830  1.00  0.00     0.200 A 
ATOM     49  F   UNL A   1      37.854  33.806  39.733  1.00  0.00    -0.200 F 
ATOM     50  F   UNL A   1      39.120  36.217  39.867  1.00  0.00    -0.200 F 
ENDBRANCH  26  40
BRANCH  27  51
ATOM     51  C   UNL A   1      40.787  27.951  28.521  1.00  0.00     0.064 A 
ATOM     52  C   UNL A   1      40.086  26.746  28.387  1.00  0.00     0.173 A 
ATOM     53  C   UNL A   1      41.623  28.343  27.464  1.00  0.00     0.173 A 
ATOM     54  F   UNL A   1      39.288  26.321  29.378  1.00  0.00    -0.203 F 
ATOM     55  C   UNL A   1      40.227  25.955  27.248  1.00  0.00     0.198 A 
ATOM     56  C   UNL A   1      41.739  27.569  26.313  1.00  0.00     0.198 A 
ATOM     57  F   UNL A   1      42.309  29.493  27.542  1.00  0.00    -0.203 F 
ATOM     58  F   UNL A   1      39.578  24.787  27.162  1.00  0.00    -0.200 F 
ATOM     59  C   UNL A   1      41.048  26.372  26.209  1.00  0.00     0.200 A 
ATOM     60  F   UNL A   1      42.517  27.984  25.305  1.00  0.00    -0.200 F 
ATOM     61  F   UNL A   1      41.176  25.616  25.110  1.00  0.00    -0.200 F 
ENDBRANCH  27  51
BRANCH  39  62
ATOM     62  C   UNL A   1      44.059  28.206  34.652  1.00  0.00     0.064 A 
ATOM     63  C   UNL A   1      45.395  28.604  34.481  1.00  0.00     0.173 A 
ATOM     64  C   UNL A   1      43.808  27.027  35.370  1.00  0.00     0.173 A 
ATOM     65  F   UNL A   1      45.684  29.714  33.786  1.00  0.00    -0.203 F 
ATOM     66  C   UNL A   1      46.439  27.831  34.981  1.00  0.00     0.198 A 
ATOM     67  C   UNL A   1      44.855  26.272  35.891  1.00  0.00     0.198 A 
ATOM     68  F   UNL A   1      42.549  26.608  35.563  1.00  0.00    -0.203 F 
ATOM     69  F   UNL A   1      47.708  28.200  34.757  1.00  0.00    -0.200 F 
ATOM     70  C   UNL A   1      46.168  26.669  35.688  1.00  0.00     0.200 A 
ATOM     71  F   UNL A   1      44.593  25.153  36.580  1.00  0.00    -0.200 F 
ATOM     72  F   UNL A   1      47.176  25.924  36.162  1.00  0.00    -0.200 F 
ENDBRANCH  39  62
ENDBRANCH  13  14
ENDBRANCH   6   8
ENDBRANCH   3   4
ENDBRANCH   2   3
ENDBRANCH   1   2
BRANCH   1  73
ATOM     73  C   UNL A   1      31.390  29.996  25.309  1.00  0.00     0.002 C 
BRANCH  73  74
ATOM     74  C   UNL A   1      31.650  28.497  25.116  1.00  0.00     0.021 C 
BRANCH  74  75
ATOM     75  C   UNL A   1      33.110  28.085  24.953  1.00  0.00     0.116 C 
BRANCH  75  76
ATOM     76  N   UNL A   1      33.308  27.163  23.851  1.00  0.00    -0.355 N 
ATOM     77  C   UNL A   1      33.891  25.943  23.727  1.00  0.00     0.238 C 
ATOM     78  H   UNL A   1      32.936  27.496  23.004  1.00  0.00     0.163 HD
ATOM     79  O   UNL A   1      33.989  25.538  22.559  1.00  0.00    -0.273 OA
BRANCH  77  80
ATOM     80  C   UNL A   1      34.411  25.071  24.853  1.00  0.00     0.162 C 
ATOM     81  C   UNL A   1      35.326  23.898  24.536  1.00  0.00     0.032 C 
ATOM     82  N   UNL A   1      33.621  24.613  26.049  1.00  0.00    -0.185 NA
ATOM     83  C   UNL A   1      35.810  23.522  25.923  1.00  0.00     0.019 C 
ATOM     84  C   UNL A   1      34.555  23.659  26.781  1.00  0.00     0.103 C 
BRANCH  82  85
ATOM     85  S   UNL A   1      32.059  23.939  25.919  1.00  0.00     0.243 S 
ATOM     86  O   UNL A   1      31.576  23.704  27.269  1.00  0.00    -0.207 OA
ATOM     87  O   UNL A   1      31.313  24.819  25.050  1.00  0.00    -0.207 OA
BRANCH  85  88
ATOM     88  C   UNL A   1      32.131  22.373  25.074  1.00  0.00     0.084 A 
ATOM     89  C   UNL A   1      32.144  22.305  23.683  1.00  0.00     0.024 A 
ATOM     90  C   UNL A   1      32.379  21.206  25.811  1.00  0.00     0.050 A 
ATOM     91  C   UNL A   1      32.241  21.084  23.015  1.00  0.00     0.030 A 
ATOM     92  C   UNL A   1      32.566  19.993  25.140  1.00  0.00     0.066 A 
ATOM     93  C   UNL A   1      32.454  19.927  23.749  1.00  0.00     0.065 A 
ATOM     94  N   UNL A   1      32.912  18.845  25.856  1.00  0.00    -0.316 N 
ATOM     95  N   UNL A   1      32.588  18.708  23.086  1.00  0.00    -0.316 N 
ATOM     96  C   UNL A   1      33.129  17.619  25.260  1.00  0.00     0.314 A 
ATOM     97  H   UNL A   1      33.005  18.912  26.834  1.00  0.00     0.170 HD
ATOM     98  C   UNL A   1      32.884  17.530  23.733  1.00  0.00     0.314 A 
ATOM     99  H   UNL A   1      32.463  18.688  22.110  1.00  0.00     0.170 HD
ATOM    100  O   UNL A   1      33.503  16.647  25.904  1.00  0.00    -0.263 OA
ATOM    101  O   UNL A   1      32.962  16.469  23.129  1.00  0.00    -0.263 OA
ENDBRANCH  85  88
ENDBRANCH  82  85
ENDBRANCH  77  80
ENDBRANCH  75  76
ENDBRANCH  74  75
ENDBRANCH  73  74
ENDBRANCH   1  73
TORSDOF 15
ENDMDL
MODEL 3
REMARK VINA RESULT:     -13.1      0.387      7.020
REMARK SMILES O=C(NCCCCCCNC(=O)[C@@H]1CCCN1S(=O)(=O)c1ccc2[nH]c(=O)c(=O)[nH]c2c1)c1ccc(-c2c3nc(c(-c4c(F)c(F)c(F)c(F)c4F)c4ccc([nH]4)c(-c4c(F)c(F)c(F)c(F)c4F)c4nc(c(-c5c(F)c(F)c(F)c(F)c5F)c5ccc2[nH]5)C=C4)C=C3)cc1
REMARK SMILES IDX 6 1 5 2 4 3 3 4 1 5 2 6 33 8 34 9 95 10 35 11 94 12 36 13
REMARK SMILES IDX 37 14 38 15 88 16 39 17 93 18 87 19 89 20 40 21 92 22 86 23
REMARK SMILES IDX 85 24 41 26 73 27 53 28 72 29 54 30 57 31 71 32 90 33 55 34
REMARK SMILES IDX 56 35 70 37 91 38 58 39 42 40 43 41 51 42 44 43 45 44 49 45
REMARK SMILES IDX 52 46 46 47 47 48 50 49 48 50 74 51 75 52 83 53 76 54 77 55
REMARK SMILES IDX 81 56 84 57 78 58 79 59 82 60 80 61 59 62 60 63 68 64 61 65
REMARK SMILES IDX 62 66 66 67 69 68 63 69 64 70 67 71 65 72 7 73 8 74 9 75
REMARK SMILES IDX 10 76 11 77 12 79 13 80 14 81 17 82 15 83 16 84 18 85 19 86
REMARK SMILES IDX 20 87 21 88 22 89 32 90 23 91 31 92 24 93 30 94 25 95 28 96
REMARK SMILES IDX 26 98 29 100 27 101
REMARK H PARENT 3 7 89 25 57 36 10 78 30 97 25 99
REMARK Flexibility Score: inf
ROOT
ATOM      1  C   UNL A   1      31.389  30.673  26.454  1.00  0.00     0.002 C 
ENDROOT
BRANCH   1   2
ATOM      2  C   UNL A   1      31.394  32.198  26.502  1.00  0.00     0.021 C 
BRANCH   2   3
ATOM      3  C   UNL A   1      32.716  32.813  26.944  1.00  0.00     0.116 C 
BRANCH   3   4
ATOM      4  N   UNL A   1      32.545  34.130  27.531  1.00  0.00    -0.352 N 
ATOM      5  O   UNL A   1      32.791  35.731  29.107  1.00  0.00    -0.269 OA
ATOM      6  C   UNL A   1      33.174  34.669  28.628  1.00  0.00     0.251 C 
ATOM      7  H   UNL A   1      31.892  34.714  27.084  1.00  0.00     0.163 HD
BRANCH   6   8
ATOM      8  C   UNL A   1      34.308  33.947  29.245  1.00  0.00     0.039 A 
ATOM      9  C   UNL A   1      34.077  32.850  30.078  1.00  0.00     0.014 A 
ATOM     10  C   UNL A   1      35.615  34.371  28.990  1.00  0.00     0.014 A 
ATOM     11  C   UNL A   1      35.136  32.274  30.768  1.00  0.00     0.010 A 
ATOM     12  C   UNL A   1      36.690  33.724  29.609  1.00  0.00     0.010 A 
ATOM     13  C   UNL A   1      36.457  32.686  30.522  1.00  0.00    -0.014 A 
BRANCH  13  14
ATOM     14  C   UNL A   1      37.564  31.938  31.170  1.00  0.00     0.031 A 
ATOM     15  C   UNL A   1      38.377  30.921  30.422  1.00  0.00     0.074 A 
ATOM     16  C   UNL A   1      37.863  32.239  32.449  1.00  0.00     0.049 A 
ATOM     17  N   UNL A   1      39.421  30.242  30.831  1.00  0.00    -0.248 NA
ATOM     18  C   UNL A   1      37.970  30.617  29.043  1.00  0.00     0.031 C 
ATOM     19  C   UNL A   1      37.119  33.187  33.283  1.00  0.00     0.029 A 
ATOM     20  N   UNL A   1      38.882  31.812  33.261  1.00  0.00    -0.354 N 
ATOM     21  C   UNL A   1      39.787  29.427  29.768  1.00  0.00     0.074 A 
ATOM     22  C   UNL A   1      38.839  29.673  28.702  1.00  0.00     0.031 C 
ATOM     23  C   UNL A   1      37.741  33.319  34.461  1.00  0.00     0.029 A 
ATOM     24  C   UNL A   1      38.891  32.424  34.491  1.00  0.00     0.049 A 
ATOM     25  H   UNL A   1      39.543  31.135  32.990  1.00  0.00     0.167 HD
ATOM     26  C   UNL A   1      40.826  28.559  29.692  1.00  0.00     0.037 A 
ATOM     27  C   UNL A   1      39.728  32.277  35.533  1.00  0.00     0.037 A 
ATOM     28  C   UNL A   1      41.770  28.322  30.756  1.00  0.00     0.049 A 
ATOM     29  C   UNL A   1      40.877  31.320  35.410  1.00  0.00     0.074 A 
ATOM     30  C   UNL A   1      42.859  27.467  30.772  1.00  0.00     0.029 A 
ATOM     31  N   UNL A   1      41.738  28.947  31.994  1.00  0.00    -0.354 N 
ATOM     32  N   UNL A   1      41.222  30.571  34.392  1.00  0.00    -0.248 NA
ATOM     33  C   UNL A   1      41.752  31.188  36.580  1.00  0.00     0.031 C 
ATOM     34  C   UNL A   1      43.467  27.551  32.030  1.00  0.00     0.029 A 
ATOM     35  C   UNL A   1      42.781  28.489  32.785  1.00  0.00     0.049 A 
ATOM     36  H   UNL A   1      41.072  29.618  32.271  1.00  0.00     0.167 HD
ATOM     37  C   UNL A   1      42.350  29.876  34.797  1.00  0.00     0.074 A 
ATOM     38  C   UNL A   1      42.656  30.324  36.140  1.00  0.00     0.031 C 
ATOM     39  C   UNL A   1      43.060  28.938  34.124  1.00  0.00     0.037 A 
BRANCH  26  40
ATOM     40  C   UNL A   1      41.003  27.790  28.414  1.00  0.00     0.064 A 
ATOM     41  C   UNL A   1      41.843  28.252  27.392  1.00  0.00     0.173 A 
ATOM     42  C   UNL A   1      40.379  26.546  28.237  1.00  0.00     0.173 A 
ATOM     43  F   UNL A   1      42.455  29.441  27.507  1.00  0.00    -0.203 F 
ATOM     44  C   UNL A   1      42.044  27.504  26.235  1.00  0.00     0.198 A 
ATOM     45  C   UNL A   1      40.599  25.789  27.089  1.00  0.00     0.198 A 
ATOM     46  F   UNL A   1      39.569  26.054  29.187  1.00  0.00    -0.203 F 
ATOM     47  F   UNL A   1      42.829  27.981  25.258  1.00  0.00    -0.200 F 
ATOM     48  C   UNL A   1      41.428  26.269  26.088  1.00  0.00     0.200 A 
ATOM     49  F   UNL A   1      40.013  24.591  26.954  1.00  0.00    -0.200 F 
ATOM     50  F   UNL A   1      41.633  25.545  24.978  1.00  0.00    -0.200 F 
ENDBRANCH  26  40
BRANCH  27  51
ATOM     51  C   UNL A   1      39.498  33.053  36.778  1.00  0.00     0.064 A 
ATOM     52  C   UNL A   1      40.190  34.244  37.027  1.00  0.00     0.173 A 
ATOM     53  C   UNL A   1      38.565  32.625  37.735  1.00  0.00     0.173 A 
ATOM     54  F   UNL A   1      41.104  34.684  36.150  1.00  0.00    -0.203 F 
ATOM     55  C   UNL A   1      39.972  34.971  38.196  1.00  0.00     0.198 A 
ATOM     56  C   UNL A   1      38.324  33.368  38.887  1.00  0.00     0.198 A 
ATOM     57  F   UNL A   1      37.871  31.495  37.538  1.00  0.00    -0.203 F 
ATOM     58  F   UNL A   1      40.677  36.085  38.431  1.00  0.00    -0.200 F 
ATOM     59  C   UNL A   1      39.033  34.536  39.121  1.00  0.00     0.200 A 
ATOM     60  F   UNL A   1      37.403  32.955  39.768  1.00  0.00    -0.200 F 
ATOM     61  F   UNL A   1      38.816  35.241  40.240  1.00  0.00    -0.200 F 
ENDBRANCH  27  51
BRANCH  39  62
ATOM     62  C   UNL A   1      44.233  28.342  34.842  1.00  0.00     0.064 A 
ATOM     63  C   UNL A   1      45.506  28.930  34.771  1.00  0.00     0.173 A 
ATOM     64  C   UNL A   1      44.086  27.175  35.605  1.00  0.00     0.173 A 
ATOM     65  F   UNL A   1      45.698  30.036  34.038  1.00  0.00    -0.203 F 
ATOM     66  C   UNL A   1      46.597  28.349  35.412  1.00  0.00     0.198 A 
ATOM     67  C   UNL A   1      45.174  26.612  36.267  1.00  0.00     0.198 A 
ATOM     68  F   UNL A   1      42.889  26.579  35.706  1.00  0.00    -0.203 F 
ATOM     69  F   UNL A   1      47.814  28.895  35.284  1.00  0.00    -0.200 F 
ATOM     70  C   UNL A   1      46.429  27.194  36.161  1.00  0.00     0.200 A 
ATOM     71  F   UNL A   1      45.011  25.500  36.996  1.00  0.00    -0.200 F 
ATOM     72  F   UNL A   1      47.482  26.634  36.772  1.00  0.00    -0.200 F 
ENDBRANCH  39  62
ENDBRANCH  13  14
ENDBRANCH   6   8
ENDBRANCH   3   4
ENDBRANCH   2   3
ENDBRANCH   1   2
BRANCH   1  73
ATOM     73  C   UNL A   1      32.517  29.994  27.232  1.00  0.00     0.002 C 
BRANCH  73  74
ATOM     74  C   UNL A   1      32.345  28.491  27.488  1.00  0.00     0.021 C 
BRANCH  74  75
ATOM     75  C   UNL A   1      31.628  27.703  26.395  1.00  0.00     0.116 C 
BRANCH  75  76
ATOM     76  N   UNL A   1      31.205  26.390  26.844  1.00  0.00    -0.355 N 
ATOM     77  C   UNL A   1      31.632  25.123  26.607  1.00  0.00     0.238 C 
ATOM     78  H   UNL A   1      30.437  26.425  27.457  1.00  0.00     0.163 HD
ATOM     79  O   UNL A   1      30.898  24.239  27.073  1.00  0.00    -0.273 OA
BRANCH  77  80
ATOM     80  C   UNL A   1      32.882  24.716  25.853  1.00  0.00     0.162 C 
ATOM     81  C   UNL A   1      34.027  25.706  25.701  1.00  0.00     0.032 C 
ATOM     82  N   UNL A   1      32.922  23.906  24.586  1.00  0.00    -0.185 NA
ATOM     83  C   UNL A   1      35.124  24.804  25.169  1.00  0.00     0.019 C 
ATOM     84  C   UNL A   1      34.389  23.906  24.177  1.00  0.00     0.103 C 
BRANCH  82  85
ATOM     85  S   UNL A   1      31.927  24.247  23.243  1.00  0.00     0.243 S 
ATOM     86  O   UNL A   1      32.687  23.922  22.048  1.00  0.00    -0.207 OA
ATOM     87  O   UNL A   1      30.677  23.567  23.485  1.00  0.00    -0.207 OA
BRANCH  85  88
ATOM     88  C   UNL A   1      31.530  25.983  23.194  1.00  0.00     0.084 A 
ATOM     89  C   UNL A   1      32.479  26.928  22.814  1.00  0.00     0.024 A 
ATOM     90  C   UNL A   1      30.196  26.386  23.344  1.00  0.00     0.050 A 
ATOM     91  C   UNL A   1      32.164  28.284  22.735  1.00  0.00     0.030 A 
ATOM     92  C   UNL A   1      29.859  27.733  23.177  1.00  0.00     0.066 A 
ATOM     93  C   UNL A   1      30.849  28.684  22.915  1.00  0.00     0.065 A 
ATOM     94  N   UNL A   1      28.521  28.131  23.226  1.00  0.00    -0.316 N 
ATOM     95  N   UNL A   1      30.519  30.035  22.803  1.00  0.00    -0.316 N 
ATOM     96  C   UNL A   1      28.113  29.438  23.053  1.00  0.00     0.314 A 
ATOM     97  H   UNL A   1      27.833  27.446  23.393  1.00  0.00     0.170 HD
ATOM     98  C   UNL A   1      29.227  30.502  22.884  1.00  0.00     0.314 A 
ATOM     99  H   UNL A   1      31.245  30.684  22.659  1.00  0.00     0.170 HD
ATOM    100  O   UNL A   1      26.929  29.746  23.027  1.00  0.00    -0.263 OA
ATOM    101  O   UNL A   1      28.972  31.696  22.815  1.00  0.00    -0.263 OA
ENDBRANCH  85  88
ENDBRANCH  82  85
ENDBRANCH  77  80
ENDBRANCH  75  76
ENDBRANCH  74  75
ENDBRANCH  73  74
ENDBRANCH   1  73
TORSDOF 15
ENDMDL
