MODEL 1
REMARK VINA RESULT:     -13.5      0.000      0.000
REMARK SMILES COc1cc(OC)c(-c2cc(C(=O)NCCCCCCNC(=O)c3ccc(-c4c5nc(c(-c6c(F)c(F)c(F)c(F)c6F)c6ccc([nH]6)c(-c6c(F)c(F)c(F)c(F)c6F)c6nc(c(-c7c(F)c(F)c(F)c(F)c7F)c7ccc4[nH]7)C=C6)C=C5)cc3)c3c(-c4ccc(Cl)cc4)[nH]nc3n2)cc1OC
REMARK SMILES IDX 17 1 16 2 15 3 14 4 12 5 13 6 11 8 9 9 10 10 99 11 98 12
REMARK SMILES IDX 87 13 97 14 88 15 96 16 8 18 3 19 4 20 101 21 5 22 100 23
REMARK SMILES IDX 2 24 1 25 102 26 103 27 6 28 7 29 89 30 90 31 95 32 91 33
REMARK SMILES IDX 94 34 92 35 93 36 18 37 19 38 20 39 21 40 22 41 23 43 24 44
REMARK SMILES IDX 25 45 86 46 26 47 85 48 27 49 28 50 29 51 79 52 30 53 84 54
REMARK SMILES IDX 78 55 80 56 31 57 83 58 77 59 76 60 32 62 64 63 44 64 63 65
REMARK SMILES IDX 45 66 48 67 62 68 81 69 46 70 47 71 61 73 82 74 49 75 33 76
REMARK SMILES IDX 34 77 42 78 35 79 36 80 40 81 43 82 37 83 38 84 41 85 39 86
REMARK SMILES IDX 65 87 66 88 74 89 67 90 68 91 72 92 75 93 69 94 70 95 73 96
REMARK SMILES IDX 71 97 50 98 51 99 59 100 52 101 53 102 57 103 60 104 54 105
REMARK SMILES IDX 55 106 58 107 56 108
REMARK H PARENT 14 7 96 17 21 42 80 61 48 72
REMARK Flexibility Score: inf
ROOT
ATOM      1  C   UNL A   1      32.954  29.877  25.896  1.00  0.00     0.002 C 
ENDROOT
BRANCH   1   2
ATOM      2  C   UNL A   1      33.179  28.373  26.107  1.00  0.00     0.021 C 
BRANCH   2   3
ATOM      3  C   UNL A   1      32.365  27.816  27.273  1.00  0.00     0.116 C 
BRANCH   3   4
ATOM      4  N   UNL A   1      31.188  27.126  26.792  1.00  0.00    -0.352 N 
ATOM      5  C   UNL A   1      30.931  26.176  25.843  1.00  0.00     0.252 C 
ATOM      6  O   UNL A   1      29.817  25.670  25.937  1.00  0.00    -0.269 OA
ATOM      7  H   UNL A   1      30.372  27.410  27.263  1.00  0.00     0.163 HD
BRANCH   5   8
ATOM      8  C   UNL A   1      31.910  25.706  24.837  1.00  0.00     0.055 A 
ATOM      9  C   UNL A   1      33.770  24.184  24.175  1.00  0.00     0.077 A 
ATOM     10  C   UNL A   1      33.018  24.909  25.134  1.00  0.00     0.043 A 
ATOM     11  N   UNL A   1      33.611  24.276  22.832  1.00  0.00    -0.226 NA
ATOM     12  C   UNL A   1      32.691  25.216  22.481  1.00  0.00     0.182 A 
ATOM     13  C   UNL A   1      31.873  25.913  23.447  1.00  0.00     0.059 A 
ATOM     14  N   UNL A   1      32.443  25.629  21.239  1.00  0.00    -0.154 NA
ATOM     15  C   UNL A   1      31.150  26.836  22.702  1.00  0.00     0.075 A 
ATOM     16  N   UNL A   1      31.533  26.601  21.401  1.00  0.00    -0.275 N 
ATOM     17  H   UNL A   1      31.166  27.111  20.643  1.00  0.00     0.190 HD
BRANCH   9  18
ATOM     18  C   UNL A   1      34.792  23.261  24.709  1.00  0.00     0.046 A 
ATOM     19  C   UNL A   1      37.084  21.707  25.363  1.00  0.00     0.164 A 
ATOM     20  C   UNL A   1      35.870  21.101  25.004  1.00  0.00     0.097 A 
ATOM     21  C   UNL A   1      37.165  23.095  25.433  1.00  0.00     0.161 A 
ATOM     22  C   UNL A   1      34.736  21.861  24.644  1.00  0.00     0.132 A 
ATOM     23  C   UNL A   1      36.012  23.842  25.146  1.00  0.00     0.064 A 
BRANCH  19  24
ATOM     24  O   UNL A   1      38.194  20.908  25.423  1.00  0.00    -0.493 OA
ATOM     25  C   UNL A   1      37.937  19.569  25.000  1.00  0.00     0.278 C 
ENDBRANCH  19  24
BRANCH  21  26
ATOM     26  O   UNL A   1      38.256  23.888  25.660  1.00  0.00    -0.493 OA
ATOM     27  C   UNL A   1      38.445  24.453  26.948  1.00  0.00     0.278 C 
ENDBRANCH  21  26
BRANCH  22  28
ATOM     28  O   UNL A   1      33.686  21.084  24.229  1.00  0.00    -0.496 OA
ATOM     29  C   UNL A   1      33.024  20.291  25.208  1.00  0.00     0.278 C 
ENDBRANCH  22  28
ENDBRANCH   9  18
BRANCH  15  30
ATOM     30  C   UNL A   1      30.234  27.929  23.017  1.00  0.00     0.000 A 
ATOM     31  C   UNL A   1      30.739  29.202  23.314  1.00  0.00     0.012 A 
ATOM     32  C   UNL A   1      28.843  27.743  22.962  1.00  0.00     0.012 A 
ATOM     33  C   UNL A   1      29.872  30.284  23.494  1.00  0.00     0.021 A 
ATOM     34  C   UNL A   1      27.976  28.829  23.128  1.00  0.00     0.021 A 
ATOM     35  C   UNL A   1      28.496  30.097  23.380  1.00  0.00     0.041 A 
ATOM     36  Cl  UNL A   1      27.436  31.444  23.532  1.00  0.00    -0.084 Cl
ENDBRANCH  15  30
ENDBRANCH   5   8
ENDBRANCH   3   4
ENDBRANCH   2   3
ENDBRANCH   1   2
BRANCH   1  37
ATOM     37  C   UNL A   1      32.502  30.650  27.148  1.00  0.00     0.002 C 
BRANCH  37  38
ATOM     38  C   UNL A   1      33.257  31.957  27.442  1.00  0.00     0.021 C 
BRANCH  38  39
ATOM     39  C   UNL A   1      34.561  31.732  28.180  1.00  0.00     0.116 C 
BRANCH  39  40
ATOM     40  N   UNL A   1      34.516  32.282  29.537  1.00  0.00    -0.352 N 
ATOM     41  C   UNL A   1      35.311  31.953  30.621  1.00  0.00     0.251 C 
ATOM     42  H   UNL A   1      33.835  32.974  29.698  1.00  0.00     0.163 HD
ATOM     43  O   UNL A   1      34.968  32.185  31.763  1.00  0.00    -0.269 OA
BRANCH  41  44
ATOM     44  C   UNL A   1      36.612  31.333  30.335  1.00  0.00     0.039 A 
ATOM     45  C   UNL A   1      37.750  32.085  30.032  1.00  0.00     0.014 A 
ATOM     46  C   UNL A   1      36.668  29.948  30.449  1.00  0.00     0.014 A 
ATOM     47  C   UNL A   1      38.963  31.416  29.901  1.00  0.00     0.010 A 
ATOM     48  C   UNL A   1      37.881  29.340  30.562  1.00  0.00     0.010 A 
ATOM     49  C   UNL A   1      39.012  30.041  30.178  1.00  0.00    -0.014 A 
BRANCH  49  50
ATOM     50  C   UNL A   1      40.257  29.289  30.165  1.00  0.00     0.031 A 
ATOM     51  C   UNL A   1      40.845  29.103  31.515  1.00  0.00     0.074 A 
ATOM     52  C   UNL A   1      40.667  28.626  29.060  1.00  0.00     0.049 A 
ATOM     53  N   UNL A   1      41.911  29.650  31.992  1.00  0.00    -0.248 NA
ATOM     54  C   UNL A   1      40.064  28.361  32.521  1.00  0.00     0.031 C 
ATOM     55  C   UNL A   1      39.955  28.464  27.779  1.00  0.00     0.029 A 
ATOM     56  N   UNL A   1      41.775  27.858  28.875  1.00  0.00    -0.354 N 
ATOM     57  C   UNL A   1      42.064  29.130  33.276  1.00  0.00     0.074 A 
ATOM     58  C   UNL A   1      40.803  28.534  33.619  1.00  0.00     0.031 C 
ATOM     59  C   UNL A   1      40.521  27.472  27.059  1.00  0.00     0.029 A 
ATOM     60  C   UNL A   1      41.741  27.069  27.725  1.00  0.00     0.049 A 
ATOM     61  H   UNL A   1      42.535  27.857  29.500  1.00  0.00     0.167 HD
ATOM     62  C   UNL A   1      43.312  28.960  33.800  1.00  0.00     0.037 A 
ATOM     63  C   UNL A   1      42.664  26.144  27.366  1.00  0.00     0.037 A 
ATOM     64  C   UNL A   1      44.283  29.654  32.991  1.00  0.00     0.049 A 
ATOM     65  C   UNL A   1      43.902  26.474  28.108  1.00  0.00     0.074 A 
ATOM     66  C   UNL A   1      44.650  30.962  32.773  1.00  0.00     0.029 A 
ATOM     67  N   UNL A   1      44.725  28.916  31.924  1.00  0.00    -0.354 N 
ATOM     68  N   UNL A   1      44.578  27.576  27.922  1.00  0.00    -0.248 NA
ATOM     69  C   UNL A   1      44.181  25.770  29.352  1.00  0.00     0.031 C 
ATOM     70  C   UNL A   1      45.131  31.012  31.429  1.00  0.00     0.029 A 
ATOM     71  C   UNL A   1      45.107  29.725  30.891  1.00  0.00     0.049 A 
ATOM     72  H   UNL A   1      44.764  27.932  31.903  1.00  0.00     0.167 HD
ATOM     73  C   UNL A   1      45.044  27.914  29.179  1.00  0.00     0.074 A 
ATOM     74  C   UNL A   1      44.911  26.699  29.976  1.00  0.00     0.031 C 
ATOM     75  C   UNL A   1      45.187  29.223  29.536  1.00  0.00     0.037 A 
BRANCH  62  76
ATOM     76  C   UNL A   1      43.744  27.801  34.680  1.00  0.00     0.064 A 
ATOM     77  C   UNL A   1      43.622  26.487  34.177  1.00  0.00     0.173 A 
ATOM     78  C   UNL A   1      43.954  27.893  36.073  1.00  0.00     0.173 A 
ATOM     79  F   UNL A   1      43.403  26.273  32.871  1.00  0.00    -0.203 F 
ATOM     80  C   UNL A   1      43.633  25.366  35.014  1.00  0.00     0.198 A 
ATOM     81  C   UNL A   1      44.014  26.769  36.897  1.00  0.00     0.198 A 
ATOM     82  F   UNL A   1      43.996  29.064  36.717  1.00  0.00    -0.203 F 
ATOM     83  F   UNL A   1      43.391  24.151  34.504  1.00  0.00    -0.200 F 
ATOM     84  C   UNL A   1      43.822  25.509  36.375  1.00  0.00     0.200 A 
ATOM     85  F   UNL A   1      44.176  26.932  38.219  1.00  0.00    -0.200 F 
ATOM     86  F   UNL A   1      43.775  24.446  37.188  1.00  0.00    -0.200 F 
ENDBRANCH  62  76
BRANCH  63  87
ATOM     87  C   UNL A   1      42.459  24.832  26.708  1.00  0.00     0.064 A 
ATOM     88  C   UNL A   1      43.074  24.529  25.482  1.00  0.00     0.173 A 
ATOM     89  C   UNL A   1      41.913  23.746  27.421  1.00  0.00     0.173 A 
ATOM     90  F   UNL A   1      43.651  25.501  24.762  1.00  0.00    -0.203 F 
ATOM     91  C   UNL A   1      43.174  23.213  25.016  1.00  0.00     0.198 A 
ATOM     92  C   UNL A   1      42.015  22.433  26.956  1.00  0.00     0.198 A 
ATOM     93  F   UNL A   1      41.364  23.930  28.631  1.00  0.00    -0.203 F 
ATOM     94  F   UNL A   1      43.829  22.954  23.876  1.00  0.00    -0.200 F 
ATOM     95  C   UNL A   1      42.659  22.165  25.762  1.00  0.00     0.200 A 
ATOM     96  F   UNL A   1      41.550  21.424  27.707  1.00  0.00    -0.200 F 
ATOM     97  F   UNL A   1      42.821  20.898  25.354  1.00  0.00    -0.200 F 
ENDBRANCH  63  87
BRANCH  75  98
ATOM     98  C   UNL A   1      45.286  30.238  28.438  1.00  0.00     0.064 A 
ATOM     99  C   UNL A   1      44.221  31.028  27.976  1.00  0.00     0.173 A 
ATOM    100  C   UNL A   1      46.563  30.511  27.932  1.00  0.00     0.173 A 
ATOM    101  F   UNL A   1      42.984  30.871  28.462  1.00  0.00    -0.203 F 
ATOM    102  C   UNL A   1      44.431  32.038  27.037  1.00  0.00     0.198 A 
ATOM    103  C   UNL A   1      46.776  31.540  27.023  1.00  0.00     0.198 A 
ATOM    104  F   UNL A   1      47.620  29.809  28.372  1.00  0.00    -0.203 F 
ATOM    105  F   UNL A   1      43.402  32.783  26.607  1.00  0.00    -0.200 F 
ATOM    106  C   UNL A   1      45.710  32.301  26.572  1.00  0.00     0.200 A 
ATOM    107  F   UNL A   1      48.021  31.815  26.611  1.00  0.00    -0.200 F 
ATOM    108  F   UNL A   1      45.921  33.303  25.706  1.00  0.00    -0.200 F 
ENDBRANCH  75  98
ENDBRANCH  49  50
ENDBRANCH  41  44
ENDBRANCH  39  40
ENDBRANCH  38  39
ENDBRANCH  37  38
ENDBRANCH   1  37
TORSDOF 18
ENDMDL
MODEL 2
REMARK VINA RESULT:     -12.5      5.587     10.748
REMARK SMILES COc1cc(OC)c(-c2cc(C(=O)NCCCCCCNC(=O)c3ccc(-c4c5nc(c(-c6c(F)c(F)c(F)c(F)c6F)c6ccc([nH]6)c(-c6c(F)c(F)c(F)c(F)c6F)c6nc(c(-c7c(F)c(F)c(F)c(F)c7F)c7ccc4[nH]7)C=C6)C=C5)cc3)c3c(-c4ccc(Cl)cc4)[nH]nc3n2)cc1OC
REMARK SMILES IDX 17 1 16 2 15 3 14 4 12 5 13 6 11 8 9 9 10 10 99 11 98 12
REMARK SMILES IDX 87 13 97 14 88 15 96 16 8 18 3 19 4 20 101 21 5 22 100 23
REMARK SMILES IDX 2 24 1 25 102 26 103 27 6 28 7 29 89 30 90 31 95 32 91 33
REMARK SMILES IDX 94 34 92 35 93 36 18 37 19 38 20 39 21 40 22 41 23 43 24 44
REMARK SMILES IDX 25 45 86 46 26 47 85 48 27 49 28 50 29 51 79 52 30 53 84 54
REMARK SMILES IDX 78 55 80 56 31 57 83 58 77 59 76 60 32 62 64 63 44 64 63 65
REMARK SMILES IDX 45 66 48 67 62 68 81 69 46 70 47 71 61 73 82 74 49 75 33 76
REMARK SMILES IDX 34 77 42 78 35 79 36 80 40 81 43 82 37 83 38 84 41 85 39 86
REMARK SMILES IDX 65 87 66 88 74 89 67 90 68 91 72 92 75 93 69 94 70 95 73 96
REMARK SMILES IDX 71 97 50 98 51 99 59 100 52 101 53 102 57 103 60 104 54 105
REMARK SMILES IDX 55 106 58 107 56 108
REMARK H PARENT 14 7 96 17 21 42 80 61 48 72
REMARK Flexibility Score: inf
ROOT
ATOM      1  C   UNL A   1      41.683  27.826  34.433  1.00  0.00     0.002 C 
ENDROOT
BRANCH   1   2
ATOM      2  C   UNL A   1      41.126  28.305  33.085  1.00  0.00     0.021 C 
BRANCH   2   3
ATOM      3  C   UNL A   1      39.760  28.973  33.219  1.00  0.00     0.116 C 
BRANCH   3   4
ATOM      4  N   UNL A   1      39.788  29.993  34.243  1.00  0.00    -0.352 N 
ATOM      5  C   UNL A   1      39.538  31.336  34.293  1.00  0.00     0.252 C 
ATOM      6  O   UNL A   1      39.425  31.778  35.432  1.00  0.00    -0.269 OA
ATOM      7  H   UNL A   1      40.052  29.632  35.121  1.00  0.00     0.163 HD
BRANCH   5   8
ATOM      8  C   UNL A   1      39.326  32.196  33.107  1.00  0.00     0.055 A 
ATOM      9  C   UNL A   1      37.807  33.519  31.638  1.00  0.00     0.077 A 
ATOM     10  C   UNL A   1      38.075  32.462  32.546  1.00  0.00     0.043 A 
ATOM     11  N   UNL A   1      38.746  34.321  31.080  1.00  0.00    -0.226 NA
ATOM     12  C   UNL A   1      40.012  33.954  31.422  1.00  0.00     0.182 A 
ATOM     13  C   UNL A   1      40.296  32.924  32.395  1.00  0.00     0.059 A 
ATOM     14  N   UNL A   1      41.129  34.460  30.903  1.00  0.00    -0.154 NA
ATOM     15  C   UNL A   1      41.678  32.792  32.381  1.00  0.00     0.075 A 
ATOM     16  N   UNL A   1      42.104  33.742  31.482  1.00  0.00    -0.275 N 
ATOM     17  H   UNL A   1      43.056  33.885  31.276  1.00  0.00     0.190 HD
BRANCH   9  18
ATOM     18  C   UNL A   1      36.387  33.742  31.298  1.00  0.00     0.046 A 
ATOM     19  C   UNL A   1      33.849  34.404  30.195  1.00  0.00     0.164 A 
ATOM     20  C   UNL A   1      34.232  34.856  31.467  1.00  0.00     0.097 A 
ATOM     21  C   UNL A   1      34.713  33.588  29.468  1.00  0.00     0.161 A 
ATOM     22  C   UNL A   1      35.501  34.564  32.011  1.00  0.00     0.132 A 
ATOM     23  C   UNL A   1      35.942  33.240  30.047  1.00  0.00     0.064 A 
BRANCH  19  24
ATOM     24  O   UNL A   1      32.729  34.960  29.638  1.00  0.00    -0.493 OA
ATOM     25  C   UNL A   1      32.927  36.313  29.227  1.00  0.00     0.278 C 
ENDBRANCH  19  24
BRANCH  21  26
ATOM     26  O   UNL A   1      34.589  33.122  28.188  1.00  0.00    -0.493 OA
ATOM     27  C   UNL A   1      34.028  31.837  27.970  1.00  0.00     0.278 C 
ENDBRANCH  21  26
BRANCH  22  28
ATOM     28  O   UNL A   1      35.717  35.181  33.215  1.00  0.00    -0.496 OA
ATOM     29  C   UNL A   1      35.159  34.577  34.377  1.00  0.00     0.278 C 
ENDBRANCH  22  28
ENDBRANCH   9  18
BRANCH  15  30
ATOM     30  C   UNL A   1      42.636  31.887  33.010  1.00  0.00     0.000 A 
ATOM     31  C   UNL A   1      43.297  30.922  32.238  1.00  0.00     0.012 A 
ATOM     32  C   UNL A   1      42.960  32.009  34.371  1.00  0.00     0.012 A 
ATOM     33  C   UNL A   1      44.307  30.134  32.800  1.00  0.00     0.021 A 
ATOM     34  C   UNL A   1      43.980  31.231  34.929  1.00  0.00     0.021 A 
ATOM     35  C   UNL A   1      44.657  30.306  34.137  1.00  0.00     0.041 A 
ATOM     36  Cl  UNL A   1      45.947  29.385  34.807  1.00  0.00    -0.084 Cl
ENDBRANCH  15  30
ENDBRANCH   5   8
ENDBRANCH   3   4
ENDBRANCH   2   3
ENDBRANCH   1   2
BRANCH   1  37
ATOM     37  C   UNL A   1      41.560  26.313  34.688  1.00  0.00     0.002 C 
BRANCH  37  38
ATOM     38  C   UNL A   1      41.581  25.874  36.162  1.00  0.00     0.021 C 
BRANCH  38  39
ATOM     39  C   UNL A   1      42.338  24.581  36.383  1.00  0.00     0.116 C 
BRANCH  39  40
ATOM     40  N   UNL A   1      43.608  24.809  37.075  1.00  0.00    -0.352 N 
ATOM     41  C   UNL A   1      44.892  24.677  36.575  1.00  0.00     0.251 C 
ATOM     42  H   UNL A   1      43.540  25.093  38.015  1.00  0.00     0.163 HD
ATOM     43  O   UNL A   1      45.854  24.531  37.303  1.00  0.00    -0.269 OA
BRANCH  41  44
ATOM     44  C   UNL A   1      45.054  24.750  35.116  1.00  0.00     0.039 A 
ATOM     45  C   UNL A   1      45.073  23.611  34.307  1.00  0.00     0.014 A 
ATOM     46  C   UNL A   1      45.121  26.027  34.571  1.00  0.00     0.014 A 
ATOM     47  C   UNL A   1      45.103  23.786  32.928  1.00  0.00     0.010 A 
ATOM     48  C   UNL A   1      44.905  26.191  33.237  1.00  0.00     0.010 A 
ATOM     49  C   UNL A   1      45.010  25.087  32.407  1.00  0.00    -0.014 A 
BRANCH  49  50
ATOM     50  C   UNL A   1      44.931  25.349  30.980  1.00  0.00     0.031 A 
ATOM     51  C   UNL A   1      45.955  26.312  30.501  1.00  0.00     0.074 A 
ATOM     52  C   UNL A   1      44.167  24.586  30.165  1.00  0.00     0.049 A 
ATOM     53  N   UNL A   1      45.769  27.522  30.097  1.00  0.00    -0.248 NA
ATOM     54  C   UNL A   1      47.376  25.955  30.656  1.00  0.00     0.031 C 
ATOM     55  C   UNL A   1      43.396  23.378  30.509  1.00  0.00     0.029 A 
ATOM     56  N   UNL A   1      43.995  24.665  28.817  1.00  0.00    -0.354 N 
ATOM     57  C   UNL A   1      47.024  27.994  29.718  1.00  0.00     0.074 A 
ATOM     58  C   UNL A   1      47.982  27.086  30.286  1.00  0.00     0.031 C 
ATOM     59  C   UNL A   1      43.049  22.715  29.385  1.00  0.00     0.029 A 
ATOM     60  C   UNL A   1      43.392  23.543  28.249  1.00  0.00     0.049 A 
ATOM     61  H   UNL A   1      44.274  25.446  28.288  1.00  0.00     0.167 HD
ATOM     62  C   UNL A   1      47.137  28.901  28.706  1.00  0.00     0.037 A 
ATOM     63  C   UNL A   1      43.203  23.325  26.924  1.00  0.00     0.037 A 
ATOM     64  C   UNL A   1      45.841  29.447  28.389  1.00  0.00     0.049 A 
ATOM     65  C   UNL A   1      43.280  24.648  26.265  1.00  0.00     0.074 A 
ATOM     66  C   UNL A   1      44.962  30.334  28.968  1.00  0.00     0.029 A 
ATOM     67  N   UNL A   1      45.131  28.678  27.504  1.00  0.00    -0.354 N 
ATOM     68  N   UNL A   1      42.420  25.608  26.477  1.00  0.00    -0.248 NA
ATOM     69  C   UNL A   1      44.544  25.060  25.668  1.00  0.00     0.031 C 
ATOM     70  C   UNL A   1      43.660  29.914  28.558  1.00  0.00     0.029 A 
ATOM     71  C   UNL A   1      43.786  28.828  27.690  1.00  0.00     0.049 A 
ATOM     72  H   UNL A   1      45.536  28.094  26.823  1.00  0.00     0.167 HD
ATOM     73  C   UNL A   1      43.173  26.766  26.432  1.00  0.00     0.074 A 
ATOM     74  C   UNL A   1      44.420  26.386  25.777  1.00  0.00     0.031 C 
ATOM     75  C   UNL A   1      42.847  27.835  27.214  1.00  0.00     0.037 A 
BRANCH  62  76
ATOM     76  C   UNL A   1      48.247  28.930  27.671  1.00  0.00     0.064 A 
ATOM     77  C   UNL A   1      48.473  27.775  26.889  1.00  0.00     0.173 A 
ATOM     78  C   UNL A   1      49.284  29.887  27.639  1.00  0.00     0.173 A 
ATOM     79  F   UNL A   1      47.567  26.786  26.853  1.00  0.00    -0.203 F 
ATOM     80  C   UNL A   1      49.671  27.567  26.198  1.00  0.00     0.198 A 
ATOM     81  C   UNL A   1      50.456  29.698  26.908  1.00  0.00     0.198 A 
ATOM     82  F   UNL A   1      49.266  30.989  28.396  1.00  0.00    -0.203 F 
ATOM     83  F   UNL A   1      49.886  26.404  25.570  1.00  0.00    -0.200 F 
ATOM     84  C   UNL A   1      50.665  28.527  26.212  1.00  0.00     0.200 A 
ATOM     85  F   UNL A   1      51.417  30.633  26.955  1.00  0.00    -0.200 F 
ATOM     86  F   UNL A   1      51.836  28.310  25.601  1.00  0.00    -0.200 F 
ENDBRANCH  62  76
BRANCH  63  87
ATOM     87  C   UNL A   1      43.299  22.054  26.169  1.00  0.00     0.064 A 
ATOM     88  C   UNL A   1      44.539  21.553  25.742  1.00  0.00     0.173 A 
ATOM     89  C   UNL A   1      42.213  21.157  26.129  1.00  0.00     0.173 A 
ATOM     90  F   UNL A   1      45.630  22.331  25.788  1.00  0.00    -0.203 F 
ATOM     91  C   UNL A   1      44.694  20.221  25.338  1.00  0.00     0.198 A 
ATOM     92  C   UNL A   1      42.369  19.829  25.726  1.00  0.00     0.198 A 
ATOM     93  F   UNL A   1      41.004  21.527  26.577  1.00  0.00    -0.203 F 
ATOM     94  F   UNL A   1      45.907  19.760  25.004  1.00  0.00    -0.200 F 
ATOM     95  C   UNL A   1      43.611  19.357  25.347  1.00  0.00     0.200 A 
ATOM     96  F   UNL A   1      41.322  18.991  25.778  1.00  0.00    -0.200 F 
ATOM     97  F   UNL A   1      43.773  18.063  25.033  1.00  0.00    -0.200 F 
ENDBRANCH  63  87
BRANCH  75  98
ATOM     98  C   UNL A   1      41.447  27.912  27.743  1.00  0.00     0.064 A 
ATOM     99  C   UNL A   1      41.021  27.369  28.966  1.00  0.00     0.173 A 
ATOM    100  C   UNL A   1      40.534  28.696  27.027  1.00  0.00     0.173 A 
ATOM    101  F   UNL A   1      41.857  26.664  29.738  1.00  0.00    -0.203 F 
ATOM    102  C   UNL A   1      39.729  27.597  29.440  1.00  0.00     0.198 A 
ATOM    103  C   UNL A   1      39.259  28.950  27.517  1.00  0.00     0.198 A 
ATOM    104  F   UNL A   1      40.907  29.268  25.871  1.00  0.00    -0.203 F 
ATOM    105  F   UNL A   1      39.338  27.071  30.611  1.00  0.00    -0.200 F 
ATOM    106  C   UNL A   1      38.854  28.397  28.721  1.00  0.00     0.200 A 
ATOM    107  F   UNL A   1      38.435  29.759  26.838  1.00  0.00    -0.200 F 
ATOM    108  F   UNL A   1      37.628  28.656  29.199  1.00  0.00    -0.200 F 
ENDBRANCH  75  98
ENDBRANCH  49  50
ENDBRANCH  41  44
ENDBRANCH  39  40
ENDBRANCH  38  39
ENDBRANCH  37  38
ENDBRANCH   1  37
TORSDOF 18
ENDMDL
MODEL 3
REMARK VINA RESULT:     -12.5      1.437      2.057
REMARK SMILES COc1cc(OC)c(-c2cc(C(=O)NCCCCCCNC(=O)c3ccc(-c4c5nc(c(-c6c(F)c(F)c(F)c(F)c6F)c6ccc([nH]6)c(-c6c(F)c(F)c(F)c(F)c6F)c6nc(c(-c7c(F)c(F)c(F)c(F)c7F)c7ccc4[nH]7)C=C6)C=C5)cc3)c3c(-c4ccc(Cl)cc4)[nH]nc3n2)cc1OC
REMARK SMILES IDX 17 1 16 2 15 3 14 4 12 5 13 6 11 8 9 9 10 10 99 11 98 12
REMARK SMILES IDX 87 13 97 14 88 15 96 16 8 18 3 19 4 20 101 21 5 22 100 23
REMARK SMILES IDX 2 24 1 25 102 26 103 27 6 28 7 29 89 30 90 31 95 32 91 33
REMARK SMILES IDX 94 34 92 35 93 36 18 37 19 38 20 39 21 40 22 41 23 43 24 44
REMARK SMILES IDX 25 45 86 46 26 47 85 48 27 49 28 50 29 51 79 52 30 53 84 54
REMARK SMILES IDX 78 55 80 56 31 57 83 58 77 59 76 60 32 62 64 63 44 64 63 65
REMARK SMILES IDX 45 66 48 67 62 68 81 69 46 70 47 71 61 73 82 74 49 75 33 76
REMARK SMILES IDX 34 77 42 78 35 79 36 80 40 81 43 82 37 83 38 84 41 85 39 86
REMARK SMILES IDX 65 87 66 88 74 89 67 90 68 91 72 92 75 93 69 94 70 95 73 96
REMARK SMILES IDX 71 97 50 98 51 99 59 100 52 101 53 102 57 103 60 104 54 105
REMARK SMILES IDX 55 106 58 107 56 108
REMARK H PARENT 14 7 96 17 21 42 80 61 48 72
REMARK Flexibility Score: inf
ROOT
ATOM      1  C   UNL A   1      35.255  29.685  27.456  1.00  0.00     0.002 C 
ENDROOT
BRANCH   1   2
ATOM      2  C   UNL A   1      33.859  30.319  27.377  1.00  0.00     0.021 C 
BRANCH   2   3
ATOM      3  C   UNL A   1      32.934  29.581  26.410  1.00  0.00     0.116 C 
BRANCH   3   4
ATOM      4  N   UNL A   1      33.587  29.374  25.136  1.00  0.00    -0.352 N 
ATOM      5  C   UNL A   1      33.669  28.349  24.236  1.00  0.00     0.252 C 
ATOM      6  O   UNL A   1      34.118  28.684  23.144  1.00  0.00    -0.269 OA
ATOM      7  H   UNL A   1      34.098  30.165  24.847  1.00  0.00     0.163 HD
BRANCH   5   8
ATOM      8  C   UNL A   1      33.186  26.972  24.482  1.00  0.00     0.055 A 
ATOM      9  C   UNL A   1      33.617  24.626  25.203  1.00  0.00     0.077 A 
ATOM     10  C   UNL A   1      34.023  25.866  24.649  1.00  0.00     0.043 A 
ATOM     11  N   UNL A   1      32.341  24.291  25.511  1.00  0.00    -0.226 NA
ATOM     12  C   UNL A   1      31.451  25.258  25.153  1.00  0.00     0.182 A 
ATOM     13  C   UNL A   1      31.855  26.550  24.649  1.00  0.00     0.059 A 
ATOM     14  N   UNL A   1      30.125  25.138  25.192  1.00  0.00    -0.154 NA
ATOM     15  C   UNL A   1      30.668  27.191  24.319  1.00  0.00     0.075 A 
ATOM     16  N   UNL A   1      29.685  26.297  24.679  1.00  0.00    -0.275 N 
ATOM     17  H   UNL A   1      28.727  26.494  24.566  1.00  0.00     0.190 HD
BRANCH   9  18
ATOM     18  C   UNL A   1      34.692  23.644  25.459  1.00  0.00     0.046 A 
ATOM     19  C   UNL A   1      37.025  22.019  25.561  1.00  0.00     0.164 A 
ATOM     20  C   UNL A   1      35.759  21.462  25.323  1.00  0.00     0.097 A 
ATOM     21  C   UNL A   1      37.143  23.389  25.784  1.00  0.00     0.161 A 
ATOM     22  C   UNL A   1      34.599  22.262  25.236  1.00  0.00     0.132 A 
ATOM     23  C   UNL A   1      35.974  24.166  25.770  1.00  0.00     0.064 A 
BRANCH  19  24
ATOM     24  O   UNL A   1      38.116  21.217  25.353  1.00  0.00    -0.493 OA
ATOM     25  C   UNL A   1      37.780  19.971  24.744  1.00  0.00     0.278 C 
ENDBRANCH  19  24
BRANCH  21  26
ATOM     26  O   UNL A   1      38.271  24.147  25.934  1.00  0.00    -0.493 OA
ATOM     27  C   UNL A   1      38.844  24.287  27.224  1.00  0.00     0.278 C 
ENDBRANCH  21  26
BRANCH  22  28
ATOM     28  O   UNL A   1      33.483  21.542  24.898  1.00  0.00    -0.496 OA
ATOM     29  C   UNL A   1      33.146  20.424  25.711  1.00  0.00     0.278 C 
ENDBRANCH  22  28
ENDBRANCH   9  18
BRANCH  15  30
ATOM     30  C   UNL A   1      30.320  28.450  23.666  1.00  0.00     0.000 A 
ATOM     31  C   UNL A   1      30.097  28.482  22.283  1.00  0.00     0.012 A 
ATOM     32  C   UNL A   1      30.137  29.625  24.414  1.00  0.00     0.012 A 
ATOM     33  C   UNL A   1      29.642  29.652  21.665  1.00  0.00     0.021 A 
ATOM     34  C   UNL A   1      29.668  30.790  23.797  1.00  0.00     0.021 A 
ATOM     35  C   UNL A   1      29.410  30.793  22.428  1.00  0.00     0.041 A 
ATOM     36  Cl  UNL A   1      28.783  32.210  21.678  1.00  0.00    -0.084 Cl
ENDBRANCH  15  30
ENDBRANCH   5   8
ENDBRANCH   3   4
ENDBRANCH   2   3
ENDBRANCH   1   2
BRANCH   1  37
ATOM     37  C   UNL A   1      36.409  30.679  27.684  1.00  0.00     0.002 C 
BRANCH  37  38
ATOM     38  C   UNL A   1      36.002  32.145  27.906  1.00  0.00     0.021 C 
BRANCH  38  39
ATOM     39  C   UNL A   1      36.869  32.851  28.928  1.00  0.00     0.116 C 
BRANCH  39  40
ATOM     40  N   UNL A   1      36.205  32.943  30.230  1.00  0.00    -0.352 N 
ATOM     41  C   UNL A   1      36.225  32.028  31.268  1.00  0.00     0.251 C 
ATOM     42  H   UNL A   1      35.679  33.759  30.387  1.00  0.00     0.163 HD
ATOM     43  O   UNL A   1      35.373  32.019  32.133  1.00  0.00    -0.269 OA
BRANCH  41  44
ATOM     44  C   UNL A   1      37.344  31.075  31.301  1.00  0.00     0.039 A 
ATOM     45  C   UNL A   1      37.181  29.718  31.011  1.00  0.00     0.014 A 
ATOM     46  C   UNL A   1      38.597  31.612  31.573  1.00  0.00     0.014 A 
ATOM     47  C   UNL A   1      38.318  28.920  30.944  1.00  0.00     0.010 A 
ATOM     48  C   UNL A   1      39.710  30.890  31.268  1.00  0.00     0.010 A 
ATOM     49  C   UNL A   1      39.579  29.525  31.067  1.00  0.00    -0.014 A 
BRANCH  49  50
ATOM     50  C   UNL A   1      40.817  28.781  30.906  1.00  0.00     0.031 A 
ATOM     51  C   UNL A   1      41.520  28.526  32.189  1.00  0.00     0.074 A 
ATOM     52  C   UNL A   1      41.130  28.179  29.736  1.00  0.00     0.049 A 
ATOM     53  N   UNL A   1      42.624  29.051  32.600  1.00  0.00    -0.248 NA
ATOM     54  C   UNL A   1      40.829  27.728  33.217  1.00  0.00     0.031 C 
ATOM     55  C   UNL A   1      40.310  28.082  28.515  1.00  0.00     0.029 A 
ATOM     56  N   UNL A   1      42.217  27.426  29.415  1.00  0.00    -0.354 N 
ATOM     57  C   UNL A   1      42.888  28.463  33.836  1.00  0.00     0.074 A 
ATOM     58  C   UNL A   1      41.661  27.845  34.255  1.00  0.00     0.031 C 
ATOM     59  C   UNL A   1      40.810  27.132  27.696  1.00  0.00     0.029 A 
ATOM     60  C   UNL A   1      42.083  26.700  28.232  1.00  0.00     0.049 A 
ATOM     61  H   UNL A   1      43.029  27.395  29.971  1.00  0.00     0.167 HD
ATOM     62  C   UNL A   1      44.176  28.271  34.240  1.00  0.00     0.037 A 
ATOM     63  C   UNL A   1      42.972  25.799  27.746  1.00  0.00     0.037 A 
ATOM     64  C   UNL A   1      45.074  29.011  33.389  1.00  0.00     0.049 A 
ATOM     65  C   UNL A   1      44.269  26.095  28.394  1.00  0.00     0.074 A 
ATOM     66  C   UNL A   1      45.421  30.330  33.210  1.00  0.00     0.029 A 
ATOM     67  N   UNL A   1      45.421  28.333  32.249  1.00  0.00    -0.354 N 
ATOM     68  N   UNL A   1      44.928  27.207  28.209  1.00  0.00    -0.248 NA
ATOM     69  C   UNL A   1      44.655  25.326  29.570  1.00  0.00     0.031 C 
ATOM     70  C   UNL A   1      45.783  30.453  31.834  1.00  0.00     0.029 A 
ATOM     71  C   UNL A   1      45.712  29.197  31.231  1.00  0.00     0.049 A 
ATOM     72  H   UNL A   1      45.458  27.352  32.173  1.00  0.00     0.167 HD
ATOM     73  C   UNL A   1      45.500  27.480  29.437  1.00  0.00     0.074 A 
ATOM     74  C   UNL A   1      45.436  26.224  30.177  1.00  0.00     0.031 C 
ATOM     75  C   UNL A   1      45.674  28.769  29.850  1.00  0.00     0.037 A 
BRANCH  62  76
ATOM     76  C   UNL A   1      44.683  27.069  35.016  1.00  0.00     0.064 A 
ATOM     77  C   UNL A   1      45.493  27.289  36.152  1.00  0.00     0.173 A 
ATOM     78  C   UNL A   1      44.687  25.746  34.524  1.00  0.00     0.173 A 
ATOM     79  F   UNL A   1      45.585  28.511  36.700  1.00  0.00    -0.203 F 
ATOM     80  C   UNL A   1      46.299  26.284  36.697  1.00  0.00     0.198 A 
ATOM     81  C   UNL A   1      45.454  24.734  35.102  1.00  0.00     0.198 A 
ATOM     82  F   UNL A   1      44.048  25.395  33.404  1.00  0.00    -0.203 F 
ATOM     83  F   UNL A   1      47.142  26.573  37.697  1.00  0.00    -0.200 F 
ATOM     84  C   UNL A   1      46.283  25.008  36.167  1.00  0.00     0.200 A 
ATOM     85  F   UNL A   1      45.440  23.508  34.557  1.00  0.00    -0.200 F 
ATOM     86  F   UNL A   1      47.094  24.057  36.647  1.00  0.00    -0.200 F 
ENDBRANCH  62  76
BRANCH  63  87
ATOM     87  C   UNL A   1      42.709  24.523  27.039  1.00  0.00     0.064 A 
ATOM     88  C   UNL A   1      43.126  24.328  25.712  1.00  0.00     0.173 A 
ATOM     89  C   UNL A   1      42.328  23.370  27.752  1.00  0.00     0.173 A 
ATOM     90  F   UNL A   1      43.542  25.370  24.978  1.00  0.00    -0.203 F 
ATOM     91  C   UNL A   1      43.197  23.050  25.144  1.00  0.00     0.198 A 
ATOM     92  C   UNL A   1      42.400  22.095  27.186  1.00  0.00     0.198 A 
ATOM     93  F   UNL A   1      41.977  23.450  29.044  1.00  0.00    -0.203 F 
ATOM     94  F   UNL A   1      43.665  22.895  23.898  1.00  0.00    -0.200 F 
ATOM     95  C   UNL A   1      42.849  21.934  25.888  1.00  0.00     0.200 A 
ATOM     96  F   UNL A   1      42.100  21.020  27.929  1.00  0.00    -0.200 F 
ATOM     97  F   UNL A   1      42.988  20.704  25.372  1.00  0.00    -0.200 F 
ENDBRANCH  63  87
BRANCH  75  98
ATOM     98  C   UNL A   1      45.679  29.841  28.804  1.00  0.00     0.064 A 
ATOM     99  C   UNL A   1      44.580  30.655  28.484  1.00  0.00     0.173 A 
ATOM    100  C   UNL A   1      46.905  30.140  28.198  1.00  0.00     0.173 A 
ATOM    101  F   UNL A   1      43.392  30.473  29.071  1.00  0.00    -0.203 F 
ATOM    102  C   UNL A   1      44.709  31.714  27.585  1.00  0.00     0.198 A 
ATOM    103  C   UNL A   1      47.040  31.216  27.330  1.00  0.00     0.198 A 
ATOM    104  F   UNL A   1      47.994  29.415  28.501  1.00  0.00    -0.203 F 
ATOM    105  F   UNL A   1      43.649  32.482  27.291  1.00  0.00    -0.200 F 
ATOM    106  C   UNL A   1      45.942  32.001  27.019  1.00  0.00     0.200 A 
ATOM    107  F   UNL A   1      48.244  31.512  26.821  1.00  0.00    -0.200 F 
ATOM    108  F   UNL A   1      46.079  33.048  26.192  1.00  0.00    -0.200 F 
ENDBRANCH  75  98
ENDBRANCH  49  50
ENDBRANCH  41  44
ENDBRANCH  39  40
ENDBRANCH  38  39
ENDBRANCH  37  38
ENDBRANCH   1  37
TORSDOF 18
ENDMDL
