MODEL 1
REMARK VINA RESULT:     -11.4      0.000      0.000
REMARK SMILES C[C@@H](O)[C@H](C)[N@@H+]1CCOC[C@@H]1C(=O)NCCCCCCNC(=O)c1ccc(-c2c3nc(c(-c4c(F)c(F)c(F)c(F)c4F)c4ccc([nH]4)c(-c4c(F)c(F)c(F)c(F)c4F)c4nc(c(-c5c(F)c(F)c(F)c(F)c5F)c5ccc2[nH]5)C=C4)C=C3)cc1
REMARK SMILES IDX 17 1 16 2 15 3 14 4 12 5 13 6 11 8 6 9 7 10 8 12 10 13 9 14
REMARK SMILES IDX 4 15 5 16 2 17 1 18 3 19 18 21 19 22 20 23 21 24 22 25 23 27
REMARK SMILES IDX 24 28 25 29 86 30 26 31 85 32 27 33 28 34 29 35 79 36 30 37
REMARK SMILES IDX 84 38 78 39 80 40 31 41 83 42 77 43 76 44 32 46 64 47 44 48
REMARK SMILES IDX 63 49 45 50 48 51 62 52 81 53 46 54 47 55 61 57 82 58 49 59
REMARK SMILES IDX 33 60 34 61 42 62 35 63 36 64 40 65 43 66 37 67 38 68 41 69
REMARK SMILES IDX 39 70 65 71 66 72 74 73 67 74 68 75 72 76 75 77 69 78 70 79
REMARK SMILES IDX 73 80 71 81 50 82 51 83 59 84 52 85 53 86 57 87 60 88 54 89
REMARK SMILES IDX 55 90 58 91 56 92
REMARK H PARENT 14 7 6 11 3 20 21 26 80 45 48 56
REMARK Flexibility Score: inf
ROOT
ATOM      1  C   UNL A   1      32.132  29.386  27.175  1.00  0.00     0.002 C 
ENDROOT
BRANCH   1   2
ATOM      2  C   UNL A   1      33.541  28.788  27.172  1.00  0.00     0.021 C 
BRANCH   2   3
ATOM      3  C   UNL A   1      33.664  27.451  26.436  1.00  0.00     0.116 C 
BRANCH   3   4
ATOM      4  N   UNL A   1      32.432  26.697  26.561  1.00  0.00    -0.351 N 
ATOM      5  C   UNL A   1      31.768  25.950  25.625  1.00  0.00     0.280 C 
ATOM      6  O   UNL A   1      30.657  25.518  25.944  1.00  0.00    -0.268 OA
ATOM      7  H   UNL A   1      32.011  26.725  27.451  1.00  0.00     0.163 HD
BRANCH   5   8
ATOM      8  C   UNL A   1      32.446  25.585  24.292  1.00  0.00     0.300 C 
ATOM      9  N   UNL A   1      32.818  26.727  23.403  1.00  0.00    -0.317 N 
ATOM     10  C   UNL A   1      33.458  26.200  22.191  1.00  0.00     0.292 C 
ATOM     11  H   UNL A   1      33.506  27.278  23.917  1.00  0.00     0.349 HD
ATOM     12  C   UNL A   1      32.738  25.015  21.527  1.00  0.00     0.221 C 
ATOM     13  C   UNL A   1      31.694  24.449  23.577  1.00  0.00     0.235 C 
ATOM     14  O   UNL A   1      32.448  23.962  22.452  1.00  0.00    -0.369 OA
BRANCH   9  15
ATOM     15  C   UNL A   1      31.890  27.865  23.254  1.00  0.00     0.210 C 
ATOM     16  C   UNL A   1      32.733  29.053  22.736  1.00  0.00     0.078 C 
BRANCH  15  17
ATOM     17  C   UNL A   1      30.529  27.790  22.478  1.00  0.00     0.169 C 
ATOM     18  C   UNL A   1      29.273  27.588  23.321  1.00  0.00     0.045 C 
BRANCH  17  19
ATOM     19  O   UNL A   1      30.362  28.902  21.609  1.00  0.00    -0.387 OA
ATOM     20  H   UNL A   1      30.119  29.683  22.130  1.00  0.00     0.211 HD
ENDBRANCH  17  19
ENDBRANCH  15  17
ENDBRANCH   9  15
ENDBRANCH   5   8
ENDBRANCH   3   4
ENDBRANCH   2   3
ENDBRANCH   1   2
BRANCH   1  21
ATOM     21  C   UNL A   1      31.912  30.514  26.165  1.00  0.00     0.002 C 
BRANCH  21  22
ATOM     22  C   UNL A   1      31.572  31.876  26.776  1.00  0.00     0.021 C 
BRANCH  22  23
ATOM     23  C   UNL A   1      32.762  32.621  27.375  1.00  0.00     0.116 C 
BRANCH  23  24
ATOM     24  N   UNL A   1      32.465  34.026  27.612  1.00  0.00    -0.352 N 
ATOM     25  C   UNL A   1      33.002  34.891  28.537  1.00  0.00     0.251 C 
ATOM     26  H   UNL A   1      31.780  34.415  27.023  1.00  0.00     0.163 HD
ATOM     27  O   UNL A   1      32.489  35.983  28.737  1.00  0.00    -0.269 OA
BRANCH  25  28
ATOM     28  C   UNL A   1      34.195  34.483  29.308  1.00  0.00     0.039 A 
ATOM     29  C   UNL A   1      34.020  33.924  30.576  1.00  0.00     0.014 A 
ATOM     30  C   UNL A   1      35.476  34.638  28.774  1.00  0.00     0.014 A 
ATOM     31  C   UNL A   1      35.128  33.436  31.273  1.00  0.00     0.010 A 
ATOM     32  C   UNL A   1      36.569  34.093  29.439  1.00  0.00     0.010 A 
ATOM     33  C   UNL A   1      36.404  33.471  30.686  1.00  0.00    -0.014 A 
BRANCH  33  34
ATOM     34  C   UNL A   1      37.572  32.819  31.333  1.00  0.00     0.031 A 
ATOM     35  C   UNL A   1      38.255  31.656  30.675  1.00  0.00     0.074 A 
ATOM     36  C   UNL A   1      37.955  33.224  32.560  1.00  0.00     0.049 A 
ATOM     37  N   UNL A   1      39.208  30.888  31.135  1.00  0.00    -0.248 NA
ATOM     38  C   UNL A   1      37.788  31.296  29.327  1.00  0.00     0.031 C 
ATOM     39  C   UNL A   1      37.350  34.321  33.316  1.00  0.00     0.029 A 
ATOM     40  N   UNL A   1      38.934  32.744  33.397  1.00  0.00    -0.354 N 
ATOM     41  C   UNL A   1      39.450  29.949  30.141  1.00  0.00     0.074 A 
ATOM     42  C   UNL A   1      38.509  30.213  29.073  1.00  0.00     0.031 C 
ATOM     43  C   UNL A   1      37.977  34.440  34.497  1.00  0.00     0.029 A 
ATOM     44  C   UNL A   1      38.992  33.398  34.605  1.00  0.00     0.049 A 
ATOM     45  H   UNL A   1      39.536  32.004  33.154  1.00  0.00     0.167 HD
ATOM     46  C   UNL A   1      40.384  28.969  30.116  1.00  0.00     0.037 A 
ATOM     47  C   UNL A   1      39.759  33.166  35.686  1.00  0.00     0.037 A 
ATOM     48  C   UNL A   1      41.323  28.717  31.180  1.00  0.00     0.049 A 
ATOM     49  C   UNL A   1      40.750  32.033  35.656  1.00  0.00     0.074 A 
ATOM     50  C   UNL A   1      42.345  27.786  31.224  1.00  0.00     0.029 A 
ATOM     51  N   UNL A   1      41.344  29.392  32.391  1.00  0.00    -0.354 N 
ATOM     52  N   UNL A   1      41.018  31.196  34.683  1.00  0.00    -0.248 NA
ATOM     53  C   UNL A   1      41.542  31.811  36.873  1.00  0.00     0.031 C 
ATOM     54  C   UNL A   1      42.944  27.855  32.486  1.00  0.00     0.029 A 
ATOM     55  C   UNL A   1      42.337  28.871  33.207  1.00  0.00     0.049 A 
ATOM     56  H   UNL A   1      40.744  30.134  32.636  1.00  0.00     0.167 HD
ATOM     57  C   UNL A   1      42.021  30.364  35.162  1.00  0.00     0.074 A 
ATOM     58  C   UNL A   1      42.328  30.808  36.504  1.00  0.00     0.031 C 
ATOM     59  C   UNL A   1      42.632  29.324  34.542  1.00  0.00     0.037 A 
BRANCH  46  60
ATOM     60  C   UNL A   1      40.434  28.085  28.903  1.00  0.00     0.064 A 
ATOM     61  C   UNL A   1      39.713  26.883  28.835  1.00  0.00     0.173 A 
ATOM     62  C   UNL A   1      41.180  28.465  27.776  1.00  0.00     0.173 A 
ATOM     63  F   UNL A   1      38.990  26.468  29.886  1.00  0.00    -0.203 F 
ATOM     64  C   UNL A   1      39.764  26.079  27.699  1.00  0.00     0.198 A 
ATOM     65  C   UNL A   1      41.201  27.675  26.629  1.00  0.00     0.198 A 
ATOM     66  F   UNL A   1      41.882  29.609  27.783  1.00  0.00    -0.203 F 
ATOM     67  F   UNL A   1      39.109  24.910  27.678  1.00  0.00    -0.200 F 
ATOM     68  C   UNL A   1      40.501  26.479  26.595  1.00  0.00     0.200 A 
ATOM     69  F   UNL A   1      41.902  28.072  25.558  1.00  0.00    -0.200 F 
ATOM     70  F   UNL A   1      40.542  25.709  25.499  1.00  0.00    -0.200 F 
ENDBRANCH  46  60
BRANCH  47  71
ATOM     71  C   UNL A   1      39.619  34.022  36.894  1.00  0.00     0.064 A 
ATOM     72  C   UNL A   1      38.819  33.621  37.971  1.00  0.00     0.173 A 
ATOM     73  C   UNL A   1      40.278  35.257  36.997  1.00  0.00     0.173 A 
ATOM     74  F   UNL A   1      38.150  32.459  37.912  1.00  0.00    -0.203 F 
ATOM     75  C   UNL A   1      38.664  34.429  39.096  1.00  0.00     0.198 A 
ATOM     76  C   UNL A   1      40.149  36.050  38.135  1.00  0.00     0.198 A 
ATOM     77  F   UNL A   1      41.060  35.688  35.995  1.00  0.00    -0.203 F 
ATOM     78  F   UNL A   1      37.855  34.042  40.090  1.00  0.00    -0.200 F 
ATOM     79  C   UNL A   1      39.336  35.640  39.180  1.00  0.00     0.200 A 
ATOM     80  F   UNL A   1      40.812  37.211  38.218  1.00  0.00    -0.200 F 
ATOM     81  F   UNL A   1      39.192  36.414  40.264  1.00  0.00    -0.200 F 
ENDBRANCH  47  71
BRANCH  59  82
ATOM     82  C   UNL A   1      43.708  28.602  35.300  1.00  0.00     0.064 A 
ATOM     83  C   UNL A   1      43.413  27.524  36.148  1.00  0.00     0.173 A 
ATOM     84  C   UNL A   1      45.056  28.951  35.129  1.00  0.00     0.173 A 
ATOM     85  F   UNL A   1      42.138  27.162  36.359  1.00  0.00    -0.203 F 
ATOM     86  C   UNL A   1      44.425  26.833  36.807  1.00  0.00     0.198 A 
ATOM     87  C   UNL A   1      46.069  28.238  35.763  1.00  0.00     0.198 A 
ATOM     88  F   UNL A   1      45.394  29.971  34.325  1.00  0.00    -0.203 F 
ATOM     89  F   UNL A   1      44.117  25.831  37.642  1.00  0.00    -0.200 F 
ATOM     90  C   UNL A   1      45.752  27.183  36.606  1.00  0.00     0.200 A 
ATOM     91  F   UNL A   1      47.351  28.567  35.556  1.00  0.00    -0.200 F 
ATOM     92  F   UNL A   1      46.727  26.504  37.227  1.00  0.00    -0.200 F 
ENDBRANCH  59  82
ENDBRANCH  33  34
ENDBRANCH  25  28
ENDBRANCH  23  24
ENDBRANCH  22  23
ENDBRANCH  21  22
ENDBRANCH   1  21
TORSDOF 16
ENDMDL
MODEL 2
REMARK VINA RESULT:     -11.3      1.294      2.456
REMARK SMILES C[C@@H](O)[C@H](C)[N@@H+]1CCOC[C@@H]1C(=O)NCCCCCCNC(=O)c1ccc(-c2c3nc(c(-c4c(F)c(F)c(F)c(F)c4F)c4ccc([nH]4)c(-c4c(F)c(F)c(F)c(F)c4F)c4nc(c(-c5c(F)c(F)c(F)c(F)c5F)c5ccc2[nH]5)C=C4)C=C3)cc1
REMARK SMILES IDX 17 1 16 2 15 3 14 4 12 5 13 6 11 8 6 9 7 10 8 12 10 13 9 14
REMARK SMILES IDX 4 15 5 16 2 17 1 18 3 19 18 21 19 22 20 23 21 24 22 25 23 27
REMARK SMILES IDX 24 28 25 29 86 30 26 31 85 32 27 33 28 34 29 35 79 36 30 37
REMARK SMILES IDX 84 38 78 39 80 40 31 41 83 42 77 43 76 44 32 46 64 47 44 48
REMARK SMILES IDX 63 49 45 50 48 51 62 52 81 53 46 54 47 55 61 57 82 58 49 59
REMARK SMILES IDX 33 60 34 61 42 62 35 63 36 64 40 65 43 66 37 67 38 68 41 69
REMARK SMILES IDX 39 70 65 71 66 72 74 73 67 74 68 75 72 76 75 77 69 78 70 79
REMARK SMILES IDX 73 80 71 81 50 82 51 83 59 84 52 85 53 86 57 87 60 88 54 89
REMARK SMILES IDX 55 90 58 91 56 92
REMARK H PARENT 14 7 6 11 3 20 21 26 80 45 48 56
REMARK Flexibility Score: inf
ROOT
ATOM      1  C   UNL A   1      31.765  29.142  27.257  1.00  0.00     0.002 C 
ENDROOT
BRANCH   1   2
ATOM      2  C   UNL A   1      32.324  27.772  26.869  1.00  0.00     0.021 C 
BRANCH   2   3
ATOM      3  C   UNL A   1      31.358  26.893  26.070  1.00  0.00     0.116 C 
BRANCH   3   4
ATOM      4  N   UNL A   1      31.092  25.662  26.788  1.00  0.00    -0.351 N 
ATOM      5  C   UNL A   1      31.773  24.474  26.765  1.00  0.00     0.280 C 
ATOM      6  O   UNL A   1      31.258  23.526  27.364  1.00  0.00    -0.268 OA
ATOM      7  H   UNL A   1      30.306  25.683  27.381  1.00  0.00     0.163 HD
BRANCH   5   8
ATOM      8  C   UNL A   1      33.165  24.384  26.115  1.00  0.00     0.300 C 
ATOM      9  N   UNL A   1      33.199  24.338  24.622  1.00  0.00    -0.317 N 
ATOM     10  C   UNL A   1      34.596  24.265  24.178  1.00  0.00     0.292 C 
ATOM     11  H   UNL A   1      32.804  25.222  24.300  1.00  0.00     0.349 HD
ATOM     12  C   UNL A   1      35.472  23.241  24.919  1.00  0.00     0.221 C 
ATOM     13  C   UNL A   1      34.030  23.310  26.798  1.00  0.00     0.235 C 
ATOM     14  O   UNL A   1      35.393  23.381  26.341  1.00  0.00    -0.369 OA
BRANCH   9  15
ATOM     15  C   UNL A   1      32.200  23.528  23.897  1.00  0.00     0.210 C 
ATOM     16  C   UNL A   1      31.581  24.455  22.826  1.00  0.00     0.078 C 
BRANCH  15  17
ATOM     17  C   UNL A   1      32.497  22.116  23.283  1.00  0.00     0.169 C 
ATOM     18  C   UNL A   1      32.370  20.922  24.226  1.00  0.00     0.045 C 
BRANCH  17  19
ATOM     19  O   UNL A   1      31.739  21.891  22.103  1.00  0.00    -0.387 OA
ATOM     20  H   UNL A   1      30.955  22.462  22.109  1.00  0.00     0.211 HD
ENDBRANCH  17  19
ENDBRANCH  15  17
ENDBRANCH   9  15
ENDBRANCH   5   8
ENDBRANCH   3   4
ENDBRANCH   2   3
ENDBRANCH   1   2
BRANCH   1  21
ATOM     21  C   UNL A   1      31.996  30.245  26.222  1.00  0.00     0.002 C 
BRANCH  21  22
ATOM     22  C   UNL A   1      31.657  31.661  26.696  1.00  0.00     0.021 C 
BRANCH  22  23
ATOM     23  C   UNL A   1      32.825  32.421  27.320  1.00  0.00     0.116 C 
BRANCH  23  24
ATOM     24  N   UNL A   1      32.501  33.819  27.563  1.00  0.00    -0.352 N 
ATOM     25  C   UNL A   1      33.017  34.689  28.495  1.00  0.00     0.251 C 
ATOM     26  H   UNL A   1      31.810  34.198  26.974  1.00  0.00     0.163 HD
ATOM     27  O   UNL A   1      32.482  35.770  28.699  1.00  0.00    -0.269 OA
BRANCH  25  28
ATOM     28  C   UNL A   1      34.215  34.300  29.269  1.00  0.00     0.039 A 
ATOM     29  C   UNL A   1      34.046  33.713  30.524  1.00  0.00     0.014 A 
ATOM     30  C   UNL A   1      35.495  34.501  28.748  1.00  0.00     0.014 A 
ATOM     31  C   UNL A   1      35.162  33.243  31.221  1.00  0.00     0.010 A 
ATOM     32  C   UNL A   1      36.598  33.973  29.411  1.00  0.00     0.010 A 
ATOM     33  C   UNL A   1      36.440  33.323  30.646  1.00  0.00    -0.014 A 
BRANCH  33  34
ATOM     34  C   UNL A   1      37.621  32.692  31.289  1.00  0.00     0.031 A 
ATOM     35  C   UNL A   1      38.311  31.529  30.639  1.00  0.00     0.074 A 
ATOM     36  C   UNL A   1      38.011  33.115  32.508  1.00  0.00     0.049 A 
ATOM     37  N   UNL A   1      39.277  30.777  31.099  1.00  0.00    -0.248 NA
ATOM     38  C   UNL A   1      37.836  31.147  29.300  1.00  0.00     0.031 C 
ATOM     39  C   UNL A   1      37.400  34.214  33.257  1.00  0.00     0.029 A 
ATOM     40  N   UNL A   1      39.001  32.656  33.342  1.00  0.00    -0.354 N 
ATOM     41  C   UNL A   1      39.520  29.829  30.115  1.00  0.00     0.074 A 
ATOM     42  C   UNL A   1      38.567  30.070  29.052  1.00  0.00     0.031 C 
ATOM     43  C   UNL A   1      38.036  34.355  34.430  1.00  0.00     0.029 A 
ATOM     44  C   UNL A   1      39.063  33.325  34.542  1.00  0.00     0.049 A 
ATOM     45  H   UNL A   1      39.610  31.920  33.103  1.00  0.00     0.167 HD
ATOM     46  C   UNL A   1      40.465  28.858  30.093  1.00  0.00     0.037 A 
ATOM     47  C   UNL A   1      39.842  33.114  35.619  1.00  0.00     0.037 A 
ATOM     48  C   UNL A   1      41.416  28.630  31.151  1.00  0.00     0.049 A 
ATOM     49  C   UNL A   1      40.845  31.992  35.593  1.00  0.00     0.074 A 
ATOM     50  C   UNL A   1      42.448  27.711  31.198  1.00  0.00     0.029 A 
ATOM     51  N   UNL A   1      41.440  29.319  32.354  1.00  0.00    -0.354 N 
ATOM     52  N   UNL A   1      41.113  31.146  34.628  1.00  0.00    -0.248 NA
ATOM     53  C   UNL A   1      41.650  31.793  36.806  1.00  0.00     0.031 C 
ATOM     54  C   UNL A   1      43.058  27.801  32.454  1.00  0.00     0.029 A 
ATOM     55  C   UNL A   1      42.445  28.818  33.167  1.00  0.00     0.049 A 
ATOM     56  H   UNL A   1      40.834  30.057  32.596  1.00  0.00     0.167 HD
ATOM     57  C   UNL A   1      42.130  30.331  35.107  1.00  0.00     0.074 A 
ATOM     58  C   UNL A   1      42.444  30.795  36.442  1.00  0.00     0.031 C 
ATOM     59  C   UNL A   1      42.747  29.291  34.495  1.00  0.00     0.037 A 
BRANCH  46  60
ATOM     60  C   UNL A   1      40.515  27.962  28.890  1.00  0.00     0.064 A 
ATOM     61  C   UNL A   1      39.781  26.766  28.830  1.00  0.00     0.173 A 
ATOM     62  C   UNL A   1      41.273  28.321  27.765  1.00  0.00     0.173 A 
ATOM     63  F   UNL A   1      39.046  26.371  29.880  1.00  0.00    -0.203 F 
ATOM     64  C   UNL A   1      39.832  25.949  27.703  1.00  0.00     0.198 A 
ATOM     65  C   UNL A   1      41.293  27.518  26.626  1.00  0.00     0.198 A 
ATOM     66  F   UNL A   1      41.986  29.457  27.764  1.00  0.00    -0.203 F 
ATOM     67  F   UNL A   1      39.164  24.787  27.689  1.00  0.00    -0.200 F 
ATOM     68  C   UNL A   1      40.581  26.330  26.600  1.00  0.00     0.200 A 
ATOM     69  F   UNL A   1      42.006  27.896  25.556  1.00  0.00    -0.200 F 
ATOM     70  F   UNL A   1      40.622  25.547  25.513  1.00  0.00    -0.200 F 
ENDBRANCH  46  60
BRANCH  47  71
ATOM     71  C   UNL A   1      39.703  33.983  36.818  1.00  0.00     0.064 A 
ATOM     72  C   UNL A   1      40.378  35.208  36.901  1.00  0.00     0.173 A 
ATOM     73  C   UNL A   1      38.898  33.609  37.904  1.00  0.00     0.173 A 
ATOM     74  F   UNL A   1      41.178  35.600  35.897  1.00  0.00    -0.203 F 
ATOM     75  C   UNL A   1      40.271  36.016  38.031  1.00  0.00     0.198 A 
ATOM     76  C   UNL A   1      38.766  34.432  39.021  1.00  0.00     0.198 A 
ATOM     77  F   UNL A   1      38.227  32.447  37.876  1.00  0.00    -0.203 F 
ATOM     78  F   UNL A   1      40.966  37.159  38.103  1.00  0.00    -0.200 F 
ATOM     79  C   UNL A   1      39.459  35.631  39.087  1.00  0.00     0.200 A 
ATOM     80  F   UNL A   1      37.967  34.063  40.031  1.00  0.00    -0.200 F 
ATOM     81  F   UNL A   1      39.351  36.411  40.171  1.00  0.00    -0.200 F 
ENDBRANCH  47  71
BRANCH  59  82
ATOM     82  C   UNL A   1      43.837  28.589  35.252  1.00  0.00     0.064 A 
ATOM     83  C   UNL A   1      45.182  28.969  35.125  1.00  0.00     0.173 A 
ATOM     84  C   UNL A   1      43.527  27.566  36.162  1.00  0.00     0.173 A 
ATOM     85  F   UNL A   1      45.532  29.929  34.255  1.00  0.00    -0.203 F 
ATOM     86  C   UNL A   1      46.177  28.341  35.869  1.00  0.00     0.198 A 
ATOM     87  C   UNL A   1      44.520  26.963  36.929  1.00  0.00     0.198 A 
ATOM     88  F   UNL A   1      42.257  27.168  36.325  1.00  0.00    -0.203 F 
ATOM     89  F   UNL A   1      47.458  28.694  35.703  1.00  0.00    -0.200 F 
ATOM     90  C   UNL A   1      45.844  27.347  36.778  1.00  0.00     0.200 A 
ATOM     91  F   UNL A   1      44.195  26.014  37.818  1.00  0.00    -0.200 F 
ATOM     92  F   UNL A   1      46.801  26.757  37.507  1.00  0.00    -0.200 F 
ENDBRANCH  59  82
ENDBRANCH  33  34
ENDBRANCH  25  28
ENDBRANCH  23  24
ENDBRANCH  22  23
ENDBRANCH  21  22
ENDBRANCH   1  21
TORSDOF 16
ENDMDL
MODEL 3
REMARK VINA RESULT:     -11.2      0.471      7.625
REMARK SMILES C[C@@H](O)[C@H](C)[N@@H+]1CCOC[C@@H]1C(=O)NCCCCCCNC(=O)c1ccc(-c2c3nc(c(-c4c(F)c(F)c(F)c(F)c4F)c4ccc([nH]4)c(-c4c(F)c(F)c(F)c(F)c4F)c4nc(c(-c5c(F)c(F)c(F)c(F)c5F)c5ccc2[nH]5)C=C4)C=C3)cc1
REMARK SMILES IDX 17 1 16 2 15 3 14 4 12 5 13 6 11 8 6 9 7 10 8 12 10 13 9 14
REMARK SMILES IDX 4 15 5 16 2 17 1 18 3 19 18 21 19 22 20 23 21 24 22 25 23 27
REMARK SMILES IDX 24 28 25 29 86 30 26 31 85 32 27 33 28 34 29 35 79 36 30 37
REMARK SMILES IDX 84 38 78 39 80 40 31 41 83 42 77 43 76 44 32 46 64 47 44 48
REMARK SMILES IDX 63 49 45 50 48 51 62 52 81 53 46 54 47 55 61 57 82 58 49 59
REMARK SMILES IDX 33 60 34 61 42 62 35 63 36 64 40 65 43 66 37 67 38 68 41 69
REMARK SMILES IDX 39 70 65 71 66 72 74 73 67 74 68 75 72 76 75 77 69 78 70 79
REMARK SMILES IDX 73 80 71 81 50 82 51 83 59 84 52 85 53 86 57 87 60 88 54 89
REMARK SMILES IDX 55 90 58 91 56 92
REMARK H PARENT 14 7 6 11 3 20 21 26 80 45 48 56
REMARK Flexibility Score: inf
ROOT
ATOM      1  C   UNL A   1      31.914  29.732  27.112  1.00  0.00     0.002 C 
ENDROOT
BRANCH   1   2
ATOM      2  C   UNL A   1      33.350  29.204  27.144  1.00  0.00     0.021 C 
BRANCH   2   3
ATOM      3  C   UNL A   1      33.516  27.778  26.611  1.00  0.00     0.116 C 
BRANCH   3   4
ATOM      4  N   UNL A   1      32.297  27.022  26.817  1.00  0.00    -0.351 N 
ATOM      5  C   UNL A   1      31.645  26.169  25.966  1.00  0.00     0.280 C 
ATOM      6  O   UNL A   1      30.542  25.756  26.330  1.00  0.00    -0.268 OA
ATOM      7  H   UNL A   1      31.875  27.138  27.699  1.00  0.00     0.163 HD
BRANCH   5   8
ATOM      8  C   UNL A   1      32.330  25.675  24.680  1.00  0.00     0.300 C 
ATOM      9  N   UNL A   1      32.710  26.724  23.685  1.00  0.00    -0.317 N 
ATOM     10  C   UNL A   1      33.355  26.080  22.535  1.00  0.00     0.292 C 
ATOM     11  H   UNL A   1      33.396  27.321  24.148  1.00  0.00     0.349 HD
ATOM     12  C   UNL A   1      32.637  24.837  21.985  1.00  0.00     0.221 C 
ATOM     13  C   UNL A   1      31.580  24.476  24.074  1.00  0.00     0.235 C 
ATOM     14  O   UNL A   1      32.339  23.880  23.006  1.00  0.00    -0.369 OA
BRANCH   9  15
ATOM     15  C   UNL A   1      31.785  27.844  23.421  1.00  0.00     0.210 C 
ATOM     16  C   UNL A   1      32.652  29.015  22.906  1.00  0.00     0.078 C 
BRANCH  15  17
ATOM     17  C   UNL A   1      30.481  27.718  22.559  1.00  0.00     0.169 C 
ATOM     18  C   UNL A   1      29.161  27.659  23.324  1.00  0.00     0.045 C 
BRANCH  17  19
ATOM     19  O   UNL A   1      30.421  28.720  21.555  1.00  0.00    -0.387 OA
ATOM     20  H   UNL A   1      30.153  28.319  20.714  1.00  0.00     0.211 HD
ENDBRANCH  17  19
ENDBRANCH  15  17
ENDBRANCH   9  15
ENDBRANCH   5   8
ENDBRANCH   3   4
ENDBRANCH   2   3
ENDBRANCH   1   2
BRANCH   1  21
ATOM     21  C   UNL A   1      31.649  30.801  26.050  1.00  0.00     0.002 C 
BRANCH  21  22
ATOM     22  C   UNL A   1      31.430  32.216  26.593  1.00  0.00     0.021 C 
BRANCH  22  23
ATOM     23  C   UNL A   1      32.627  32.806  27.335  1.00  0.00     0.116 C 
BRANCH  23  24
ATOM     24  N   UNL A   1      32.438  34.216  27.646  1.00  0.00    -0.352 N 
ATOM     25  C   UNL A   1      33.023  34.983  28.625  1.00  0.00     0.251 C 
ATOM     26  H   UNL A   1      31.796  34.690  27.070  1.00  0.00     0.163 HD
ATOM     27  O   UNL A   1      32.594  36.099  28.879  1.00  0.00    -0.269 OA
BRANCH  25  28
ATOM     28  C   UNL A   1      34.166  34.440  29.390  1.00  0.00     0.039 A 
ATOM     29  C   UNL A   1      33.926  33.839  30.627  1.00  0.00     0.014 A 
ATOM     30  C   UNL A   1      35.463  34.511  28.878  1.00  0.00     0.014 A 
ATOM     31  C   UNL A   1      34.978  33.227  31.312  1.00  0.00     0.010 A 
ATOM     32  C   UNL A   1      36.497  33.844  29.527  1.00  0.00     0.010 A 
ATOM     33  C   UNL A   1      36.261  33.180  30.742  1.00  0.00    -0.014 A 
BRANCH  33  34
ATOM     34  C   UNL A   1      37.360  32.403  31.369  1.00  0.00     0.031 A 
ATOM     35  C   UNL A   1      37.886  32.785  32.722  1.00  0.00     0.074 A 
ATOM     36  C   UNL A   1      37.943  31.407  30.673  1.00  0.00     0.049 A 
ATOM     37  N   UNL A   1      38.911  32.305  33.377  1.00  0.00    -0.248 NA
ATOM     38  C   UNL A   1      37.177  33.868  33.421  1.00  0.00     0.031 C 
ATOM     39  C   UNL A   1      37.543  30.963  29.337  1.00  0.00     0.029 A 
ATOM     40  N   UNL A   1      39.011  30.601  30.984  1.00  0.00    -0.354 N 
ATOM     41  C   UNL A   1      38.977  33.029  34.559  1.00  0.00     0.074 A 
ATOM     42  C   UNL A   1      37.920  34.016  34.510  1.00  0.00     0.031 C 
ATOM     43  C   UNL A   1      38.343  29.958  28.949  1.00  0.00     0.029 A 
ATOM     44  C   UNL A   1      39.345  29.721  29.983  1.00  0.00     0.049 A 
ATOM     45  H   UNL A   1      39.491  30.649  31.843  1.00  0.00     0.167 HD
ATOM     46  C   UNL A   1      39.832  32.872  35.598  1.00  0.00     0.037 A 
ATOM     47  C   UNL A   1      40.360  28.840  29.898  1.00  0.00     0.037 A 
ATOM     48  C   UNL A   1      40.878  31.882  35.644  1.00  0.00     0.049 A 
ATOM     49  C   UNL A   1      41.331  28.725  31.041  1.00  0.00     0.074 A 
ATOM     50  C   UNL A   1      41.757  31.606  36.675  1.00  0.00     0.029 A 
ATOM     51  N   UNL A   1      41.192  31.016  34.607  1.00  0.00    -0.354 N 
ATOM     52  N   UNL A   1      41.342  29.368  32.184  1.00  0.00    -0.248 NA
ATOM     53  C   UNL A   1      42.433  27.767  30.882  1.00  0.00     0.031 C 
ATOM     54  C   UNL A   1      42.644  30.615  36.240  1.00  0.00     0.029 A 
ATOM     55  C   UNL A   1      42.280  30.231  34.959  1.00  0.00     0.049 A 
ATOM     56  H   UNL A   1      40.713  30.965  33.748  1.00  0.00     0.167 HD
ATOM     57  C   UNL A   1      42.434  28.877  32.888  1.00  0.00     0.074 A 
ATOM     58  C   UNL A   1      43.052  27.870  32.051  1.00  0.00     0.031 C 
ATOM     59  C   UNL A   1      42.884  29.231  34.116  1.00  0.00     0.037 A 
BRANCH  46  60
ATOM     60  C   UNL A   1      39.680  33.798  36.771  1.00  0.00     0.064 A 
ATOM     61  C   UNL A   1      40.308  35.053  36.807  1.00  0.00     0.173 A 
ATOM     62  C   UNL A   1      38.863  33.443  37.856  1.00  0.00     0.173 A 
ATOM     63  F   UNL A   1      41.106  35.438  35.800  1.00  0.00    -0.203 F 
ATOM     64  C   UNL A   1      40.150  35.903  37.899  1.00  0.00     0.198 A 
ATOM     65  C   UNL A   1      38.681  34.311  38.931  1.00  0.00     0.198 A 
ATOM     66  F   UNL A   1      38.233  32.259  37.871  1.00  0.00    -0.203 F 
ATOM     67  F   UNL A   1      40.800  37.074  37.934  1.00  0.00    -0.200 F 
ATOM     68  C   UNL A   1      39.331  35.534  38.956  1.00  0.00     0.200 A 
ATOM     69  F   UNL A   1      37.877  33.959  39.944  1.00  0.00    -0.200 F 
ATOM     70  F   UNL A   1      39.173  36.357  40.002  1.00  0.00    -0.200 F 
ENDBRANCH  46  60
BRANCH  47  71
ATOM     71  C   UNL A   1      40.513  27.998  28.682  1.00  0.00     0.064 A 
ATOM     72  C   UNL A   1      41.278  28.438  27.594  1.00  0.00     0.173 A 
ATOM     73  C   UNL A   1      39.898  26.741  28.579  1.00  0.00     0.173 A 
ATOM     74  F   UNL A   1      41.868  29.643  27.634  1.00  0.00    -0.203 F 
ATOM     75  C   UNL A   1      41.406  27.665  26.442  1.00  0.00     0.198 A 
ATOM     76  C   UNL A   1      40.052  25.954  27.440  1.00  0.00     0.198 A 
ATOM     77  F   UNL A   1      39.156  26.270  29.593  1.00  0.00    -0.203 F 
ATOM     78  F   UNL A   1      42.104  28.131  25.398  1.00  0.00    -0.200 F 
ATOM     79  C   UNL A   1      40.799  26.420  26.369  1.00  0.00     0.200 A 
ATOM     80  F   UNL A   1      39.478  24.745  27.381  1.00  0.00    -0.200 F 
ATOM     81  F   UNL A   1      40.928  25.673  25.264  1.00  0.00    -0.200 F 
ENDBRANCH  47  71
BRANCH  59  82
ATOM     82  C   UNL A   1      44.093  28.515  34.644  1.00  0.00     0.064 A 
ATOM     83  C   UNL A   1      45.386  29.038  34.483  1.00  0.00     0.173 A 
ATOM     84  C   UNL A   1      43.954  27.324  35.372  1.00  0.00     0.173 A 
ATOM     85  F   UNL A   1      45.574  30.165  33.780  1.00  0.00    -0.203 F 
ATOM     86  C   UNL A   1      46.493  28.387  35.020  1.00  0.00     0.198 A 
ATOM     87  C   UNL A   1      45.059  26.693  35.936  1.00  0.00     0.198 A 
ATOM     88  F   UNL A   1      42.740  26.783  35.560  1.00  0.00    -0.203 F 
ATOM     89  F   UNL A   1      47.721  28.885  34.820  1.00  0.00    -0.200 F 
ATOM     90  C   UNL A   1      46.328  27.222  35.754  1.00  0.00     0.200 A 
ATOM     91  F   UNL A   1      44.897  25.576  36.658  1.00  0.00    -0.200 F 
ATOM     92  F   UNL A   1      47.394  26.607  36.285  1.00  0.00    -0.200 F 
ENDBRANCH  59  82
ENDBRANCH  33  34
ENDBRANCH  25  28
ENDBRANCH  23  24
ENDBRANCH  22  23
ENDBRANCH  21  22
ENDBRANCH   1  21
TORSDOF 16
ENDMDL
