MODEL 1
REMARK VINA RESULT:     -12.0      0.000      0.000
REMARK SMILES CC(=O)N[C@@H](CS[C@@H]1CC(=O)N(c2cccc3ccccc23)C1=O)C(=O)NCCCCCCNC(=O)c1ccc(-c2c3nc(c(-c4c(F)c(F)c(F)c(F)c4F)c4ccc([nH]4)c(-c4c(F)c(F)c(F)c(F)c4F)c4nc(c(-c5c(F)c(F)c(F)c(F)c5F)c5ccc2[nH]5)C=C4)C=C3)cc1
REMARK SMILES IDX 29 1 28 2 27 3 25 4 26 5 5 7 4 8 1 9 2 10 3 11 6 13 7 14
REMARK SMILES IDX 8 15 9 16 23 17 10 18 12 19 24 20 11 21 13 22 14 23 22 24
REMARK SMILES IDX 15 25 17 26 21 27 16 28 18 29 20 30 19 31 30 32 31 33 32 34
REMARK SMILES IDX 33 35 34 36 35 37 36 39 37 40 38 41 99 42 39 43 98 44 40 45
REMARK SMILES IDX 41 46 42 47 92 48 43 49 97 50 91 51 93 52 44 53 96 54 90 55
REMARK SMILES IDX 89 56 45 58 77 59 57 60 76 61 58 62 61 63 75 64 94 65 59 66
REMARK SMILES IDX 60 67 74 69 95 70 62 71 46 72 47 73 55 74 48 75 49 76 53 77
REMARK SMILES IDX 56 78 50 79 51 80 54 81 52 82 78 83 79 84 87 85 80 86 81 87
REMARK SMILES IDX 85 88 88 89 82 90 83 91 86 92 84 93 63 94 64 95 72 96 65 97
REMARK SMILES IDX 66 98 70 99 73 100 67 101 68 102 71 103 69 104
REMARK H PARENT 27 6 4 12 34 38 93 57 61 68
REMARK Flexibility Score: inf
ROOT
ATOM      1  C   UNL A   1      37.887  23.517  26.115  1.00  0.00     0.021 C 
ENDROOT
BRANCH   1   2
ATOM      2  C   UNL A   1      36.430  23.291  25.713  1.00  0.00     0.116 C 
BRANCH   2   3
ATOM      3  N   UNL A   1      35.597  22.883  26.817  1.00  0.00    -0.354 N 
ATOM      4  C   UNL A   1      34.423  22.222  26.922  1.00  0.00     0.243 C 
ATOM      5  O   UNL A   1      34.070  22.006  28.094  1.00  0.00    -0.273 OA
ATOM      6  H   UNL A   1      35.966  23.146  27.690  1.00  0.00     0.163 HD
BRANCH   4   7
ATOM      7  C   UNL A   1      33.420  21.886  25.784  1.00  0.00     0.181 C 
BRANCH   7   8
ATOM      8  N   UNL A   1      32.737  20.614  26.042  1.00  0.00    -0.344 N 
ATOM      9  C   UNL A   1      33.986  19.290  24.354  1.00  0.00     0.114 C 
ATOM     10  C   UNL A   1      32.955  19.404  25.443  1.00  0.00     0.217 C 
ATOM     11  O   UNL A   1      32.309  18.429  25.818  1.00  0.00    -0.275 OA
ATOM     12  H   UNL A   1      32.034  20.635  26.732  1.00  0.00     0.164 HD
ENDBRANCH   7   8
BRANCH   7  13
ATOM     13  C   UNL A   1      32.597  22.896  24.951  1.00  0.00     0.105 C 
BRANCH  13  14
ATOM     14  S   UNL A   1      32.067  22.827  23.193  1.00  0.00    -0.145 SA
BRANCH  14  15
ATOM     15  C   UNL A   1      31.715  24.526  22.625  1.00  0.00     0.146 C 
ATOM     16  C   UNL A   1      32.704  25.229  21.742  1.00  0.00     0.125 C 
ATOM     17  C   UNL A   1      31.466  25.490  23.744  1.00  0.00     0.247 C 
ATOM     18  C   UNL A   1      33.124  26.429  22.530  1.00  0.00     0.235 C 
ATOM     19  N   UNL A   1      32.462  26.439  23.733  1.00  0.00    -0.249 N 
ATOM     20  O   UNL A   1      30.453  25.446  24.431  1.00  0.00    -0.273 OA
ATOM     21  O   UNL A   1      33.935  27.217  22.063  1.00  0.00    -0.274 OA
BRANCH  19  22
ATOM     22  C   UNL A   1      32.615  27.436  24.748  1.00  0.00     0.060 A 
ATOM     23  C   UNL A   1      33.584  27.241  25.749  1.00  0.00     0.027 A 
ATOM     24  C   UNL A   1      31.829  28.638  24.766  1.00  0.00     0.006 A 
ATOM     25  C   UNL A   1      33.849  28.223  26.699  1.00  0.00     0.003 A 
ATOM     26  C   UNL A   1      32.145  29.642  25.717  1.00  0.00    -0.016 A 
ATOM     27  C   UNL A   1      30.707  28.903  23.933  1.00  0.00     0.011 A 
ATOM     28  C   UNL A   1      33.153  29.423  26.665  1.00  0.00     0.009 A 
ATOM     29  C   UNL A   1      31.444  30.860  25.731  1.00  0.00     0.009 A 
ATOM     30  C   UNL A   1      30.018  30.117  23.954  1.00  0.00     0.001 A 
ATOM     31  C   UNL A   1      30.399  31.105  24.845  1.00  0.00     0.001 A 
ENDBRANCH  19  22
ENDBRANCH  14  15
ENDBRANCH  13  14
ENDBRANCH   7  13
ENDBRANCH   4   7
ENDBRANCH   2   3
ENDBRANCH   1   2
BRANCH   1  32
ATOM     32  C   UNL A   1      38.772  22.283  25.946  1.00  0.00     0.002 C 
BRANCH  32  33
ATOM     33  C   UNL A   1      38.185  21.182  25.053  1.00  0.00     0.002 C 
BRANCH  33  34
ATOM     34  C   UNL A   1      38.848  19.804  25.151  1.00  0.00     0.021 C 
BRANCH  34  35
ATOM     35  C   UNL A   1      39.769  19.600  26.352  1.00  0.00     0.116 C 
BRANCH  35  36
ATOM     36  N   UNL A   1      40.978  18.879  25.996  1.00  0.00    -0.352 N 
ATOM     37  C   UNL A   1      42.260  19.318  25.804  1.00  0.00     0.251 C 
ATOM     38  H   UNL A   1      40.855  17.910  25.872  1.00  0.00     0.163 HD
ATOM     39  O   UNL A   1      43.080  18.567  25.284  1.00  0.00    -0.269 OA
BRANCH  37  40
ATOM     40  C   UNL A   1      42.680  20.677  26.215  1.00  0.00     0.039 A 
ATOM     41  C   UNL A   1      42.609  21.008  27.573  1.00  0.00     0.014 A 
ATOM     42  C   UNL A   1      43.044  21.652  25.282  1.00  0.00     0.014 A 
ATOM     43  C   UNL A   1      42.917  22.302  27.994  1.00  0.00     0.010 A 
ATOM     44  C   UNL A   1      43.416  22.927  25.710  1.00  0.00     0.010 A 
ATOM     45  C   UNL A   1      43.332  23.272  27.067  1.00  0.00    -0.014 A 
BRANCH  45  46
ATOM     46  C   UNL A   1      43.633  24.658  27.509  1.00  0.00     0.031 A 
ATOM     47  C   UNL A   1      45.059  25.129  27.613  1.00  0.00     0.074 A 
ATOM     48  C   UNL A   1      42.624  25.488  27.833  1.00  0.00     0.049 A 
ATOM     49  N   UNL A   1      45.521  26.300  27.976  1.00  0.00    -0.248 NA
ATOM     50  C   UNL A   1      46.106  24.149  27.288  1.00  0.00     0.031 C 
ATOM     51  C   UNL A   1      41.204  25.136  27.818  1.00  0.00     0.029 A 
ATOM     52  N   UNL A   1      42.638  26.798  28.239  1.00  0.00    -0.354 N 
ATOM     53  C   UNL A   1      46.904  26.191  27.934  1.00  0.00     0.074 A 
ATOM     54  C   UNL A   1      47.209  24.827  27.565  1.00  0.00     0.031 C 
ATOM     55  C   UNL A   1      40.481  26.211  28.170  1.00  0.00     0.029 A 
ATOM     56  C   UNL A   1      41.387  27.319  28.461  1.00  0.00     0.049 A 
ATOM     57  H   UNL A   1      43.467  27.317  28.360  1.00  0.00     0.167 HD
ATOM     58  C   UNL A   1      47.837  27.149  28.157  1.00  0.00     0.037 A 
ATOM     59  C   UNL A   1      41.013  28.553  28.850  1.00  0.00     0.037 A 
ATOM     60  C   UNL A   1      47.530  28.514  28.496  1.00  0.00     0.049 A 
ATOM     61  C   UNL A   1      42.068  29.601  29.081  1.00  0.00     0.074 A 
ATOM     62  C   UNL A   1      48.400  29.575  28.682  1.00  0.00     0.029 A 
ATOM     63  N   UNL A   1      46.250  29.008  28.700  1.00  0.00    -0.354 N 
ATOM     64  N   UNL A   1      43.370  29.505  28.966  1.00  0.00    -0.248 NA
ATOM     65  C   UNL A   1      41.597  30.934  29.483  1.00  0.00     0.031 C 
ATOM     66  C   UNL A   1      47.648  30.700  29.040  1.00  0.00     0.029 A 
ATOM     67  C   UNL A   1      46.308  30.352  29.031  1.00  0.00     0.049 A 
ATOM     68  H   UNL A   1      45.423  28.480  28.621  1.00  0.00     0.167 HD
ATOM     69  C   UNL A   1      43.873  30.766  29.259  1.00  0.00     0.074 A 
ATOM     70  C   UNL A   1      42.732  31.615  29.534  1.00  0.00     0.031 C 
ATOM     71  C   UNL A   1      45.163  31.183  29.301  1.00  0.00     0.037 A 
BRANCH  58  72
ATOM     72  C   UNL A   1      49.281  26.754  28.034  1.00  0.00     0.064 A 
ATOM     73  C   UNL A   1      49.919  26.679  26.787  1.00  0.00     0.173 A 
ATOM     74  C   UNL A   1      50.044  26.477  29.178  1.00  0.00     0.173 A 
ATOM     75  F   UNL A   1      49.231  26.923  25.660  1.00  0.00    -0.203 F 
ATOM     76  C   UNL A   1      51.258  26.312  26.687  1.00  0.00     0.198 A 
ATOM     77  C   UNL A   1      51.392  26.139  29.077  1.00  0.00     0.198 A 
ATOM     78  F   UNL A   1      49.486  26.540  30.396  1.00  0.00    -0.203 F 
ATOM     79  F   UNL A   1      51.831  26.197  25.480  1.00  0.00    -0.200 F 
ATOM     80  C   UNL A   1      51.996  26.048  27.831  1.00  0.00     0.200 A 
ATOM     81  F   UNL A   1      52.106  25.897  30.185  1.00  0.00    -0.200 F 
ATOM     82  F   UNL A   1      53.286  25.700  27.734  1.00  0.00    -0.200 F 
ENDBRANCH  58  72
BRANCH  59  83
ATOM     83  C   UNL A   1      39.572  28.874  29.013  1.00  0.00     0.064 A 
ATOM     84  C   UNL A   1      38.943  28.748  30.260  1.00  0.00     0.173 A 
ATOM     85  C   UNL A   1      38.794  29.306  27.930  1.00  0.00     0.173 A 
ATOM     86  F   UNL A   1      39.643  28.319  31.321  1.00  0.00    -0.203 F 
ATOM     87  C   UNL A   1      37.586  29.022  30.413  1.00  0.00     0.198 A 
ATOM     88  C   UNL A   1      37.442  29.606  28.090  1.00  0.00     0.198 A 
ATOM     89  F   UNL A   1      39.348  29.448  26.718  1.00  0.00    -0.203 F 
ATOM     90  F   UNL A   1      37.001  28.850  31.606  1.00  0.00    -0.200 F 
ATOM     91  C   UNL A   1      36.838  29.456  29.330  1.00  0.00     0.200 A 
ATOM     92  F   UNL A   1      36.725  30.039  27.044  1.00  0.00    -0.200 F 
ATOM     93  F   UNL A   1      35.533  29.722  29.478  1.00  0.00    -0.200 F 
ENDBRANCH  59  83
BRANCH  71  94
ATOM     94  C   UNL A   1      45.403  32.626  29.637  1.00  0.00     0.064 A 
ATOM     95  C   UNL A   1      45.422  33.617  28.645  1.00  0.00     0.173 A 
ATOM     96  C   UNL A   1      45.595  33.024  30.969  1.00  0.00     0.173 A 
ATOM     97  F   UNL A   1      45.260  33.285  27.355  1.00  0.00    -0.203 F 
ATOM     98  C   UNL A   1      45.658  34.951  28.970  1.00  0.00     0.198 A 
ATOM     99  C   UNL A   1      45.799  34.363  31.293  1.00  0.00     0.198 A 
ATOM    100  F   UNL A   1      45.579  32.117  31.956  1.00  0.00    -0.203 F 
ATOM    101  F   UNL A   1      45.726  35.872  28.000  1.00  0.00    -0.200 F 
ATOM    102  C   UNL A   1      45.839  35.322  30.294  1.00  0.00     0.200 A 
ATOM    103  F   UNL A   1      45.963  34.723  32.574  1.00  0.00    -0.200 F 
ATOM    104  F   UNL A   1      46.064  36.607  30.604  1.00  0.00    -0.200 F 
ENDBRANCH  71  94
ENDBRANCH  45  46
ENDBRANCH  37  40
ENDBRANCH  35  36
ENDBRANCH  34  35
ENDBRANCH  33  34
ENDBRANCH  32  33
ENDBRANCH   1  32
TORSDOF 18
ENDMDL
MODEL 2
REMARK VINA RESULT:     -11.9      5.750     11.045
REMARK SMILES CC(=O)N[C@@H](CS[C@@H]1CC(=O)N(c2cccc3ccccc23)C1=O)C(=O)NCCCCCCNC(=O)c1ccc(-c2c3nc(c(-c4c(F)c(F)c(F)c(F)c4F)c4ccc([nH]4)c(-c4c(F)c(F)c(F)c(F)c4F)c4nc(c(-c5c(F)c(F)c(F)c(F)c5F)c5ccc2[nH]5)C=C4)C=C3)cc1
REMARK SMILES IDX 29 1 28 2 27 3 25 4 26 5 5 7 4 8 1 9 2 10 3 11 6 13 7 14
REMARK SMILES IDX 8 15 9 16 23 17 10 18 12 19 24 20 11 21 13 22 14 23 22 24
REMARK SMILES IDX 15 25 17 26 21 27 16 28 18 29 20 30 19 31 30 32 31 33 32 34
REMARK SMILES IDX 33 35 34 36 35 37 36 39 37 40 38 41 99 42 39 43 98 44 40 45
REMARK SMILES IDX 41 46 42 47 92 48 43 49 97 50 91 51 93 52 44 53 96 54 90 55
REMARK SMILES IDX 89 56 45 58 77 59 57 60 76 61 58 62 61 63 75 64 94 65 59 66
REMARK SMILES IDX 60 67 74 69 95 70 62 71 46 72 47 73 55 74 48 75 49 76 53 77
REMARK SMILES IDX 56 78 50 79 51 80 54 81 52 82 78 83 79 84 87 85 80 86 81 87
REMARK SMILES IDX 85 88 88 89 82 90 83 91 86 92 84 93 63 94 64 95 72 96 65 97
REMARK SMILES IDX 66 98 70 99 73 100 67 101 68 102 71 103 69 104
REMARK H PARENT 27 6 4 12 34 38 93 57 61 68
REMARK Flexibility Score: inf
ROOT
ATOM      1  C   UNL A   1      35.050  31.589  27.783  1.00  0.00     0.021 C 
ENDROOT
BRANCH   1   2
ATOM      2  C   UNL A   1      33.632  31.053  27.597  1.00  0.00     0.116 C 
BRANCH   2   3
ATOM      3  N   UNL A   1      33.580  29.614  27.512  1.00  0.00    -0.354 N 
ATOM      4  C   UNL A   1      33.173  28.736  26.568  1.00  0.00     0.243 C 
ATOM      5  O   UNL A   1      33.367  27.547  26.870  1.00  0.00    -0.273 OA
ATOM      6  H   UNL A   1      33.918  29.172  28.324  1.00  0.00     0.163 HD
BRANCH   4   7
ATOM      7  C   UNL A   1      32.350  29.040  25.286  1.00  0.00     0.181 C 
BRANCH   7   8
ATOM      8  N   UNL A   1      33.232  29.362  24.159  1.00  0.00    -0.344 N 
ATOM      9  C   UNL A   1      33.906  27.022  23.668  1.00  0.00     0.114 C 
ATOM     10  C   UNL A   1      33.950  28.498  23.379  1.00  0.00     0.217 C 
ATOM     11  O   UNL A   1      34.611  28.948  22.446  1.00  0.00    -0.275 OA
ATOM     12  H   UNL A   1      33.318  30.317  23.938  1.00  0.00     0.164 HD
ENDBRANCH   7   8
BRANCH   7  13
ATOM     13  C   UNL A   1      31.003  28.399  24.880  1.00  0.00     0.105 C 
BRANCH  13  14
ATOM     14  S   UNL A   1      30.643  27.064  23.670  1.00  0.00    -0.145 SA
BRANCH  14  15
ATOM     15  C   UNL A   1      30.080  25.587  24.584  1.00  0.00     0.146 C 
ATOM     16  C   UNL A   1      30.209  25.551  26.079  1.00  0.00     0.125 C 
ATOM     17  C   UNL A   1      30.725  24.317  24.124  1.00  0.00     0.247 C 
ATOM     18  C   UNL A   1      31.117  24.393  26.347  1.00  0.00     0.235 C 
ATOM     19  N   UNL A   1      31.479  23.811  25.158  1.00  0.00    -0.249 N 
ATOM     20  O   UNL A   1      30.474  23.812  23.037  1.00  0.00    -0.273 OA
ATOM     21  O   UNL A   1      31.412  24.099  27.498  1.00  0.00    -0.274 OA
BRANCH  19  22
ATOM     22  C   UNL A   1      32.343  22.678  25.026  1.00  0.00     0.060 A 
ATOM     23  C   UNL A   1      31.771  21.397  24.923  1.00  0.00     0.027 A 
ATOM     24  C   UNL A   1      33.773  22.808  24.971  1.00  0.00     0.006 A 
ATOM     25  C   UNL A   1      32.556  20.272  24.688  1.00  0.00     0.003 A 
ATOM     26  C   UNL A   1      34.549  21.654  24.689  1.00  0.00    -0.016 A 
ATOM     27  C   UNL A   1      34.504  24.001  25.227  1.00  0.00     0.011 A 
ATOM     28  C   UNL A   1      33.930  20.406  24.547  1.00  0.00     0.009 A 
ATOM     29  C   UNL A   1      35.946  21.745  24.565  1.00  0.00     0.009 A 
ATOM     30  C   UNL A   1      35.891  24.081  25.100  1.00  0.00     0.001 A 
ATOM     31  C   UNL A   1      36.613  22.953  24.751  1.00  0.00     0.001 A 
ENDBRANCH  19  22
ENDBRANCH  14  15
ENDBRANCH  13  14
ENDBRANCH   7  13
ENDBRANCH   4   7
ENDBRANCH   2   3
ENDBRANCH   1   2
BRANCH   1  32
ATOM     32  C   UNL A   1      35.105  33.060  28.193  1.00  0.00     0.002 C 
BRANCH  32  33
ATOM     33  C   UNL A   1      34.051  33.484  29.225  1.00  0.00     0.002 C 
BRANCH  33  34
ATOM     34  C   UNL A   1      33.112  34.621  28.806  1.00  0.00     0.021 C 
BRANCH  34  35
ATOM     35  C   UNL A   1      33.382  35.974  29.460  1.00  0.00     0.116 C 
BRANCH  35  36
ATOM     36  N   UNL A   1      32.563  36.184  30.640  1.00  0.00    -0.352 N 
ATOM     37  C   UNL A   1      32.664  35.668  31.904  1.00  0.00     0.251 C 
ATOM     38  H   UNL A   1      31.807  36.800  30.509  1.00  0.00     0.163 HD
ATOM     39  O   UNL A   1      31.726  35.805  32.684  1.00  0.00    -0.269 OA
BRANCH  37  40
ATOM     40  C   UNL A   1      33.882  34.955  32.351  1.00  0.00     0.039 A 
ATOM     41  C   UNL A   1      35.118  35.592  32.189  1.00  0.00     0.014 A 
ATOM     42  C   UNL A   1      33.836  33.643  32.831  1.00  0.00     0.014 A 
ATOM     43  C   UNL A   1      36.297  34.924  32.521  1.00  0.00     0.010 A 
ATOM     44  C   UNL A   1      35.009  33.000  33.226  1.00  0.00     0.010 A 
ATOM     45  C   UNL A   1      36.253  33.624  33.052  1.00  0.00    -0.014 A 
BRANCH  45  46
ATOM     46  C   UNL A   1      37.508  32.901  33.380  1.00  0.00     0.031 A 
ATOM     47  C   UNL A   1      38.241  33.192  34.662  1.00  0.00     0.074 A 
ATOM     48  C   UNL A   1      38.000  31.992  32.516  1.00  0.00     0.049 A 
ATOM     49  N   UNL A   1      39.347  32.664  35.124  1.00  0.00    -0.248 NA
ATOM     50  C   UNL A   1      37.667  34.232  35.531  1.00  0.00     0.031 C 
ATOM     51  C   UNL A   1      37.408  31.654  31.222  1.00  0.00     0.029 A 
ATOM     52  N   UNL A   1      39.107  31.188  32.597  1.00  0.00    -0.354 N 
ATOM     53  C   UNL A   1      39.604  33.313  36.324  1.00  0.00     0.074 A 
ATOM     54  C   UNL A   1      38.572  34.312  36.494  1.00  0.00     0.031 C 
ATOM     55  C   UNL A   1      38.143  30.692  30.641  1.00  0.00     0.029 A 
ATOM     56  C   UNL A   1      39.271  30.366  31.509  1.00  0.00     0.049 A 
ATOM     57  H   UNL A   1      39.728  31.199  33.362  1.00  0.00     0.167 HD
ATOM     58  C   UNL A   1      40.596  33.080  37.218  1.00  0.00     0.037 A 
ATOM     59  C   UNL A   1      40.221  29.448  31.246  1.00  0.00     0.037 A 
ATOM     60  C   UNL A   1      41.606  32.066  37.061  1.00  0.00     0.049 A 
ATOM     61  C   UNL A   1      41.305  29.201  32.260  1.00  0.00     0.074 A 
ATOM     62  C   UNL A   1      42.617  31.710  37.937  1.00  0.00     0.029 A 
ATOM     63  N   UNL A   1      41.732  31.244  35.952  1.00  0.00    -0.354 N 
ATOM     64  N   UNL A   1      41.495  29.770  33.425  1.00  0.00    -0.248 NA
ATOM     65  C   UNL A   1      42.299  28.172  31.924  1.00  0.00     0.031 C 
ATOM     66  C   UNL A   1      43.379  30.700  37.339  1.00  0.00     0.029 A 
ATOM     67  C   UNL A   1      42.815  30.395  36.111  1.00  0.00     0.049 A 
ATOM     68  H   UNL A   1      41.137  31.260  35.167  1.00  0.00     0.167 HD
ATOM     69  C   UNL A   1      42.614  29.157  33.971  1.00  0.00     0.074 A 
ATOM     70  C   UNL A   1      43.046  28.154  33.019  1.00  0.00     0.031 C 
ATOM     71  C   UNL A   1      43.231  29.403  35.153  1.00  0.00     0.037 A 
BRANCH  58  72
ATOM     72  C   UNL A   1      40.634  33.936  38.452  1.00  0.00     0.064 A 
ATOM     73  C   UNL A   1      39.924  33.587  39.612  1.00  0.00     0.173 A 
ATOM     74  C   UNL A   1      41.412  35.102  38.488  1.00  0.00     0.173 A 
ATOM     75  F   UNL A   1      39.154  32.487  39.626  1.00  0.00    -0.203 F 
ATOM     76  C   UNL A   1      39.967  34.389  40.749  1.00  0.00     0.198 A 
ATOM     77  C   UNL A   1      41.478  35.887  39.638  1.00  0.00     0.198 A 
ATOM     78  F   UNL A   1      42.116  35.480  37.411  1.00  0.00    -0.203 F 
ATOM     79  F   UNL A   1      39.239  34.060  41.825  1.00  0.00    -0.200 F 
ATOM     80  C   UNL A   1      40.748  35.534  40.764  1.00  0.00     0.200 A 
ATOM     81  F   UNL A   1      42.243  36.987  39.655  1.00  0.00    -0.200 F 
ATOM     82  F   UNL A   1      40.793  36.302  41.861  1.00  0.00    -0.200 F 
ENDBRANCH  58  72
BRANCH  59  83
ATOM     83  C   UNL A   1      40.169  28.669  29.981  1.00  0.00     0.064 A 
ATOM     84  C   UNL A   1      39.521  27.427  29.928  1.00  0.00     0.173 A 
ATOM     85  C   UNL A   1      40.768  29.144  28.806  1.00  0.00     0.173 A 
ATOM     86  F   UNL A   1      38.950  26.922  31.032  1.00  0.00    -0.203 F 
ATOM     87  C   UNL A   1      39.492  26.679  28.753  1.00  0.00     0.198 A 
ATOM     88  C   UNL A   1      40.715  28.408  27.624  1.00  0.00     0.198 A 
ATOM     89  F   UNL A   1      41.395  30.328  28.803  1.00  0.00    -0.203 F 
ATOM     90  F   UNL A   1      38.905  25.474  28.743  1.00  0.00    -0.200 F 
ATOM     91  C   UNL A   1      40.084  27.173  27.601  1.00  0.00     0.200 A 
ATOM     92  F   UNL A   1      41.276  28.894  26.509  1.00  0.00    -0.200 F 
ATOM     93  F   UNL A   1      40.054  26.455  26.470  1.00  0.00    -0.200 F 
ENDBRANCH  59  83
BRANCH  71  94
ATOM     94  C   UNL A   1      44.426  28.559  35.488  1.00  0.00     0.064 A 
ATOM     95  C   UNL A   1      45.727  28.957  35.146  1.00  0.00     0.173 A 
ATOM     96  C   UNL A   1      44.269  27.346  36.178  1.00  0.00     0.173 A 
ATOM     97  F   UNL A   1      45.927  30.099  34.472  1.00  0.00    -0.203 F 
ATOM     98  C   UNL A   1      46.824  28.157  35.453  1.00  0.00     0.198 A 
ATOM     99  C   UNL A   1      45.373  26.565  36.511  1.00  0.00     0.198 A 
ATOM    100  F   UNL A   1      43.048  26.923  36.534  1.00  0.00    -0.203 F 
ATOM    101  F   UNL A   1      48.052  28.531  35.068  1.00  0.00    -0.200 F 
ATOM    102  C   UNL A   1      46.646  26.966  36.141  1.00  0.00     0.200 A 
ATOM    103  F   UNL A   1      45.200  25.419  37.186  1.00  0.00    -0.200 F 
ATOM    104  F   UNL A   1      47.705  26.198  36.437  1.00  0.00    -0.200 F 
ENDBRANCH  71  94
ENDBRANCH  45  46
ENDBRANCH  37  40
ENDBRANCH  35  36
ENDBRANCH  34  35
ENDBRANCH  33  34
ENDBRANCH  32  33
ENDBRANCH   1  32
TORSDOF 18
ENDMDL
MODEL 3
REMARK VINA RESULT:     -11.8      1.347      4.519
REMARK SMILES CC(=O)N[C@@H](CS[C@@H]1CC(=O)N(c2cccc3ccccc23)C1=O)C(=O)NCCCCCCNC(=O)c1ccc(-c2c3nc(c(-c4c(F)c(F)c(F)c(F)c4F)c4ccc([nH]4)c(-c4c(F)c(F)c(F)c(F)c4F)c4nc(c(-c5c(F)c(F)c(F)c(F)c5F)c5ccc2[nH]5)C=C4)C=C3)cc1
REMARK SMILES IDX 29 1 28 2 27 3 25 4 26 5 5 7 4 8 1 9 2 10 3 11 6 13 7 14
REMARK SMILES IDX 8 15 9 16 23 17 10 18 12 19 24 20 11 21 13 22 14 23 22 24
REMARK SMILES IDX 15 25 17 26 21 27 16 28 18 29 20 30 19 31 30 32 31 33 32 34
REMARK SMILES IDX 33 35 34 36 35 37 36 39 37 40 38 41 99 42 39 43 98 44 40 45
REMARK SMILES IDX 41 46 42 47 92 48 43 49 97 50 91 51 93 52 44 53 96 54 90 55
REMARK SMILES IDX 89 56 45 58 77 59 57 60 76 61 58 62 61 63 75 64 94 65 59 66
REMARK SMILES IDX 60 67 74 69 95 70 62 71 46 72 47 73 55 74 48 75 49 76 53 77
REMARK SMILES IDX 56 78 50 79 51 80 54 81 52 82 78 83 79 84 87 85 80 86 81 87
REMARK SMILES IDX 85 88 88 89 82 90 83 91 86 92 84 93 63 94 64 95 72 96 65 97
REMARK SMILES IDX 66 98 70 99 73 100 67 101 68 102 71 103 69 104
REMARK H PARENT 27 6 4 12 34 38 93 57 61 68
REMARK Flexibility Score: inf
ROOT
ATOM      1  C   UNL A   1      37.792  23.982  25.824  1.00  0.00     0.021 C 
ENDROOT
BRANCH   1   2
ATOM      2  C   UNL A   1      36.270  24.116  25.831  1.00  0.00     0.116 C 
BRANCH   2   3
ATOM      3  N   UNL A   1      35.665  23.734  24.579  1.00  0.00    -0.354 N 
ATOM      4  C   UNL A   1      34.661  24.231  23.823  1.00  0.00     0.243 C 
ATOM      5  O   UNL A   1      34.495  23.630  22.748  1.00  0.00    -0.273 OA
ATOM      6  H   UNL A   1      36.076  22.930  24.187  1.00  0.00     0.163 HD
BRANCH   4   7
ATOM      7  C   UNL A   1      33.616  25.308  24.227  1.00  0.00     0.181 C 
BRANCH   7   8
ATOM      8  N   UNL A   1      33.730  26.496  23.374  1.00  0.00    -0.344 N 
ATOM      9  C   UNL A   1      33.657  28.158  25.218  1.00  0.00     0.114 C 
ATOM     10  C   UNL A   1      33.769  27.808  23.759  1.00  0.00     0.217 C 
ATOM     11  O   UNL A   1      33.907  28.676  22.901  1.00  0.00    -0.275 OA
ATOM     12  H   UNL A   1      33.783  26.328  22.405  1.00  0.00     0.164 HD
ENDBRANCH   7   8
BRANCH   7  13
ATOM     13  C   UNL A   1      32.197  25.054  24.783  1.00  0.00     0.105 C 
BRANCH  13  14
ATOM     14  S   UNL A   1      31.635  24.765  26.509  1.00  0.00    -0.145 SA
BRANCH  14  15
ATOM     15  C   UNL A   1      31.978  23.026  26.947  1.00  0.00     0.146 C 
ATOM     16  C   UNL A   1      33.391  22.597  27.215  1.00  0.00     0.125 C 
ATOM     17  C   UNL A   1      31.477  22.044  25.934  1.00  0.00     0.247 C 
ATOM     18  C   UNL A   1      33.670  21.559  26.174  1.00  0.00     0.235 C 
ATOM     19  N   UNL A   1      32.557  21.390  25.388  1.00  0.00    -0.249 N 
ATOM     20  O   UNL A   1      30.283  21.829  25.767  1.00  0.00    -0.273 OA
ATOM     21  O   UNL A   1      34.760  21.006  26.136  1.00  0.00    -0.274 OA
BRANCH  19  22
ATOM     22  C   UNL A   1      32.457  20.481  24.287  1.00  0.00     0.060 A 
ATOM     23  C   UNL A   1      32.155  20.991  23.011  1.00  0.00     0.027 A 
ATOM     24  C   UNL A   1      32.678  19.070  24.438  1.00  0.00     0.006 A 
ATOM     25  C   UNL A   1      32.149  20.170  21.888  1.00  0.00     0.003 A 
ATOM     26  C   UNL A   1      32.708  18.260  23.273  1.00  0.00    -0.016 A 
ATOM     27  C   UNL A   1      32.824  18.384  25.675  1.00  0.00     0.011 A 
ATOM     28  C   UNL A   1      32.449  18.821  22.017  1.00  0.00     0.009 A 
ATOM     29  C   UNL A   1      32.982  16.885  23.366  1.00  0.00     0.009 A 
ATOM     30  C   UNL A   1      33.098  17.018  25.756  1.00  0.00     0.001 A 
ATOM     31  C   UNL A   1      33.194  16.269  24.596  1.00  0.00     0.001 A 
ENDBRANCH  19  22
ENDBRANCH  14  15
ENDBRANCH  13  14
ENDBRANCH   7  13
ENDBRANCH   4   7
ENDBRANCH   2   3
ENDBRANCH   1   2
BRANCH   1  32
ATOM     32  C   UNL A   1      38.287  22.551  26.028  1.00  0.00     0.002 C 
BRANCH  32  33
ATOM     33  C   UNL A   1      37.888  21.565  24.923  1.00  0.00     0.002 C 
BRANCH  33  34
ATOM     34  C   UNL A   1      38.523  20.171  24.996  1.00  0.00     0.021 C 
BRANCH  34  35
ATOM     35  C   UNL A   1      39.206  19.827  26.318  1.00  0.00     0.116 C 
BRANCH  35  36
ATOM     36  N   UNL A   1      40.390  19.010  26.124  1.00  0.00    -0.352 N 
ATOM     37  C   UNL A   1      41.710  19.356  26.011  1.00  0.00     0.251 C 
ATOM     38  H   UNL A   1      40.214  18.043  26.063  1.00  0.00     0.163 HD
ATOM     39  O   UNL A   1      42.518  18.518  25.622  1.00  0.00    -0.269 OA
BRANCH  37  40
ATOM     40  C   UNL A   1      42.182  20.716  26.354  1.00  0.00     0.039 A 
ATOM     41  C   UNL A   1      42.349  21.037  27.705  1.00  0.00     0.014 A 
ATOM     42  C   UNL A   1      42.367  21.701  25.380  1.00  0.00     0.014 A 
ATOM     43  C   UNL A   1      42.714  22.332  28.077  1.00  0.00     0.010 A 
ATOM     44  C   UNL A   1      42.797  22.977  25.746  1.00  0.00     0.010 A 
ATOM     45  C   UNL A   1      42.950  23.312  27.099  1.00  0.00    -0.014 A 
BRANCH  45  46
ATOM     46  C   UNL A   1      43.311  24.698  27.493  1.00  0.00     0.031 A 
ATOM     47  C   UNL A   1      44.750  25.140  27.484  1.00  0.00     0.074 A 
ATOM     48  C   UNL A   1      42.346  25.556  27.876  1.00  0.00     0.049 A 
ATOM     49  N   UNL A   1      45.261  26.307  27.791  1.00  0.00    -0.248 NA
ATOM     50  C   UNL A   1      45.750  24.132  27.100  1.00  0.00     0.031 C 
ATOM     51  C   UNL A   1      40.922  25.234  27.971  1.00  0.00     0.029 A 
ATOM     52  N   UNL A   1      42.417  26.871  28.256  1.00  0.00    -0.354 N 
ATOM     53  C   UNL A   1      46.635  26.167  27.650  1.00  0.00     0.074 A 
ATOM     54  C   UNL A   1      46.885  24.790  27.284  1.00  0.00     0.031 C 
ATOM     55  C   UNL A   1      40.249  26.330  28.356  1.00  0.00     0.029 A 
ATOM     56  C   UNL A   1      41.196  27.422  28.560  1.00  0.00     0.049 A 
ATOM     57  H   UNL A   1      43.263  27.373  28.306  1.00  0.00     0.167 HD
ATOM     58  C   UNL A   1      47.601  27.108  27.787  1.00  0.00     0.037 A 
ATOM     59  C   UNL A   1      40.878  28.671  28.953  1.00  0.00     0.037 A 
ATOM     60  C   UNL A   1      47.349  28.484  28.123  1.00  0.00     0.049 A 
ATOM     61  C   UNL A   1      41.968  29.700  29.087  1.00  0.00     0.074 A 
ATOM     62  C   UNL A   1      48.252  29.529  28.226  1.00  0.00     0.029 A 
ATOM     63  N   UNL A   1      46.098  29.009  28.412  1.00  0.00    -0.354 N 
ATOM     64  N   UNL A   1      43.256  29.573  28.879  1.00  0.00    -0.248 NA
ATOM     65  C   UNL A   1      41.555  31.048  29.499  1.00  0.00     0.031 C 
ATOM     66  C   UNL A   1      47.551  30.676  28.618  1.00  0.00     0.029 A 
ATOM     67  C   UNL A   1      46.207  30.357  28.713  1.00  0.00     0.049 A 
ATOM     68  H   UNL A   1      45.256  28.498  28.403  1.00  0.00     0.167 HD
ATOM     69  C   UNL A   1      43.804  30.827  29.112  1.00  0.00     0.074 A 
ATOM     70  C   UNL A   1      42.705  31.706  29.454  1.00  0.00     0.031 C 
ATOM     71  C   UNL A   1      45.102  31.217  29.052  1.00  0.00     0.037 A 
BRANCH  58  72
ATOM     72  C   UNL A   1      49.024  26.679  27.566  1.00  0.00     0.064 A 
ATOM     73  C   UNL A   1      49.880  26.387  28.640  1.00  0.00     0.173 A 
ATOM     74  C   UNL A   1      49.530  26.527  26.266  1.00  0.00     0.173 A 
ATOM     75  F   UNL A   1      49.449  26.527  29.903  1.00  0.00    -0.203 F 
ATOM     76  C   UNL A   1      51.196  25.991  28.421  1.00  0.00     0.198 A 
ATOM     77  C   UNL A   1      50.839  26.101  26.051  1.00  0.00     0.198 A 
ATOM     78  F   UNL A   1      48.754  26.786  25.203  1.00  0.00    -0.203 F 
ATOM     79  F   UNL A   1      52.008  25.768  29.464  1.00  0.00    -0.200 F 
ATOM     80  C   UNL A   1      51.673  25.842  27.128  1.00  0.00     0.200 A 
ATOM     81  F   UNL A   1      51.294  25.946  24.800  1.00  0.00    -0.200 F 
ATOM     82  F   UNL A   1      52.939  25.455  26.919  1.00  0.00    -0.200 F 
ENDBRANCH  58  72
BRANCH  59  83
ATOM     83  C   UNL A   1      39.459  29.026  29.216  1.00  0.00     0.064 A 
ATOM     84  C   UNL A   1      38.925  28.945  30.509  1.00  0.00     0.173 A 
ATOM     85  C   UNL A   1      38.609  29.446  28.183  1.00  0.00     0.173 A 
ATOM     86  F   UNL A   1      39.695  28.529  31.526  1.00  0.00    -0.203 F 
ATOM     87  C   UNL A   1      37.589  29.251  30.757  1.00  0.00     0.198 A 
ATOM     88  C   UNL A   1      37.280  29.778  28.436  1.00  0.00     0.198 A 
ATOM     89  F   UNL A   1      39.073  29.545  26.929  1.00  0.00    -0.203 F 
ATOM     90  F   UNL A   1      37.093  29.121  31.995  1.00  0.00    -0.200 F 
ATOM     91  C   UNL A   1      36.769  29.672  29.722  1.00  0.00     0.200 A 
ATOM     92  F   UNL A   1      36.493  30.199  27.436  1.00  0.00    -0.200 F 
ATOM     93  F   UNL A   1      35.484  29.969  29.961  1.00  0.00    -0.200 F 
ENDBRANCH  59  83
BRANCH  71  94
ATOM     94  C   UNL A   1      45.396  32.660  29.343  1.00  0.00     0.064 A 
ATOM     95  C   UNL A   1      45.362  33.634  28.335  1.00  0.00     0.173 A 
ATOM     96  C   UNL A   1      45.695  33.075  30.650  1.00  0.00     0.173 A 
ATOM     97  F   UNL A   1      45.097  33.284  27.067  1.00  0.00    -0.203 F 
ATOM     98  C   UNL A   1      45.648  34.967  28.618  1.00  0.00     0.198 A 
ATOM     99  C   UNL A   1      45.949  34.414  30.935  1.00  0.00     0.198 A 
ATOM    100  F   UNL A   1      45.734  32.184  31.651  1.00  0.00    -0.203 F 
ATOM    101  F   UNL A   1      45.663  35.871  27.629  1.00  0.00    -0.200 F 
ATOM    102  C   UNL A   1      45.935  35.356  29.918  1.00  0.00     0.200 A 
ATOM    103  F   UNL A   1      46.215  34.791  32.193  1.00  0.00    -0.200 F 
ATOM    104  F   UNL A   1      46.209  36.640  30.188  1.00  0.00    -0.200 F 
ENDBRANCH  71  94
ENDBRANCH  45  46
ENDBRANCH  37  40
ENDBRANCH  35  36
ENDBRANCH  34  35
ENDBRANCH  33  34
ENDBRANCH  32  33
ENDBRANCH   1  32
TORSDOF 18
ENDMDL
