MODEL 1
REMARK VINA RESULT:     -12.5      0.000      0.000
REMARK SMILES Cc1ccc(NC(=O)C[C@@H](C(=O)NCCCCCCNC(=O)c2ccc(-c3c4nc(c(-c5c(F)c(F)c(F)c(F)c5F)c5ccc([nH]5)c(-c5c(F)c(F)c(F)c(F)c5F)c5nc(c(-c6c(F)c(F)c(F)c(F)c6F)c6ccc3[nH]6)C=C5)C=C4)cc2)[C@@H](C)c2ccccc2)cc1Br
REMARK SMILES IDX 16 1 15 2 14 3 13 4 11 5 12 6 10 8 9 9 7 10 6 11 8 13 5 14
REMARK SMILES IDX 1 15 2 16 3 17 95 18 4 19 94 20 96 21 86 22 87 23 88 24
REMARK SMILES IDX 89 25 93 26 90 27 92 28 91 29 17 30 18 31 19 32 20 33 21 34
REMARK SMILES IDX 22 36 23 37 24 38 85 39 25 40 84 41 26 42 27 43 28 44 78 45
REMARK SMILES IDX 29 46 83 47 77 48 79 49 30 50 82 51 76 52 75 53 31 55 63 56
REMARK SMILES IDX 43 57 62 58 44 59 47 60 61 61 80 62 45 63 46 64 60 66 81 67
REMARK SMILES IDX 48 68 32 69 33 70 41 71 34 72 35 73 39 74 42 75 36 76 37 77
REMARK SMILES IDX 40 78 38 79 64 80 65 81 73 82 66 83 67 84 71 85 74 86 68 87
REMARK SMILES IDX 69 88 72 89 70 90 49 91 50 92 58 93 51 94 52 95 56 96 59 97
REMARK SMILES IDX 53 98 54 99 57 100 55 101
REMARK H PARENT 13 7 6 12 20 35 79 54 47 65
REMARK Flexibility Score: inf
ROOT
ATOM      1  C   UNL A   1      33.031  29.762  25.638  1.00  0.00     0.002 C 
ENDROOT
BRANCH   1   2
ATOM      2  C   UNL A   1      32.812  29.328  24.179  1.00  0.00     0.021 C 
BRANCH   2   3
ATOM      3  C   UNL A   1      34.054  28.835  23.426  1.00  0.00     0.116 C 
BRANCH   3   4
ATOM      4  N   UNL A   1      33.682  27.991  22.313  1.00  0.00    -0.356 N 
ATOM      5  C   UNL A   1      33.327  26.692  22.190  1.00  0.00     0.224 C 
ATOM      6  O   UNL A   1      33.278  26.304  21.023  1.00  0.00    -0.275 OA
ATOM      7  H   UNL A   1      33.688  28.469  21.452  1.00  0.00     0.163 HD
BRANCH   5   8
ATOM      8  C   UNL A   1      32.987  25.795  23.384  1.00  0.00     0.095 C 
BRANCH   8   9
ATOM      9  C   UNL A   1      31.664  26.131  24.125  1.00  0.00     0.114 C 
BRANCH   9  10
ATOM     10  C   UNL A   1      30.408  25.302  24.035  1.00  0.00     0.225 C 
ATOM     11  N   UNL A   1      30.394  23.941  23.988  1.00  0.00    -0.326 N 
ATOM     12  H   UNL A   1      29.522  23.551  23.749  1.00  0.00     0.169 HD
ATOM     13  O   UNL A   1      29.312  25.877  23.997  1.00  0.00    -0.275 OA
BRANCH  11  14
ATOM     14  C   UNL A   1      31.405  23.002  24.219  1.00  0.00     0.042 A 
ATOM     15  C   UNL A   1      33.865  19.511  24.756  1.00  0.00     0.045 C 
ATOM     16  C   UNL A   1      33.115  20.799  24.567  1.00  0.00    -0.037 A 
ATOM     17  C   UNL A   1      32.588  21.098  23.304  1.00  0.00     0.007 A 
ATOM     18  C   UNL A   1      32.867  21.691  25.622  1.00  0.00     0.022 A 
ATOM     19  C   UNL A   1      31.772  22.213  23.126  1.00  0.00     0.026 A 
ATOM     20  C   UNL A   1      32.004  22.782  25.454  1.00  0.00     0.042 A 
ATOM     21  Br  UNL A   1      33.653  21.453  27.337  1.00  0.00    -0.050 Br
ENDBRANCH  11  14
ENDBRANCH   9  10
ENDBRANCH   8   9
BRANCH   8  22
ATOM     22  C   UNL A   1      34.132  25.727  24.488  1.00  0.00     0.029 C 
ATOM     23  C   UNL A   1      33.552  26.042  25.892  1.00  0.00     0.013 C 
BRANCH  22  24
ATOM     24  C   UNL A   1      35.019  24.479  24.561  1.00  0.00    -0.044 A 
ATOM     25  C   UNL A   1      35.761  24.120  25.696  1.00  0.00     0.004 A 
ATOM     26  C   UNL A   1      35.205  23.703  23.403  1.00  0.00     0.004 A 
ATOM     27  C   UNL A   1      36.643  23.031  25.664  1.00  0.00     0.000 A 
ATOM     28  C   UNL A   1      36.045  22.589  23.382  1.00  0.00     0.000 A 
ATOM     29  C   UNL A   1      36.773  22.258  24.514  1.00  0.00     0.000 A 
ENDBRANCH  22  24
ENDBRANCH   8  22
ENDBRANCH   5   8
ENDBRANCH   3   4
ENDBRANCH   2   3
ENDBRANCH   1   2
BRANCH   1  30
ATOM     30  C   UNL A   1      31.772  30.198  26.380  1.00  0.00     0.002 C 
BRANCH  30  31
ATOM     31  C   UNL A   1      31.606  31.712  26.501  1.00  0.00     0.021 C 
BRANCH  31  32
ATOM     32  C   UNL A   1      32.732  32.416  27.250  1.00  0.00     0.116 C 
BRANCH  32  33
ATOM     33  N   UNL A   1      32.451  33.825  27.473  1.00  0.00    -0.352 N 
ATOM     34  C   UNL A   1      32.990  34.656  28.422  1.00  0.00     0.251 C 
ATOM     35  H   UNL A   1      31.792  34.233  26.867  1.00  0.00     0.163 HD
ATOM     36  O   UNL A   1      32.528  35.773  28.626  1.00  0.00    -0.269 OA
BRANCH  34  37
ATOM     37  C   UNL A   1      34.129  34.165  29.220  1.00  0.00     0.039 A 
ATOM     38  C   UNL A   1      33.882  33.406  30.363  1.00  0.00     0.014 A 
ATOM     39  C   UNL A   1      35.438  34.403  28.789  1.00  0.00     0.014 A 
ATOM     40  C   UNL A   1      34.953  32.831  31.047  1.00  0.00     0.010 A 
ATOM     41  C   UNL A   1      36.496  33.760  29.421  1.00  0.00     0.010 A 
ATOM     42  C   UNL A   1      36.265  32.976  30.563  1.00  0.00    -0.014 A 
BRANCH  42  43
ATOM     43  C   UNL A   1      37.411  32.326  31.248  1.00  0.00     0.031 A 
ATOM     44  C   UNL A   1      38.119  31.174  30.590  1.00  0.00     0.074 A 
ATOM     45  C   UNL A   1      37.780  32.739  32.475  1.00  0.00     0.049 A 
ATOM     46  N   UNL A   1      39.110  30.446  31.039  1.00  0.00    -0.248 NA
ATOM     47  C   UNL A   1      37.627  30.765  29.266  1.00  0.00     0.031 C 
ATOM     48  C   UNL A   1      37.138  33.812  33.236  1.00  0.00     0.029 A 
ATOM     49  N   UNL A   1      38.783  32.299  33.304  1.00  0.00    -0.354 N 
ATOM     50  C   UNL A   1      39.351  29.493  30.058  1.00  0.00     0.074 A 
ATOM     51  C   UNL A   1      38.362  29.690  29.022  1.00  0.00     0.031 C 
ATOM     52  C   UNL A   1      37.781  33.968  34.405  1.00  0.00     0.029 A 
ATOM     53  C   UNL A   1      38.852  32.980  34.495  1.00  0.00     0.049 A 
ATOM     54  H   UNL A   1      39.394  31.565  33.066  1.00  0.00     0.167 HD
ATOM     55  C   UNL A   1      40.327  28.557  30.012  1.00  0.00     0.037 A 
ATOM     56  C   UNL A   1      39.683  32.820  35.543  1.00  0.00     0.037 A 
ATOM     57  C   UNL A   1      41.321  28.378  31.038  1.00  0.00     0.049 A 
ATOM     58  C   UNL A   1      40.750  31.761  35.473  1.00  0.00     0.074 A 
ATOM     59  C   UNL A   1      42.388  27.498  31.061  1.00  0.00     0.029 A 
ATOM     60  N   UNL A   1      41.364  29.091  32.227  1.00  0.00    -0.354 N 
ATOM     61  N   UNL A   1      41.018  30.916  34.507  1.00  0.00    -0.248 NA
ATOM     62  C   UNL A   1      41.634  31.636  36.640  1.00  0.00     0.031 C 
ATOM     63  C   UNL A   1      43.042  27.638  32.289  1.00  0.00     0.029 A 
ATOM     64  C   UNL A   1      42.421  28.650  33.005  1.00  0.00     0.049 A 
ATOM     65  H   UNL A   1      40.735  29.805  32.481  1.00  0.00     0.167 HD
ATOM     66  C   UNL A   1      42.117  30.182  34.934  1.00  0.00     0.074 A 
ATOM     67  C   UNL A   1      42.476  30.693  36.240  1.00  0.00     0.031 C 
ATOM     68  C   UNL A   1      42.768  29.175  34.302  1.00  0.00     0.037 A 
BRANCH  55  69
ATOM     69  C   UNL A   1      40.367  27.654  28.812  1.00  0.00     0.064 A 
ATOM     70  C   UNL A   1      39.646  26.449  28.769  1.00  0.00     0.173 A 
ATOM     71  C   UNL A   1      41.114  28.009  27.679  1.00  0.00     0.173 A 
ATOM     72  F   UNL A   1      38.926  26.055  29.830  1.00  0.00    -0.203 F 
ATOM     73  C   UNL A   1      39.699  25.621  27.652  1.00  0.00     0.198 A 
ATOM     74  C   UNL A   1      41.136  27.195  26.549  1.00  0.00     0.198 A 
ATOM     75  F   UNL A   1      41.818  29.150  27.662  1.00  0.00    -0.203 F 
ATOM     76  F   UNL A   1      39.049  24.449  27.657  1.00  0.00    -0.200 F 
ATOM     77  C   UNL A   1      40.438  25.997  26.540  1.00  0.00     0.200 A 
ATOM     78  F   UNL A   1      41.838  27.568  25.470  1.00  0.00    -0.200 F 
ATOM     79  F   UNL A   1      40.481  25.203  25.462  1.00  0.00    -0.200 F 
ENDBRANCH  55  69
BRANCH  56  80
ATOM     80  C   UNL A   1      39.555  33.699  36.736  1.00  0.00     0.064 A 
ATOM     81  C   UNL A   1      38.751  33.326  37.823  1.00  0.00     0.173 A 
ATOM     82  C   UNL A   1      40.221  34.930  36.812  1.00  0.00     0.173 A 
ATOM     83  F   UNL A   1      38.076  32.167  37.791  1.00  0.00    -0.203 F 
ATOM     84  C   UNL A   1      38.600  34.160  38.929  1.00  0.00     0.198 A 
ATOM     85  C   UNL A   1      40.096  35.750  37.933  1.00  0.00     0.198 A 
ATOM     86  F   UNL A   1      41.007  35.332  35.803  1.00  0.00    -0.203 F 
ATOM     87  F   UNL A   1      37.786  33.802  39.931  1.00  0.00    -0.200 F 
ATOM     88  C   UNL A   1      39.278  35.369  38.986  1.00  0.00     0.200 A 
ATOM     89  F   UNL A   1      40.766  36.908  37.990  1.00  0.00    -0.200 F 
ATOM     90  F   UNL A   1      39.137  36.170  40.050  1.00  0.00    -0.200 F 
ENDBRANCH  56  80
BRANCH  68  91
ATOM     91  C   UNL A   1      43.961  28.581  34.998  1.00  0.00     0.064 A 
ATOM     92  C   UNL A   1      43.846  27.461  35.833  1.00  0.00     0.173 A 
ATOM     93  C   UNL A   1      45.241  29.119  34.793  1.00  0.00     0.173 A 
ATOM     94  F   UNL A   1      42.643  26.918  36.074  1.00  0.00    -0.203 F 
ATOM     95  C   UNL A   1      44.965  26.918  36.461  1.00  0.00     0.198 A 
ATOM     96  C   UNL A   1      46.361  28.553  35.393  1.00  0.00     0.198 A 
ATOM     97  F   UNL A   1      45.408  30.186  33.998  1.00  0.00    -0.203 F 
ATOM     98  F   UNL A   1      44.823  25.880  37.297  1.00  0.00    -0.200 F 
ATOM     99  C   UNL A   1      46.221  27.458  36.233  1.00  0.00     0.200 A 
ATOM    100  F   UNL A   1      47.576  29.065  35.159  1.00  0.00    -0.200 F 
ATOM    101  F   UNL A   1      47.298  26.928  36.830  1.00  0.00    -0.200 F 
ENDBRANCH  68  91
ENDBRANCH  42  43
ENDBRANCH  34  37
ENDBRANCH  32  33
ENDBRANCH  31  32
ENDBRANCH  30  31
ENDBRANCH   1  30
TORSDOF 18
ENDMDL
MODEL 2
REMARK VINA RESULT:     -12.4      0.516      7.059
REMARK SMILES Cc1ccc(NC(=O)C[C@@H](C(=O)NCCCCCCNC(=O)c2ccc(-c3c4nc(c(-c5c(F)c(F)c(F)c(F)c5F)c5ccc([nH]5)c(-c5c(F)c(F)c(F)c(F)c5F)c5nc(c(-c6c(F)c(F)c(F)c(F)c6F)c6ccc3[nH]6)C=C5)C=C4)cc2)[C@@H](C)c2ccccc2)cc1Br
REMARK SMILES IDX 16 1 15 2 14 3 13 4 11 5 12 6 10 8 9 9 7 10 6 11 8 13 5 14
REMARK SMILES IDX 1 15 2 16 3 17 95 18 4 19 94 20 96 21 86 22 87 23 88 24
REMARK SMILES IDX 89 25 93 26 90 27 92 28 91 29 17 30 18 31 19 32 20 33 21 34
REMARK SMILES IDX 22 36 23 37 24 38 85 39 25 40 84 41 26 42 27 43 28 44 78 45
REMARK SMILES IDX 29 46 83 47 77 48 79 49 30 50 82 51 76 52 75 53 31 55 63 56
REMARK SMILES IDX 43 57 62 58 44 59 47 60 61 61 80 62 45 63 46 64 60 66 81 67
REMARK SMILES IDX 48 68 32 69 33 70 41 71 34 72 35 73 39 74 42 75 36 76 37 77
REMARK SMILES IDX 40 78 38 79 64 80 65 81 73 82 66 83 67 84 71 85 74 86 68 87
REMARK SMILES IDX 69 88 72 89 70 90 49 91 50 92 58 93 51 94 52 95 56 96 59 97
REMARK SMILES IDX 53 98 54 99 57 100 55 101
REMARK H PARENT 13 7 6 12 20 35 79 54 47 65
REMARK Flexibility Score: inf
ROOT
ATOM      1  C   UNL A   1      32.817  29.630  25.859  1.00  0.00     0.002 C 
ENDROOT
BRANCH   1   2
ATOM      2  C   UNL A   1      32.719  29.340  24.352  1.00  0.00     0.021 C 
BRANCH   2   3
ATOM      3  C   UNL A   1      34.015  28.895  23.662  1.00  0.00     0.116 C 
BRANCH   3   4
ATOM      4  N   UNL A   1      33.728  28.092  22.494  1.00  0.00    -0.356 N 
ATOM      5  C   UNL A   1      33.425  26.790  22.294  1.00  0.00     0.224 C 
ATOM      6  O   UNL A   1      33.449  26.456  21.109  1.00  0.00    -0.275 OA
ATOM      7  H   UNL A   1      33.760  28.611  21.658  1.00  0.00     0.163 HD
BRANCH   5   8
ATOM      8  C   UNL A   1      33.058  25.827  23.426  1.00  0.00     0.095 C 
BRANCH   8   9
ATOM      9  C   UNL A   1      31.703  26.104  24.134  1.00  0.00     0.114 C 
BRANCH   9  10
ATOM     10  C   UNL A   1      30.469  25.253  23.966  1.00  0.00     0.225 C 
ATOM     11  N   UNL A   1      30.485  23.894  23.897  1.00  0.00    -0.326 N 
ATOM     12  H   UNL A   1      29.634  23.491  23.607  1.00  0.00     0.169 HD
ATOM     13  O   UNL A   1      29.366  25.809  23.879  1.00  0.00    -0.275 OA
BRANCH  11  14
ATOM     14  C   UNL A   1      31.500  22.970  24.167  1.00  0.00     0.042 A 
ATOM     15  C   UNL A   1      33.986  19.515  24.810  1.00  0.00     0.045 C 
ATOM     16  C   UNL A   1      33.226  20.791  24.586  1.00  0.00    -0.037 A 
ATOM     17  C   UNL A   1      32.731  21.070  23.306  1.00  0.00     0.007 A 
ATOM     18  C   UNL A   1      32.938  21.692  25.624  1.00  0.00     0.022 A 
ATOM     19  C   UNL A   1      31.907  22.174  23.093  1.00  0.00     0.026 A 
ATOM     20  C   UNL A   1      32.067  22.770  25.420  1.00  0.00     0.042 A 
ATOM     21  Br  UNL A   1      33.678  21.482  27.363  1.00  0.00    -0.050 Br
ENDBRANCH  11  14
ENDBRANCH   9  10
ENDBRANCH   8   9
BRANCH   8  22
ATOM     22  C   UNL A   1      34.163  25.719  24.567  1.00  0.00     0.029 C 
ATOM     23  C   UNL A   1      33.525  25.941  25.964  1.00  0.00     0.013 C 
BRANCH  22  24
ATOM     24  C   UNL A   1      35.074  24.487  24.603  1.00  0.00    -0.044 A 
ATOM     25  C   UNL A   1      35.824  24.109  25.727  1.00  0.00     0.004 A 
ATOM     26  C   UNL A   1      35.274  23.749  23.423  1.00  0.00     0.004 A 
ATOM     27  C   UNL A   1      36.727  23.040  25.663  1.00  0.00     0.000 A 
ATOM     28  C   UNL A   1      36.136  22.653  23.369  1.00  0.00     0.000 A 
ATOM     29  C   UNL A   1      36.871  22.303  24.490  1.00  0.00     0.000 A 
ENDBRANCH  22  24
ENDBRANCH   8  22
ENDBRANCH   5   8
ENDBRANCH   3   4
ENDBRANCH   2   3
ENDBRANCH   1   2
BRANCH   1  30
ATOM     30  C   UNL A   1      31.569  30.244  26.483  1.00  0.00     0.002 C 
BRANCH  30  31
ATOM     31  C   UNL A   1      31.550  31.771  26.480  1.00  0.00     0.021 C 
BRANCH  31  32
ATOM     32  C   UNL A   1      32.724  32.422  27.204  1.00  0.00     0.116 C 
BRANCH  32  33
ATOM     33  N   UNL A   1      32.479  33.823  27.505  1.00  0.00    -0.352 N 
ATOM     34  C   UNL A   1      33.075  34.599  28.467  1.00  0.00     0.251 C 
ATOM     35  H   UNL A   1      31.801  34.271  26.948  1.00  0.00     0.163 HD
ATOM     36  O   UNL A   1      32.643  35.714  28.742  1.00  0.00    -0.269 OA
BRANCH  34  37
ATOM     37  C   UNL A   1      34.238  34.052  29.190  1.00  0.00     0.039 A 
ATOM     38  C   UNL A   1      34.026  33.211  30.281  1.00  0.00     0.014 A 
ATOM     39  C   UNL A   1      35.532  34.323  28.735  1.00  0.00     0.014 A 
ATOM     40  C   UNL A   1      35.118  32.589  30.886  1.00  0.00     0.010 A 
ATOM     41  C   UNL A   1      36.609  33.635  29.284  1.00  0.00     0.010 A 
ATOM     42  C   UNL A   1      36.414  32.770  30.372  1.00  0.00    -0.014 A 
BRANCH  42  43
ATOM     43  C   UNL A   1      37.580  32.073  30.970  1.00  0.00     0.031 A 
ATOM     44  C   UNL A   1      38.054  32.454  32.345  1.00  0.00     0.074 A 
ATOM     45  C   UNL A   1      38.238  31.136  30.260  1.00  0.00     0.049 A 
ATOM     46  N   UNL A   1      39.074  31.996  33.026  1.00  0.00    -0.248 NA
ATOM     47  C   UNL A   1      37.300  33.512  33.035  1.00  0.00     0.031 C 
ATOM     48  C   UNL A   1      37.904  30.717  28.898  1.00  0.00     0.029 A 
ATOM     49  N   UNL A   1      39.331  30.370  30.584  1.00  0.00    -0.354 N 
ATOM     50  C   UNL A   1      39.087  32.715  34.214  1.00  0.00     0.074 A 
ATOM     51  C   UNL A   1      38.017  33.685  34.135  1.00  0.00     0.031 C 
ATOM     52  C   UNL A   1      38.754  29.750  28.515  1.00  0.00     0.029 A 
ATOM     53  C   UNL A   1      39.716  29.510  29.586  1.00  0.00     0.049 A 
ATOM     54  H   UNL A   1      39.794  30.432  31.451  1.00  0.00     0.167 HD
ATOM     55  C   UNL A   1      39.900  32.562  35.285  1.00  0.00     0.037 A 
ATOM     56  C   UNL A   1      40.736  28.631  29.538  1.00  0.00     0.037 A 
ATOM     57  C   UNL A   1      40.951  31.583  35.366  1.00  0.00     0.049 A 
ATOM     58  C   UNL A   1      41.635  28.491  30.738  1.00  0.00     0.074 A 
ATOM     59  C   UNL A   1      41.793  31.306  36.427  1.00  0.00     0.029 A 
ATOM     60  N   UNL A   1      41.308  30.723  34.336  1.00  0.00    -0.354 N 
ATOM     61  N   UNL A   1      41.590  29.122  31.886  1.00  0.00    -0.248 NA
ATOM     62  C   UNL A   1      42.725  27.511  30.636  1.00  0.00     0.031 C 
ATOM     63  C   UNL A   1      42.697  30.319  36.022  1.00  0.00     0.029 A 
ATOM     64  C   UNL A   1      42.378  29.935  34.728  1.00  0.00     0.049 A 
ATOM     65  H   UNL A   1      40.866  30.679  33.457  1.00  0.00     0.167 HD
ATOM     66  C   UNL A   1      42.622  28.597  32.652  1.00  0.00     0.074 A 
ATOM     67  C   UNL A   1      43.266  27.582  31.844  1.00  0.00     0.031 C 
ATOM     68  C   UNL A   1      43.003  28.925  33.911  1.00  0.00     0.037 A 
BRANCH  55  69
ATOM     69  C   UNL A   1      39.682  33.476  36.458  1.00  0.00     0.064 A 
ATOM     70  C   UNL A   1      38.827  33.128  37.517  1.00  0.00     0.173 A 
ATOM     71  C   UNL A   1      40.358  34.702  36.539  1.00  0.00     0.173 A 
ATOM     72  F   UNL A   1      38.147  31.972  37.484  1.00  0.00    -0.203 F 
ATOM     73  C   UNL A   1      38.632  33.988  38.594  1.00  0.00     0.198 A 
ATOM     74  C   UNL A   1      40.187  35.545  37.635  1.00  0.00     0.198 A 
ATOM     75  F   UNL A   1      41.190  35.084  35.559  1.00  0.00    -0.203 F 
ATOM     76  F   UNL A   1      37.767  33.660  39.563  1.00  0.00    -0.200 F 
ATOM     77  C   UNL A   1      39.317  35.193  38.656  1.00  0.00     0.200 A 
ATOM     78  F   UNL A   1      40.861  36.701  37.701  1.00  0.00    -0.200 F 
ATOM     79  F   UNL A   1      39.133  36.016  39.697  1.00  0.00    -0.200 F 
ENDBRANCH  55  69
BRANCH  56  80
ATOM     80  C   UNL A   1      40.947  27.799  28.324  1.00  0.00     0.064 A 
ATOM     81  C   UNL A   1      40.333  26.545  28.193  1.00  0.00     0.173 A 
ATOM     82  C   UNL A   1      41.772  28.232  27.276  1.00  0.00     0.173 A 
ATOM     83  F   UNL A   1      39.550  26.076  29.176  1.00  0.00    -0.203 F 
ATOM     84  C   UNL A   1      40.555  25.747  27.073  1.00  0.00     0.198 A 
ATOM     85  C   UNL A   1      41.968  27.447  26.141  1.00  0.00     0.198 A 
ATOM     86  F   UNL A   1      42.379  29.426  27.348  1.00  0.00    -0.203 F 
ATOM     87  F   UNL A   1      39.997  24.531  26.996  1.00  0.00    -0.200 F 
ATOM     88  C   UNL A   1      41.367  26.201  26.044  1.00  0.00     0.200 A 
ATOM     89  F   UNL A   1      42.739  27.898  25.143  1.00  0.00    -0.200 F 
ATOM     90  F   UNL A   1      41.578  25.436  24.966  1.00  0.00    -0.200 F 
ENDBRANCH  56  80
BRANCH  68  91
ATOM     91  C   UNL A   1      44.148  28.157  34.508  1.00  0.00     0.064 A 
ATOM     92  C   UNL A   1      45.469  28.622  34.433  1.00  0.00     0.173 A 
ATOM     93  C   UNL A   1      43.913  26.958  35.200  1.00  0.00     0.173 A 
ATOM     94  F   UNL A   1      45.750  29.754  33.771  1.00  0.00    -0.203 F 
ATOM     95  C   UNL A   1      46.515  27.900  35.002  1.00  0.00     0.198 A 
ATOM     96  C   UNL A   1      44.956  26.258  35.798  1.00  0.00     0.198 A 
ATOM     97  F   UNL A   1      42.667  26.472  35.308  1.00  0.00    -0.203 F 
ATOM     98  F   UNL A   1      47.776  28.337  34.871  1.00  0.00    -0.200 F 
ATOM     99  C   UNL A   1      46.257  26.725  35.692  1.00  0.00     0.200 A 
ATOM    100  F   UNL A   1      44.702  25.132  36.478  1.00  0.00    -0.200 F 
ATOM    101  F   UNL A   1      47.265  26.037  36.247  1.00  0.00    -0.200 F 
ENDBRANCH  68  91
ENDBRANCH  42  43
ENDBRANCH  34  37
ENDBRANCH  32  33
ENDBRANCH  31  32
ENDBRANCH  30  31
ENDBRANCH   1  30
TORSDOF 18
ENDMDL
MODEL 3
REMARK VINA RESULT:     -12.1      1.467      2.638
REMARK SMILES Cc1ccc(NC(=O)C[C@@H](C(=O)NCCCCCCNC(=O)c2ccc(-c3c4nc(c(-c5c(F)c(F)c(F)c(F)c5F)c5ccc([nH]5)c(-c5c(F)c(F)c(F)c(F)c5F)c5nc(c(-c6c(F)c(F)c(F)c(F)c6F)c6ccc3[nH]6)C=C5)C=C4)cc2)[C@@H](C)c2ccccc2)cc1Br
REMARK SMILES IDX 16 1 15 2 14 3 13 4 11 5 12 6 10 8 9 9 7 10 6 11 8 13 5 14
REMARK SMILES IDX 1 15 2 16 3 17 95 18 4 19 94 20 96 21 86 22 87 23 88 24
REMARK SMILES IDX 89 25 93 26 90 27 92 28 91 29 17 30 18 31 19 32 20 33 21 34
REMARK SMILES IDX 22 36 23 37 24 38 85 39 25 40 84 41 26 42 27 43 28 44 78 45
REMARK SMILES IDX 29 46 83 47 77 48 79 49 30 50 82 51 76 52 75 53 31 55 63 56
REMARK SMILES IDX 43 57 62 58 44 59 47 60 61 61 80 62 45 63 46 64 60 66 81 67
REMARK SMILES IDX 48 68 32 69 33 70 41 71 34 72 35 73 39 74 42 75 36 76 37 77
REMARK SMILES IDX 40 78 38 79 64 80 65 81 73 82 66 83 67 84 71 85 74 86 68 87
REMARK SMILES IDX 69 88 72 89 70 90 49 91 50 92 58 93 51 94 52 95 56 96 59 97
REMARK SMILES IDX 53 98 54 99 57 100 55 101
REMARK H PARENT 13 7 6 12 20 35 79 54 47 65
REMARK Flexibility Score: inf
ROOT
ATOM      1  C   UNL A   1      32.120  29.430  27.009  1.00  0.00     0.002 C 
ENDROOT
BRANCH   1   2
ATOM      2  C   UNL A   1      33.498  28.776  26.813  1.00  0.00     0.021 C 
BRANCH   2   3
ATOM      3  C   UNL A   1      33.499  27.365  26.213  1.00  0.00     0.116 C 
BRANCH   3   4
ATOM      4  N   UNL A   1      32.314  26.636  26.606  1.00  0.00    -0.356 N 
ATOM      5  C   UNL A   1      31.843  25.393  26.357  1.00  0.00     0.224 C 
ATOM      6  O   UNL A   1      30.679  25.226  26.723  1.00  0.00    -0.275 OA
ATOM      7  H   UNL A   1      31.716  27.163  27.184  1.00  0.00     0.163 HD
BRANCH   5   8
ATOM      8  C   UNL A   1      32.682  24.287  25.711  1.00  0.00     0.095 C 
BRANCH   8   9
ATOM      9  C   UNL A   1      31.882  23.118  25.075  1.00  0.00     0.114 C 
BRANCH   9  10
ATOM     10  C   UNL A   1      32.048  22.655  23.649  1.00  0.00     0.225 C 
ATOM     11  N   UNL A   1      32.051  23.488  22.572  1.00  0.00    -0.326 N 
ATOM     12  H   UNL A   1      31.986  23.030  21.703  1.00  0.00     0.169 HD
ATOM     13  O   UNL A   1      32.185  21.445  23.425  1.00  0.00    -0.275 OA
BRANCH  11  14
ATOM     14  C   UNL A   1      32.132  24.882  22.488  1.00  0.00     0.042 A 
ATOM     15  C   UNL A   1      32.893  29.091  22.966  1.00  0.00     0.045 C 
ATOM     16  C   UNL A   1      32.583  27.650  22.682  1.00  0.00    -0.037 A 
ATOM     17  C   UNL A   1      33.635  26.777  22.376  1.00  0.00     0.007 A 
ATOM     18  C   UNL A   1      31.284  27.124  22.769  1.00  0.00     0.022 A 
ATOM     19  C   UNL A   1      33.402  25.410  22.241  1.00  0.00     0.026 A 
ATOM     20  C   UNL A   1      31.060  25.743  22.686  1.00  0.00     0.042 A 
ATOM     21  Br  UNL A   1      29.770  28.243  23.039  1.00  0.00    -0.050 Br
ENDBRANCH  11  14
ENDBRANCH   9  10
ENDBRANCH   8   9
BRANCH   8  22
ATOM     22  C   UNL A   1      33.756  23.635  26.689  1.00  0.00     0.029 C 
ATOM     23  C   UNL A   1      33.098  22.531  27.558  1.00  0.00     0.013 C 
BRANCH  22  24
ATOM     24  C   UNL A   1      35.075  23.119  26.105  1.00  0.00    -0.044 A 
ATOM     25  C   UNL A   1      36.074  23.956  25.587  1.00  0.00     0.004 A 
ATOM     26  C   UNL A   1      35.265  21.733  25.964  1.00  0.00     0.004 A 
ATOM     27  C   UNL A   1      37.209  23.421  24.961  1.00  0.00     0.000 A 
ATOM     28  C   UNL A   1      36.416  21.195  25.387  1.00  0.00     0.000 A 
ATOM     29  C   UNL A   1      37.387  22.042  24.876  1.00  0.00     0.000 A 
ENDBRANCH  22  24
ENDBRANCH   8  22
ENDBRANCH   5   8
ENDBRANCH   3   4
ENDBRANCH   2   3
ENDBRANCH   1   2
BRANCH   1  30
ATOM     30  C   UNL A   1      31.834  30.623  26.103  1.00  0.00     0.002 C 
BRANCH  30  31
ATOM     31  C   UNL A   1      31.509  31.915  26.850  1.00  0.00     0.021 C 
BRANCH  31  32
ATOM     32  C   UNL A   1      32.727  32.678  27.359  1.00  0.00     0.116 C 
BRANCH  32  33
ATOM     33  N   UNL A   1      32.438  34.082  27.600  1.00  0.00    -0.352 N 
ATOM     34  C   UNL A   1      32.984  34.908  28.551  1.00  0.00     0.251 C 
ATOM     35  H   UNL A   1      31.768  34.492  27.007  1.00  0.00     0.163 HD
ATOM     36  O   UNL A   1      32.517  36.020  28.772  1.00  0.00    -0.269 OA
BRANCH  34  37
ATOM     37  C   UNL A   1      34.138  34.418  29.328  1.00  0.00     0.039 A 
ATOM     38  C   UNL A   1      33.915  33.788  30.551  1.00  0.00     0.014 A 
ATOM     39  C   UNL A   1      35.430  34.525  28.804  1.00  0.00     0.014 A 
ATOM     40  C   UNL A   1      34.989  33.208  31.228  1.00  0.00     0.010 A 
ATOM     41  C   UNL A   1      36.482  33.873  29.435  1.00  0.00     0.010 A 
ATOM     42  C   UNL A   1      36.275  33.217  30.659  1.00  0.00    -0.014 A 
BRANCH  42  43
ATOM     43  C   UNL A   1      37.418  32.558  31.339  1.00  0.00     0.031 A 
ATOM     44  C   UNL A   1      38.113  31.400  30.679  1.00  0.00     0.074 A 
ATOM     45  C   UNL A   1      37.795  32.967  32.565  1.00  0.00     0.049 A 
ATOM     46  N   UNL A   1      39.101  30.664  31.123  1.00  0.00    -0.248 NA
ATOM     47  C   UNL A   1      37.612  30.994  29.356  1.00  0.00     0.031 C 
ATOM     48  C   UNL A   1      37.166  34.046  33.328  1.00  0.00     0.029 A 
ATOM     49  N   UNL A   1      38.798  32.520  33.389  1.00  0.00    -0.354 N 
ATOM     50  C   UNL A   1      39.330  29.709  30.141  1.00  0.00     0.074 A 
ATOM     51  C   UNL A   1      38.337  29.914  29.109  1.00  0.00     0.031 C 
ATOM     52  C   UNL A   1      37.815  34.197  34.494  1.00  0.00     0.029 A 
ATOM     53  C   UNL A   1      38.878  33.200  34.580  1.00  0.00     0.049 A 
ATOM     54  H   UNL A   1      39.403  31.781  33.149  1.00  0.00     0.167 HD
ATOM     55  C   UNL A   1      40.298  28.764  30.092  1.00  0.00     0.037 A 
ATOM     56  C   UNL A   1      39.712  33.034  35.624  1.00  0.00     0.037 A 
ATOM     57  C   UNL A   1      41.294  28.577  31.113  1.00  0.00     0.049 A 
ATOM     58  C   UNL A   1      40.770  31.965  35.550  1.00  0.00     0.074 A 
ATOM     59  C   UNL A   1      42.354  27.689  31.132  1.00  0.00     0.029 A 
ATOM     60  N   UNL A   1      41.348  29.290  32.302  1.00  0.00    -0.354 N 
ATOM     61  N   UNL A   1      41.027  31.118  34.583  1.00  0.00    -0.248 NA
ATOM     62  C   UNL A   1      41.659  31.833  36.713  1.00  0.00     0.031 C 
ATOM     63  C   UNL A   1      43.014  27.823  32.357  1.00  0.00     0.029 A 
ATOM     64  C   UNL A   1      42.405  28.840  33.075  1.00  0.00     0.049 A 
ATOM     65  H   UNL A   1      40.726  30.010  32.558  1.00  0.00     0.167 HD
ATOM     66  C   UNL A   1      42.122  30.375  35.005  1.00  0.00     0.074 A 
ATOM     67  C   UNL A   1      42.491  30.883  36.309  1.00  0.00     0.031 C 
ATOM     68  C   UNL A   1      42.762  29.362  34.371  1.00  0.00     0.037 A 
BRANCH  55  69
ATOM     69  C   UNL A   1      40.325  27.860  28.891  1.00  0.00     0.064 A 
ATOM     70  C   UNL A   1      41.060  28.184  27.739  1.00  0.00     0.173 A 
ATOM     71  C   UNL A   1      39.630  26.642  28.902  1.00  0.00     0.173 A 
ATOM     72  F   UNL A   1      41.733  29.343  27.671  1.00  0.00    -0.203 F 
ATOM     73  C   UNL A   1      41.070  27.339  26.633  1.00  0.00     0.198 A 
ATOM     74  C   UNL A   1      39.671  25.782  27.807  1.00  0.00     0.198 A 
ATOM     75  F   UNL A   1      38.915  26.279  29.977  1.00  0.00    -0.203 F 
ATOM     76  F   UNL A   1      41.732  27.697  25.525  1.00  0.00    -0.200 F 
ATOM     77  C   UNL A   1      40.382  26.135  26.670  1.00  0.00     0.200 A 
ATOM     78  F   UNL A   1      39.018  24.612  27.851  1.00  0.00    -0.200 F 
ATOM     79  F   UNL A   1      40.399  25.319  25.608  1.00  0.00    -0.200 F 
ENDBRANCH  55  69
BRANCH  56  80
ATOM     80  C   UNL A   1      39.597  33.913  36.818  1.00  0.00     0.064 A 
ATOM     81  C   UNL A   1      38.834  33.525  37.929  1.00  0.00     0.173 A 
ATOM     82  C   UNL A   1      40.235  35.161  36.871  1.00  0.00     0.173 A 
ATOM     83  F   UNL A   1      38.187  32.349  37.919  1.00  0.00    -0.203 F 
ATOM     84  C   UNL A   1      38.694  34.360  39.035  1.00  0.00     0.198 A 
ATOM     85  C   UNL A   1      40.121  35.981  37.992  1.00  0.00     0.198 A 
ATOM     86  F   UNL A   1      40.982  35.578  35.838  1.00  0.00    -0.203 F 
ATOM     87  F   UNL A   1      37.917  33.986  40.061  1.00  0.00    -0.200 F 
ATOM     88  C   UNL A   1      39.343  35.585  39.069  1.00  0.00     0.200 A 
ATOM     89  F   UNL A   1      40.764  37.156  38.027  1.00  0.00    -0.200 F 
ATOM     90  F   UNL A   1      39.212  36.386  40.134  1.00  0.00    -0.200 F 
ENDBRANCH  56  80
BRANCH  68  91
ATOM     91  C   UNL A   1      43.952  28.759  35.062  1.00  0.00     0.064 A 
ATOM     92  C   UNL A   1      43.827  27.659  35.922  1.00  0.00     0.173 A 
ATOM     93  C   UNL A   1      45.241  29.266  34.827  1.00  0.00     0.173 A 
ATOM     94  F   UNL A   1      42.618  27.146  36.192  1.00  0.00    -0.203 F 
ATOM     95  C   UNL A   1      44.944  27.106  36.544  1.00  0.00     0.198 A 
ATOM     96  C   UNL A   1      46.358  28.689  35.422  1.00  0.00     0.198 A 
ATOM     97  F   UNL A   1      45.417  30.312  34.006  1.00  0.00    -0.203 F 
ATOM     98  F   UNL A   1      44.794  26.089  37.404  1.00  0.00    -0.200 F 
ATOM     99  C   UNL A   1      46.208  27.616  36.287  1.00  0.00     0.200 A 
ATOM    100  F   UNL A   1      47.579  29.172  35.159  1.00  0.00    -0.200 F 
ATOM    101  F   UNL A   1      47.283  27.076  36.880  1.00  0.00    -0.200 F 
ENDBRANCH  68  91
ENDBRANCH  42  43
ENDBRANCH  34  37
ENDBRANCH  32  33
ENDBRANCH  31  32
ENDBRANCH  30  31
ENDBRANCH   1  30
TORSDOF 18
ENDMDL
