MODEL 1
REMARK VINA RESULT:     -12.8      0.000      0.000
REMARK SMILES O=C(NCCCCCCNC(=O)c1cc(Cl)ccc1NC(=O)c1ccc2c(c1)C(=O)N(Cc1ccco1)C2=O)c1ccc(-c2c3nc(c(-c4c(F)c(F)c(F)c(F)c4F)c4ccc([nH]4)c(-c4c(F)c(F)c(F)c(F)c4F)c4nc(c(-c5c(F)c(F)c(F)c(F)c5F)c5ccc2[nH]5)C=C4)C=C3)cc1
REMARK SMILES IDX 7 1 6 2 5 3 4 4 3 5 1 6 2 7 40 9 41 10 102 11 42 12 101 13
REMARK SMILES IDX 43 14 44 15 45 16 95 17 46 18 100 19 94 20 96 21 47 22 99 23
REMARK SMILES IDX 93 24 92 25 48 27 80 28 60 29 79 30 61 31 64 32 78 33 97 34
REMARK SMILES IDX 62 35 63 36 77 38 98 39 65 40 49 41 50 42 58 43 51 44 52 45
REMARK SMILES IDX 56 46 59 47 53 48 54 49 57 50 55 51 81 52 82 53 90 54 83 55
REMARK SMILES IDX 84 56 88 57 91 58 85 59 86 60 89 61 87 62 66 63 67 64 75 65
REMARK SMILES IDX 68 66 69 67 73 68 76 69 70 70 71 71 74 72 72 73 8 74 9 75
REMARK SMILES IDX 10 76 11 77 12 79 13 80 14 81 19 82 15 83 18 84 16 85 17 86
REMARK SMILES IDX 20 87 21 88 22 90 23 91 24 92 28 93 25 94 27 95 26 96 29 97
REMARK SMILES IDX 38 98 30 99 31 100 39 101 32 102 33 103 34 104 37 105 35 106
REMARK SMILES IDX 36 107
REMARK H PARENT 3 8 96 26 64 37 10 78 20 89
REMARK Flexibility Score: inf
ROOT
ATOM      1  C   UNL A   1      37.040  22.476  24.538  1.00  0.00     0.002 C 
ENDROOT
BRANCH   1   2
ATOM      2  C   UNL A   1      38.053  22.009  25.588  1.00  0.00     0.002 C 
BRANCH   2   3
ATOM      3  C   UNL A   1      38.753  20.685  25.275  1.00  0.00     0.021 C 
BRANCH   3   4
ATOM      4  C   UNL A   1      39.401  20.010  26.478  1.00  0.00     0.116 C 
BRANCH   4   5
ATOM      5  N   UNL A   1      40.558  19.215  26.101  1.00  0.00    -0.352 N 
ATOM      6  O   UNL A   1      42.669  18.841  25.403  1.00  0.00    -0.269 OA
ATOM      7  C   UNL A   1      41.860  19.604  25.921  1.00  0.00     0.251 C 
ATOM      8  H   UNL A   1      40.380  18.258  25.953  1.00  0.00     0.163 HD
BRANCH   7   9
ATOM      9  C   UNL A   1      42.288  20.955  26.338  1.00  0.00     0.039 A 
ATOM     10  C   UNL A   1      42.616  21.223  27.671  1.00  0.00     0.014 A 
ATOM     11  C   UNL A   1      42.391  21.958  25.372  1.00  0.00     0.014 A 
ATOM     12  C   UNL A   1      42.937  22.521  28.058  1.00  0.00     0.010 A 
ATOM     13  C   UNL A   1      42.786  23.242  25.749  1.00  0.00     0.010 A 
ATOM     14  C   UNL A   1      43.043  23.537  27.097  1.00  0.00    -0.014 A 
BRANCH  14  15
ATOM     15  C   UNL A   1      43.482  24.898  27.490  1.00  0.00     0.031 A 
ATOM     16  C   UNL A   1      42.506  25.881  28.065  1.00  0.00     0.074 A 
ATOM     17  C   UNL A   1      44.760  25.260  27.273  1.00  0.00     0.049 A 
ATOM     18  N   UNL A   1      42.679  27.145  28.358  1.00  0.00    -0.248 NA
ATOM     19  C   UNL A   1      41.151  25.379  28.336  1.00  0.00     0.031 C 
ATOM     20  C   UNL A   1      45.795  24.389  26.716  1.00  0.00     0.029 A 
ATOM     21  N   UNL A   1      45.399  26.457  27.470  1.00  0.00    -0.354 N 
ATOM     22  C   UNL A   1      41.451  27.597  28.822  1.00  0.00     0.074 A 
ATOM     23  C   UNL A   1      40.535  26.479  28.746  1.00  0.00     0.031 C 
ATOM     24  C   UNL A   1      46.939  25.079  26.613  1.00  0.00     0.029 A 
ATOM     25  C   UNL A   1      46.699  26.456  27.032  1.00  0.00     0.049 A 
ATOM     26  H   UNL A   1      44.968  27.239  27.884  1.00  0.00     0.167 HD
ATOM     27  C   UNL A   1      41.125  28.834  29.270  1.00  0.00     0.037 A 
ATOM     28  C   UNL A   1      47.589  27.461  26.931  1.00  0.00     0.037 A 
ATOM     29  C   UNL A   1      42.049  29.939  29.332  1.00  0.00     0.049 A 
ATOM     30  C   UNL A   1      47.193  28.837  27.383  1.00  0.00     0.074 A 
ATOM     31  C   UNL A   1      41.833  31.219  29.811  1.00  0.00     0.029 A 
ATOM     32  N   UNL A   1      43.361  29.899  28.879  1.00  0.00    -0.354 N 
ATOM     33  N   UNL A   1      46.045  29.248  27.864  1.00  0.00    -0.248 NA
ATOM     34  C   UNL A   1      48.214  29.889  27.282  1.00  0.00     0.031 C 
ATOM     35  C   UNL A   1      42.988  31.973  29.580  1.00  0.00     0.029 A 
ATOM     36  C   UNL A   1      43.953  31.143  29.032  1.00  0.00     0.049 A 
ATOM     37  H   UNL A   1      43.806  29.105  28.504  1.00  0.00     0.167 HD
ATOM     38  C   UNL A   1      46.210  30.595  28.151  1.00  0.00     0.074 A 
ATOM     39  C   UNL A   1      47.572  30.934  27.789  1.00  0.00     0.031 C 
ATOM     40  C   UNL A   1      45.315  31.466  28.677  1.00  0.00     0.037 A 
BRANCH  27  41
ATOM     41  C   UNL A   1      39.697  29.068  29.681  1.00  0.00     0.064 A 
ATOM     42  C   UNL A   1      38.712  29.467  28.765  1.00  0.00     0.173 A 
ATOM     43  C   UNL A   1      39.307  28.888  31.019  1.00  0.00     0.173 A 
ATOM     44  F   UNL A   1      39.028  29.660  27.475  1.00  0.00    -0.203 F 
ATOM     45  C   UNL A   1      37.408  29.727  29.180  1.00  0.00     0.198 A 
ATOM     46  C   UNL A   1      37.993  29.110  31.422  1.00  0.00     0.198 A 
ATOM     47  F   UNL A   1      40.202  28.494  31.938  1.00  0.00    -0.203 F 
ATOM     48  F   UNL A   1      36.505  30.180  28.299  1.00  0.00    -0.200 F 
ATOM     49  C   UNL A   1      37.048  29.545  30.506  1.00  0.00     0.200 A 
ATOM     50  F   UNL A   1      37.645  28.915  32.701  1.00  0.00    -0.200 F 
ATOM     51  F   UNL A   1      35.795  29.800  30.904  1.00  0.00    -0.200 F 
ENDBRANCH  27  41
BRANCH  28  52
ATOM     52  C   UNL A   1      48.931  27.180  26.360  1.00  0.00     0.064 A 
ATOM     53  C   UNL A   1      49.997  26.789  27.179  1.00  0.00     0.173 A 
ATOM     54  C   UNL A   1      49.154  27.235  24.976  1.00  0.00     0.173 A 
ATOM     55  F   UNL A   1      49.837  26.735  28.508  1.00  0.00    -0.203 F 
ATOM     56  C   UNL A   1      51.238  26.466  26.633  1.00  0.00     0.198 A 
ATOM     57  C   UNL A   1      50.385  26.883  24.429  1.00  0.00     0.198 A 
ATOM     58  F   UNL A   1      48.159  27.593  24.149  1.00  0.00    -0.203 F 
ATOM     59  F   UNL A   1      52.251  26.118  27.439  1.00  0.00    -0.200 F 
ATOM     60  C   UNL A   1      51.428  26.502  25.259  1.00  0.00     0.200 A 
ATOM     61  F   UNL A   1      50.555  26.897  23.101  1.00  0.00    -0.200 F 
ATOM     62  F   UNL A   1      52.616  26.169  24.735  1.00  0.00    -0.200 F 
ENDBRANCH  28  52
BRANCH  40  63
ATOM     63  C   UNL A   1      45.782  32.867  28.952  1.00  0.00     0.064 A 
ATOM     64  C   UNL A   1      45.583  33.910  28.036  1.00  0.00     0.173 A 
ATOM     65  C   UNL A   1      46.358  33.183  30.193  1.00  0.00     0.173 A 
ATOM     66  F   UNL A   1      45.053  33.658  26.830  1.00  0.00    -0.203 F 
ATOM     67  C   UNL A   1      45.948  35.217  28.352  1.00  0.00     0.198 A 
ATOM     68  C   UNL A   1      46.693  34.494  30.517  1.00  0.00     0.198 A 
ATOM     69  F   UNL A   1      46.567  32.221  31.105  1.00  0.00    -0.203 F 
ATOM     70  F   UNL A   1      45.777  36.194  27.451  1.00  0.00    -0.200 F 
ATOM     71  C   UNL A   1      46.490  35.510  29.595  1.00  0.00     0.200 A 
ATOM     72  F   UNL A   1      47.199  34.776  31.725  1.00  0.00    -0.200 F 
ATOM     73  F   UNL A   1      46.816  36.772  29.906  1.00  0.00    -0.200 F 
ENDBRANCH  40  63
ENDBRANCH  14  15
ENDBRANCH   7   9
ENDBRANCH   4   5
ENDBRANCH   3   4
ENDBRANCH   2   3
ENDBRANCH   1   2
BRANCH   1  74
ATOM     74  C   UNL A   1      36.415  23.847  24.802  1.00  0.00     0.021 C 
BRANCH  74  75
ATOM     75  C   UNL A   1      34.927  23.813  25.137  1.00  0.00     0.116 C 
BRANCH  75  76
ATOM     76  N   UNL A   1      34.685  23.569  26.553  1.00  0.00    -0.352 N 
ATOM     77  C   UNL A   1      34.017  22.522  27.141  1.00  0.00     0.253 C 
ATOM     78  H   UNL A   1      35.049  24.244  27.170  1.00  0.00     0.163 HD
ATOM     79  O   UNL A   1      33.701  22.554  28.324  1.00  0.00    -0.269 OA
BRANCH  77  80
ATOM     80  C   UNL A   1      33.616  21.379  26.297  1.00  0.00     0.064 A 
ATOM     81  C   UNL A   1      34.623  20.505  25.855  1.00  0.00     0.036 A 
ATOM     82  C   UNL A   1      32.281  21.230  25.879  1.00  0.00     0.054 A 
ATOM     83  C   UNL A   1      34.332  19.568  24.877  1.00  0.00     0.041 A 
ATOM     84  C   UNL A   1      32.056  20.371  24.801  1.00  0.00     0.028 A 
ATOM     85  Cl  UNL A   1      35.563  18.522  24.296  1.00  0.00    -0.084 Cl
ATOM     86  C   UNL A   1      33.063  19.527  24.315  1.00  0.00     0.023 A 
BRANCH  82  87
ATOM     87  N   UNL A   1      31.255  21.939  26.556  1.00  0.00    -0.321 N 
ATOM     88  C   UNL A   1      30.764  23.224  26.438  1.00  0.00     0.255 C 
ATOM     89  H   UNL A   1      30.801  21.408  27.250  1.00  0.00     0.170 HD
ATOM     90  O   UNL A   1      29.936  23.660  27.233  1.00  0.00    -0.269 OA
BRANCH  88  91
ATOM     91  C   UNL A   1      31.212  24.116  25.352  1.00  0.00     0.041 A 
ATOM     92  C   UNL A   1      31.218  23.586  24.039  1.00  0.00     0.015 A 
ATOM     93  C   UNL A   1      31.479  25.473  25.598  1.00  0.00     0.028 A 
ATOM     94  C   UNL A   1      31.348  24.433  22.939  1.00  0.00     0.015 A 
ATOM     95  C   UNL A   1      31.575  26.288  24.488  1.00  0.00     0.054 A 
ATOM     96  C   UNL A   1      31.480  25.784  23.202  1.00  0.00     0.053 A 
ATOM     97  C   UNL A   1      31.569  27.748  24.389  1.00  0.00     0.261 C 
ATOM     98  C   UNL A   1      31.384  26.919  22.290  1.00  0.00     0.261 C 
ATOM     99  O   UNL A   1      31.532  28.487  25.354  1.00  0.00    -0.269 OA
ATOM    100  N   UNL A   1      31.501  28.045  23.058  1.00  0.00    -0.267 N 
ATOM    101  O   UNL A   1      31.151  26.806  21.104  1.00  0.00    -0.269 OA
BRANCH 100 102
ATOM    102  C   UNL A   1      31.389  29.388  22.529  1.00  0.00     0.204 C 
BRANCH 102 103
ATOM    103  C   UNL A   1      29.953  29.765  22.434  1.00  0.00     0.123 A 
ATOM    104  C   UNL A   1      28.961  29.955  23.375  1.00  0.00     0.047 A 
ATOM    105  O   UNL A   1      29.456  29.989  21.184  1.00  0.00    -0.467 OA
ATOM    106  C   UNL A   1      27.788  30.292  22.660  1.00  0.00     0.042 A 
ATOM    107  C   UNL A   1      28.144  30.309  21.333  1.00  0.00     0.195 A 
ENDBRANCH 102 103
ENDBRANCH 100 102
ENDBRANCH  88  91
ENDBRANCH  82  87
ENDBRANCH  77  80
ENDBRANCH  75  76
ENDBRANCH  74  75
ENDBRANCH   1  74
TORSDOF 17
ENDMDL
MODEL 2
REMARK VINA RESULT:     -12.4      5.677     11.795
REMARK SMILES O=C(NCCCCCCNC(=O)c1cc(Cl)ccc1NC(=O)c1ccc2c(c1)C(=O)N(Cc1ccco1)C2=O)c1ccc(-c2c3nc(c(-c4c(F)c(F)c(F)c(F)c4F)c4ccc([nH]4)c(-c4c(F)c(F)c(F)c(F)c4F)c4nc(c(-c5c(F)c(F)c(F)c(F)c5F)c5ccc2[nH]5)C=C4)C=C3)cc1
REMARK SMILES IDX 7 1 6 2 5 3 4 4 3 5 1 6 2 7 40 9 41 10 102 11 42 12 101 13
REMARK SMILES IDX 43 14 44 15 45 16 95 17 46 18 100 19 94 20 96 21 47 22 99 23
REMARK SMILES IDX 93 24 92 25 48 27 80 28 60 29 79 30 61 31 64 32 78 33 97 34
REMARK SMILES IDX 62 35 63 36 77 38 98 39 65 40 49 41 50 42 58 43 51 44 52 45
REMARK SMILES IDX 56 46 59 47 53 48 54 49 57 50 55 51 81 52 82 53 90 54 83 55
REMARK SMILES IDX 84 56 88 57 91 58 85 59 86 60 89 61 87 62 66 63 67 64 75 65
REMARK SMILES IDX 68 66 69 67 73 68 76 69 70 70 71 71 74 72 72 73 8 74 9 75
REMARK SMILES IDX 10 76 11 77 12 79 13 80 14 81 19 82 15 83 18 84 16 85 17 86
REMARK SMILES IDX 20 87 21 88 22 90 23 91 24 92 28 93 25 94 27 95 26 96 29 97
REMARK SMILES IDX 38 98 30 99 31 100 39 101 32 102 33 103 34 104 37 105 35 106
REMARK SMILES IDX 36 107
REMARK H PARENT 3 8 96 26 64 37 10 78 20 89
REMARK Flexibility Score: inf
ROOT
ATOM      1  C   UNL A   1      34.200  34.181  31.610  1.00  0.00     0.002 C 
ENDROOT
BRANCH   1   2
ATOM      2  C   UNL A   1      33.937  34.659  30.178  1.00  0.00     0.002 C 
BRANCH   2   3
ATOM      3  C   UNL A   1      34.527  33.774  29.078  1.00  0.00     0.021 C 
BRANCH   3   4
ATOM      4  C   UNL A   1      34.812  32.338  29.502  1.00  0.00     0.116 C 
BRANCH   4   5
ATOM      5  N   UNL A   1      34.237  31.372  28.581  1.00  0.00    -0.352 N 
ATOM      6  O   UNL A   1      34.249  29.749  27.016  1.00  0.00    -0.269 OA
ATOM      7  C   UNL A   1      34.843  30.341  27.911  1.00  0.00     0.251 C 
ATOM      8  H   UNL A   1      33.272  31.473  28.415  1.00  0.00     0.163 HD
BRANCH   7   9
ATOM      9  C   UNL A   1      36.225  29.950  28.259  1.00  0.00     0.039 A 
ATOM     10  C   UNL A   1      36.526  29.429  29.521  1.00  0.00     0.014 A 
ATOM     11  C   UNL A   1      37.225  30.079  27.292  1.00  0.00     0.014 A 
ATOM     12  C   UNL A   1      37.846  29.145  29.856  1.00  0.00     0.010 A 
ATOM     13  C   UNL A   1      38.536  29.721  27.605  1.00  0.00     0.010 A 
ATOM     14  C   UNL A   1      38.860  29.271  28.895  1.00  0.00    -0.014 A 
BRANCH  14  15
ATOM     15  C   UNL A   1      40.252  28.873  29.217  1.00  0.00     0.031 A 
ATOM     16  C   UNL A   1      41.181  29.829  29.905  1.00  0.00     0.074 A 
ATOM     17  C   UNL A   1      40.690  27.660  28.833  1.00  0.00     0.049 A 
ATOM     18  N   UNL A   1      42.458  29.701  30.163  1.00  0.00    -0.248 NA
ATOM     19  C   UNL A   1      40.600  31.102  30.353  1.00  0.00     0.031 C 
ATOM     20  C   UNL A   1      39.877  26.651  28.154  1.00  0.00     0.029 A 
ATOM     21  N   UNL A   1      41.928  27.078  28.936  1.00  0.00    -0.354 N 
ATOM     22  C   UNL A   1      42.840  30.885  30.777  1.00  0.00     0.074 A 
ATOM     23  C   UNL A   1      41.666  31.730  30.830  1.00  0.00     0.031 C 
ATOM     24  C   UNL A   1      40.635  25.576  27.898  1.00  0.00     0.029 A 
ATOM     25  C   UNL A   1      42.002  25.848  28.333  1.00  0.00     0.049 A 
ATOM     26  H   UNL A   1      42.688  27.503  29.396  1.00  0.00     0.167 HD
ATOM     27  C   UNL A   1      44.061  31.230  31.254  1.00  0.00     0.037 A 
ATOM     28  C   UNL A   1      43.058  25.045  28.110  1.00  0.00     0.037 A 
ATOM     29  C   UNL A   1      45.223  30.378  31.187  1.00  0.00     0.049 A 
ATOM     30  C   UNL A   1      44.414  25.468  28.598  1.00  0.00     0.074 A 
ATOM     31  C   UNL A   1      46.494  30.614  31.679  1.00  0.00     0.029 A 
ATOM     32  N   UNL A   1      45.258  29.136  30.569  1.00  0.00    -0.354 N 
ATOM     33  N   UNL A   1      44.760  26.568  29.220  1.00  0.00    -0.248 NA
ATOM     34  C   UNL A   1      45.526  24.539  28.357  1.00  0.00     0.031 C 
ATOM     35  C   UNL A   1      47.315  29.549  31.295  1.00  0.00     0.029 A 
ATOM     36  C   UNL A   1      46.539  28.610  30.634  1.00  0.00     0.049 A 
ATOM     37  H   UNL A   1      44.487  28.693  30.146  1.00  0.00     0.167 HD
ATOM     38  C   UNL A   1      46.120  26.455  29.472  1.00  0.00     0.074 A 
ATOM     39  C   UNL A   1      46.537  25.176  28.935  1.00  0.00     0.031 C 
ATOM     40  C   UNL A   1      46.941  27.329  30.102  1.00  0.00     0.037 A 
BRANCH  27  41
ATOM     41  C   UNL A   1      44.212  32.605  31.845  1.00  0.00     0.064 A 
ATOM     42  C   UNL A   1      44.448  33.737  31.050  1.00  0.00     0.173 A 
ATOM     43  C   UNL A   1      44.116  32.793  33.233  1.00  0.00     0.173 A 
ATOM     44  F   UNL A   1      44.554  33.617  29.717  1.00  0.00    -0.203 F 
ATOM     45  C   UNL A   1      44.635  34.992  31.625  1.00  0.00     0.198 A 
ATOM     46  C   UNL A   1      44.264  34.056  33.801  1.00  0.00     0.198 A 
ATOM     47  F   UNL A   1      43.878  31.751  34.043  1.00  0.00    -0.203 F 
ATOM     48  F   UNL A   1      44.934  36.044  30.849  1.00  0.00    -0.200 F 
ATOM     49  C   UNL A   1      44.540  35.152  32.999  1.00  0.00     0.200 A 
ATOM     50  F   UNL A   1      44.152  34.210  35.127  1.00  0.00    -0.200 F 
ATOM     51  F   UNL A   1      44.724  36.359  33.550  1.00  0.00    -0.200 F 
ENDBRANCH  27  41
BRANCH  28  52
ATOM     52  C   UNL A   1      42.853  23.773  27.373  1.00  0.00     0.064 A 
ATOM     53  C   UNL A   1      43.205  23.656  26.023  1.00  0.00     0.173 A 
ATOM     54  C   UNL A   1      42.362  22.631  28.023  1.00  0.00     0.173 A 
ATOM     55  F   UNL A   1      43.666  24.723  25.355  1.00  0.00    -0.203 F 
ATOM     56  C   UNL A   1      43.070  22.443  25.349  1.00  0.00     0.198 A 
ATOM     57  C   UNL A   1      42.257  21.412  27.357  1.00  0.00     0.198 A 
ATOM     58  F   UNL A   1      42.022  22.690  29.320  1.00  0.00    -0.203 F 
ATOM     59  F   UNL A   1      43.391  22.362  24.050  1.00  0.00    -0.200 F 
ATOM     60  C   UNL A   1      42.607  21.320  26.019  1.00  0.00     0.200 A 
ATOM     61  F   UNL A   1      41.831  20.326  28.016  1.00  0.00    -0.200 F 
ATOM     62  F   UNL A   1      42.500  20.150  25.376  1.00  0.00    -0.200 F 
ENDBRANCH  28  52
BRANCH  40  63
ATOM     63  C   UNL A   1      48.373  26.922  30.304  1.00  0.00     0.064 A 
ATOM     64  C   UNL A   1      48.765  26.076  31.351  1.00  0.00     0.173 A 
ATOM     65  C   UNL A   1      49.351  27.318  29.377  1.00  0.00     0.173 A 
ATOM     66  F   UNL A   1      47.873  25.683  32.273  1.00  0.00    -0.203 F 
ATOM     67  C   UNL A   1      50.085  25.646  31.465  1.00  0.00     0.198 A 
ATOM     68  C   UNL A   1      50.661  26.861  29.477  1.00  0.00     0.198 A 
ATOM     69  F   UNL A   1      49.026  28.125  28.356  1.00  0.00    -0.203 F 
ATOM     70  F   UNL A   1      50.445  24.861  32.490  1.00  0.00    -0.200 F 
ATOM     71  C   UNL A   1      51.028  26.027  30.522  1.00  0.00     0.200 A 
ATOM     72  F   UNL A   1      51.565  27.217  28.554  1.00  0.00    -0.200 F 
ATOM     73  F   UNL A   1      52.291  25.590  30.619  1.00  0.00    -0.200 F 
ENDBRANCH  40  63
ENDBRANCH  14  15
ENDBRANCH   7   9
ENDBRANCH   4   5
ENDBRANCH   3   4
ENDBRANCH   2   3
ENDBRANCH   1   2
BRANCH   1  74
ATOM     74  C   UNL A   1      34.919  35.190  32.510  1.00  0.00     0.021 C 
BRANCH  74  75
ATOM     75  C   UNL A   1      36.215  34.676  33.129  1.00  0.00     0.116 C 
BRANCH  75  76
ATOM     76  N   UNL A   1      36.019  34.181  34.486  1.00  0.00    -0.352 N 
ATOM     77  C   UNL A   1      36.952  33.661  35.351  1.00  0.00     0.253 C 
ATOM     78  H   UNL A   1      35.097  34.225  34.828  1.00  0.00     0.163 HD
ATOM     79  O   UNL A   1      36.613  33.084  36.378  1.00  0.00    -0.269 OA
BRANCH  77  80
ATOM     80  C   UNL A   1      38.379  33.743  34.982  1.00  0.00     0.064 A 
ATOM     81  C   UNL A   1      39.104  34.866  35.415  1.00  0.00     0.036 A 
ATOM     82  C   UNL A   1      38.961  32.772  34.149  1.00  0.00     0.054 A 
ATOM     83  C   UNL A   1      40.368  35.102  34.898  1.00  0.00     0.041 A 
ATOM     84  C   UNL A   1      40.175  33.111  33.546  1.00  0.00     0.028 A 
ATOM     85  Cl  UNL A   1      41.249  36.493  35.385  1.00  0.00    -0.084 Cl
ATOM     86  C   UNL A   1      40.888  34.253  33.930  1.00  0.00     0.023 A 
BRANCH  82  87
ATOM     87  N   UNL A   1      38.306  31.526  33.967  1.00  0.00    -0.321 N 
ATOM     88  C   UNL A   1      38.757  30.220  33.943  1.00  0.00     0.255 C 
ATOM     89  H   UNL A   1      37.335  31.607  33.828  1.00  0.00     0.170 HD
ATOM     90  O   UNL A   1      38.006  29.297  33.641  1.00  0.00    -0.269 OA
BRANCH  88  91
ATOM     91  C   UNL A   1      40.153  29.888  34.284  1.00  0.00     0.041 A 
ATOM     92  C   UNL A   1      40.551  30.068  35.631  1.00  0.00     0.015 A 
ATOM     93  C   UNL A   1      40.999  29.282  33.342  1.00  0.00     0.028 A 
ATOM     94  C   UNL A   1      41.747  29.516  36.091  1.00  0.00     0.015 A 
ATOM     95  C   UNL A   1      42.161  28.721  33.835  1.00  0.00     0.054 A 
ATOM     96  C   UNL A   1      42.503  28.810  35.174  1.00  0.00     0.053 A 
ATOM     97  C   UNL A   1      43.104  27.799  33.202  1.00  0.00     0.261 C 
ATOM     98  C   UNL A   1      43.641  27.926  35.398  1.00  0.00     0.261 C 
ATOM     99  O   UNL A   1      43.007  27.424  32.049  1.00  0.00    -0.269 OA
ATOM    100  N   UNL A   1      43.976  27.407  34.177  1.00  0.00    -0.267 N 
ATOM    101  O   UNL A   1      44.089  27.676  36.498  1.00  0.00    -0.269 OA
BRANCH 100 102
ATOM    102  C   UNL A   1      45.023  26.425  33.985  1.00  0.00     0.204 C 
BRANCH 102 103
ATOM    103  C   UNL A   1      44.432  25.060  34.009  1.00  0.00     0.123 A 
ATOM    104  C   UNL A   1      44.690  23.905  33.298  1.00  0.00     0.047 A 
ATOM    105  O   UNL A   1      43.425  24.839  34.901  1.00  0.00    -0.467 OA
ATOM    106  C   UNL A   1      43.777  22.932  33.767  1.00  0.00     0.042 A 
ATOM    107  C   UNL A   1      43.037  23.547  34.748  1.00  0.00     0.195 A 
ENDBRANCH 102 103
ENDBRANCH 100 102
ENDBRANCH  88  91
ENDBRANCH  82  87
ENDBRANCH  77  80
ENDBRANCH  75  76
ENDBRANCH  74  75
ENDBRANCH   1  74
TORSDOF 17
ENDMDL
MODEL 3
REMARK VINA RESULT:     -12.3      0.515      6.935
REMARK SMILES O=C(NCCCCCCNC(=O)c1cc(Cl)ccc1NC(=O)c1ccc2c(c1)C(=O)N(Cc1ccco1)C2=O)c1ccc(-c2c3nc(c(-c4c(F)c(F)c(F)c(F)c4F)c4ccc([nH]4)c(-c4c(F)c(F)c(F)c(F)c4F)c4nc(c(-c5c(F)c(F)c(F)c(F)c5F)c5ccc2[nH]5)C=C4)C=C3)cc1
REMARK SMILES IDX 7 1 6 2 5 3 4 4 3 5 1 6 2 7 40 9 41 10 102 11 42 12 101 13
REMARK SMILES IDX 43 14 44 15 45 16 95 17 46 18 100 19 94 20 96 21 47 22 99 23
REMARK SMILES IDX 93 24 92 25 48 27 80 28 60 29 79 30 61 31 64 32 78 33 97 34
REMARK SMILES IDX 62 35 63 36 77 38 98 39 65 40 49 41 50 42 58 43 51 44 52 45
REMARK SMILES IDX 56 46 59 47 53 48 54 49 57 50 55 51 81 52 82 53 90 54 83 55
REMARK SMILES IDX 84 56 88 57 91 58 85 59 86 60 89 61 87 62 66 63 67 64 75 65
REMARK SMILES IDX 68 66 69 67 73 68 76 69 70 70 71 71 74 72 72 73 8 74 9 75
REMARK SMILES IDX 10 76 11 77 12 79 13 80 14 81 19 82 15 83 18 84 16 85 17 86
REMARK SMILES IDX 20 87 21 88 22 90 23 91 24 92 28 93 25 94 27 95 26 96 29 97
REMARK SMILES IDX 38 98 30 99 31 100 39 101 32 102 33 103 34 104 37 105 35 106
REMARK SMILES IDX 36 107
REMARK H PARENT 3 8 96 26 64 37 10 78 20 89
REMARK Flexibility Score: inf
ROOT
ATOM      1  C   UNL A   1      37.359  22.229  24.951  1.00  0.00     0.002 C 
ENDROOT
BRANCH   1   2
ATOM      2  C   UNL A   1      38.622  21.835  25.722  1.00  0.00     0.002 C 
BRANCH   2   3
ATOM      3  C   UNL A   1      39.216  20.475  25.350  1.00  0.00     0.021 C 
BRANCH   3   4
ATOM      4  C   UNL A   1      39.775  19.683  26.525  1.00  0.00     0.116 C 
BRANCH   4   5
ATOM      5  N   UNL A   1      40.984  18.958  26.170  1.00  0.00    -0.352 N 
ATOM      6  O   UNL A   1      43.096  18.704  25.423  1.00  0.00    -0.269 OA
ATOM      7  C   UNL A   1      42.241  19.438  25.906  1.00  0.00     0.251 C 
ATOM      8  H   UNL A   1      40.886  17.981  26.110  1.00  0.00     0.163 HD
BRANCH   7   9
ATOM      9  C   UNL A   1      42.563  20.852  26.192  1.00  0.00     0.039 A 
ATOM     10  C   UNL A   1      42.718  21.776  25.154  1.00  0.00     0.014 A 
ATOM     11  C   UNL A   1      42.678  21.261  27.522  1.00  0.00     0.014 A 
ATOM     12  C   UNL A   1      43.101  23.082  25.440  1.00  0.00     0.010 A 
ATOM     13  C   UNL A   1      42.988  22.590  27.811  1.00  0.00     0.010 A 
ATOM     14  C   UNL A   1      43.221  23.505  26.772  1.00  0.00    -0.014 A 
BRANCH  14  15
ATOM     15  C   UNL A   1      43.531  24.922  27.084  1.00  0.00     0.031 A 
ATOM     16  C   UNL A   1      44.936  25.438  26.985  1.00  0.00     0.074 A 
ATOM     17  C   UNL A   1      42.542  25.727  27.512  1.00  0.00     0.049 A 
ATOM     18  N   UNL A   1      45.414  26.608  27.327  1.00  0.00    -0.248 NA
ATOM     19  C   UNL A   1      45.939  24.512  26.441  1.00  0.00     0.031 C 
ATOM     20  C   UNL A   1      41.140  25.333  27.652  1.00  0.00     0.029 A 
ATOM     21  N   UNL A   1      42.565  27.033  27.931  1.00  0.00    -0.354 N 
ATOM     22  C   UNL A   1      46.776  26.550  27.064  1.00  0.00     0.074 A 
ATOM     23  C   UNL A   1      47.052  25.222  26.560  1.00  0.00     0.031 C 
ATOM     24  C   UNL A   1      40.437  26.371  28.124  1.00  0.00     0.029 A 
ATOM     25  C   UNL A   1      41.350  27.479  28.386  1.00  0.00     0.049 A 
ATOM     26  H   UNL A   1      43.374  27.594  27.909  1.00  0.00     0.167 HD
ATOM     27  C   UNL A   1      47.706  27.522  27.229  1.00  0.00     0.037 A 
ATOM     28  C   UNL A   1      41.012  28.633  28.990  1.00  0.00     0.037 A 
ATOM     29  C   UNL A   1      47.414  28.839  27.739  1.00  0.00     0.049 A 
ATOM     30  C   UNL A   1      42.067  29.678  29.215  1.00  0.00     0.074 A 
ATOM     31  C   UNL A   1      48.275  29.910  27.903  1.00  0.00     0.029 A 
ATOM     32  N   UNL A   1      46.169  29.255  28.189  1.00  0.00    -0.354 N 
ATOM     33  N   UNL A   1      43.344  29.636  28.922  1.00  0.00    -0.248 NA
ATOM     34  C   UNL A   1      41.637  30.931  29.849  1.00  0.00     0.031 C 
ATOM     35  C   UNL A   1      47.568  30.947  28.520  1.00  0.00     0.029 A 
ATOM     36  C   UNL A   1      46.247  30.554  28.666  1.00  0.00     0.049 A 
ATOM     37  H   UNL A   1      45.350  28.708  28.172  1.00  0.00     0.167 HD
ATOM     38  C   UNL A   1      43.866  30.862  29.307  1.00  0.00     0.074 A 
ATOM     39  C   UNL A   1      42.766  31.629  29.856  1.00  0.00     0.031 C 
ATOM     40  C   UNL A   1      45.140  31.312  29.202  1.00  0.00     0.037 A 
BRANCH  27  41
ATOM     41  C   UNL A   1      49.133  27.179  26.901  1.00  0.00     0.064 A 
ATOM     42  C   UNL A   1      50.037  26.730  27.876  1.00  0.00     0.173 A 
ATOM     43  C   UNL A   1      49.605  27.299  25.583  1.00  0.00     0.173 A 
ATOM     44  F   UNL A   1      49.644  26.600  29.153  1.00  0.00    -0.203 F 
ATOM     45  C   UNL A   1      51.367  26.467  27.557  1.00  0.00     0.198 A 
ATOM     46  C   UNL A   1      50.925  26.998  25.261  1.00  0.00     0.198 A 
ATOM     47  F   UNL A   1      48.784  27.711  24.605  1.00  0.00    -0.203 F 
ATOM     48  F   UNL A   1      52.228  26.113  28.522  1.00  0.00    -0.200 F 
ATOM     49  C   UNL A   1      51.810  26.598  26.250  1.00  0.00     0.200 A 
ATOM     50  F   UNL A   1      51.345  27.107  23.993  1.00  0.00    -0.200 F 
ATOM     51  F   UNL A   1      53.091  26.349  25.946  1.00  0.00    -0.200 F 
ENDBRANCH  27  41
BRANCH  28  52
ATOM     52  C   UNL A   1      39.609  28.830  29.434  1.00  0.00     0.064 A 
ATOM     53  C   UNL A   1      39.215  28.525  30.742  1.00  0.00     0.173 A 
ATOM     54  C   UNL A   1      38.651  29.390  28.575  1.00  0.00     0.173 A 
ATOM     55  F   UNL A   1      40.092  27.976  31.595  1.00  0.00    -0.203 F 
ATOM     56  C   UNL A   1      37.913  28.769  31.175  1.00  0.00     0.198 A 
ATOM     57  C   UNL A   1      37.359  29.662  29.017  1.00  0.00     0.198 A 
ATOM     58  F   UNL A   1      38.983  29.711  27.316  1.00  0.00    -0.203 F 
ATOM     59  F   UNL A   1      37.553  28.446  32.424  1.00  0.00    -0.200 F 
ATOM     60  C   UNL A   1      36.989  29.348  30.316  1.00  0.00     0.200 A 
ATOM     61  F   UNL A   1      36.478  30.242  28.191  1.00  0.00    -0.200 F 
ATOM     62  F   UNL A   1      35.744  29.603  30.741  1.00  0.00    -0.200 F 
ENDBRANCH  28  52
BRANCH  40  63
ATOM     63  C   UNL A   1      45.422  32.721  29.638  1.00  0.00     0.064 A 
ATOM     64  C   UNL A   1      45.896  33.021  30.924  1.00  0.00     0.173 A 
ATOM     65  C   UNL A   1      45.299  33.777  28.721  1.00  0.00     0.173 A 
ATOM     66  F   UNL A   1      46.015  32.051  31.843  1.00  0.00    -0.203 F 
ATOM     67  C   UNL A   1      46.230  34.327  31.275  1.00  0.00     0.198 A 
ATOM     68  C   UNL A   1      45.663  35.074  29.065  1.00  0.00     0.198 A 
ATOM     69  F   UNL A   1      44.852  33.543  27.477  1.00  0.00    -0.203 F 
ATOM     70  F   UNL A   1      46.654  34.597  32.518  1.00  0.00    -0.200 F 
ATOM     71  C   UNL A   1      46.127  35.350  30.343  1.00  0.00     0.200 A 
ATOM     72  F   UNL A   1      45.579  36.056  28.157  1.00  0.00    -0.200 F 
ATOM     73  F   UNL A   1      46.475  36.600  30.676  1.00  0.00    -0.200 F 
ENDBRANCH  40  63
ENDBRANCH  14  15
ENDBRANCH   7   9
ENDBRANCH   4   5
ENDBRANCH   3   4
ENDBRANCH   2   3
ENDBRANCH   1   2
BRANCH   1  74
ATOM     74  C   UNL A   1      36.795  23.611  25.289  1.00  0.00     0.021 C 
BRANCH  74  75
ATOM     75  C   UNL A   1      35.273  23.672  25.374  1.00  0.00     0.116 C 
BRANCH  75  76
ATOM     76  N   UNL A   1      34.788  23.490  26.736  1.00  0.00    -0.352 N 
ATOM     77  C   UNL A   1      33.950  22.516  27.224  1.00  0.00     0.253 C 
ATOM     78  H   UNL A   1      35.102  24.153  27.393  1.00  0.00     0.163 HD
ATOM     79  O   UNL A   1      33.452  22.609  28.340  1.00  0.00    -0.269 OA
BRANCH  77  80
ATOM     80  C   UNL A   1      33.597  21.384  26.345  1.00  0.00     0.064 A 
ATOM     81  C   UNL A   1      34.634  20.536  25.921  1.00  0.00     0.036 A 
ATOM     82  C   UNL A   1      32.280  21.221  25.880  1.00  0.00     0.054 A 
ATOM     83  C   UNL A   1      34.391  19.613  24.916  1.00  0.00     0.041 A 
ATOM     84  C   UNL A   1      32.105  20.381  24.778  1.00  0.00     0.028 A 
ATOM     85  Cl  UNL A   1      35.659  18.599  24.357  1.00  0.00    -0.084 Cl
ATOM     86  C   UNL A   1      33.142  19.563  24.310  1.00  0.00     0.023 A 
BRANCH  82  87
ATOM     87  N   UNL A   1      31.220  21.900  26.535  1.00  0.00    -0.321 N 
ATOM     88  C   UNL A   1      30.694  23.171  26.407  1.00  0.00     0.255 C 
ATOM     89  H   UNL A   1      30.767  21.356  27.219  1.00  0.00     0.170 HD
ATOM     90  O   UNL A   1      29.837  23.582  27.184  1.00  0.00    -0.269 OA
BRANCH  88  91
ATOM     91  C   UNL A   1      31.138  24.076  25.330  1.00  0.00     0.041 A 
ATOM     92  C   UNL A   1      31.149  23.558  24.012  1.00  0.00     0.015 A 
ATOM     93  C   UNL A   1      31.397  25.431  25.590  1.00  0.00     0.028 A 
ATOM     94  C   UNL A   1      31.276  24.417  22.921  1.00  0.00     0.015 A 
ATOM     95  C   UNL A   1      31.490  26.258  24.488  1.00  0.00     0.054 A 
ATOM     96  C   UNL A   1      31.399  25.766  23.196  1.00  0.00     0.053 A 
ATOM     97  C   UNL A   1      31.475  27.718  24.403  1.00  0.00     0.261 C 
ATOM     98  C   UNL A   1      31.298  26.909  22.296  1.00  0.00     0.261 C 
ATOM     99  O   UNL A   1      31.432  28.448  25.374  1.00  0.00    -0.269 OA
ATOM    100  N   UNL A   1      31.408  28.028  23.075  1.00  0.00    -0.267 N 
ATOM    101  O   UNL A   1      31.067  26.806  21.108  1.00  0.00    -0.269 OA
BRANCH 100 102
ATOM    102  C   UNL A   1      31.288  29.376  22.559  1.00  0.00     0.204 C 
BRANCH 102 103
ATOM    103  C   UNL A   1      29.851  29.708  22.367  1.00  0.00     0.123 A 
ATOM    104  C   UNL A   1      28.731  29.551  23.159  1.00  0.00     0.047 A 
ATOM    105  O   UNL A   1      29.506  30.297  21.187  1.00  0.00    -0.467 OA
ATOM    106  C   UNL A   1      27.639  30.052  22.413  1.00  0.00     0.042 A 
ATOM    107  C   UNL A   1      28.163  30.503  21.226  1.00  0.00     0.195 A 
ENDBRANCH 102 103
ENDBRANCH 100 102
ENDBRANCH  88  91
ENDBRANCH  82  87
ENDBRANCH  77  80
ENDBRANCH  75  76
ENDBRANCH  74  75
ENDBRANCH   1  74
TORSDOF 17
ENDMDL
