MODEL 1
REMARK VINA RESULT:     -12.5      0.000      0.000
REMARK SMILES Cn1cc(S(=O)(=O)N2CCCc3cc(C(=O)NCCCCCCNC(=O)c4ccc(-c5c6nc(c(-c7c(F)c(F)c(F)c(F)c7F)c7ccc([nH]7)c(-c7c(F)c(F)c(F)c(F)c7F)c7nc(c(-c8c(F)c(F)c(F)c(F)c8F)c8ccc5[nH]8)C=C7)C=C6)cc4)ccc32)cc1C(N)=O
REMARK SMILES IDX 20 1 19 2 18 3 17 4 15 5 16 6 14 8 8 9 9 10 92 11 10 12
REMARK SMILES IDX 12 13 91 14 11 15 13 16 90 17 5 18 6 19 7 20 4 21 1 22 2 23
REMARK SMILES IDX 3 24 94 25 93 26 95 27 96 28 97 29 21 32 22 33 23 34 24 35
REMARK SMILES IDX 25 36 26 38 27 39 28 40 89 41 29 42 88 43 30 44 31 45 32 46
REMARK SMILES IDX 82 47 33 48 87 49 81 50 83 51 34 52 86 53 80 54 79 55 35 57
REMARK SMILES IDX 67 58 47 59 66 60 48 61 51 62 65 63 84 64 49 65 50 66 64 68
REMARK SMILES IDX 85 69 52 70 36 71 37 72 45 73 38 74 39 75 43 76 46 77 40 78
REMARK SMILES IDX 41 79 44 80 42 81 68 82 69 83 77 84 70 85 71 86 75 87 78 88
REMARK SMILES IDX 72 89 73 90 76 91 74 92 53 93 54 94 62 95 55 96 56 97 60 98
REMARK SMILES IDX 63 99 57 100 58 101 61 102 59 103
REMARK H PARENT 17 7 96 30 96 31 24 37 83 56 51 67
REMARK Flexibility Score: inf
ROOT
ATOM      1  C   UNL A   1      41.458  21.431  26.712  1.00  0.00     0.002 C 
ENDROOT
BRANCH   1   2
ATOM      2  C   UNL A   1      40.516  22.445  27.377  1.00  0.00     0.021 C 
BRANCH   2   3
ATOM      3  C   UNL A   1      39.292  22.784  26.521  1.00  0.00     0.116 C 
BRANCH   3   4
ATOM      4  N   UNL A   1      38.883  21.617  25.767  1.00  0.00    -0.352 N 
ATOM      5  C   UNL A   1      37.694  21.256  25.190  1.00  0.00     0.251 C 
ATOM      6  O   UNL A   1      37.646  20.163  24.625  1.00  0.00    -0.269 OA
ATOM      7  H   UNL A   1      39.599  20.952  25.645  1.00  0.00     0.163 HD
BRANCH   5   8
ATOM      8  C   UNL A   1      36.490  22.135  25.160  1.00  0.00     0.040 A 
ATOM      9  N   UNL A   1      32.835  24.321  25.202  1.00  0.00    -0.266 N 
ATOM     10  C   UNL A   1      32.046  24.317  26.448  1.00  0.00     0.136 C 
ATOM     11  C   UNL A   1      34.079  23.608  25.189  1.00  0.00     0.055 A 
ATOM     12  C   UNL A   1      31.906  22.889  26.944  1.00  0.00     0.028 C 
ATOM     13  C   UNL A   1      34.275  22.568  26.110  1.00  0.00    -0.023 A 
ATOM     14  C   UNL A   1      35.127  23.970  24.342  1.00  0.00     0.028 A 
ATOM     15  C   UNL A   1      33.280  22.284  27.208  1.00  0.00     0.039 C 
ATOM     16  C   UNL A   1      35.468  21.830  26.072  1.00  0.00     0.019 A 
ATOM     17  C   UNL A   1      36.331  23.255  24.344  1.00  0.00     0.016 A 
BRANCH   9  18
ATOM     18  S   UNL A   1      32.045  24.743  23.759  1.00  0.00     0.265 S 
ATOM     19  O   UNL A   1      30.722  24.145  23.753  1.00  0.00    -0.201 OA
ATOM     20  O   UNL A   1      32.924  24.661  22.618  1.00  0.00    -0.201 OA
BRANCH  18  21
ATOM     21  C   UNL A   1      31.706  26.440  23.875  1.00  0.00     0.106 A 
ATOM     22  C   UNL A   1      32.052  29.724  25.329  1.00  0.00     0.150 C 
ATOM     23  N   UNL A   1      31.707  28.568  24.527  1.00  0.00    -0.345 N 
ATOM     24  C   UNL A   1      32.214  27.318  24.803  1.00  0.00     0.108 A 
ATOM     25  C   UNL A   1      30.868  28.514  23.421  1.00  0.00     0.107 A 
ATOM     26  C   UNL A   1      30.847  27.179  23.028  1.00  0.00     0.056 A 
BRANCH  25  27
ATOM     27  C   UNL A   1      30.168  29.640  22.827  1.00  0.00     0.265 C 
ATOM     28  N   UNL A   1      30.651  30.078  21.626  1.00  0.00    -0.364 N 
ATOM     29  O   UNL A   1      29.203  30.218  23.316  1.00  0.00    -0.268 OA
ATOM     30  H   UNL A   1      31.425  29.631  21.214  1.00  0.00     0.160 HD
ATOM     31  H   UNL A   1      30.224  30.841  21.173  1.00  0.00     0.160 HD
ENDBRANCH  25  27
ENDBRANCH  18  21
ENDBRANCH   9  18
ENDBRANCH   5   8
ENDBRANCH   3   4
ENDBRANCH   2   3
ENDBRANCH   1   2
BRANCH   1  32
ATOM     32  C   UNL A   1      41.902  20.276  27.619  1.00  0.00     0.002 C 
BRANCH  32  33
ATOM     33  C   UNL A   1      42.474  19.061  26.885  1.00  0.00     0.021 C 
BRANCH  33  34
ATOM     34  C   UNL A   1      42.455  19.179  25.364  1.00  0.00     0.116 C 
BRANCH  34  35
ATOM     35  N   UNL A   1      43.718  18.761  24.777  1.00  0.00    -0.352 N 
ATOM     36  C   UNL A   1      44.797  19.522  24.405  1.00  0.00     0.251 C 
ATOM     37  H   UNL A   1      43.813  17.793  24.626  1.00  0.00     0.163 HD
ATOM     38  O   UNL A   1      45.691  19.038  23.719  1.00  0.00    -0.269 OA
BRANCH  36  39
ATOM     39  C   UNL A   1      44.879  20.936  24.828  1.00  0.00     0.039 A 
ATOM     40  C   UNL A   1      45.289  21.230  26.130  1.00  0.00     0.014 A 
ATOM     41  C   UNL A   1      44.529  21.966  23.950  1.00  0.00     0.014 A 
ATOM     42  C   UNL A   1      45.396  22.562  26.539  1.00  0.00     0.010 A 
ATOM     43  C   UNL A   1      44.697  23.292  24.336  1.00  0.00     0.010 A 
ATOM     44  C   UNL A   1      45.126  23.603  25.636  1.00  0.00    -0.014 A 
BRANCH  44  45
ATOM     45  C   UNL A   1      45.273  25.025  26.038  1.00  0.00     0.031 A 
ATOM     46  C   UNL A   1      46.616  25.695  25.949  1.00  0.00     0.074 A 
ATOM     47  C   UNL A   1      44.212  25.691  26.532  1.00  0.00     0.049 A 
ATOM     48  N   UNL A   1      46.969  26.897  26.330  1.00  0.00    -0.248 NA
ATOM     49  C   UNL A   1      47.714  24.900  25.378  1.00  0.00     0.031 C 
ATOM     50  C   UNL A   1      42.869  25.137  26.703  1.00  0.00     0.029 A 
ATOM     51  N   UNL A   1      44.101  26.979  26.995  1.00  0.00    -0.354 N 
ATOM     52  C   UNL A   1      48.324  27.000  26.048  1.00  0.00     0.074 A 
ATOM     53  C   UNL A   1      48.745  25.720  25.519  1.00  0.00     0.031 C 
ATOM     54  C   UNL A   1      42.066  26.081  27.220  1.00  0.00     0.029 A 
ATOM     55  C   UNL A   1      42.845  27.293  27.453  1.00  0.00     0.049 A 
ATOM     56  H   UNL A   1      44.852  27.617  27.001  1.00  0.00     0.167 HD
ATOM     57  C   UNL A   1      49.138  28.074  26.188  1.00  0.00     0.037 A 
ATOM     58  C   UNL A   1      42.379  28.429  28.006  1.00  0.00     0.037 A 
ATOM     59  C   UNL A   1      48.713  29.350  26.700  1.00  0.00     0.049 A 
ATOM     60  C   UNL A   1      43.311  29.600  28.169  1.00  0.00     0.074 A 
ATOM     61  C   UNL A   1      49.455  30.506  26.866  1.00  0.00     0.029 A 
ATOM     62  N   UNL A   1      47.425  29.638  27.127  1.00  0.00    -0.354 N 
ATOM     63  N   UNL A   1      44.580  29.700  27.854  1.00  0.00    -0.248 NA
ATOM     64  C   UNL A   1      42.743  30.821  28.758  1.00  0.00     0.031 C 
ATOM     65  C   UNL A   1      48.626  31.484  27.422  1.00  0.00     0.029 A 
ATOM     66  C   UNL A   1      47.355  30.952  27.562  1.00  0.00     0.049 A 
ATOM     67  H   UNL A   1      46.672  29.003  27.122  1.00  0.00     0.167 HD
ATOM     68  C   UNL A   1      44.952  30.998  28.175  1.00  0.00     0.074 A 
ATOM     69  C   UNL A   1      43.771  31.656  28.694  1.00  0.00     0.031 C 
ATOM     70  C   UNL A   1      46.163  31.593  28.055  1.00  0.00     0.037 A 
BRANCH  57  71
ATOM     71  C   UNL A   1      50.568  27.921  25.761  1.00  0.00     0.064 A 
ATOM     72  C   UNL A   1      51.586  27.683  26.697  1.00  0.00     0.173 A 
ATOM     73  C   UNL A   1      50.921  27.962  24.404  1.00  0.00     0.173 A 
ATOM     74  F   UNL A   1      51.302  27.646  28.008  1.00  0.00    -0.203 F 
ATOM     75  C   UNL A   1      52.907  27.513  26.293  1.00  0.00     0.198 A 
ATOM     76  C   UNL A   1      52.239  27.763  24.001  1.00  0.00     0.198 A 
ATOM     77  F   UNL A   1      49.986  28.181  23.468  1.00  0.00    -0.203 F 
ATOM     78  F   UNL A   1      53.868  27.329  27.209  1.00  0.00    -0.200 F 
ATOM     79  C   UNL A   1      53.231  27.545  24.945  1.00  0.00     0.200 A 
ATOM     80  F   UNL A   1      52.550  27.782  22.697  1.00  0.00    -0.200 F 
ATOM     81  F   UNL A   1      54.503  27.371  24.557  1.00  0.00    -0.200 F 
ENDBRANCH  57  71
BRANCH  58  82
ATOM     82  C   UNL A   1      40.961  28.524  28.442  1.00  0.00     0.064 A 
ATOM     83  C   UNL A   1      39.967  28.980  27.565  1.00  0.00     0.173 A 
ATOM     84  C   UNL A   1      40.576  28.193  29.749  1.00  0.00     0.173 A 
ATOM     85  F   UNL A   1      40.289  29.328  26.311  1.00  0.00    -0.203 F 
ATOM     86  C   UNL A   1      38.648  29.133  27.988  1.00  0.00     0.198 A 
ATOM     87  C   UNL A   1      39.251  28.318  30.162  1.00  0.00     0.198 A 
ATOM     88  F   UNL A   1      41.487  27.747  30.626  1.00  0.00    -0.203 F 
ATOM     89  F   UNL A   1      37.730  29.628  27.147  1.00  0.00    -0.200 F 
ATOM     90  C   UNL A   1      38.291  28.799  29.285  1.00  0.00     0.200 A 
ATOM     91  F   UNL A   1      38.906  27.980  31.413  1.00  0.00    -0.200 F 
ATOM     92  F   UNL A   1      37.023  28.951  29.694  1.00  0.00    -0.200 F 
ENDBRANCH  58  82
BRANCH  70  93
ATOM     93  C   UNL A   1      46.262  33.037  28.449  1.00  0.00     0.064 A 
ATOM     94  C   UNL A   1      46.033  34.069  27.527  1.00  0.00     0.173 A 
ATOM     95  C   UNL A   1      46.555  33.391  29.775  1.00  0.00     0.173 A 
ATOM     96  F   UNL A   1      45.765  33.782  26.245  1.00  0.00    -0.203 F 
ATOM     97  C   UNL A   1      46.120  35.405  27.913  1.00  0.00     0.198 A 
ATOM     98  C   UNL A   1      46.612  34.727  30.164  1.00  0.00     0.198 A 
ATOM     99  F   UNL A   1      46.775  32.441  30.695  1.00  0.00    -0.203 F 
ATOM    100  F   UNL A   1      45.945  36.375  27.006  1.00  0.00    -0.200 F 
ATOM    101  C   UNL A   1      46.402  35.732  29.231  1.00  0.00     0.200 A 
ATOM    102  F   UNL A   1      46.872  35.040  31.440  1.00  0.00    -0.200 F 
ATOM    103  F   UNL A   1      46.480  37.017  29.602  1.00  0.00    -0.200 F 
ENDBRANCH  70  93
ENDBRANCH  44  45
ENDBRANCH  36  39
ENDBRANCH  34  35
ENDBRANCH  33  34
ENDBRANCH  32  33
ENDBRANCH   1  32
TORSDOF 16
ENDMDL
MODEL 2
REMARK VINA RESULT:     -12.1      5.914     10.812
REMARK SMILES Cn1cc(S(=O)(=O)N2CCCc3cc(C(=O)NCCCCCCNC(=O)c4ccc(-c5c6nc(c(-c7c(F)c(F)c(F)c(F)c7F)c7ccc([nH]7)c(-c7c(F)c(F)c(F)c(F)c7F)c7nc(c(-c8c(F)c(F)c(F)c(F)c8F)c8ccc5[nH]8)C=C7)C=C6)cc4)ccc32)cc1C(N)=O
REMARK SMILES IDX 20 1 19 2 18 3 17 4 15 5 16 6 14 8 8 9 9 10 92 11 10 12
REMARK SMILES IDX 12 13 91 14 11 15 13 16 90 17 5 18 6 19 7 20 4 21 1 22 2 23
REMARK SMILES IDX 3 24 94 25 93 26 95 27 96 28 97 29 21 32 22 33 23 34 24 35
REMARK SMILES IDX 25 36 26 38 27 39 28 40 89 41 29 42 88 43 30 44 31 45 32 46
REMARK SMILES IDX 82 47 33 48 87 49 81 50 83 51 34 52 86 53 80 54 79 55 35 57
REMARK SMILES IDX 67 58 47 59 66 60 48 61 51 62 65 63 84 64 49 65 50 66 64 68
REMARK SMILES IDX 85 69 52 70 36 71 37 72 45 73 38 74 39 75 43 76 46 77 40 78
REMARK SMILES IDX 41 79 44 80 42 81 68 82 69 83 77 84 70 85 71 86 75 87 78 88
REMARK SMILES IDX 72 89 73 90 76 91 74 92 53 93 54 94 62 95 55 96 56 97 60 98
REMARK SMILES IDX 63 99 57 100 58 101 61 102 59 103
REMARK H PARENT 17 7 96 30 96 31 24 37 83 56 51 67
REMARK Flexibility Score: inf
ROOT
ATOM      1  C   UNL A   1      32.970  29.924  25.744  1.00  0.00     0.002 C 
ENDROOT
BRANCH   1   2
ATOM      2  C   UNL A   1      33.342  29.253  24.413  1.00  0.00     0.021 C 
BRANCH   2   3
ATOM      3  C   UNL A   1      32.131  28.694  23.660  1.00  0.00     0.116 C 
BRANCH   3   4
ATOM      4  N   UNL A   1      32.565  28.072  22.426  1.00  0.00    -0.352 N 
ATOM      5  C   UNL A   1      33.145  26.863  22.151  1.00  0.00     0.251 C 
ATOM      6  O   UNL A   1      33.429  26.623  20.977  1.00  0.00    -0.269 OA
ATOM      7  H   UNL A   1      32.412  28.628  21.627  1.00  0.00     0.163 HD
BRANCH   5   8
ATOM      8  C   UNL A   1      33.391  25.812  23.180  1.00  0.00     0.040 A 
ATOM      9  N   UNL A   1      34.221  22.569  25.813  1.00  0.00    -0.266 N 
ATOM     10  C   UNL A   1      35.568  21.970  25.763  1.00  0.00     0.136 C 
ATOM     11  C   UNL A   1      33.944  23.677  24.947  1.00  0.00     0.055 A 
ATOM     12  C   UNL A   1      35.934  21.688  24.316  1.00  0.00     0.028 C 
ATOM     13  C   UNL A   1      34.713  23.842  23.786  1.00  0.00    -0.023 A 
ATOM     14  C   UNL A   1      32.984  24.639  25.267  1.00  0.00     0.028 A 
ATOM     15  C   UNL A   1      35.918  22.979  23.506  1.00  0.00     0.039 C 
ATOM     16  C   UNL A   1      34.416  24.894  22.905  1.00  0.00     0.019 A 
ATOM     17  C   UNL A   1      32.727  25.711  24.402  1.00  0.00     0.016 A 
BRANCH   9  18
ATOM     18  S   UNL A   1      32.969  21.657  26.509  1.00  0.00     0.265 S 
ATOM     19  O   UNL A   1      31.693  22.211  26.093  1.00  0.00    -0.201 OA
ATOM     20  O   UNL A   1      33.244  21.326  27.887  1.00  0.00    -0.201 OA
BRANCH  18  21
ATOM     21  C   UNL A   1      33.002  20.114  25.719  1.00  0.00     0.106 A 
ATOM     22  C   UNL A   1      33.062  16.507  25.647  1.00  0.00     0.150 C 
ATOM     23  N   UNL A   1      33.031  17.922  25.336  1.00  0.00    -0.345 N 
ATOM     24  C   UNL A   1      33.034  18.881  26.325  1.00  0.00     0.108 A 
ATOM     25  C   UNL A   1      32.995  18.521  24.084  1.00  0.00     0.107 A 
ATOM     26  C   UNL A   1      33.001  19.892  24.322  1.00  0.00     0.056 A 
BRANCH  25  27
ATOM     27  C   UNL A   1      32.963  17.827  22.808  1.00  0.00     0.265 C 
ATOM     28  N   UNL A   1      31.882  18.085  22.013  1.00  0.00    -0.364 N 
ATOM     29  O   UNL A   1      33.811  17.039  22.404  1.00  0.00    -0.268 OA
ATOM     30  H   UNL A   1      31.187  18.714  22.317  1.00  0.00     0.160 HD
ATOM     31  H   UNL A   1      31.797  17.642  21.138  1.00  0.00     0.160 HD
ENDBRANCH  25  27
ENDBRANCH  18  21
ENDBRANCH   9  18
ENDBRANCH   5   8
ENDBRANCH   3   4
ENDBRANCH   2   3
ENDBRANCH   1   2
BRANCH   1  32
ATOM     32  C   UNL A   1      31.509  30.381  25.847  1.00  0.00     0.002 C 
BRANCH  32  33
ATOM     33  C   UNL A   1      31.311  31.792  26.404  1.00  0.00     0.021 C 
BRANCH  33  34
ATOM     34  C   UNL A   1      32.541  32.374  27.093  1.00  0.00     0.116 C 
BRANCH  34  35
ATOM     35  N   UNL A   1      32.356  33.779  27.423  1.00  0.00    -0.352 N 
ATOM     36  C   UNL A   1      32.966  34.529  28.397  1.00  0.00     0.251 C 
ATOM     37  H   UNL A   1      31.700  34.260  26.869  1.00  0.00     0.163 HD
ATOM     38  O   UNL A   1      32.531  35.639  28.688  1.00  0.00    -0.269 OA
BRANCH  36  39
ATOM     39  C   UNL A   1      34.148  33.995  29.103  1.00  0.00     0.039 A 
ATOM     40  C   UNL A   1      33.964  33.019  30.087  1.00  0.00     0.014 A 
ATOM     41  C   UNL A   1      35.430  34.471  28.815  1.00  0.00     0.014 A 
ATOM     42  C   UNL A   1      35.073  32.484  30.747  1.00  0.00     0.010 A 
ATOM     43  C   UNL A   1      36.538  33.893  29.427  1.00  0.00     0.010 A 
ATOM     44  C   UNL A   1      36.370  32.899  30.403  1.00  0.00    -0.014 A 
BRANCH  44  45
ATOM     45  C   UNL A   1      37.564  32.314  31.065  1.00  0.00     0.031 A 
ATOM     46  C   UNL A   1      38.328  31.208  30.392  1.00  0.00     0.074 A 
ATOM     47  C   UNL A   1      37.923  32.740  32.291  1.00  0.00     0.049 A 
ATOM     48  N   UNL A   1      39.341  30.509  30.839  1.00  0.00    -0.248 NA
ATOM     49  C   UNL A   1      37.879  30.818  29.046  1.00  0.00     0.031 C 
ATOM     50  C   UNL A   1      37.237  33.778  33.061  1.00  0.00     0.029 A 
ATOM     51  N   UNL A   1      38.949  32.341  33.111  1.00  0.00    -0.354 N 
ATOM     52  C   UNL A   1      39.647  29.601  29.835  1.00  0.00     0.074 A 
ATOM     53  C   UNL A   1      38.677  29.795  28.778  1.00  0.00     0.031 C 
ATOM     54  C   UNL A   1      37.868  33.944  34.235  1.00  0.00     0.029 A 
ATOM     55  C   UNL A   1      38.978  32.999  34.316  1.00  0.00     0.049 A 
ATOM     56  H   UNL A   1      39.602  31.648  32.860  1.00  0.00     0.167 HD
ATOM     57  C   UNL A   1      40.663  28.707  29.784  1.00  0.00     0.037 A 
ATOM     58  C   UNL A   1      39.801  32.848  35.371  1.00  0.00     0.037 A 
ATOM     59  C   UNL A   1      41.635  28.526  30.830  1.00  0.00     0.049 A 
ATOM     60  C   UNL A   1      40.910  31.832  35.295  1.00  0.00     0.074 A 
ATOM     61  C   UNL A   1      42.713  27.659  30.868  1.00  0.00     0.029 A 
ATOM     62  N   UNL A   1      41.648  29.232  32.024  1.00  0.00    -0.354 N 
ATOM     63  N   UNL A   1      41.217  31.013  34.320  1.00  0.00    -0.248 NA
ATOM     64  C   UNL A   1      41.792  31.727  36.466  1.00  0.00     0.031 C 
ATOM     65  C   UNL A   1      43.360  27.818  32.097  1.00  0.00     0.029 A 
ATOM     66  C   UNL A   1      42.712  28.814  32.807  1.00  0.00     0.049 A 
ATOM     67  H   UNL A   1      40.997  29.927  32.277  1.00  0.00     0.167 HD
ATOM     68  C   UNL A   1      42.343  30.320  34.744  1.00  0.00     0.074 A 
ATOM     69  C   UNL A   1      42.675  30.826  36.059  1.00  0.00     0.031 C 
ATOM     70  C   UNL A   1      43.037  29.348  34.105  1.00  0.00     0.037 A 
BRANCH  57  71
ATOM     71  C   UNL A   1      40.788  27.868  28.546  1.00  0.00     0.064 A 
ATOM     72  C   UNL A   1      40.120  26.639  28.428  1.00  0.00     0.173 A 
ATOM     73  C   UNL A   1      41.539  28.314  27.448  1.00  0.00     0.173 A 
ATOM     74  F   UNL A   1      39.398  26.163  29.455  1.00  0.00    -0.203 F 
ATOM     75  C   UNL A   1      40.217  25.879  27.267  1.00  0.00     0.198 A 
ATOM     76  C   UNL A   1      41.610  27.564  26.278  1.00  0.00     0.198 A 
ATOM     77  F   UNL A   1      42.193  29.484  27.507  1.00  0.00    -0.203 F 
ATOM     78  F   UNL A   1      39.604  24.690  27.194  1.00  0.00    -0.200 F 
ATOM     79  C   UNL A   1      40.954  26.346  26.189  1.00  0.00     0.200 A 
ATOM     80  F   UNL A   1      42.313  28.022  25.232  1.00  0.00    -0.200 F 
ATOM     81  F   UNL A   1      41.038  25.617  25.067  1.00  0.00    -0.200 F 
ENDBRANCH  57  71
BRANCH  58  82
ATOM     82  C   UNL A   1      39.621  33.682  36.589  1.00  0.00     0.064 A 
ATOM     83  C   UNL A   1      38.773  33.269  37.626  1.00  0.00     0.173 A 
ATOM     84  C   UNL A   1      40.266  34.920  36.727  1.00  0.00     0.173 A 
ATOM     85  F   UNL A   1      38.118  32.104  37.531  1.00  0.00    -0.203 F 
ATOM     86  C   UNL A   1      38.550  34.078  38.738  1.00  0.00     0.198 A 
ATOM     87  C   UNL A   1      40.066  35.714  37.855  1.00  0.00     0.198 A 
ATOM     88  F   UNL A   1      41.092  35.359  35.766  1.00  0.00    -0.203 F 
ATOM     89  F   UNL A   1      37.687  33.686  39.686  1.00  0.00    -0.200 F 
ATOM     90  C   UNL A   1      39.199  35.297  38.853  1.00  0.00     0.200 A 
ATOM     91  F   UNL A   1      40.707  36.885  37.969  1.00  0.00    -0.200 F 
ATOM     92  F   UNL A   1      38.981  36.078  39.922  1.00  0.00    -0.200 F 
ENDBRANCH  58  82
BRANCH  70  93
ATOM     93  C   UNL A   1      44.251  28.801  34.798  1.00  0.00     0.064 A 
ATOM     94  C   UNL A   1      45.514  29.392  34.646  1.00  0.00     0.173 A 
ATOM     95  C   UNL A   1      44.140  27.694  35.652  1.00  0.00     0.173 A 
ATOM     96  F   UNL A   1      45.674  30.442  33.828  1.00  0.00    -0.203 F 
ATOM     97  C   UNL A   1      46.628  28.876  35.304  1.00  0.00     0.198 A 
ATOM     98  C   UNL A   1      45.249  27.200  36.332  1.00  0.00     0.198 A 
ATOM     99  F   UNL A   1      42.953  27.098  35.836  1.00  0.00    -0.203 F 
ATOM    100  F   UNL A   1      47.833  29.426  35.108  1.00  0.00    -0.200 F 
ATOM    101  C   UNL A   1      46.494  27.786  36.151  1.00  0.00     0.200 A 
ATOM    102  F   UNL A   1      45.115  26.154  37.160  1.00  0.00    -0.200 F 
ATOM    103  F   UNL A   1      47.564  27.295  36.789  1.00  0.00    -0.200 F 
ENDBRANCH  70  93
ENDBRANCH  44  45
ENDBRANCH  36  39
ENDBRANCH  34  35
ENDBRANCH  33  34
ENDBRANCH  32  33
ENDBRANCH   1  32
TORSDOF 16
ENDMDL
MODEL 3
REMARK VINA RESULT:     -12.0      0.922      2.032
REMARK SMILES Cn1cc(S(=O)(=O)N2CCCc3cc(C(=O)NCCCCCCNC(=O)c4ccc(-c5c6nc(c(-c7c(F)c(F)c(F)c(F)c7F)c7ccc([nH]7)c(-c7c(F)c(F)c(F)c(F)c7F)c7nc(c(-c8c(F)c(F)c(F)c(F)c8F)c8ccc5[nH]8)C=C7)C=C6)cc4)ccc32)cc1C(N)=O
REMARK SMILES IDX 20 1 19 2 18 3 17 4 15 5 16 6 14 8 8 9 9 10 92 11 10 12
REMARK SMILES IDX 12 13 91 14 11 15 13 16 90 17 5 18 6 19 7 20 4 21 1 22 2 23
REMARK SMILES IDX 3 24 94 25 93 26 95 27 96 28 97 29 21 32 22 33 23 34 24 35
REMARK SMILES IDX 25 36 26 38 27 39 28 40 89 41 29 42 88 43 30 44 31 45 32 46
REMARK SMILES IDX 82 47 33 48 87 49 81 50 83 51 34 52 86 53 80 54 79 55 35 57
REMARK SMILES IDX 67 58 47 59 66 60 48 61 51 62 65 63 84 64 49 65 50 66 64 68
REMARK SMILES IDX 85 69 52 70 36 71 37 72 45 73 38 74 39 75 43 76 46 77 40 78
REMARK SMILES IDX 41 79 44 80 42 81 68 82 69 83 77 84 70 85 71 86 75 87 78 88
REMARK SMILES IDX 72 89 73 90 76 91 74 92 53 93 54 94 62 95 55 96 56 97 60 98
REMARK SMILES IDX 63 99 57 100 58 101 61 102 59 103
REMARK H PARENT 17 7 96 30 96 31 24 37 83 56 51 67
REMARK Flexibility Score: inf
ROOT
ATOM      1  C   UNL A   1      40.638  21.468  27.626  1.00  0.00     0.002 C 
ENDROOT
BRANCH   1   2
ATOM      2  C   UNL A   1      40.317  22.830  26.994  1.00  0.00     0.021 C 
BRANCH   2   3
ATOM      3  C   UNL A   1      38.927  22.886  26.355  1.00  0.00     0.116 C 
BRANCH   3   4
ATOM      4  N   UNL A   1      38.643  21.634  25.685  1.00  0.00    -0.352 N 
ATOM      5  C   UNL A   1      37.492  21.097  25.173  1.00  0.00     0.251 C 
ATOM      6  O   UNL A   1      37.562  19.973  24.675  1.00  0.00    -0.269 OA
ATOM      7  H   UNL A   1      39.431  21.055  25.576  1.00  0.00     0.163 HD
BRANCH   5   8
ATOM      8  C   UNL A   1      36.188  21.819  25.136  1.00  0.00     0.040 A 
ATOM      9  N   UNL A   1      32.609  24.088  24.706  1.00  0.00    -0.266 N 
ATOM     10  C   UNL A   1      31.948  24.086  23.387  1.00  0.00     0.136 C 
ATOM     11  C   UNL A   1      33.801  23.306  24.864  1.00  0.00     0.055 A 
ATOM     12  C   UNL A   1      32.982  24.371  22.312  1.00  0.00     0.028 C 
ATOM     13  C   UNL A   1      34.559  22.987  23.728  1.00  0.00    -0.023 A 
ATOM     14  C   UNL A   1      34.182  22.788  26.103  1.00  0.00     0.028 A 
ATOM     15  C   UNL A   1      34.076  23.310  22.336  1.00  0.00     0.039 C 
ATOM     16  C   UNL A   1      35.755  22.266  23.878  1.00  0.00     0.019 A 
ATOM     17  C   UNL A   1      35.353  22.031  26.233  1.00  0.00     0.016 A 
BRANCH   9  18
ATOM     18  S   UNL A   1      32.223  25.338  25.789  1.00  0.00     0.265 S 
ATOM     19  O   UNL A   1      33.407  26.145  26.021  1.00  0.00    -0.201 OA
ATOM     20  O   UNL A   1      31.392  24.874  26.874  1.00  0.00    -0.201 OA
BRANCH  18  21
ATOM     21  C   UNL A   1      31.177  26.417  24.924  1.00  0.00     0.106 A 
ATOM     22  C   UNL A   1      28.019  27.427  23.501  1.00  0.00     0.150 C 
ATOM     23  N   UNL A   1      29.391  27.324  23.954  1.00  0.00    -0.345 N 
ATOM     24  C   UNL A   1      29.848  26.217  24.635  1.00  0.00     0.108 A 
ATOM     25  C   UNL A   1      30.415  28.249  23.797  1.00  0.00     0.107 A 
ATOM     26  C   UNL A   1      31.538  27.672  24.382  1.00  0.00     0.056 A 
BRANCH  25  27
ATOM     27  C   UNL A   1      30.301  29.543  23.146  1.00  0.00     0.265 C 
ATOM     28  N   UNL A   1      31.028  29.703  22.000  1.00  0.00    -0.364 N 
ATOM     29  O   UNL A   1      29.622  30.484  23.544  1.00  0.00    -0.268 OA
ATOM     30  H   UNL A   1      31.581  28.962  21.661  1.00  0.00     0.160 HD
ATOM     31  H   UNL A   1      30.998  30.558  21.513  1.00  0.00     0.160 HD
ENDBRANCH  25  27
ENDBRANCH  18  21
ENDBRANCH   9  18
ENDBRANCH   5   8
ENDBRANCH   3   4
ENDBRANCH   2   3
ENDBRANCH   1   2
BRANCH   1  32
ATOM     32  C   UNL A   1      42.098  21.020  27.482  1.00  0.00     0.002 C 
BRANCH  32  33
ATOM     33  C   UNL A   1      42.289  19.564  27.052  1.00  0.00     0.021 C 
BRANCH  33  34
ATOM     34  C   UNL A   1      42.149  19.328  25.552  1.00  0.00     0.116 C 
BRANCH  34  35
ATOM     35  N   UNL A   1      43.395  18.862  24.963  1.00  0.00    -0.352 N 
ATOM     36  C   UNL A   1      44.499  19.584  24.587  1.00  0.00     0.251 C 
ATOM     37  H   UNL A   1      43.455  17.891  24.815  1.00  0.00     0.163 HD
ATOM     38  O   UNL A   1      45.374  19.066  23.900  1.00  0.00    -0.269 OA
BRANCH  36  39
ATOM     39  C   UNL A   1      44.633  20.994  25.004  1.00  0.00     0.039 A 
ATOM     40  C   UNL A   1      45.309  21.288  26.191  1.00  0.00     0.014 A 
ATOM     41  C   UNL A   1      44.071  22.022  24.241  1.00  0.00     0.014 A 
ATOM     42  C   UNL A   1      45.466  22.618  26.588  1.00  0.00     0.010 A 
ATOM     43  C   UNL A   1      44.283  23.349  24.603  1.00  0.00     0.010 A 
ATOM     44  C   UNL A   1      44.977  23.660  25.783  1.00  0.00    -0.014 A 
BRANCH  44  45
ATOM     45  C   UNL A   1      45.169  25.081  26.166  1.00  0.00     0.031 A 
ATOM     46  C   UNL A   1      46.529  25.712  26.051  1.00  0.00     0.074 A 
ATOM     47  C   UNL A   1      44.135  25.782  26.668  1.00  0.00     0.049 A 
ATOM     48  N   UNL A   1      46.920  26.909  26.413  1.00  0.00    -0.248 NA
ATOM     49  C   UNL A   1      47.596  24.881  25.474  1.00  0.00     0.031 C 
ATOM     50  C   UNL A   1      42.779  25.268  26.864  1.00  0.00     0.029 A 
ATOM     51  N   UNL A   1      44.066  27.078  27.118  1.00  0.00    -0.354 N 
ATOM     52  C   UNL A   1      48.274  26.971  26.110  1.00  0.00     0.074 A 
ATOM     53  C   UNL A   1      48.652  25.674  25.590  1.00  0.00     0.031 C 
ATOM     54  C   UNL A   1      42.010  26.239  27.383  1.00  0.00     0.029 A 
ATOM     55  C   UNL A   1      42.826  27.432  27.590  1.00  0.00     0.049 A 
ATOM     56  H   UNL A   1      44.835  27.694  27.105  1.00  0.00     0.167 HD
ATOM     57  C   UNL A   1      49.119  28.023  26.226  1.00  0.00     0.037 A 
ATOM     58  C   UNL A   1      42.400  28.586  28.137  1.00  0.00     0.037 A 
ATOM     59  C   UNL A   1      48.737  29.316  26.730  1.00  0.00     0.049 A 
ATOM     60  C   UNL A   1      43.367  29.733  28.273  1.00  0.00     0.074 A 
ATOM     61  C   UNL A   1      49.514  30.452  26.872  1.00  0.00     0.029 A 
ATOM     62  N   UNL A   1      47.464  29.644  27.172  1.00  0.00    -0.354 N 
ATOM     63  N   UNL A   1      44.632  29.794  27.939  1.00  0.00    -0.248 NA
ATOM     64  C   UNL A   1      42.841  30.975  28.856  1.00  0.00     0.031 C 
ATOM     65  C   UNL A   1      48.720  31.459  27.428  1.00  0.00     0.029 A 
ATOM     66  C   UNL A   1      47.437  30.964  27.593  1.00  0.00     0.049 A 
ATOM     67  H   UNL A   1      46.694  29.030  27.185  1.00  0.00     0.167 HD
ATOM     68  C   UNL A   1      45.045  31.084  28.240  1.00  0.00     0.074 A 
ATOM     69  C   UNL A   1      43.891  31.780  28.768  1.00  0.00     0.031 C 
ATOM     70  C   UNL A   1      46.271  31.644  28.096  1.00  0.00     0.037 A 
BRANCH  57  71
ATOM     71  C   UNL A   1      50.538  27.825  25.781  1.00  0.00     0.064 A 
ATOM     72  C   UNL A   1      51.554  27.519  26.700  1.00  0.00     0.173 A 
ATOM     73  C   UNL A   1      50.881  27.892  24.422  1.00  0.00     0.173 A 
ATOM     74  F   UNL A   1      51.280  27.455  28.012  1.00  0.00    -0.203 F 
ATOM     75  C   UNL A   1      52.863  27.309  26.277  1.00  0.00     0.198 A 
ATOM     76  C   UNL A   1      52.186  27.653  24.001  1.00  0.00     0.198 A 
ATOM     77  F   UNL A   1      49.946  28.176  23.502  1.00  0.00    -0.203 F 
ATOM     78  F   UNL A   1      53.824  27.059  27.178  1.00  0.00    -0.200 F 
ATOM     79  C   UNL A   1      53.177  27.368  24.928  1.00  0.00     0.200 A 
ATOM     80  F   UNL A   1      52.485  27.698  22.695  1.00  0.00    -0.200 F 
ATOM     81  F   UNL A   1      54.436  27.155  24.522  1.00  0.00    -0.200 F 
ENDBRANCH  57  71
BRANCH  58  82
ATOM     82  C   UNL A   1      40.991  28.726  28.592  1.00  0.00     0.064 A 
ATOM     83  C   UNL A   1      40.636  28.480  29.925  1.00  0.00     0.173 A 
ATOM     84  C   UNL A   1      39.968  29.076  27.698  1.00  0.00     0.173 A 
ATOM     85  F   UNL A   1      41.575  28.122  30.812  1.00  0.00    -0.203 F 
ATOM     86  C   UNL A   1      39.308  28.546  30.340  1.00  0.00     0.198 A 
ATOM     87  C   UNL A   1      38.645  29.172  28.121  1.00  0.00     0.198 A 
ATOM     88  F   UNL A   1      40.256  29.328  26.412  1.00  0.00    -0.203 F 
ATOM     89  F   UNL A   1      38.989  28.246  31.607  1.00  0.00    -0.200 F 
ATOM     90  C   UNL A   1      38.314  28.895  29.439  1.00  0.00     0.200 A 
ATOM     91  F   UNL A   1      37.688  29.524  27.251  1.00  0.00    -0.200 F 
ATOM     92  F   UNL A   1      37.035  28.953  29.837  1.00  0.00    -0.200 F 
ENDBRANCH  58  82
BRANCH  70  93
ATOM     93  C   UNL A   1      46.415  33.089  28.472  1.00  0.00     0.064 A 
ATOM     94  C   UNL A   1      46.786  33.479  29.767  1.00  0.00     0.173 A 
ATOM     95  C   UNL A   1      46.213  34.093  27.514  1.00  0.00     0.173 A 
ATOM     96  F   UNL A   1      46.975  32.557  30.722  1.00  0.00    -0.203 F 
ATOM     97  C   UNL A   1      46.924  34.826  30.096  1.00  0.00     0.198 A 
ATOM     98  C   UNL A   1      46.381  35.437  27.838  1.00  0.00     0.198 A 
ATOM     99  F   UNL A   1      45.864  33.772  26.260  1.00  0.00    -0.203 F 
ATOM    100  F   UNL A   1      47.232  35.178  31.351  1.00  0.00    -0.200 F 
ATOM    101  C   UNL A   1      46.728  35.802  29.130  1.00  0.00     0.200 A 
ATOM    102  F   UNL A   1      46.204  36.378  26.900  1.00  0.00    -0.200 F 
ATOM    103  F   UNL A   1      46.867  37.096  29.446  1.00  0.00    -0.200 F 
ENDBRANCH  70  93
ENDBRANCH  44  45
ENDBRANCH  36  39
ENDBRANCH  34  35
ENDBRANCH  33  34
ENDBRANCH  32  33
ENDBRANCH   1  32
TORSDOF 16
ENDMDL
