MODEL 1
REMARK VINA RESULT:     -14.1      0.000      0.000
REMARK SMILES Cc1ccccc1NC(=O)CSc1nc(C(=O)NCCCCCCNC(=O)c2ccc(-c3c4nc(c(-c5c(F)c(F)c(F)c(F)c5F)c5ccc([nH]5)c(-c5c(F)c(F)c(F)c(F)c5F)c5nc(c(-c6c(F)c(F)c(F)c(F)c6F)c6ccc3[nH]6)C=C5)C=C4)cc2)c2ccccc2n1
REMARK SMILES IDX 20 1 19 2 18 3 16 4 17 5 15 7 13 8 14 9 97 10 96 11 91 12
REMARK SMILES IDX 95 13 92 14 94 15 93 16 12 17 11 18 9 19 8 20 10 22 7 23
REMARK SMILES IDX 1 24 2 25 3 26 4 27 6 28 5 29 21 30 22 31 23 32 24 33 25 34
REMARK SMILES IDX 26 35 27 37 28 38 29 39 90 40 30 41 89 42 31 43 32 44 33 45
REMARK SMILES IDX 83 46 34 47 88 48 82 49 84 50 35 51 87 52 81 53 80 54 36 56
REMARK SMILES IDX 68 57 48 58 67 59 49 60 52 61 66 62 85 63 50 64 51 65 65 67
REMARK SMILES IDX 86 68 53 69 37 70 38 71 46 72 39 73 40 74 44 75 47 76 41 77
REMARK SMILES IDX 42 78 45 79 43 80 69 81 70 82 78 83 71 84 72 85 76 86 79 87
REMARK SMILES IDX 73 88 74 89 77 90 75 91 54 92 55 93 63 94 56 95 57 96 61 97
REMARK SMILES IDX 64 98 58 99 59 100 62 101 60 102
REMARK H PARENT 18 6 8 21 25 36 84 55 52 66
REMARK Flexibility Score: inf
ROOT
ATOM      1  C   UNL A   1      32.656  29.104  23.612  1.00  0.00     0.021 C 
ENDROOT
BRANCH   1   2
ATOM      2  C   UNL A   1      33.931  28.646  22.908  1.00  0.00     0.116 C 
BRANCH   2   3
ATOM      3  N   UNL A   1      33.776  27.656  21.865  1.00  0.00    -0.351 N 
ATOM      4  C   UNL A   1      33.398  26.324  21.958  1.00  0.00     0.270 C 
ATOM      5  O   UNL A   1      33.227  25.704  20.909  1.00  0.00    -0.267 OA
ATOM      6  H   UNL A   1      33.966  27.975  20.953  1.00  0.00     0.163 HD
BRANCH   4   7
ATOM      7  C   UNL A   1      33.287  25.605  23.275  1.00  0.00     0.140 A 
ATOM      8  C   UNL A   1      34.483  24.540  24.894  1.00  0.00     0.189 A 
ATOM      9  N   UNL A   1      34.470  25.082  23.681  1.00  0.00    -0.217 NA
ATOM     10  N   UNL A   1      33.468  24.585  25.765  1.00  0.00    -0.222 NA
ATOM     11  C   UNL A   1      32.307  25.085  25.340  1.00  0.00     0.076 A 
ATOM     12  C   UNL A   1      32.110  25.542  24.034  1.00  0.00     0.032 A 
ATOM     13  C   UNL A   1      31.254  25.160  26.242  1.00  0.00     0.029 A 
ATOM     14  C   UNL A   1      30.796  25.887  23.623  1.00  0.00     0.013 A 
ATOM     15  C   UNL A   1      29.992  25.624  25.867  1.00  0.00     0.002 A 
ATOM     16  C   UNL A   1      29.752  25.957  24.543  1.00  0.00     0.001 A 
BRANCH   8  17
ATOM     17  S   UNL A   1      35.979  23.800  25.472  1.00  0.00    -0.076 SA
BRANCH  17  18
ATOM     18  C   UNL A   1      35.651  22.060  25.065  1.00  0.00     0.178 C 
BRANCH  18  19
ATOM     19  C   UNL A   1      34.808  21.333  26.090  1.00  0.00     0.234 C 
ATOM     20  N   UNL A   1      33.956  20.303  25.829  1.00  0.00    -0.325 N 
ATOM     21  H   UNL A   1      33.458  20.027  26.634  1.00  0.00     0.169 HD
ATOM     22  O   UNL A   1      34.850  21.698  27.275  1.00  0.00    -0.274 OA
BRANCH  20  23
ATOM     23  C   UNL A   1      33.605  19.531  24.704  1.00  0.00     0.044 A 
ATOM     24  C   UNL A   1      32.098  21.454  23.818  1.00  0.00     0.046 C 
ATOM     25  C   UNL A   1      32.667  20.057  23.781  1.00  0.00    -0.027 A 
ATOM     26  C   UNL A   1      32.176  19.232  22.747  1.00  0.00     0.005 A 
ATOM     27  C   UNL A   1      32.636  17.932  22.580  1.00  0.00     0.000 A 
ATOM     28  C   UNL A   1      34.113  18.251  24.463  1.00  0.00     0.026 A 
ATOM     29  C   UNL A   1      33.625  17.453  23.423  1.00  0.00     0.002 A 
ENDBRANCH  20  23
ENDBRANCH  18  19
ENDBRANCH  17  18
ENDBRANCH   8  17
ENDBRANCH   4   7
ENDBRANCH   2   3
ENDBRANCH   1   2
BRANCH   1  30
ATOM     30  C   UNL A   1      32.521  28.910  25.129  1.00  0.00     0.002 C 
BRANCH  30  31
ATOM     31  C   UNL A   1      31.652  29.863  25.962  1.00  0.00     0.002 C 
BRANCH  31  32
ATOM     32  C   UNL A   1      32.343  30.927  26.813  1.00  0.00     0.021 C 
BRANCH  32  33
ATOM     33  C   UNL A   1      33.687  30.532  27.407  1.00  0.00     0.116 C 
BRANCH  33  34
ATOM     34  N   UNL A   1      34.223  31.485  28.378  1.00  0.00    -0.352 N 
ATOM     35  C   UNL A   1      35.391  31.382  29.122  1.00  0.00     0.251 C 
ATOM     36  H   UNL A   1      33.690  32.300  28.523  1.00  0.00     0.163 HD
ATOM     37  O   UNL A   1      35.757  32.274  29.867  1.00  0.00    -0.269 OA
BRANCH  35  38
ATOM     38  C   UNL A   1      36.246  30.196  28.897  1.00  0.00     0.039 A 
ATOM     39  C   UNL A   1      36.586  29.413  30.003  1.00  0.00     0.014 A 
ATOM     40  C   UNL A   1      36.912  30.049  27.683  1.00  0.00     0.014 A 
ATOM     41  C   UNL A   1      37.769  28.680  29.968  1.00  0.00     0.010 A 
ATOM     42  C   UNL A   1      38.132  29.401  27.680  1.00  0.00     0.010 A 
ATOM     43  C   UNL A   1      38.598  28.791  28.851  1.00  0.00    -0.014 A 
BRANCH  43  44
ATOM     44  C   UNL A   1      40.014  28.432  28.876  1.00  0.00     0.031 A 
ATOM     45  C   UNL A   1      40.460  27.085  28.474  1.00  0.00     0.074 A 
ATOM     46  C   UNL A   1      40.930  29.371  29.206  1.00  0.00     0.049 A 
ATOM     47  N   UNL A   1      41.618  26.587  28.751  1.00  0.00    -0.248 NA
ATOM     48  C   UNL A   1      39.591  26.158  27.769  1.00  0.00     0.031 C 
ATOM     49  C   UNL A   1      42.380  29.296  29.048  1.00  0.00     0.029 A 
ATOM     50  N   UNL A   1      40.727  30.512  30.002  1.00  0.00    -0.354 N 
ATOM     51  C   UNL A   1      41.754  25.406  28.059  1.00  0.00     0.074 A 
ATOM     52  C   UNL A   1      40.435  25.150  27.528  1.00  0.00     0.031 C 
ATOM     53  C   UNL A   1      42.952  30.099  29.958  1.00  0.00     0.029 A 
ATOM     54  C   UNL A   1      41.890  30.605  30.808  1.00  0.00     0.049 A 
ATOM     55  H   UNL A   1      39.949  31.115  29.999  1.00  0.00     0.167 HD
ATOM     56  C   UNL A   1      43.001  24.860  27.934  1.00  0.00     0.037 A 
ATOM     57  C   UNL A   1      41.816  30.447  32.161  1.00  0.00     0.037 A 
ATOM     58  C   UNL A   1      43.967  25.535  28.809  1.00  0.00     0.049 A 
ATOM     59  C   UNL A   1      42.634  29.297  32.717  1.00  0.00     0.074 A 
ATOM     60  C   UNL A   1      44.988  26.455  28.630  1.00  0.00     0.029 A 
ATOM     61  N   UNL A   1      43.764  25.466  30.177  1.00  0.00    -0.354 N 
ATOM     62  N   UNL A   1      43.303  28.445  31.992  1.00  0.00    -0.248 NA
ATOM     63  C   UNL A   1      42.666  28.959  34.141  1.00  0.00     0.031 C 
ATOM     64  C   UNL A   1      45.396  26.929  29.913  1.00  0.00     0.029 A 
ATOM     65  C   UNL A   1      44.620  26.300  30.868  1.00  0.00     0.049 A 
ATOM     66  H   UNL A   1      43.091  24.889  30.606  1.00  0.00     0.167 HD
ATOM     67  C   UNL A   1      43.800  27.455  32.798  1.00  0.00     0.074 A 
ATOM     68  C   UNL A   1      43.370  27.816  34.134  1.00  0.00     0.031 C 
ATOM     69  C   UNL A   1      44.491  26.384  32.313  1.00  0.00     0.037 A 
BRANCH  56  70
ATOM     70  C   UNL A   1      43.407  23.852  26.871  1.00  0.00     0.064 A 
ATOM     71  C   UNL A   1      42.967  22.510  26.948  1.00  0.00     0.173 A 
ATOM     72  C   UNL A   1      44.284  24.104  25.799  1.00  0.00     0.173 A 
ATOM     73  F   UNL A   1      42.048  22.123  27.841  1.00  0.00    -0.203 F 
ATOM     74  C   UNL A   1      43.457  21.502  26.109  1.00  0.00     0.198 A 
ATOM     75  C   UNL A   1      44.810  23.091  24.989  1.00  0.00     0.198 A 
ATOM     76  F   UNL A   1      44.619  25.344  25.436  1.00  0.00    -0.203 F 
ATOM     77  F   UNL A   1      43.007  20.247  26.247  1.00  0.00    -0.200 F 
ATOM     78  C   UNL A   1      44.407  21.785  25.153  1.00  0.00     0.200 A 
ATOM     79  F   UNL A   1      45.710  23.400  24.043  1.00  0.00    -0.200 F 
ATOM     80  F   UNL A   1      44.908  20.816  24.376  1.00  0.00    -0.200 F 
ENDBRANCH  56  70
BRANCH  57  81
ATOM     81  C   UNL A   1      40.531  30.934  32.731  1.00  0.00     0.064 A 
ATOM     82  C   UNL A   1      40.292  32.323  32.765  1.00  0.00     0.173 A 
ATOM     83  C   UNL A   1      39.430  30.087  32.904  1.00  0.00     0.173 A 
ATOM     84  F   UNL A   1      41.312  33.182  32.601  1.00  0.00    -0.203 F 
ATOM     85  C   UNL A   1      39.001  32.837  32.843  1.00  0.00     0.198 A 
ATOM     86  C   UNL A   1      38.139  30.606  33.008  1.00  0.00     0.198 A 
ATOM     87  F   UNL A   1      39.581  28.756  32.852  1.00  0.00    -0.203 F 
ATOM     88  F   UNL A   1      38.799  34.158  32.743  1.00  0.00    -0.200 F 
ATOM     89  C   UNL A   1      37.922  31.975  32.941  1.00  0.00     0.200 A 
ATOM     90  F   UNL A   1      37.092  29.771  33.071  1.00  0.00    -0.200 F 
ATOM     91  F   UNL A   1      36.672  32.458  32.922  1.00  0.00    -0.200 F 
ENDBRANCH  57  81
BRANCH  69  92
ATOM     92  C   UNL A   1      45.079  25.307  33.182  1.00  0.00     0.064 A 
ATOM     93  C   UNL A   1      46.463  25.095  33.290  1.00  0.00     0.173 A 
ATOM     94  C   UNL A   1      44.257  24.376  33.855  1.00  0.00     0.173 A 
ATOM     95  F   UNL A   1      47.331  25.873  32.627  1.00  0.00    -0.203 F 
ATOM     96  C   UNL A   1      46.989  24.062  34.071  1.00  0.00     0.198 A 
ATOM     97  C   UNL A   1      44.784  23.316  34.589  1.00  0.00     0.198 A 
ATOM     98  F   UNL A   1      42.921  24.484  33.841  1.00  0.00    -0.203 F 
ATOM     99  F   UNL A   1      48.317  23.934  34.194  1.00  0.00    -0.200 F 
ATOM    100  C   UNL A   1      46.150  23.168  34.711  1.00  0.00     0.200 A 
ATOM    101  F   UNL A   1      43.957  22.444  35.184  1.00  0.00    -0.200 F 
ATOM    102  F   UNL A   1      46.658  22.168  35.445  1.00  0.00    -0.200 F 
ENDBRANCH  69  92
ENDBRANCH  43  44
ENDBRANCH  35  38
ENDBRANCH  33  34
ENDBRANCH  32  33
ENDBRANCH  31  32
ENDBRANCH  30  31
ENDBRANCH   1  30
TORSDOF 17
ENDMDL
MODEL 2
REMARK VINA RESULT:     -13.2      1.696      4.231
REMARK SMILES Cc1ccccc1NC(=O)CSc1nc(C(=O)NCCCCCCNC(=O)c2ccc(-c3c4nc(c(-c5c(F)c(F)c(F)c(F)c5F)c5ccc([nH]5)c(-c5c(F)c(F)c(F)c(F)c5F)c5nc(c(-c6c(F)c(F)c(F)c(F)c6F)c6ccc3[nH]6)C=C5)C=C4)cc2)c2ccccc2n1
REMARK SMILES IDX 20 1 19 2 18 3 16 4 17 5 15 7 13 8 14 9 97 10 96 11 91 12
REMARK SMILES IDX 95 13 92 14 94 15 93 16 12 17 11 18 9 19 8 20 10 22 7 23
REMARK SMILES IDX 1 24 2 25 3 26 4 27 6 28 5 29 21 30 22 31 23 32 24 33 25 34
REMARK SMILES IDX 26 35 27 37 28 38 29 39 90 40 30 41 89 42 31 43 32 44 33 45
REMARK SMILES IDX 83 46 34 47 88 48 82 49 84 50 35 51 87 52 81 53 80 54 36 56
REMARK SMILES IDX 68 57 48 58 67 59 49 60 52 61 66 62 85 63 50 64 51 65 65 67
REMARK SMILES IDX 86 68 53 69 37 70 38 71 46 72 39 73 40 74 44 75 47 76 41 77
REMARK SMILES IDX 42 78 45 79 43 80 69 81 70 82 78 83 71 84 72 85 76 86 79 87
REMARK SMILES IDX 73 88 74 89 77 90 75 91 54 92 55 93 63 94 56 95 57 96 61 97
REMARK SMILES IDX 64 98 58 99 59 100 62 101 60 102
REMARK H PARENT 18 6 8 21 25 36 84 55 52 66
REMARK Flexibility Score: inf
ROOT
ATOM      1  C   UNL A   1      31.655  26.013  26.492  1.00  0.00     0.021 C 
ENDROOT
BRANCH   1   2
ATOM      2  C   UNL A   1      32.396  24.704  26.757  1.00  0.00     0.116 C 
BRANCH   2   3
ATOM      3  N   UNL A   1      31.697  23.484  26.420  1.00  0.00    -0.351 N 
ATOM      4  C   UNL A   1      31.977  22.547  25.435  1.00  0.00     0.270 C 
ATOM      5  O   UNL A   1      31.296  21.522  25.412  1.00  0.00    -0.267 OA
ATOM      6  H   UNL A   1      30.906  23.287  26.972  1.00  0.00     0.163 HD
BRANCH   4   7
ATOM      7  C   UNL A   1      33.001  22.785  24.359  1.00  0.00     0.140 A 
ATOM      8  C   UNL A   1      33.432  23.968  22.461  1.00  0.00     0.189 A 
ATOM      9  N   UNL A   1      32.545  23.608  23.383  1.00  0.00    -0.217 NA
ATOM     10  N   UNL A   1      34.738  23.681  22.501  1.00  0.00    -0.222 NA
ATOM     11  C   UNL A   1      35.163  22.854  23.457  1.00  0.00     0.076 A 
ATOM     12  C   UNL A   1      34.306  22.274  24.395  1.00  0.00     0.032 A 
ATOM     13  C   UNL A   1      36.521  22.570  23.524  1.00  0.00     0.029 A 
ATOM     14  C   UNL A   1      34.818  21.270  25.259  1.00  0.00     0.013 A 
ATOM     15  C   UNL A   1      37.043  21.677  24.461  1.00  0.00     0.002 A 
ATOM     16  C   UNL A   1      36.183  20.998  25.311  1.00  0.00     0.001 A 
BRANCH   8  17
ATOM     17  S   UNL A   1      32.897  25.003  21.134  1.00  0.00    -0.076 SA
BRANCH  17  18
ATOM     18  C   UNL A   1      31.681  26.034  22.006  1.00  0.00     0.178 C 
BRANCH  18  19
ATOM     19  C   UNL A   1      32.269  27.266  22.660  1.00  0.00     0.234 C 
ATOM     20  N   UNL A   1      31.618  28.444  22.862  1.00  0.00    -0.325 N 
ATOM     21  H   UNL A   1      32.213  29.131  23.242  1.00  0.00     0.169 HD
ATOM     22  O   UNL A   1      33.453  27.244  23.031  1.00  0.00    -0.274 OA
BRANCH  20  23
ATOM     23  C   UNL A   1      30.310  28.932  22.668  1.00  0.00     0.044 A 
ATOM     24  C   UNL A   1      29.345  27.006  24.124  1.00  0.00     0.046 C 
ATOM     25  C   UNL A   1      29.223  28.206  23.216  1.00  0.00    -0.027 A 
ATOM     26  C   UNL A   1      27.903  28.582  22.889  1.00  0.00     0.005 A 
ATOM     27  C   UNL A   1      27.646  29.685  22.084  1.00  0.00     0.000 A 
ATOM     28  C   UNL A   1      30.022  30.085  21.934  1.00  0.00     0.026 A 
ATOM     29  C   UNL A   1      28.706  30.452  21.630  1.00  0.00     0.002 A 
ENDBRANCH  20  23
ENDBRANCH  18  19
ENDBRANCH  17  18
ENDBRANCH   8  17
ENDBRANCH   4   7
ENDBRANCH   2   3
ENDBRANCH   1   2
BRANCH   1  30
ATOM     30  C   UNL A   1      32.421  27.341  26.563  1.00  0.00     0.002 C 
BRANCH  30  31
ATOM     31  C   UNL A   1      31.835  28.539  27.324  1.00  0.00     0.002 C 
BRANCH  31  32
ATOM     32  C   UNL A   1      32.575  29.874  27.269  1.00  0.00     0.021 C 
BRANCH  32  33
ATOM     33  C   UNL A   1      34.083  29.806  27.465  1.00  0.00     0.116 C 
BRANCH  33  34
ATOM     34  N   UNL A   1      34.636  30.885  28.280  1.00  0.00    -0.352 N 
ATOM     35  C   UNL A   1      35.880  30.941  28.896  1.00  0.00     0.251 C 
ATOM     36  H   UNL A   1      34.056  31.669  28.410  1.00  0.00     0.163 HD
ATOM     37  O   UNL A   1      36.247  31.926  29.513  1.00  0.00    -0.269 OA
BRANCH  35  38
ATOM     38  C   UNL A   1      36.802  29.803  28.684  1.00  0.00     0.039 A 
ATOM     39  C   UNL A   1      37.037  28.940  29.758  1.00  0.00     0.014 A 
ATOM     40  C   UNL A   1      37.615  29.779  27.554  1.00  0.00     0.014 A 
ATOM     41  C   UNL A   1      38.242  28.247  29.810  1.00  0.00     0.010 A 
ATOM     42  C   UNL A   1      38.851  29.169  27.649  1.00  0.00     0.010 A 
ATOM     43  C   UNL A   1      39.196  28.476  28.817  1.00  0.00    -0.014 A 
BRANCH  43  44
ATOM     44  C   UNL A   1      40.611  28.158  28.988  1.00  0.00     0.031 A 
ATOM     45  C   UNL A   1      41.176  26.909  28.445  1.00  0.00     0.074 A 
ATOM     46  C   UNL A   1      41.424  29.055  29.592  1.00  0.00     0.049 A 
ATOM     47  N   UNL A   1      42.309  26.405  28.803  1.00  0.00    -0.248 NA
ATOM     48  C   UNL A   1      40.461  26.087  27.483  1.00  0.00     0.031 C 
ATOM     49  C   UNL A   1      42.884  29.048  29.634  1.00  0.00     0.029 A 
ATOM     50  N   UNL A   1      41.056  30.044  30.522  1.00  0.00    -0.354 N 
ATOM     51  C   UNL A   1      42.600  25.359  27.959  1.00  0.00     0.074 A 
ATOM     52  C   UNL A   1      41.381  25.157  27.209  1.00  0.00     0.031 C 
ATOM     53  C   UNL A   1      43.283  29.706  30.733  1.00  0.00     0.029 A 
ATOM     54  C   UNL A   1      42.091  30.035  31.491  1.00  0.00     0.049 A 
ATOM     55  H   UNL A   1      40.255  30.617  30.503  1.00  0.00     0.167 HD
ATOM     56  C   UNL A   1      43.878  24.876  27.929  1.00  0.00     0.037 A 
ATOM     57  C   UNL A   1      41.839  29.654  32.776  1.00  0.00     0.037 A 
ATOM     58  C   UNL A   1      44.679  25.425  29.029  1.00  0.00     0.049 A 
ATOM     59  C   UNL A   1      42.631  28.452  33.254  1.00  0.00     0.074 A 
ATOM     60  C   UNL A   1      45.667  26.390  29.148  1.00  0.00     0.029 A 
ATOM     61  N   UNL A   1      44.294  25.125  30.326  1.00  0.00    -0.354 N 
ATOM     62  N   UNL A   1      43.436  27.750  32.506  1.00  0.00    -0.248 NA
ATOM     63  C   UNL A   1      42.484  27.884  34.595  1.00  0.00     0.031 C 
ATOM     64  C   UNL A   1      45.870  26.657  30.536  1.00  0.00     0.029 A 
ATOM     65  C   UNL A   1      45.003  25.858  31.256  1.00  0.00     0.049 A 
ATOM     66  H   UNL A   1      43.599  24.467  30.556  1.00  0.00     0.167 HD
ATOM     67  C   UNL A   1      43.867  26.654  33.208  1.00  0.00     0.074 A 
ATOM     68  C   UNL A   1      43.240  26.778  34.508  1.00  0.00     0.031 C 
ATOM     69  C   UNL A   1      44.673  25.698  32.662  1.00  0.00     0.037 A 
BRANCH  56  70
ATOM     70  C   UNL A   1      44.478  24.069  26.789  1.00  0.00     0.064 A 
ATOM     71  C   UNL A   1      44.099  22.722  26.586  1.00  0.00     0.173 A 
ATOM     72  C   UNL A   1      45.481  24.518  25.908  1.00  0.00     0.173 A 
ATOM     73  F   UNL A   1      43.086  22.167  27.262  1.00  0.00    -0.203 F 
ATOM     74  C   UNL A   1      44.750  21.879  25.676  1.00  0.00     0.198 A 
ATOM     75  C   UNL A   1      46.164  23.668  25.032  1.00  0.00     0.198 A 
ATOM     76  F   UNL A   1      45.800  25.810  25.801  1.00  0.00    -0.203 F 
ATOM     77  F   UNL A   1      44.350  20.607  25.545  1.00  0.00    -0.200 F 
ATOM     78  C   UNL A   1      45.808  22.343  24.925  1.00  0.00     0.200 A 
ATOM     79  F   UNL A   1      47.170  24.153  24.288  1.00  0.00    -0.200 F 
ATOM     80  F   UNL A   1      46.460  21.529  24.084  1.00  0.00    -0.200 F 
ENDBRANCH  56  70
BRANCH  57  81
ATOM     81  C   UNL A   1      40.465  30.003  33.226  1.00  0.00     0.064 A 
ATOM     82  C   UNL A   1      40.154  31.361  33.450  1.00  0.00     0.173 A 
ATOM     83  C   UNL A   1      39.395  29.111  33.098  1.00  0.00     0.173 A 
ATOM     84  F   UNL A   1      41.142  32.262  33.576  1.00  0.00    -0.203 F 
ATOM     85  C   UNL A   1      38.840  31.819  33.423  1.00  0.00     0.198 A 
ATOM     86  C   UNL A   1      38.077  29.570  33.097  1.00  0.00     0.198 A 
ATOM     87  F   UNL A   1      39.619  27.811  32.854  1.00  0.00    -0.203 F 
ATOM     88  F   UNL A   1      38.588  33.132  33.510  1.00  0.00    -0.200 F 
ATOM     89  C   UNL A   1      37.803  30.924  33.222  1.00  0.00     0.200 A 
ATOM     90  F   UNL A   1      37.075  28.708  32.872  1.00  0.00    -0.200 F 
ATOM     91  F   UNL A   1      36.545  31.370  33.101  1.00  0.00    -0.200 F 
ENDBRANCH  57  81
BRANCH  69  92
ATOM     92  C   UNL A   1      45.190  24.509  33.424  1.00  0.00     0.064 A 
ATOM     93  C   UNL A   1      44.414  23.360  33.647  1.00  0.00     0.173 A 
ATOM     94  C   UNL A   1      46.454  24.533  34.053  1.00  0.00     0.173 A 
ATOM     95  F   UNL A   1      43.167  23.268  33.160  1.00  0.00    -0.203 F 
ATOM     96  C   UNL A   1      44.896  22.281  34.393  1.00  0.00     0.198 A 
ATOM     97  C   UNL A   1      46.911  23.477  34.840  1.00  0.00     0.198 A 
ATOM     98  F   UNL A   1      47.293  25.566  33.900  1.00  0.00    -0.203 F 
ATOM     99  F   UNL A   1      44.145  21.180  34.529  1.00  0.00    -0.200 F 
ATOM    100  C   UNL A   1      46.139  22.344  34.996  1.00  0.00     0.200 A 
ATOM    101  F   UNL A   1      48.108  23.564  35.438  1.00  0.00    -0.200 F 
ATOM    102  F   UNL A   1      46.591  21.316  35.726  1.00  0.00    -0.200 F 
ENDBRANCH  69  92
ENDBRANCH  43  44
ENDBRANCH  35  38
ENDBRANCH  33  34
ENDBRANCH  32  33
ENDBRANCH  31  32
ENDBRANCH  30  31
ENDBRANCH   1  30
TORSDOF 17
ENDMDL
MODEL 3
REMARK VINA RESULT:     -12.9      3.739      9.839
REMARK SMILES Cc1ccccc1NC(=O)CSc1nc(C(=O)NCCCCCCNC(=O)c2ccc(-c3c4nc(c(-c5c(F)c(F)c(F)c(F)c5F)c5ccc([nH]5)c(-c5c(F)c(F)c(F)c(F)c5F)c5nc(c(-c6c(F)c(F)c(F)c(F)c6F)c6ccc3[nH]6)C=C5)C=C4)cc2)c2ccccc2n1
REMARK SMILES IDX 20 1 19 2 18 3 16 4 17 5 15 7 13 8 14 9 97 10 96 11 91 12
REMARK SMILES IDX 95 13 92 14 94 15 93 16 12 17 11 18 9 19 8 20 10 22 7 23
REMARK SMILES IDX 1 24 2 25 3 26 4 27 6 28 5 29 21 30 22 31 23 32 24 33 25 34
REMARK SMILES IDX 26 35 27 37 28 38 29 39 90 40 30 41 89 42 31 43 32 44 33 45
REMARK SMILES IDX 83 46 34 47 88 48 82 49 84 50 35 51 87 52 81 53 80 54 36 56
REMARK SMILES IDX 68 57 48 58 67 59 49 60 52 61 66 62 85 63 50 64 51 65 65 67
REMARK SMILES IDX 86 68 53 69 37 70 38 71 46 72 39 73 40 74 44 75 47 76 41 77
REMARK SMILES IDX 42 78 45 79 43 80 69 81 70 82 78 83 71 84 72 85 76 86 79 87
REMARK SMILES IDX 73 88 74 89 77 90 75 91 54 92 55 93 63 94 56 95 57 96 61 97
REMARK SMILES IDX 64 98 58 99 59 100 62 101 60 102
REMARK H PARENT 18 6 8 21 25 36 84 55 52 66
REMARK Flexibility Score: inf
ROOT
ATOM      1  C   UNL A   1      38.732  23.850  26.577  1.00  0.00     0.021 C 
ENDROOT
BRANCH   1   2
ATOM      2  C   UNL A   1      37.384  23.718  25.872  1.00  0.00     0.116 C 
BRANCH   2   3
ATOM      3  N   UNL A   1      37.418  23.409  24.460  1.00  0.00    -0.351 N 
ATOM      4  C   UNL A   1      36.376  23.099  23.597  1.00  0.00     0.270 C 
ATOM      5  O   UNL A   1      36.642  22.981  22.401  1.00  0.00    -0.267 OA
ATOM      6  H   UNL A   1      38.313  23.420  24.050  1.00  0.00     0.163 HD
BRANCH   4   7
ATOM      7  C   UNL A   1      34.981  22.816  24.082  1.00  0.00     0.140 A 
ATOM      8  C   UNL A   1      32.900  23.712  24.322  1.00  0.00     0.189 A 
ATOM      9  N   UNL A   1      34.182  23.910  24.030  1.00  0.00    -0.217 NA
ATOM     10  N   UNL A   1      32.339  22.517  24.535  1.00  0.00    -0.222 NA
ATOM     11  C   UNL A   1      33.143  21.455  24.602  1.00  0.00     0.076 A 
ATOM     12  C   UNL A   1      34.532  21.546  24.474  1.00  0.00     0.032 A 
ATOM     13  C   UNL A   1      32.569  20.206  24.797  1.00  0.00     0.029 A 
ATOM     14  C   UNL A   1      35.319  20.395  24.738  1.00  0.00     0.013 A 
ATOM     15  C   UNL A   1      33.341  19.051  24.928  1.00  0.00     0.002 A 
ATOM     16  C   UNL A   1      34.725  19.150  24.933  1.00  0.00     0.001 A 
BRANCH   8  17
ATOM     17  S   UNL A   1      31.810  25.102  24.318  1.00  0.00    -0.076 SA
BRANCH  17  18
ATOM     18  C   UNL A   1      31.551  25.297  22.531  1.00  0.00     0.178 C 
BRANCH  18  19
ATOM     19  C   UNL A   1      32.522  26.247  21.864  1.00  0.00     0.234 C 
ATOM     20  N   UNL A   1      32.533  27.601  22.010  1.00  0.00    -0.325 N 
ATOM     21  H   UNL A   1      33.207  28.027  21.431  1.00  0.00     0.169 HD
ATOM     22  O   UNL A   1      33.377  25.791  21.090  1.00  0.00    -0.274 OA
BRANCH  20  23
ATOM     23  C   UNL A   1      31.828  28.549  22.779  1.00  0.00     0.044 A 
ATOM     24  C   UNL A   1      33.679  28.490  24.602  1.00  0.00     0.046 C 
ATOM     25  C   UNL A   1      32.345  28.921  24.045  1.00  0.00    -0.027 A 
ATOM     26  C   UNL A   1      31.569  29.735  24.898  1.00  0.00     0.005 A 
ATOM     27  C   UNL A   1      30.332  30.225  24.499  1.00  0.00     0.000 A 
ATOM     28  C   UNL A   1      30.622  29.125  22.369  1.00  0.00     0.026 A 
ATOM     29  C   UNL A   1      29.873  29.941  23.224  1.00  0.00     0.002 A 
ENDBRANCH  20  23
ENDBRANCH  18  19
ENDBRANCH  17  18
ENDBRANCH   8  17
ENDBRANCH   4   7
ENDBRANCH   2   3
ENDBRANCH   1   2
BRANCH   1  30
ATOM     30  C   UNL A   1      39.617  22.607  26.750  1.00  0.00     0.002 C 
BRANCH  30  31
ATOM     31  C   UNL A   1      40.917  22.684  27.563  1.00  0.00     0.002 C 
BRANCH  31  32
ATOM     32  C   UNL A   1      42.199  22.127  26.945  1.00  0.00     0.021 C 
BRANCH  32  33
ATOM     33  C   UNL A   1      42.503  22.579  25.524  1.00  0.00     0.116 C 
BRANCH  33  34
ATOM     34  N   UNL A   1      43.472  21.744  24.818  1.00  0.00    -0.352 N 
ATOM     35  C   UNL A   1      44.853  21.887  24.773  1.00  0.00     0.251 C 
ATOM     36  H   UNL A   1      43.101  20.986  24.310  1.00  0.00     0.163 HD
ATOM     37  O   UNL A   1      45.562  21.090  24.185  1.00  0.00    -0.269 OA
BRANCH  35  38
ATOM     38  C   UNL A   1      45.455  22.984  25.563  1.00  0.00     0.039 A 
ATOM     39  C   UNL A   1      45.650  22.776  26.932  1.00  0.00     0.014 A 
ATOM     40  C   UNL A   1      45.544  24.259  25.012  1.00  0.00     0.014 A 
ATOM     41  C   UNL A   1      45.665  23.877  27.782  1.00  0.00     0.010 A 
ATOM     42  C   UNL A   1      45.462  25.346  25.861  1.00  0.00     0.010 A 
ATOM     43  C   UNL A   1      45.434  25.146  27.246  1.00  0.00    -0.014 A 
BRANCH  43  44
ATOM     44  C   UNL A   1      45.007  26.283  28.058  1.00  0.00     0.031 A 
ATOM     45  C   UNL A   1      43.623  26.788  27.982  1.00  0.00     0.074 A 
ATOM     46  C   UNL A   1      45.873  26.832  28.939  1.00  0.00     0.049 A 
ATOM     47  N   UNL A   1      43.244  27.945  28.410  1.00  0.00    -0.248 NA
ATOM     48  C   UNL A   1      42.555  26.034  27.347  1.00  0.00     0.031 C 
ATOM     49  C   UNL A   1      45.576  27.786  30.005  1.00  0.00     0.029 A 
ATOM     50  N   UNL A   1      47.278  26.812  28.874  1.00  0.00    -0.354 N 
ATOM     51  C   UNL A   1      41.871  27.995  28.355  1.00  0.00     0.074 A 
ATOM     52  C   UNL A   1      41.501  26.811  27.613  1.00  0.00     0.031 C 
ATOM     53  C   UNL A   1      46.685  28.497  30.263  1.00  0.00     0.029 A 
ATOM     54  C   UNL A   1      47.679  28.110  29.280  1.00  0.00     0.049 A 
ATOM     55  H   UNL A   1      47.855  26.062  28.605  1.00  0.00     0.167 HD
ATOM     56  C   UNL A   1      41.222  28.979  29.046  1.00  0.00     0.037 A 
ATOM     57  C   UNL A   1      48.298  28.954  28.406  1.00  0.00     0.037 A 
ATOM     58  C   UNL A   1      42.164  29.990  29.541  1.00  0.00     0.049 A 
ATOM     59  C   UNL A   1      47.567  30.258  28.147  1.00  0.00     0.074 A 
ATOM     60  C   UNL A   1      42.725  30.302  30.770  1.00  0.00     0.029 A 
ATOM     61  N   UNL A   1      42.879  30.724  28.610  1.00  0.00    -0.354 N 
ATOM     62  N   UNL A   1      46.393  30.557  28.630  1.00  0.00    -0.248 NA
ATOM     63  C   UNL A   1      48.065  31.281  27.226  1.00  0.00     0.031 C 
ATOM     64  C   UNL A   1      43.781  31.238  30.558  1.00  0.00     0.029 A 
ATOM     65  C   UNL A   1      43.863  31.489  29.201  1.00  0.00     0.049 A 
ATOM     66  H   UNL A   1      42.705  30.703  27.640  1.00  0.00     0.167 HD
ATOM     67  C   UNL A   1      45.964  31.737  28.081  1.00  0.00     0.074 A 
ATOM     68  C   UNL A   1      47.042  32.149  27.203  1.00  0.00     0.031 C 
ATOM     69  C   UNL A   1      44.739  32.274  28.348  1.00  0.00     0.037 A 
BRANCH  56  70
ATOM     70  C   UNL A   1      39.761  28.933  29.463  1.00  0.00     0.064 A 
ATOM     71  C   UNL A   1      38.747  29.359  28.574  1.00  0.00     0.173 A 
ATOM     72  C   UNL A   1      39.285  28.560  30.735  1.00  0.00     0.173 A 
ATOM     73  F   UNL A   1      39.010  29.647  27.294  1.00  0.00    -0.203 F 
ATOM     74  C   UNL A   1      37.411  29.514  28.966  1.00  0.00     0.198 A 
ATOM     75  C   UNL A   1      37.961  28.757  31.142  1.00  0.00     0.198 A 
ATOM     76  F   UNL A   1      40.056  27.923  31.619  1.00  0.00    -0.203 F 
ATOM     77  F   UNL A   1      36.503  29.939  28.076  1.00  0.00    -0.200 F 
ATOM     78  C   UNL A   1      37.025  29.248  30.261  1.00  0.00     0.200 A 
ATOM     79  F   UNL A   1      37.604  28.459  32.401  1.00  0.00    -0.200 F 
ATOM     80  F   UNL A   1      35.756  29.435  30.650  1.00  0.00    -0.200 F 
ENDBRANCH  56  70
BRANCH  57  81
ATOM     81  C   UNL A   1      49.146  28.241  27.413  1.00  0.00     0.064 A 
ATOM     82  C   UNL A   1      50.440  27.836  27.800  1.00  0.00     0.173 A 
ATOM     83  C   UNL A   1      48.605  27.655  26.263  1.00  0.00     0.173 A 
ATOM     84  F   UNL A   1      51.007  28.363  28.898  1.00  0.00    -0.203 F 
ATOM     85  C   UNL A   1      51.107  26.808  27.141  1.00  0.00     0.198 A 
ATOM     86  C   UNL A   1      49.288  26.642  25.589  1.00  0.00     0.198 A 
ATOM     87  F   UNL A   1      47.368  27.972  25.856  1.00  0.00    -0.203 F 
ATOM     88  F   UNL A   1      52.279  26.360  27.612  1.00  0.00    -0.200 F 
ATOM     89  C   UNL A   1      50.518  26.194  26.048  1.00  0.00     0.200 A 
ATOM     90  F   UNL A   1      48.704  26.027  24.551  1.00  0.00    -0.200 F 
ATOM     91  F   UNL A   1      51.112  25.143  25.467  1.00  0.00    -0.200 F 
ENDBRANCH  57  81
BRANCH  69  92
ATOM     92  C   UNL A   1      44.263  33.586  27.787  1.00  0.00     0.064 A 
ATOM     93  C   UNL A   1      44.137  34.742  28.574  1.00  0.00     0.173 A 
ATOM     94  C   UNL A   1      43.813  33.694  26.454  1.00  0.00     0.173 A 
ATOM     95  F   UNL A   1      44.462  34.726  29.876  1.00  0.00    -0.203 F 
ATOM     96  C   UNL A   1      43.654  35.942  28.046  1.00  0.00     0.198 A 
ATOM     97  C   UNL A   1      43.282  34.878  25.944  1.00  0.00     0.198 A 
ATOM     98  F   UNL A   1      43.899  32.665  25.600  1.00  0.00    -0.203 F 
ATOM     99  F   UNL A   1      43.607  37.036  28.818  1.00  0.00    -0.200 F 
ATOM    100  C   UNL A   1      43.218  36.006  26.734  1.00  0.00     0.200 A 
ATOM    101  F   UNL A   1      42.842  34.917  24.678  1.00  0.00    -0.200 F 
ATOM    102  F   UNL A   1      42.738  37.153  26.235  1.00  0.00    -0.200 F 
ENDBRANCH  69  92
ENDBRANCH  43  44
ENDBRANCH  35  38
ENDBRANCH  33  34
ENDBRANCH  32  33
ENDBRANCH  31  32
ENDBRANCH  30  31
ENDBRANCH   1  30
TORSDOF 17
ENDMDL
