MODEL 1
REMARK VINA RESULT:     -11.3      0.000      0.000
REMARK SMILES CC[C@@H]1CC(=O)N(Cc2ccc(/C=C/C(=O)NCCCCCCNC(=O)c3ccc(-c4c5nc(c(-c6c(F)c(F)c(F)c(F)c6F)c6ccc([nH]6)c(-c6c(F)c(F)c(F)c(F)c6F)c6nc(c(-c7c(F)c(F)c(F)c(F)c7F)c7ccc4[nH]7)C=C6)C=C5)cc3)cc2F)C1
REMARK SMILES IDX 19 1 18 2 17 3 15 4 16 5 14 7 13 8 12 9 9 10 10 11 91 12
REMARK SMILES IDX 11 13 90 14 92 15 8 16 7 17 3 18 4 19 93 20 5 21 6 22 2 23
REMARK SMILES IDX 1 24 20 25 21 26 22 27 23 28 24 29 25 30 26 32 27 33 28 34
REMARK SMILES IDX 89 35 29 36 88 37 30 38 31 39 32 40 82 41 33 42 87 43 81 44
REMARK SMILES IDX 83 45 34 46 86 47 80 48 79 49 35 51 67 52 47 53 66 54 48 55
REMARK SMILES IDX 51 56 65 57 84 58 49 59 50 60 64 62 85 63 52 64 36 65 37 66
REMARK SMILES IDX 45 67 38 68 39 69 43 70 46 71 40 72 41 73 44 74 42 75 68 76
REMARK SMILES IDX 69 77 77 78 70 79 71 80 75 81 78 82 72 83 73 84 76 85 74 86
REMARK SMILES IDX 53 87 54 88 62 89 55 90 56 91 60 92 63 93 57 94 58 95 61 96
REMARK SMILES IDX 59 97
REMARK H PARENT 17 6 24 31 83 50 51 61
REMARK Flexibility Score: inf
ROOT
ATOM      1  C   UNL A   1      35.746  32.550  28.110  1.00  0.00     0.021 C 
ENDROOT
BRANCH   1   2
ATOM      2  C   UNL A   1      35.053  31.189  28.015  1.00  0.00     0.116 C 
BRANCH   2   3
ATOM      3  N   UNL A   1      33.688  31.355  27.551  1.00  0.00    -0.353 N 
ATOM      4  C   UNL A   1      32.864  30.526  26.857  1.00  0.00     0.243 C 
ATOM      5  O   UNL A   1      31.715  30.885  26.609  1.00  0.00    -0.270 OA
ATOM      6  H   UNL A   1      33.286  32.225  27.779  1.00  0.00     0.163 HD
BRANCH   4   7
ATOM      7  C   UNL A   1      33.288  29.156  26.488  1.00  0.00     0.072 C 
ATOM      8  C   UNL A   1      33.001  28.559  25.322  1.00  0.00     0.014 C 
BRANCH   8   9
ATOM      9  C   UNL A   1      33.466  27.225  24.923  1.00  0.00    -0.023 A 
ATOM     10  C   UNL A   1      34.218  24.640  24.036  1.00  0.00     0.007 A 
ATOM     11  C   UNL A   1      34.404  25.021  25.372  1.00  0.00     0.009 A 
ATOM     12  C   UNL A   1      33.653  25.573  23.164  1.00  0.00     0.128 A 
ATOM     13  C   UNL A   1      34.019  26.296  25.813  1.00  0.00     0.008 A 
ATOM     14  C   UNL A   1      33.295  26.849  23.588  1.00  0.00     0.047 A 
ATOM     15  F   UNL A   1      33.427  25.250  21.883  1.00  0.00    -0.207 F 
BRANCH  10  16
ATOM     16  C   UNL A   1      34.581  23.257  23.558  1.00  0.00     0.158 C 
BRANCH  16  17
ATOM     17  N   UNL A   1      33.854  22.192  24.226  1.00  0.00    -0.338 N 
ATOM     18  C   UNL A   1      33.510  20.159  25.340  1.00  0.00     0.017 C 
ATOM     19  C   UNL A   1      32.152  20.757  24.945  1.00  0.00     0.105 C 
ATOM     20  C   UNL A   1      34.448  21.357  25.237  1.00  0.00     0.124 C 
ATOM     21  C   UNL A   1      32.517  21.901  24.021  1.00  0.00     0.223 C 
ATOM     22  O   UNL A   1      31.750  22.476  23.272  1.00  0.00    -0.275 OA
BRANCH  18  23
ATOM     23  C   UNL A   1      33.947  19.020  24.400  1.00  0.00     0.002 C 
ATOM     24  C   UNL A   1      32.752  18.357  23.728  1.00  0.00     0.004 C 
ENDBRANCH  18  23
ENDBRANCH  16  17
ENDBRANCH  10  16
ENDBRANCH   8   9
ENDBRANCH   4   7
ENDBRANCH   2   3
ENDBRANCH   1   2
BRANCH   1  25
ATOM     25  C   UNL A   1      34.917  33.601  28.861  1.00  0.00     0.002 C 
BRANCH  25  26
ATOM     26  C   UNL A   1      34.777  34.944  28.135  1.00  0.00     0.002 C 
BRANCH  26  27
ATOM     27  C   UNL A   1      33.754  35.901  28.750  1.00  0.00     0.021 C 
BRANCH  27  28
ATOM     28  C   UNL A   1      32.720  35.216  29.637  1.00  0.00     0.116 C 
BRANCH  28  29
ATOM     29  N   UNL A   1      32.380  36.035  30.791  1.00  0.00    -0.352 N 
ATOM     30  C   UNL A   1      32.848  35.955  32.078  1.00  0.00     0.251 C 
ATOM     31  H   UNL A   1      31.723  36.747  30.624  1.00  0.00     0.163 HD
ATOM     32  O   UNL A   1      32.275  36.551  32.984  1.00  0.00    -0.269 OA
BRANCH  30  33
ATOM     33  C   UNL A   1      34.045  35.141  32.369  1.00  0.00     0.039 A 
ATOM     34  C   UNL A   1      35.309  35.682  32.125  1.00  0.00     0.014 A 
ATOM     35  C   UNL A   1      33.917  33.840  32.865  1.00  0.00     0.014 A 
ATOM     36  C   UNL A   1      36.448  34.934  32.425  1.00  0.00     0.010 A 
ATOM     37  C   UNL A   1      35.051  33.129  33.239  1.00  0.00     0.010 A 
ATOM     38  C   UNL A   1      36.328  33.663  33.012  1.00  0.00    -0.014 A 
BRANCH  38  39
ATOM     39  C   UNL A   1      37.526  32.870  33.381  1.00  0.00     0.031 A 
ATOM     40  C   UNL A   1      38.239  33.142  34.676  1.00  0.00     0.074 A 
ATOM     41  C   UNL A   1      37.999  31.942  32.528  1.00  0.00     0.049 A 
ATOM     42  N   UNL A   1      39.334  32.601  35.146  1.00  0.00    -0.248 NA
ATOM     43  C   UNL A   1      37.660  34.177  35.549  1.00  0.00     0.031 C 
ATOM     44  C   UNL A   1      37.413  31.616  31.228  1.00  0.00     0.029 A 
ATOM     45  N   UNL A   1      39.083  31.105  32.623  1.00  0.00    -0.354 N 
ATOM     46  C   UNL A   1      39.576  33.232  36.359  1.00  0.00     0.074 A 
ATOM     47  C   UNL A   1      38.552  34.239  36.527  1.00  0.00     0.031 C 
ATOM     48  C   UNL A   1      38.123  30.626  30.662  1.00  0.00     0.029 A 
ATOM     49  C   UNL A   1      39.240  30.280  31.536  1.00  0.00     0.049 A 
ATOM     50  H   UNL A   1      39.691  31.097  33.398  1.00  0.00     0.167 HD
ATOM     51  C   UNL A   1      40.548  32.972  37.264  1.00  0.00     0.037 A 
ATOM     52  C   UNL A   1      40.181  29.354  31.271  1.00  0.00     0.037 A 
ATOM     53  C   UNL A   1      41.549  31.950  37.101  1.00  0.00     0.049 A 
ATOM     54  C   UNL A   1      41.267  29.102  32.282  1.00  0.00     0.074 A 
ATOM     55  C   UNL A   1      42.547  31.578  37.983  1.00  0.00     0.029 A 
ATOM     56  N   UNL A   1      41.677  31.139  35.984  1.00  0.00    -0.354 N 
ATOM     57  N   UNL A   1      41.456  29.669  33.449  1.00  0.00    -0.248 NA
ATOM     58  C   UNL A   1      42.268  28.080  31.943  1.00  0.00     0.031 C 
ATOM     59  C   UNL A   1      43.317  30.582  37.375  1.00  0.00     0.029 A 
ATOM     60  C   UNL A   1      42.756  30.285  36.143  1.00  0.00     0.049 A 
ATOM     61  H   UNL A   1      41.089  31.166  35.194  1.00  0.00     0.167 HD
ATOM     62  C   UNL A   1      42.575  29.056  33.995  1.00  0.00     0.074 A 
ATOM     63  C   UNL A   1      43.017  28.065  33.037  1.00  0.00     0.031 C 
ATOM     64  C   UNL A   1      43.178  29.294  35.186  1.00  0.00     0.037 A 
BRANCH  51  65
ATOM     65  C   UNL A   1      40.576  33.791  38.522  1.00  0.00     0.064 A 
ATOM     66  C   UNL A   1      39.718  33.487  39.590  1.00  0.00     0.173 A 
ATOM     67  C   UNL A   1      41.396  34.923  38.642  1.00  0.00     0.173 A 
ATOM     68  F   UNL A   1      38.909  32.418  39.525  1.00  0.00    -0.203 F 
ATOM     69  C   UNL A   1      39.666  34.296  40.721  1.00  0.00     0.198 A 
ATOM     70  C   UNL A   1      41.367  35.712  39.789  1.00  0.00     0.198 A 
ATOM     71  F   UNL A   1      42.244  35.252  37.656  1.00  0.00    -0.203 F 
ATOM     72  F   UNL A   1      38.809  34.009  41.710  1.00  0.00    -0.200 F 
ATOM     73  C   UNL A   1      40.493  35.405  40.823  1.00  0.00     0.200 A 
ATOM     74  F   UNL A   1      42.186  36.767  39.897  1.00  0.00    -0.200 F 
ATOM     75  F   UNL A   1      40.449  36.177  41.916  1.00  0.00    -0.200 F 
ENDBRANCH  51  65
BRANCH  52  76
ATOM     76  C   UNL A   1      40.109  28.575  30.007  1.00  0.00     0.064 A 
ATOM     77  C   UNL A   1      39.461  27.333  29.947  1.00  0.00     0.173 A 
ATOM     78  C   UNL A   1      40.722  29.047  28.837  1.00  0.00     0.173 A 
ATOM     79  F   UNL A   1      38.864  26.834  31.040  1.00  0.00    -0.203 F 
ATOM     80  C   UNL A   1      39.447  26.583  28.773  1.00  0.00     0.198 A 
ATOM     81  C   UNL A   1      40.682  28.309  27.656  1.00  0.00     0.198 A 
ATOM     82  F   UNL A   1      41.339  30.237  28.838  1.00  0.00    -0.203 F 
ATOM     83  F   UNL A   1      38.855  25.381  28.757  1.00  0.00    -0.200 F 
ATOM     84  C   UNL A   1      40.053  27.073  27.627  1.00  0.00     0.200 A 
ATOM     85  F   UNL A   1      41.248  28.798  26.544  1.00  0.00    -0.200 F 
ATOM     86  F   UNL A   1      40.030  26.357  26.495  1.00  0.00    -0.200 F 
ENDBRANCH  52  76
BRANCH  64  87
ATOM     87  C   UNL A   1      44.369  28.453  35.550  1.00  0.00     0.064 A 
ATOM     88  C   UNL A   1      45.655  28.833  35.133  1.00  0.00     0.173 A 
ATOM     89  C   UNL A   1      44.229  27.230  36.220  1.00  0.00     0.173 A 
ATOM     90  F   UNL A   1      45.841  29.989  34.479  1.00  0.00    -0.203 F 
ATOM     91  C   UNL A   1      46.753  28.007  35.354  1.00  0.00     0.198 A 
ATOM     92  C   UNL A   1      45.337  26.422  36.469  1.00  0.00     0.198 A 
ATOM     93  F   UNL A   1      43.024  26.828  36.649  1.00  0.00    -0.203 F 
ATOM     94  F   UNL A   1      47.963  28.369  34.905  1.00  0.00    -0.200 F 
ATOM     95  C   UNL A   1      46.593  26.805  36.024  1.00  0.00     0.200 A 
ATOM     96  F   UNL A   1      45.185  25.272  37.140  1.00  0.00    -0.200 F 
ATOM     97  F   UNL A   1      47.653  26.013  36.242  1.00  0.00    -0.200 F 
ENDBRANCH  64  87
ENDBRANCH  38  39
ENDBRANCH  30  33
ENDBRANCH  28  29
ENDBRANCH  27  28
ENDBRANCH  26  27
ENDBRANCH  25  26
ENDBRANCH   1  25
TORSDOF 17
ENDMDL
MODEL 2
REMARK VINA RESULT:     -10.7      5.694     12.546
REMARK SMILES CC[C@@H]1CC(=O)N(Cc2ccc(/C=C/C(=O)NCCCCCCNC(=O)c3ccc(-c4c5nc(c(-c6c(F)c(F)c(F)c(F)c6F)c6ccc([nH]6)c(-c6c(F)c(F)c(F)c(F)c6F)c6nc(c(-c7c(F)c(F)c(F)c(F)c7F)c7ccc4[nH]7)C=C6)C=C5)cc3)cc2F)C1
REMARK SMILES IDX 19 1 18 2 17 3 15 4 16 5 14 7 13 8 12 9 9 10 10 11 91 12
REMARK SMILES IDX 11 13 90 14 92 15 8 16 7 17 3 18 4 19 93 20 5 21 6 22 2 23
REMARK SMILES IDX 1 24 20 25 21 26 22 27 23 28 24 29 25 30 26 32 27 33 28 34
REMARK SMILES IDX 89 35 29 36 88 37 30 38 31 39 32 40 82 41 33 42 87 43 81 44
REMARK SMILES IDX 83 45 34 46 86 47 80 48 79 49 35 51 67 52 47 53 66 54 48 55
REMARK SMILES IDX 51 56 65 57 84 58 49 59 50 60 64 62 85 63 52 64 36 65 37 66
REMARK SMILES IDX 45 67 38 68 39 69 43 70 46 71 40 72 41 73 44 74 42 75 68 76
REMARK SMILES IDX 69 77 77 78 70 79 71 80 75 81 78 82 72 83 73 84 76 85 74 86
REMARK SMILES IDX 53 87 54 88 62 89 55 90 56 91 60 92 63 93 57 94 58 95 61 96
REMARK SMILES IDX 59 97
REMARK H PARENT 17 6 24 31 83 50 51 61
REMARK Flexibility Score: inf
ROOT
ATOM      1  C   UNL A   1      44.157  34.987  32.365  1.00  0.00     0.021 C 
ENDROOT
BRANCH   1   2
ATOM      2  C   UNL A   1      43.757  34.484  33.753  1.00  0.00     0.116 C 
BRANCH   2   3
ATOM      3  N   UNL A   1      43.518  33.053  33.716  1.00  0.00    -0.353 N 
ATOM      4  C   UNL A   1      42.382  32.324  33.873  1.00  0.00     0.243 C 
ATOM      5  O   UNL A   1      42.429  31.101  33.759  1.00  0.00    -0.270 OA
ATOM      6  H   UNL A   1      44.324  32.513  33.548  1.00  0.00     0.163 HD
BRANCH   4   7
ATOM      7  C   UNL A   1      41.070  32.981  34.072  1.00  0.00     0.072 C 
ATOM      8  C   UNL A   1      40.107  33.055  33.142  1.00  0.00     0.014 C 
BRANCH   8   9
ATOM      9  C   UNL A   1      38.781  33.652  33.348  1.00  0.00    -0.023 A 
ATOM     10  C   UNL A   1      36.180  34.657  33.849  1.00  0.00     0.007 A 
ATOM     11  C   UNL A   1      36.791  34.844  32.602  1.00  0.00     0.009 A 
ATOM     12  C   UNL A   1      36.892  33.963  34.828  1.00  0.00     0.128 A 
ATOM     13  C   UNL A   1      38.074  34.335  32.351  1.00  0.00     0.008 A 
ATOM     14  C   UNL A   1      38.176  33.479  34.595  1.00  0.00     0.047 A 
ATOM     15  F   UNL A   1      36.341  33.730  36.028  1.00  0.00    -0.207 F 
BRANCH  10  16
ATOM     16  C   UNL A   1      34.783  35.156  34.119  1.00  0.00     0.158 C 
BRANCH  16  17
ATOM     17  N   UNL A   1      34.046  35.523  32.922  1.00  0.00    -0.338 N 
ATOM     18  C   UNL A   1      33.135  35.298  30.774  1.00  0.00     0.017 C 
ATOM     19  C   UNL A   1      32.988  36.755  31.238  1.00  0.00     0.105 C 
ATOM     20  C   UNL A   1      33.395  34.554  32.079  1.00  0.00     0.124 C 
ATOM     21  C   UNL A   1      33.836  36.821  32.492  1.00  0.00     0.223 C 
ATOM     22  O   UNL A   1      34.217  37.841  33.034  1.00  0.00    -0.275 OA
BRANCH  18  23
ATOM     23  C   UNL A   1      34.296  35.112  29.780  1.00  0.00     0.002 C 
ATOM     24  C   UNL A   1      33.860  34.334  28.546  1.00  0.00     0.004 C 
ENDBRANCH  18  23
ENDBRANCH  16  17
ENDBRANCH  10  16
ENDBRANCH   8   9
ENDBRANCH   4   7
ENDBRANCH   2   3
ENDBRANCH   1   2
BRANCH   1  25
ATOM     25  C   UNL A   1      43.188  36.035  31.798  1.00  0.00     0.002 C 
BRANCH  25  26
ATOM     26  C   UNL A   1      43.603  36.622  30.443  1.00  0.00     0.002 C 
BRANCH  26  27
ATOM     27  C   UNL A   1      44.445  37.897  30.528  1.00  0.00     0.021 C 
BRANCH  27  28
ATOM     28  C   UNL A   1      45.829  37.684  31.131  1.00  0.00     0.116 C 
BRANCH  28  29
ATOM     29  N   UNL A   1      46.873  37.807  30.125  1.00  0.00    -0.352 N 
ATOM     30  C   UNL A   1      47.398  36.847  29.298  1.00  0.00     0.251 C 
ATOM     31  H   UNL A   1      47.258  38.707  30.023  1.00  0.00     0.163 HD
ATOM     32  O   UNL A   1      48.442  37.055  28.689  1.00  0.00    -0.269 OA
BRANCH  30  33
ATOM     33  C   UNL A   1      46.699  35.555  29.147  1.00  0.00     0.039 A 
ATOM     34  C   UNL A   1      45.804  35.387  28.088  1.00  0.00     0.014 A 
ATOM     35  C   UNL A   1      46.915  34.519  30.060  1.00  0.00     0.014 A 
ATOM     36  C   UNL A   1      45.161  34.161  27.917  1.00  0.00     0.010 A 
ATOM     37  C   UNL A   1      46.337  33.274  29.841  1.00  0.00     0.010 A 
ATOM     38  C   UNL A   1      45.445  33.086  28.775  1.00  0.00    -0.014 A 
BRANCH  38  39
ATOM     39  C   UNL A   1      44.807  31.760  28.583  1.00  0.00     0.031 A 
ATOM     40  C   UNL A   1      45.498  30.703  27.768  1.00  0.00     0.074 A 
ATOM     41  C   UNL A   1      43.586  31.527  29.101  1.00  0.00     0.049 A 
ATOM     42  N   UNL A   1      45.077  29.509  27.436  1.00  0.00    -0.248 NA
ATOM     43  C   UNL A   1      46.828  31.039  27.233  1.00  0.00     0.031 C 
ATOM     44  C   UNL A   1      42.803  32.488  29.879  1.00  0.00     0.029 A 
ATOM     45  N   UNL A   1      42.786  30.412  29.049  1.00  0.00    -0.354 N 
ATOM     46  C   UNL A   1      46.083  28.960  26.652  1.00  0.00     0.074 A 
ATOM     47  C   UNL A   1      47.107  29.969  26.504  1.00  0.00     0.031 C 
ATOM     48  C   UNL A   1      41.652  31.911  30.260  1.00  0.00     0.029 A 
ATOM     49  C   UNL A   1      41.595  30.558  29.715  1.00  0.00     0.049 A 
ATOM     50  H   UNL A   1      43.044  29.587  28.578  1.00  0.00     0.167 HD
ATOM     51  C   UNL A   1      46.157  27.714  26.128  1.00  0.00     0.037 A 
ATOM     52  C   UNL A   1      40.568  29.699  29.864  1.00  0.00     0.037 A 
ATOM     53  C   UNL A   1      45.144  26.706  26.301  1.00  0.00     0.049 A 
ATOM     54  C   UNL A   1      40.662  28.329  29.250  1.00  0.00     0.074 A 
ATOM     55  C   UNL A   1      45.148  25.398  25.851  1.00  0.00     0.029 A 
ATOM     56  N   UNL A   1      43.948  26.893  26.979  1.00  0.00    -0.354 N 
ATOM     57  N   UNL A   1      41.640  27.802  28.554  1.00  0.00    -0.248 NA
ATOM     58  C   UNL A   1      39.514  27.431  29.445  1.00  0.00     0.031 C 
ATOM     59  C   UNL A   1      43.930  24.811  26.204  1.00  0.00     0.029 A 
ATOM     60  C   UNL A   1      43.195  25.731  26.935  1.00  0.00     0.049 A 
ATOM     61  H   UNL A   1      43.675  27.727  27.425  1.00  0.00     0.167 HD
ATOM     62  C   UNL A   1      41.242  26.507  28.253  1.00  0.00     0.074 A 
ATOM     63  C   UNL A   1      39.936  26.322  28.851  1.00  0.00     0.031 C 
ATOM     64  C   UNL A   1      41.902  25.557  27.546  1.00  0.00     0.037 A 
BRANCH  51  65
ATOM     65  C   UNL A   1      47.376  27.356  25.329  1.00  0.00     0.064 A 
ATOM     66  C   UNL A   1      48.508  26.814  25.959  1.00  0.00     0.173 A 
ATOM     67  C   UNL A   1      47.456  27.622  23.954  1.00  0.00     0.173 A 
ATOM     68  F   UNL A   1      48.487  26.546  27.274  1.00  0.00    -0.203 F 
ATOM     69  C   UNL A   1      49.678  26.570  25.246  1.00  0.00     0.198 A 
ATOM     70  C   UNL A   1      48.617  27.345  23.236  1.00  0.00     0.198 A 
ATOM     71  F   UNL A   1      46.400  28.129  23.301  1.00  0.00    -0.203 F 
ATOM     72  F   UNL A   1      50.758  26.090  25.877  1.00  0.00    -0.200 F 
ATOM     73  C   UNL A   1      49.731  26.831  23.884  1.00  0.00     0.200 A 
ATOM     74  F   UNL A   1      48.657  27.572  21.916  1.00  0.00    -0.200 F 
ATOM     75  F   UNL A   1      50.854  26.586  23.197  1.00  0.00    -0.200 F 
ENDBRANCH  51  65
BRANCH  52  76
ATOM     76  C   UNL A   1      39.380  30.107  30.661  1.00  0.00     0.064 A 
ATOM     77  C   UNL A   1      39.260  29.776  32.019  1.00  0.00     0.173 A 
ATOM     78  C   UNL A   1      38.322  30.808  30.066  1.00  0.00     0.173 A 
ATOM     79  F   UNL A   1      40.241  29.100  32.635  1.00  0.00    -0.203 F 
ATOM     80  C   UNL A   1      38.119  30.111  32.744  1.00  0.00     0.198 A 
ATOM     81  C   UNL A   1      37.194  31.169  30.800  1.00  0.00     0.198 A 
ATOM     82  F   UNL A   1      38.397  31.163  28.775  1.00  0.00    -0.203 F 
ATOM     83  F   UNL A   1      38.014  29.746  34.029  1.00  0.00    -0.200 F 
ATOM     84  C   UNL A   1      37.089  30.811  32.135  1.00  0.00     0.200 A 
ATOM     85  F   UNL A   1      36.212  31.867  30.214  1.00  0.00    -0.200 F 
ATOM     86  F   UNL A   1      35.996  31.144  32.836  1.00  0.00    -0.200 F 
ENDBRANCH  52  76
BRANCH  64  87
ATOM     87  C   UNL A   1      41.248  24.213  27.396  1.00  0.00     0.064 A 
ATOM     88  C   UNL A   1      41.796  23.087  28.031  1.00  0.00     0.173 A 
ATOM     89  C   UNL A   1      40.147  24.020  26.551  1.00  0.00     0.173 A 
ATOM     90  F   UNL A   1      42.857  23.216  28.842  1.00  0.00    -0.203 F 
ATOM     91  C   UNL A   1      41.279  21.814  27.806  1.00  0.00     0.198 A 
ATOM     92  C   UNL A   1      39.611  22.749  26.355  1.00  0.00     0.198 A 
ATOM     93  F   UNL A   1      39.579  25.065  25.930  1.00  0.00    -0.203 F 
ATOM     94  F   UNL A   1      41.849  20.749  28.387  1.00  0.00    -0.200 F 
ATOM     95  C   UNL A   1      40.186  21.647  26.972  1.00  0.00     0.200 A 
ATOM     96  F   UNL A   1      38.538  22.591  25.568  1.00  0.00    -0.200 F 
ATOM     97  F   UNL A   1      39.683  20.422  26.761  1.00  0.00    -0.200 F 
ENDBRANCH  64  87
ENDBRANCH  38  39
ENDBRANCH  30  33
ENDBRANCH  28  29
ENDBRANCH  27  28
ENDBRANCH  26  27
ENDBRANCH  25  26
ENDBRANCH   1  25
TORSDOF 17
ENDMDL
MODEL 3
REMARK VINA RESULT:     -10.6      4.598      8.772
REMARK SMILES CC[C@@H]1CC(=O)N(Cc2ccc(/C=C/C(=O)NCCCCCCNC(=O)c3ccc(-c4c5nc(c(-c6c(F)c(F)c(F)c(F)c6F)c6ccc([nH]6)c(-c6c(F)c(F)c(F)c(F)c6F)c6nc(c(-c7c(F)c(F)c(F)c(F)c7F)c7ccc4[nH]7)C=C6)C=C5)cc3)cc2F)C1
REMARK SMILES IDX 19 1 18 2 17 3 15 4 16 5 14 7 13 8 12 9 9 10 10 11 91 12
REMARK SMILES IDX 11 13 90 14 92 15 8 16 7 17 3 18 4 19 93 20 5 21 6 22 2 23
REMARK SMILES IDX 1 24 20 25 21 26 22 27 23 28 24 29 25 30 26 32 27 33 28 34
REMARK SMILES IDX 89 35 29 36 88 37 30 38 31 39 32 40 82 41 33 42 87 43 81 44
REMARK SMILES IDX 83 45 34 46 86 47 80 48 79 49 35 51 67 52 47 53 66 54 48 55
REMARK SMILES IDX 51 56 65 57 84 58 49 59 50 60 64 62 85 63 52 64 36 65 37 66
REMARK SMILES IDX 45 67 38 68 39 69 43 70 46 71 40 72 41 73 44 74 42 75 68 76
REMARK SMILES IDX 69 77 77 78 70 79 71 80 75 81 78 82 72 83 73 84 76 85 74 86
REMARK SMILES IDX 53 87 54 88 62 89 55 90 56 91 60 92 63 93 57 94 58 95 61 96
REMARK SMILES IDX 59 97
REMARK H PARENT 17 6 24 31 83 50 51 61
REMARK Flexibility Score: inf
ROOT
ATOM      1  C   UNL A   1      36.123  32.100  32.138  1.00  0.00     0.021 C 
ENDROOT
BRANCH   1   2
ATOM      2  C   UNL A   1      37.489  32.294  32.800  1.00  0.00     0.116 C 
BRANCH   2   3
ATOM      3  N   UNL A   1      37.359  32.224  34.244  1.00  0.00    -0.353 N 
ATOM      4  C   UNL A   1      37.956  31.423  35.165  1.00  0.00     0.243 C 
ATOM      5  O   UNL A   1      37.705  31.584  36.357  1.00  0.00    -0.270 OA
ATOM      6  H   UNL A   1      36.724  32.874  34.624  1.00  0.00     0.163 HD
BRANCH   4   7
ATOM      7  C   UNL A   1      38.983  30.433  34.770  1.00  0.00     0.072 C 
ATOM      8  C   UNL A   1      40.246  30.426  35.219  1.00  0.00     0.014 C 
BRANCH   8   9
ATOM      9  C   UNL A   1      41.255  29.414  34.880  1.00  0.00    -0.023 A 
ATOM     10  C   UNL A   1      43.323  27.556  34.331  1.00  0.00     0.007 A 
ATOM     11  C   UNL A   1      42.394  27.907  33.341  1.00  0.00     0.009 A 
ATOM     12  C   UNL A   1      43.194  28.151  35.587  1.00  0.00     0.128 A 
ATOM     13  C   UNL A   1      41.379  28.836  33.610  1.00  0.00     0.008 A 
ATOM     14  C   UNL A   1      42.173  29.053  35.869  1.00  0.00     0.047 A 
ATOM     15  F   UNL A   1      44.074  27.874  36.560  1.00  0.00    -0.207 F 
BRANCH  10  16
ATOM     16  C   UNL A   1      44.449  26.595  34.043  1.00  0.00     0.158 C 
BRANCH  16  17
ATOM     17  N   UNL A   1      44.069  25.197  34.141  1.00  0.00    -0.338 N 
ATOM     18  C   UNL A   1      43.613  23.132  35.151  1.00  0.00     0.017 C 
ATOM     19  C   UNL A   1      43.649  22.954  33.626  1.00  0.00     0.105 C 
ATOM     20  C   UNL A   1      43.441  24.638  35.310  1.00  0.00     0.124 C 
ATOM     21  C   UNL A   1      44.205  24.270  33.123  1.00  0.00     0.223 C 
ATOM     22  O   UNL A   1      44.648  24.469  32.007  1.00  0.00    -0.275 OA
BRANCH  18  23
ATOM     23  C   UNL A   1      44.903  22.638  35.832  1.00  0.00     0.002 C 
ATOM     24  C   UNL A   1      45.855  21.994  34.832  1.00  0.00     0.004 C 
ENDBRANCH  18  23
ENDBRANCH  16  17
ENDBRANCH  10  16
ENDBRANCH   8   9
ENDBRANCH   4   7
ENDBRANCH   2   3
ENDBRANCH   1   2
BRANCH   1  25
ATOM     25  C   UNL A   1      35.845  33.110  31.015  1.00  0.00     0.002 C 
BRANCH  25  26
ATOM     26  C   UNL A   1      34.418  33.069  30.456  1.00  0.00     0.002 C 
BRANCH  26  27
ATOM     27  C   UNL A   1      34.270  33.616  29.035  1.00  0.00     0.021 C 
BRANCH  27  28
ATOM     28  C   UNL A   1      34.798  32.680  27.953  1.00  0.00     0.116 C 
BRANCH  28  29
ATOM     29  N   UNL A   1      34.056  31.428  27.923  1.00  0.00    -0.352 N 
ATOM     30  C   UNL A   1      34.529  30.141  27.914  1.00  0.00     0.251 C 
ATOM     31  H   UNL A   1      33.077  31.518  27.908  1.00  0.00     0.163 HD
ATOM     32  O   UNL A   1      33.784  29.208  27.632  1.00  0.00    -0.269 OA
BRANCH  30  33
ATOM     33  C   UNL A   1      35.945  29.882  28.240  1.00  0.00     0.039 A 
ATOM     34  C   UNL A   1      36.280  29.472  29.533  1.00  0.00     0.014 A 
ATOM     35  C   UNL A   1      36.942  30.062  27.277  1.00  0.00     0.014 A 
ATOM     36  C   UNL A   1      37.611  29.195  29.845  1.00  0.00     0.010 A 
ATOM     37  C   UNL A   1      38.255  29.708  27.565  1.00  0.00     0.010 A 
ATOM     38  C   UNL A   1      38.605  29.283  28.855  1.00  0.00    -0.014 A 
BRANCH  38  39
ATOM     39  C   UNL A   1      40.019  28.949  29.154  1.00  0.00     0.031 A 
ATOM     40  C   UNL A   1      40.874  29.915  29.925  1.00  0.00     0.074 A 
ATOM     41  C   UNL A   1      40.545  27.800  28.688  1.00  0.00     0.049 A 
ATOM     42  N   UNL A   1      42.144  29.832  30.232  1.00  0.00    -0.248 NA
ATOM     43  C   UNL A   1      40.225  31.151  30.394  1.00  0.00     0.031 C 
ATOM     44  C   UNL A   1      39.823  26.803  27.898  1.00  0.00     0.029 A 
ATOM     45  N   UNL A   1      41.809  27.278  28.808  1.00  0.00    -0.354 N 
ATOM     46  C   UNL A   1      42.442  31.001  30.919  1.00  0.00     0.074 A 
ATOM     47  C   UNL A   1      41.242  31.806  30.932  1.00  0.00     0.031 C 
ATOM     48  C   UNL A   1      40.644  25.774  27.633  1.00  0.00     0.029 A 
ATOM     49  C   UNL A   1      41.962  26.060  28.193  1.00  0.00     0.049 A 
ATOM     50  H   UNL A   1      42.536  27.734  29.289  1.00  0.00     0.167 HD
ATOM     51  C   UNL A   1      43.607  31.355  31.511  1.00  0.00     0.037 A 
ATOM     52  C   UNL A   1      43.044  25.265  28.087  1.00  0.00     0.037 A 
ATOM     53  C   UNL A   1      44.791  30.536  31.515  1.00  0.00     0.049 A 
ATOM     54  C   UNL A   1      44.335  25.694  28.731  1.00  0.00     0.074 A 
ATOM     55  C   UNL A   1      46.005  30.786  32.129  1.00  0.00     0.029 A 
ATOM     56  N   UNL A   1      44.908  29.311  30.877  1.00  0.00    -0.354 N 
ATOM     57  N   UNL A   1      44.592  26.777  29.422  1.00  0.00    -0.248 NA
ATOM     58  C   UNL A   1      45.484  24.789  28.585  1.00  0.00     0.031 C 
ATOM     59  C   UNL A   1      46.876  29.740  31.812  1.00  0.00     0.029 A 
ATOM     60  C   UNL A   1      46.185  28.804  31.060  1.00  0.00     0.049 A 
ATOM     61  H   UNL A   1      44.190  28.866  30.370  1.00  0.00     0.167 HD
ATOM     62  C   UNL A   1      45.918  26.673  29.818  1.00  0.00     0.074 A 
ATOM     63  C   UNL A   1      46.411  25.414  29.300  1.00  0.00     0.031 C 
ATOM     64  C   UNL A   1      46.658  27.543  30.548  1.00  0.00     0.037 A 
BRANCH  51  65
ATOM     65  C   UNL A   1      43.664  32.678  32.219  1.00  0.00     0.064 A 
ATOM     66  C   UNL A   1      43.479  32.751  33.609  1.00  0.00     0.173 A 
ATOM     67  C   UNL A   1      43.822  33.881  31.515  1.00  0.00     0.173 A 
ATOM     68  F   UNL A   1      43.318  31.631  34.330  1.00  0.00    -0.203 F 
ATOM     69  C   UNL A   1      43.432  33.980  34.262  1.00  0.00     0.198 A 
ATOM     70  C   UNL A   1      43.808  35.106  32.176  1.00  0.00     0.198 A 
ATOM     71  F   UNL A   1      44.013  33.867  30.187  1.00  0.00    -0.203 F 
ATOM     72  F   UNL A   1      43.214  34.026  35.584  1.00  0.00    -0.200 F 
ATOM     73  C   UNL A   1      43.601  35.156  33.547  1.00  0.00     0.200 A 
ATOM     74  F   UNL A   1      43.999  36.240  31.487  1.00  0.00    -0.200 F 
ATOM     75  F   UNL A   1      43.566  36.336  34.179  1.00  0.00    -0.200 F 
ENDBRANCH  51  65
BRANCH  52  76
ATOM     76  C   UNL A   1      42.934  23.968  27.369  1.00  0.00     0.064 A 
ATOM     77  C   UNL A   1      43.272  23.849  26.013  1.00  0.00     0.173 A 
ATOM     78  C   UNL A   1      42.454  22.824  28.022  1.00  0.00     0.173 A 
ATOM     79  F   UNL A   1      43.731  24.915  25.339  1.00  0.00    -0.203 F 
ATOM     80  C   UNL A   1      43.112  22.645  25.332  1.00  0.00     0.198 A 
ATOM     81  C   UNL A   1      42.322  21.611  27.348  1.00  0.00     0.198 A 
ATOM     82  F   UNL A   1      42.135  22.881  29.322  1.00  0.00    -0.203 F 
ATOM     83  F   UNL A   1      43.403  22.572  24.026  1.00  0.00    -0.200 F 
ATOM     84  C   UNL A   1      42.641  21.525  26.001  1.00  0.00     0.200 A 
ATOM     85  F   UNL A   1      41.891  20.526  28.005  1.00  0.00    -0.200 F 
ATOM     86  F   UNL A   1      42.498  20.363  25.349  1.00  0.00    -0.200 F 
ENDBRANCH  52  76
BRANCH  64  87
ATOM     87  C   UNL A   1      48.076  27.164  30.865  1.00  0.00     0.064 A 
ATOM     88  C   UNL A   1      49.125  27.595  30.037  1.00  0.00     0.173 A 
ATOM     89  C   UNL A   1      48.388  26.300  31.924  1.00  0.00     0.173 A 
ATOM     90  F   UNL A   1      48.878  28.415  29.004  1.00  0.00    -0.203 F 
ATOM     91  C   UNL A   1      50.429  27.155  30.243  1.00  0.00     0.198 A 
ATOM     92  C   UNL A   1      49.701  25.889  32.147  1.00  0.00     0.198 A 
ATOM     93  F   UNL A   1      47.425  25.869  32.751  1.00  0.00    -0.203 F 
ATOM     94  F   UNL A   1      51.405  27.543  29.409  1.00  0.00    -0.200 F 
ATOM     95  C   UNL A   1      50.716  26.305  31.299  1.00  0.00     0.200 A 
ATOM     96  F   UNL A   1      49.981  25.087  33.184  1.00  0.00    -0.200 F 
ATOM     97  F   UNL A   1      51.973  25.887  31.501  1.00  0.00    -0.200 F 
ENDBRANCH  64  87
ENDBRANCH  38  39
ENDBRANCH  30  33
ENDBRANCH  28  29
ENDBRANCH  27  28
ENDBRANCH  26  27
ENDBRANCH  25  26
ENDBRANCH   1  25
TORSDOF 17
ENDMDL
