MODEL 1
REMARK VINA RESULT:     -13.3      0.000      0.000
REMARK SMILES Cc1ccc(Nc2c(C)cccc2Cl)c(CC(=O)NCCCCCCNC(=O)c2ccc(-c3c4nc(c(-c5c(F)c(F)c(F)c(F)c5F)c5ccc([nH]5)c(-c5c(F)c(F)c(F)c(F)c5F)c5nc(c(-c6c(F)c(F)c(F)c(F)c6F)c6ccc3[nH]6)C=C5)C=C4)cc2)c1
REMARK SMILES IDX 22 1 21 2 20 3 19 4 17 5 18 6 16 8 15 9 1 10 2 11 3 12 92 13
REMARK SMILES IDX 4 14 5 15 6 16 7 18 8 19 13 20 9 21 10 22 12 23 14 24 11 25
REMARK SMILES IDX 23 26 24 27 25 28 26 29 27 30 28 32 29 33 30 34 91 35 31 36
REMARK SMILES IDX 90 37 32 38 33 39 34 40 84 41 35 42 89 43 83 44 85 45 36 46
REMARK SMILES IDX 88 47 82 48 81 49 37 51 69 52 49 53 68 54 50 55 53 56 67 57
REMARK SMILES IDX 86 58 51 59 52 60 66 62 87 63 54 64 38 65 39 66 47 67 40 68
REMARK SMILES IDX 41 69 45 70 48 71 42 72 43 73 46 74 44 75 70 76 71 77 79 78
REMARK SMILES IDX 72 79 73 80 77 81 80 82 74 83 75 84 78 85 76 86 55 87 56 88
REMARK SMILES IDX 64 89 57 90 58 91 62 92 65 93 59 94 60 95 63 96 61 97
REMARK H PARENT 19 7 6 17 26 31 85 50 53 61
REMARK Flexibility Score: inf
ROOT
ATOM      1  C   UNL A   1      32.380  28.645  26.248  1.00  0.00     0.002 C 
ENDROOT
BRANCH   1   2
ATOM      2  C   UNL A   1      31.495  27.715  27.092  1.00  0.00     0.021 C 
BRANCH   2   3
ATOM      3  C   UNL A   1      30.715  26.661  26.299  1.00  0.00     0.116 C 
BRANCH   3   4
ATOM      4  N   UNL A   1      30.846  25.341  26.877  1.00  0.00    -0.356 N 
ATOM      5  C   UNL A   1      31.883  24.463  26.774  1.00  0.00     0.224 C 
ATOM      6  O   UNL A   1      31.740  23.329  27.237  1.00  0.00    -0.275 OA
ATOM      7  H   UNL A   1      30.083  25.036  27.417  1.00  0.00     0.163 HD
BRANCH   5   8
ATOM      8  C   UNL A   1      33.179  24.864  26.090  1.00  0.00     0.137 C 
BRANCH   8   9
ATOM      9  C   UNL A   1      33.275  24.425  24.645  1.00  0.00    -0.015 A 
ATOM     10  C   UNL A   1      32.392  25.967  21.255  1.00  0.00     0.044 C 
ATOM     11  C   UNL A   1      32.858  24.998  22.298  1.00  0.00    -0.051 A 
ATOM     12  C   UNL A   1      33.287  23.725  21.931  1.00  0.00     0.005 A 
ATOM     13  C   UNL A   1      32.877  25.346  23.650  1.00  0.00     0.009 A 
ATOM     14  C   UNL A   1      33.727  22.821  22.902  1.00  0.00     0.026 A 
ATOM     15  C   UNL A   1      33.730  23.145  24.270  1.00  0.00     0.042 A 
BRANCH  15  16
ATOM     16  N   UNL A   1      34.243  22.243  25.227  1.00  0.00    -0.354 N 
ATOM     17  H   UNL A   1      33.659  22.067  25.999  1.00  0.00     0.167 HD
BRANCH  16  18
ATOM     18  C   UNL A   1      35.481  21.555  25.233  1.00  0.00     0.060 A 
ATOM     19  C   UNL A   1      36.707  22.231  25.414  1.00  0.00    -0.026 A 
ATOM     20  C   UNL A   1      35.506  20.166  24.981  1.00  0.00     0.064 A 
ATOM     21  C   UNL A   1      36.786  23.697  25.750  1.00  0.00     0.046 C 
ATOM     22  C   UNL A   1      37.914  21.520  25.284  1.00  0.00     0.005 A 
ATOM     23  C   UNL A   1      36.712  19.470  24.877  1.00  0.00     0.023 A 
ATOM     24  Cl  UNL A   1      34.036  19.275  24.757  1.00  0.00    -0.082 Cl
ATOM     25  C   UNL A   1      37.917  20.151  25.016  1.00  0.00     0.002 A 
ENDBRANCH  16  18
ENDBRANCH  15  16
ENDBRANCH   8   9
ENDBRANCH   5   8
ENDBRANCH   3   4
ENDBRANCH   2   3
ENDBRANCH   1   2
BRANCH   1  26
ATOM     26  C   UNL A   1      31.970  30.126  26.202  1.00  0.00     0.002 C 
BRANCH  26  27
ATOM     27  C   UNL A   1      32.774  31.072  27.096  1.00  0.00     0.021 C 
BRANCH  27  28
ATOM     28  C   UNL A   1      34.100  30.503  27.583  1.00  0.00     0.116 C 
BRANCH  28  29
ATOM     29  N   UNL A   1      34.823  31.392  28.480  1.00  0.00    -0.352 N 
ATOM     30  C   UNL A   1      35.969  31.175  29.230  1.00  0.00     0.251 C 
ATOM     31  H   UNL A   1      34.438  32.294  28.568  1.00  0.00     0.163 HD
ATOM     32  O   UNL A   1      36.367  32.035  29.990  1.00  0.00    -0.269 OA
BRANCH  30  33
ATOM     33  C   UNL A   1      36.792  29.959  28.990  1.00  0.00     0.039 A 
ATOM     34  C   UNL A   1      36.932  29.058  30.055  1.00  0.00     0.014 A 
ATOM     35  C   UNL A   1      37.574  29.811  27.850  1.00  0.00     0.014 A 
ATOM     36  C   UNL A   1      38.031  28.205  30.091  1.00  0.00     0.010 A 
ATOM     37  C   UNL A   1      38.717  29.040  27.925  1.00  0.00     0.010 A 
ATOM     38  C   UNL A   1      38.987  28.311  29.087  1.00  0.00    -0.014 A 
BRANCH  38  39
ATOM     39  C   UNL A   1      40.366  27.860  29.231  1.00  0.00     0.031 A 
ATOM     40  C   UNL A   1      40.780  26.521  28.773  1.00  0.00     0.074 A 
ATOM     41  C   UNL A   1      41.293  28.767  29.620  1.00  0.00     0.049 A 
ATOM     42  N   UNL A   1      41.950  26.022  28.985  1.00  0.00    -0.248 NA
ATOM     43  C   UNL A   1      39.881  25.594  28.089  1.00  0.00     0.031 C 
ATOM     44  C   UNL A   1      42.743  28.692  29.459  1.00  0.00     0.029 A 
ATOM     45  N   UNL A   1      41.098  29.880  30.458  1.00  0.00    -0.354 N 
ATOM     46  C   UNL A   1      42.060  24.880  28.234  1.00  0.00     0.074 A 
ATOM     47  C   UNL A   1      40.715  24.585  27.813  1.00  0.00     0.031 C 
ATOM     48  C   UNL A   1      43.321  29.476  30.380  1.00  0.00     0.029 A 
ATOM     49  C   UNL A   1      42.266  29.943  31.260  1.00  0.00     0.049 A 
ATOM     50  H   UNL A   1      40.321  30.485  30.481  1.00  0.00     0.167 HD
ATOM     51  C   UNL A   1      43.307  24.402  27.964  1.00  0.00     0.037 A 
ATOM     52  C   UNL A   1      42.200  29.691  32.601  1.00  0.00     0.037 A 
ATOM     53  C   UNL A   1      44.297  24.988  28.870  1.00  0.00     0.049 A 
ATOM     54  C   UNL A   1      43.005  28.494  33.067  1.00  0.00     0.074 A 
ATOM     55  C   UNL A   1      45.319  25.915  28.760  1.00  0.00     0.029 A 
ATOM     56  N   UNL A   1      44.131  24.766  30.227  1.00  0.00    -0.354 N 
ATOM     57  N   UNL A   1      43.657  27.687  32.276  1.00  0.00    -0.248 NA
ATOM     58  C   UNL A   1      43.049  28.055  34.464  1.00  0.00     0.031 C 
ATOM     59  C   UNL A   1      45.702  26.303  30.083  1.00  0.00     0.029 A 
ATOM     60  C   UNL A   1      44.937  25.587  30.987  1.00  0.00     0.049 A 
ATOM     61  H   UNL A   1      43.511  24.101  30.604  1.00  0.00     0.167 HD
ATOM     62  C   UNL A   1      44.132  26.629  33.001  1.00  0.00     0.074 A 
ATOM     63  C   UNL A   1      43.734  26.904  34.368  1.00  0.00     0.031 C 
ATOM     64  C   UNL A   1      44.779  25.573  32.432  1.00  0.00     0.037 A 
BRANCH  51  65
ATOM     65  C   UNL A   1      43.672  23.491  26.811  1.00  0.00     0.064 A 
ATOM     66  C   UNL A   1      43.250  22.144  26.815  1.00  0.00     0.173 A 
ATOM     67  C   UNL A   1      44.534  23.831  25.745  1.00  0.00     0.173 A 
ATOM     68  F   UNL A   1      42.439  21.672  27.773  1.00  0.00    -0.203 F 
ATOM     69  C   UNL A   1      43.667  21.220  25.848  1.00  0.00     0.198 A 
ATOM     70  C   UNL A   1      44.905  22.922  24.750  1.00  0.00     0.198 A 
ATOM     71  F   UNL A   1      45.114  25.030  25.644  1.00  0.00    -0.203 F 
ATOM     72  F   UNL A   1      43.283  19.939  25.942  1.00  0.00    -0.200 F 
ATOM     73  C   UNL A   1      44.485  21.612  24.809  1.00  0.00     0.200 A 
ATOM     74  F   UNL A   1      45.706  23.325  23.752  1.00  0.00    -0.200 F 
ATOM     75  F   UNL A   1      44.887  20.731  23.884  1.00  0.00    -0.200 F 
ENDBRANCH  51  65
BRANCH  52  76
ATOM     76  C   UNL A   1      40.914  30.135  33.203  1.00  0.00     0.064 A 
ATOM     77  C   UNL A   1      40.711  31.514  33.413  1.00  0.00     0.173 A 
ATOM     78  C   UNL A   1      39.788  29.305  33.220  1.00  0.00     0.173 A 
ATOM     79  F   UNL A   1      41.758  32.355  33.407  1.00  0.00    -0.203 F 
ATOM     80  C   UNL A   1      39.429  32.050  33.508  1.00  0.00     0.198 A 
ATOM     81  C   UNL A   1      38.507  29.844  33.335  1.00  0.00     0.198 A 
ATOM     82  F   UNL A   1      39.913  27.987  33.004  1.00  0.00    -0.203 F 
ATOM     83  F   UNL A   1      39.263  33.377  33.587  1.00  0.00    -0.200 F 
ATOM     84  C   UNL A   1      38.327  31.216  33.442  1.00  0.00     0.200 A 
ATOM     85  F   UNL A   1      37.439  29.038  33.244  1.00  0.00    -0.200 F 
ATOM     86  F   UNL A   1      37.090  31.732  33.438  1.00  0.00    -0.200 F 
ENDBRANCH  52  76
BRANCH  64  87
ATOM     87  C   UNL A   1      45.294  24.418  33.233  1.00  0.00     0.064 A 
ATOM     88  C   UNL A   1      44.482  23.317  33.546  1.00  0.00     0.173 A 
ATOM     89  C   UNL A   1      46.580  24.437  33.806  1.00  0.00     0.173 A 
ATOM     90  F   UNL A   1      43.233  23.231  33.066  1.00  0.00    -0.203 F 
ATOM     91  C   UNL A   1      44.940  22.285  34.368  1.00  0.00     0.198 A 
ATOM     92  C   UNL A   1      47.016  23.431  34.665  1.00  0.00     0.198 A 
ATOM     93  F   UNL A   1      47.452  25.417  33.524  1.00  0.00    -0.203 F 
ATOM     94  F   UNL A   1      44.153  21.228  34.609  1.00  0.00    -0.200 F 
ATOM     95  C   UNL A   1      46.199  22.350  34.940  1.00  0.00     0.200 A 
ATOM     96  F   UNL A   1      48.234  23.511  35.219  1.00  0.00    -0.200 F 
ATOM     97  F   UNL A   1      46.627  21.373  35.749  1.00  0.00    -0.200 F 
ENDBRANCH  64  87
ENDBRANCH  38  39
ENDBRANCH  30  33
ENDBRANCH  28  29
ENDBRANCH  27  28
ENDBRANCH  26  27
ENDBRANCH   1  26
TORSDOF 16
ENDMDL
MODEL 2
REMARK VINA RESULT:     -13.2      1.269      2.372
REMARK SMILES Cc1ccc(Nc2c(C)cccc2Cl)c(CC(=O)NCCCCCCNC(=O)c2ccc(-c3c4nc(c(-c5c(F)c(F)c(F)c(F)c5F)c5ccc([nH]5)c(-c5c(F)c(F)c(F)c(F)c5F)c5nc(c(-c6c(F)c(F)c(F)c(F)c6F)c6ccc3[nH]6)C=C5)C=C4)cc2)c1
REMARK SMILES IDX 22 1 21 2 20 3 19 4 17 5 18 6 16 8 15 9 1 10 2 11 3 12 92 13
REMARK SMILES IDX 4 14 5 15 6 16 7 18 8 19 13 20 9 21 10 22 12 23 14 24 11 25
REMARK SMILES IDX 23 26 24 27 25 28 26 29 27 30 28 32 29 33 30 34 91 35 31 36
REMARK SMILES IDX 90 37 32 38 33 39 34 40 84 41 35 42 89 43 83 44 85 45 36 46
REMARK SMILES IDX 88 47 82 48 81 49 37 51 69 52 49 53 68 54 50 55 53 56 67 57
REMARK SMILES IDX 86 58 51 59 52 60 66 62 87 63 54 64 38 65 39 66 47 67 40 68
REMARK SMILES IDX 41 69 45 70 48 71 42 72 43 73 46 74 44 75 70 76 71 77 79 78
REMARK SMILES IDX 72 79 73 80 77 81 80 82 74 83 75 84 78 85 76 86 55 87 56 88
REMARK SMILES IDX 64 89 57 90 58 91 62 92 65 93 59 94 60 95 63 96 61 97
REMARK H PARENT 19 7 6 17 26 31 85 50 53 61
REMARK Flexibility Score: inf
ROOT
ATOM      1  C   UNL A   1      33.094  28.225  27.099  1.00  0.00     0.002 C 
ENDROOT
BRANCH   1   2
ATOM      2  C   UNL A   1      32.853  27.153  26.026  1.00  0.00     0.021 C 
BRANCH   2   3
ATOM      3  C   UNL A   1      31.445  26.547  26.014  1.00  0.00     0.116 C 
BRANCH   3   4
ATOM      4  N   UNL A   1      31.351  25.376  26.858  1.00  0.00    -0.356 N 
ATOM      5  C   UNL A   1      31.693  24.088  26.572  1.00  0.00     0.224 C 
ATOM      6  O   UNL A   1      31.410  23.210  27.391  1.00  0.00    -0.275 OA
ATOM      7  H   UNL A   1      30.992  25.530  27.761  1.00  0.00     0.163 HD
BRANCH   5   8
ATOM      8  C   UNL A   1      32.392  23.738  25.270  1.00  0.00     0.137 C 
BRANCH   8   9
ATOM      9  C   UNL A   1      33.703  23.004  25.452  1.00  0.00    -0.015 A 
ATOM     10  C   UNL A   1      37.313  24.007  26.234  1.00  0.00     0.044 C 
ATOM     11  C   UNL A   1      36.104  23.183  25.909  1.00  0.00    -0.051 A 
ATOM     12  C   UNL A   1      36.224  21.809  25.715  1.00  0.00     0.005 A 
ATOM     13  C   UNL A   1      34.841  23.766  25.800  1.00  0.00     0.009 A 
ATOM     14  C   UNL A   1      35.098  21.037  25.417  1.00  0.00     0.026 A 
ATOM     15  C   UNL A   1      33.822  21.610  25.278  1.00  0.00     0.042 A 
BRANCH  15  16
ATOM     16  N   UNL A   1      32.687  20.804  25.045  1.00  0.00    -0.354 N 
ATOM     17  H   UNL A   1      31.912  20.986  25.624  1.00  0.00     0.167 HD
BRANCH  16  18
ATOM     18  C   UNL A   1      32.505  19.770  24.094  1.00  0.00     0.060 A 
ATOM     19  C   UNL A   1      32.625  18.408  24.444  1.00  0.00    -0.026 A 
ATOM     20  C   UNL A   1      32.269  20.102  22.742  1.00  0.00     0.064 A 
ATOM     21  C   UNL A   1      32.815  17.947  25.865  1.00  0.00     0.046 C 
ATOM     22  C   UNL A   1      32.562  17.427  23.438  1.00  0.00     0.005 A 
ATOM     23  C   UNL A   1      32.187  19.116  21.758  1.00  0.00     0.023 A 
ATOM     24  Cl  UNL A   1      32.104  21.754  22.247  1.00  0.00    -0.082 Cl
ATOM     25  C   UNL A   1      32.347  17.778  22.105  1.00  0.00     0.002 A 
ENDBRANCH  16  18
ENDBRANCH  15  16
ENDBRANCH   8   9
ENDBRANCH   5   8
ENDBRANCH   3   4
ENDBRANCH   2   3
ENDBRANCH   1   2
BRANCH   1  26
ATOM     26  C   UNL A   1      32.099  29.396  27.135  1.00  0.00     0.002 C 
BRANCH  26  27
ATOM     27  C   UNL A   1      32.707  30.788  27.322  1.00  0.00     0.021 C 
BRANCH  27  28
ATOM     28  C   UNL A   1      34.229  30.819  27.285  1.00  0.00     0.116 C 
BRANCH  28  29
ATOM     29  N   UNL A   1      34.823  31.625  28.341  1.00  0.00    -0.352 N 
ATOM     30  C   UNL A   1      35.835  31.325  29.239  1.00  0.00     0.251 C 
ATOM     31  H   UNL A   1      34.445  32.529  28.433  1.00  0.00     0.163 HD
ATOM     32  O   UNL A   1      36.129  32.121  30.109  1.00  0.00    -0.269 OA
BRANCH  30  33
ATOM     33  C   UNL A   1      36.664  30.105  29.041  1.00  0.00     0.039 A 
ATOM     34  C   UNL A   1      36.833  29.258  30.145  1.00  0.00     0.014 A 
ATOM     35  C   UNL A   1      37.423  29.907  27.894  1.00  0.00     0.014 A 
ATOM     36  C   UNL A   1      37.940  28.416  30.199  1.00  0.00     0.010 A 
ATOM     37  C   UNL A   1      38.574  29.150  27.981  1.00  0.00     0.010 A 
ATOM     38  C   UNL A   1      38.875  28.480  29.172  1.00  0.00    -0.014 A 
BRANCH  38  39
ATOM     39  C   UNL A   1      40.260  28.046  29.309  1.00  0.00     0.031 A 
ATOM     40  C   UNL A   1      40.684  26.706  28.865  1.00  0.00     0.074 A 
ATOM     41  C   UNL A   1      41.180  28.969  29.675  1.00  0.00     0.049 A 
ATOM     42  N   UNL A   1      41.862  26.223  29.073  1.00  0.00    -0.248 NA
ATOM     43  C   UNL A   1      39.790  25.760  28.203  1.00  0.00     0.031 C 
ATOM     44  C   UNL A   1      42.629  28.909  29.501  1.00  0.00     0.029 A 
ATOM     45  N   UNL A   1      40.980  30.093  30.499  1.00  0.00    -0.354 N 
ATOM     46  C   UNL A   1      41.978  25.072  28.338  1.00  0.00     0.074 A 
ATOM     47  C   UNL A   1      40.633  24.756  27.933  1.00  0.00     0.031 C 
ATOM     48  C   UNL A   1      43.207  29.712  30.406  1.00  0.00     0.029 A 
ATOM     49  C   UNL A   1      42.155  30.180  31.289  1.00  0.00     0.049 A 
ATOM     50  H   UNL A   1      40.197  30.689  30.522  1.00  0.00     0.167 HD
ATOM     51  C   UNL A   1      43.228  24.605  28.062  1.00  0.00     0.037 A 
ATOM     52  C   UNL A   1      42.105  29.946  32.634  1.00  0.00     0.037 A 
ATOM     53  C   UNL A   1      44.220  25.215  28.950  1.00  0.00     0.049 A 
ATOM     54  C   UNL A   1      42.928  28.765  33.109  1.00  0.00     0.074 A 
ATOM     55  C   UNL A   1      45.230  26.151  28.816  1.00  0.00     0.029 A 
ATOM     56  N   UNL A   1      44.069  25.010  30.312  1.00  0.00    -0.354 N 
ATOM     57  N   UNL A   1      43.581  27.954  32.323  1.00  0.00    -0.248 NA
ATOM     58  C   UNL A   1      42.990  28.346  34.512  1.00  0.00     0.031 C 
ATOM     59  C   UNL A   1      45.621  26.563  30.130  1.00  0.00     0.029 A 
ATOM     60  C   UNL A   1      44.873  25.851  31.051  1.00  0.00     0.049 A 
ATOM     61  H   UNL A   1      43.461  24.343  30.704  1.00  0.00     0.167 HD
ATOM     62  C   UNL A   1      44.076  26.912  33.058  1.00  0.00     0.074 A 
ATOM     63  C   UNL A   1      43.688  27.202  34.426  1.00  0.00     0.031 C 
ATOM     64  C   UNL A   1      44.729  25.855  32.498  1.00  0.00     0.037 A 
BRANCH  51  65
ATOM     65  C   UNL A   1      43.592  23.682  26.918  1.00  0.00     0.064 A 
ATOM     66  C   UNL A   1      43.186  22.329  26.946  1.00  0.00     0.173 A 
ATOM     67  C   UNL A   1      44.439  24.016  25.838  1.00  0.00     0.173 A 
ATOM     68  F   UNL A   1      42.392  21.861  27.920  1.00  0.00    -0.203 F 
ATOM     69  C   UNL A   1      43.605  21.397  25.988  1.00  0.00     0.198 A 
ATOM     70  C   UNL A   1      44.811  23.097  24.853  1.00  0.00     0.198 A 
ATOM     71  F   UNL A   1      45.002  25.220  25.714  1.00  0.00    -0.203 F 
ATOM     72  F   UNL A   1      43.238  20.112  26.105  1.00  0.00    -0.200 F 
ATOM     73  C   UNL A   1      44.408  21.784  24.935  1.00  0.00     0.200 A 
ATOM     74  F   UNL A   1      45.596  23.496  23.841  1.00  0.00    -0.200 F 
ATOM     75  F   UNL A   1      44.811  20.894  24.019  1.00  0.00    -0.200 F 
ENDBRANCH  51  65
BRANCH  52  76
ATOM     76  C   UNL A   1      40.820  30.384  33.242  1.00  0.00     0.064 A 
ATOM     77  C   UNL A   1      40.589  31.765  33.405  1.00  0.00     0.173 A 
ATOM     78  C   UNL A   1      39.713  29.531  33.310  1.00  0.00     0.173 A 
ATOM     79  F   UNL A   1      41.617  32.627  33.350  1.00  0.00    -0.203 F 
ATOM     80  C   UNL A   1      39.298  32.276  33.503  1.00  0.00     0.198 A 
ATOM     81  C   UNL A   1      38.422  30.045  33.428  1.00  0.00     0.198 A 
ATOM     82  F   UNL A   1      39.863  28.209  33.141  1.00  0.00    -0.203 F 
ATOM     83  F   UNL A   1      39.103  33.602  33.537  1.00  0.00    -0.200 F 
ATOM     84  C   UNL A   1      38.213  31.416  33.488  1.00  0.00     0.200 A 
ATOM     85  F   UNL A   1      37.371  29.214  33.386  1.00  0.00    -0.200 F 
ATOM     86  F   UNL A   1      36.966  31.906  33.487  1.00  0.00    -0.200 F 
ENDBRANCH  52  76
BRANCH  64  87
ATOM     87  C   UNL A   1      45.264  24.718  33.310  1.00  0.00     0.064 A 
ATOM     88  C   UNL A   1      46.604  24.675  33.727  1.00  0.00     0.173 A 
ATOM     89  C   UNL A   1      44.479  23.584  33.597  1.00  0.00     0.173 A 
ATOM     90  F   UNL A   1      47.431  25.700  33.473  1.00  0.00    -0.203 F 
ATOM     91  C   UNL A   1      47.119  23.571  34.408  1.00  0.00     0.198 A 
ATOM     92  C   UNL A   1      45.009  22.465  34.232  1.00  0.00     0.198 A 
ATOM     93  F   UNL A   1      43.173  23.549  33.289  1.00  0.00    -0.203 F 
ATOM     94  F   UNL A   1      48.391  23.585  34.830  1.00  0.00    -0.200 F 
ATOM     95  C   UNL A   1      46.328  22.461  34.646  1.00  0.00     0.200 A 
ATOM     96  F   UNL A   1      44.233  21.392  34.447  1.00  0.00    -0.200 F 
ATOM     97  F   UNL A   1      46.831  21.392  35.276  1.00  0.00    -0.200 F 
ENDBRANCH  64  87
ENDBRANCH  38  39
ENDBRANCH  30  33
ENDBRANCH  28  29
ENDBRANCH  27  28
ENDBRANCH  26  27
ENDBRANCH   1  26
TORSDOF 16
ENDMDL
MODEL 3
REMARK VINA RESULT:     -13.0      4.126     10.416
REMARK SMILES Cc1ccc(Nc2c(C)cccc2Cl)c(CC(=O)NCCCCCCNC(=O)c2ccc(-c3c4nc(c(-c5c(F)c(F)c(F)c(F)c5F)c5ccc([nH]5)c(-c5c(F)c(F)c(F)c(F)c5F)c5nc(c(-c6c(F)c(F)c(F)c(F)c6F)c6ccc3[nH]6)C=C5)C=C4)cc2)c1
REMARK SMILES IDX 22 1 21 2 20 3 19 4 17 5 18 6 16 8 15 9 1 10 2 11 3 12 92 13
REMARK SMILES IDX 4 14 5 15 6 16 7 18 8 19 13 20 9 21 10 22 12 23 14 24 11 25
REMARK SMILES IDX 23 26 24 27 25 28 26 29 27 30 28 32 29 33 30 34 91 35 31 36
REMARK SMILES IDX 90 37 32 38 33 39 34 40 84 41 35 42 89 43 83 44 85 45 36 46
REMARK SMILES IDX 88 47 82 48 81 49 37 51 69 52 49 53 68 54 50 55 53 56 67 57
REMARK SMILES IDX 86 58 51 59 52 60 66 62 87 63 54 64 38 65 39 66 47 67 40 68
REMARK SMILES IDX 41 69 45 70 48 71 42 72 43 73 46 74 44 75 70 76 71 77 79 78
REMARK SMILES IDX 72 79 73 80 77 81 80 82 74 83 75 84 78 85 76 86 55 87 56 88
REMARK SMILES IDX 64 89 57 90 58 91 62 92 65 93 59 94 60 95 63 96 61 97
REMARK H PARENT 19 7 6 17 26 31 85 50 53 61
REMARK Flexibility Score: inf
ROOT
ATOM      1  C   UNL A   1      36.219  23.109  24.505  1.00  0.00     0.002 C 
ENDROOT
BRANCH   1   2
ATOM      2  C   UNL A   1      34.988  23.318  23.610  1.00  0.00     0.021 C 
BRANCH   2   3
ATOM      3  C   UNL A   1      34.302  24.681  23.754  1.00  0.00     0.116 C 
BRANCH   3   4
ATOM      4  N   UNL A   1      33.283  24.884  22.748  1.00  0.00    -0.356 N 
ATOM      5  C   UNL A   1      32.873  26.049  22.171  1.00  0.00     0.224 C 
ATOM      6  O   UNL A   1      31.892  26.021  21.424  1.00  0.00    -0.275 OA
ATOM      7  H   UNL A   1      32.823  24.072  22.438  1.00  0.00     0.163 HD
BRANCH   5   8
ATOM      8  C   UNL A   1      33.596  27.355  22.453  1.00  0.00     0.137 C 
BRANCH   8   9
ATOM      9  C   UNL A   1      33.152  28.043  23.726  1.00  0.00    -0.015 A 
ATOM     10  C   UNL A   1      34.802  28.965  27.054  1.00  0.00     0.044 C 
ATOM     11  C   UNL A   1      33.779  28.797  25.972  1.00  0.00    -0.051 A 
ATOM     12  C   UNL A   1      32.462  29.199  26.184  1.00  0.00     0.005 A 
ATOM     13  C   UNL A   1      34.119  28.244  24.737  1.00  0.00     0.009 A 
ATOM     14  C   UNL A   1      31.508  29.049  25.175  1.00  0.00     0.026 A 
ATOM     15  C   UNL A   1      31.825  28.471  23.933  1.00  0.00     0.042 A 
BRANCH  15  16
ATOM     16  N   UNL A   1      30.863  28.391  22.903  1.00  0.00    -0.354 N 
ATOM     17  H   UNL A   1      31.224  28.359  21.988  1.00  0.00     0.167 HD
BRANCH  16  18
ATOM     18  C   UNL A   1      29.451  28.351  23.001  1.00  0.00     0.060 A 
ATOM     19  C   UNL A   1      28.646  29.441  22.607  1.00  0.00    -0.026 A 
ATOM     20  C   UNL A   1      28.826  27.222  23.575  1.00  0.00     0.064 A 
ATOM     21  C   UNL A   1      29.206  30.663  21.929  1.00  0.00     0.046 C 
ATOM     22  C   UNL A   1      27.260  29.398  22.844  1.00  0.00     0.005 A 
ATOM     23  C   UNL A   1      27.446  27.186  23.784  1.00  0.00     0.023 A 
ATOM     24  Cl  UNL A   1      29.755  25.847  24.074  1.00  0.00    -0.082 Cl
ATOM     25  C   UNL A   1      26.664  28.281  23.430  1.00  0.00     0.002 A 
ENDBRANCH  16  18
ENDBRANCH  15  16
ENDBRANCH   8   9
ENDBRANCH   5   8
ENDBRANCH   3   4
ENDBRANCH   2   3
ENDBRANCH   1   2
BRANCH   1  26
ATOM     26  C   UNL A   1      36.856  21.710  24.478  1.00  0.00     0.002 C 
BRANCH  26  27
ATOM     27  C   UNL A   1      38.183  21.563  25.226  1.00  0.00     0.021 C 
BRANCH  27  28
ATOM     28  C   UNL A   1      38.560  22.766  26.080  1.00  0.00     0.116 C 
BRANCH  28  29
ATOM     29  N   UNL A   1      39.970  22.806  26.441  1.00  0.00    -0.352 N 
ATOM     30  C   UNL A   1      40.775  23.877  26.797  1.00  0.00     0.251 C 
ATOM     31  H   UNL A   1      40.424  21.933  26.431  1.00  0.00     0.163 HD
ATOM     32  O   UNL A   1      41.964  23.704  26.982  1.00  0.00    -0.269 OA
BRANCH  30  33
ATOM     33  C   UNL A   1      40.161  25.196  27.105  1.00  0.00     0.039 A 
ATOM     34  C   UNL A   1      40.561  26.289  26.321  1.00  0.00     0.014 A 
ATOM     35  C   UNL A   1      39.396  25.406  28.246  1.00  0.00     0.014 A 
ATOM     36  C   UNL A   1      40.439  27.578  26.830  1.00  0.00     0.010 A 
ATOM     37  C   UNL A   1      39.361  26.671  28.799  1.00  0.00     0.010 A 
ATOM     38  C   UNL A   1      39.968  27.738  28.129  1.00  0.00    -0.014 A 
BRANCH  38  39
ATOM     39  C   UNL A   1      40.227  28.918  28.944  1.00  0.00     0.031 A 
ATOM     40  C   UNL A   1      39.220  29.987  29.076  1.00  0.00     0.074 A 
ATOM     41  C   UNL A   1      41.332  28.918  29.726  1.00  0.00     0.049 A 
ATOM     42  N   UNL A   1      39.439  31.106  29.680  1.00  0.00    -0.248 NA
ATOM     43  C   UNL A   1      37.891  29.915  28.476  1.00  0.00     0.031 C 
ATOM     44  C   UNL A   1      41.605  29.755  30.893  1.00  0.00     0.029 A 
ATOM     45  N   UNL A   1      42.557  28.273  29.473  1.00  0.00    -0.354 N 
ATOM     46  C   UNL A   1      38.238  31.753  29.811  1.00  0.00     0.074 A 
ATOM     47  C   UNL A   1      37.342  31.048  28.932  1.00  0.00     0.031 C 
ATOM     48  C   UNL A   1      42.932  29.830  31.070  1.00  0.00     0.029 A 
ATOM     49  C   UNL A   1      43.548  29.180  29.928  1.00  0.00     0.049 A 
ATOM     50  H   UNL A   1      42.695  27.386  29.070  1.00  0.00     0.167 HD
ATOM     51  C   UNL A   1      38.131  32.733  30.751  1.00  0.00     0.037 A 
ATOM     52  C   UNL A   1      44.386  29.793  29.040  1.00  0.00     0.037 A 
ATOM     53  C   UNL A   1      39.454  33.186  31.185  1.00  0.00     0.049 A 
ATOM     54  C   UNL A   1      44.275  31.305  28.994  1.00  0.00     0.074 A 
ATOM     55  C   UNL A   1      40.225  33.053  32.327  1.00  0.00     0.029 A 
ATOM     56  N   UNL A   1      40.291  33.725  30.221  1.00  0.00    -0.354 N 
ATOM     57  N   UNL A   1      43.403  32.003  29.669  1.00  0.00    -0.248 NA
ATOM     58  C   UNL A   1      45.078  32.138  28.096  1.00  0.00     0.031 C 
ATOM     59  C   UNL A   1      41.562  33.447  32.000  1.00  0.00     0.029 A 
ATOM     60  C   UNL A   1      41.587  33.847  30.675  1.00  0.00     0.049 A 
ATOM     61  H   UNL A   1      39.996  33.989  29.320  1.00  0.00     0.167 HD
ATOM     62  C   UNL A   1      43.468  33.311  29.273  1.00  0.00     0.074 A 
ATOM     63  C   UNL A   1      44.535  33.352  28.292  1.00  0.00     0.031 C 
ATOM     64  C   UNL A   1      42.615  34.267  29.737  1.00  0.00     0.037 A 
BRANCH  51  65
ATOM     65  C   UNL A   1      36.840  33.217  31.378  1.00  0.00     0.064 A 
ATOM     66  C   UNL A   1      35.915  33.956  30.607  1.00  0.00     0.173 A 
ATOM     67  C   UNL A   1      36.507  33.108  32.746  1.00  0.00     0.173 A 
ATOM     68  F   UNL A   1      36.105  34.154  29.295  1.00  0.00    -0.203 F 
ATOM     69  C   UNL A   1      34.772  34.543  31.163  1.00  0.00     0.198 A 
ATOM     70  C   UNL A   1      35.337  33.649  33.288  1.00  0.00     0.198 A 
ATOM     71  F   UNL A   1      37.318  32.537  33.640  1.00  0.00    -0.203 F 
ATOM     72  F   UNL A   1      33.965  35.288  30.393  1.00  0.00    -0.200 F 
ATOM     73  C   UNL A   1      34.476  34.380  32.501  1.00  0.00     0.200 A 
ATOM     74  F   UNL A   1      35.074  33.481  34.592  1.00  0.00    -0.200 F 
ATOM     75  F   UNL A   1      33.385  34.943  33.035  1.00  0.00    -0.200 F 
ENDBRANCH  51  65
BRANCH  52  76
ATOM     76  C   UNL A   1      44.711  28.931  27.872  1.00  0.00     0.064 A 
ATOM     77  C   UNL A   1      45.601  27.854  28.058  1.00  0.00     0.173 A 
ATOM     78  C   UNL A   1      43.906  28.915  26.728  1.00  0.00     0.173 A 
ATOM     79  F   UNL A   1      46.396  27.821  29.140  1.00  0.00    -0.203 F 
ATOM     80  C   UNL A   1      45.593  26.754  27.205  1.00  0.00     0.198 A 
ATOM     81  C   UNL A   1      43.916  27.820  25.864  1.00  0.00     0.198 A 
ATOM     82  F   UNL A   1      43.023  29.899  26.505  1.00  0.00    -0.203 F 
ATOM     83  F   UNL A   1      46.366  25.692  27.474  1.00  0.00    -0.200 F 
ATOM     84  C   UNL A   1      44.731  26.726  26.122  1.00  0.00     0.200 A 
ATOM     85  F   UNL A   1      43.061  27.782  24.832  1.00  0.00    -0.200 F 
ATOM     86  F   UNL A   1      44.652  25.633  25.352  1.00  0.00    -0.200 F 
ENDBRANCH  52  76
BRANCH  64  87
ATOM     87  C   UNL A   1      42.693  35.696  29.296  1.00  0.00     0.064 A 
ATOM     88  C   UNL A   1      42.061  36.142  28.126  1.00  0.00     0.173 A 
ATOM     89  C   UNL A   1      43.498  36.632  29.975  1.00  0.00     0.173 A 
ATOM     90  F   UNL A   1      41.297  35.311  27.402  1.00  0.00    -0.203 F 
ATOM     91  C   UNL A   1      42.210  37.455  27.673  1.00  0.00     0.198 A 
ATOM     92  C   UNL A   1      43.684  37.925  29.494  1.00  0.00     0.198 A 
ATOM     93  F   UNL A   1      44.100  36.319  31.133  1.00  0.00    -0.203 F 
ATOM     94  F   UNL A   1      41.555  37.858  26.576  1.00  0.00    -0.200 F 
ATOM     95  C   UNL A   1      43.033  38.340  28.347  1.00  0.00     0.200 A 
ATOM     96  F   UNL A   1      44.492  38.769  30.151  1.00  0.00    -0.200 F 
ATOM     97  F   UNL A   1      43.196  39.591  27.897  1.00  0.00    -0.200 F 
ENDBRANCH  64  87
ENDBRANCH  38  39
ENDBRANCH  30  33
ENDBRANCH  28  29
ENDBRANCH  27  28
ENDBRANCH  26  27
ENDBRANCH   1  26
TORSDOF 16
ENDMDL
