MODEL 1
REMARK VINA RESULT:     -13.1      0.000      0.000
REMARK SMILES Cc1ccc2c(c1)=C1S[C@H](C(=O)NCCCCCCNC(=O)c3ccc(-c4c5nc(c(-c6c(F)c(F)c(F)c(F)c6F)c6ccc([nH]6)c(-c6c(F)c(F)c(F)c(F)c6F)c6nc(c(-c7c(F)c(F)c(F)c(F)c7F)c7ccc4[nH]7)C=C6)C=C5)cc3)C=C1C(=O)N=2
REMARK SMILES IDX 17 1 16 2 15 3 14 4 13 5 11 6 12 7 10 9 1 10 2 11 3 12 7 13
REMARK SMILES IDX 4 14 6 15 5 16 8 17 90 18 9 19 87 20 88 21 86 22 89 23 18 24
REMARK SMILES IDX 19 25 20 26 21 27 22 29 23 30 24 31 85 32 25 33 84 34 26 35
REMARK SMILES IDX 27 36 28 37 78 38 29 39 83 40 77 41 79 42 30 43 82 44 76 45
REMARK SMILES IDX 75 46 31 48 63 49 43 50 62 51 44 52 47 53 61 54 80 55 45 56
REMARK SMILES IDX 46 57 60 59 81 60 48 61 32 62 33 63 41 64 34 65 35 66 39 67
REMARK SMILES IDX 42 68 36 69 37 70 40 71 38 72 64 73 65 74 73 75 66 76 67 77
REMARK SMILES IDX 71 78 74 79 68 80 69 81 72 82 70 83 49 84 50 85 58 86 51 87
REMARK SMILES IDX 52 88 56 89 59 90 53 91 54 92 57 93 55 94
REMARK H PARENT 13 8 20 28 79 47 47 58
REMARK Flexibility Score: inf
ROOT
ATOM      1  C   UNL A   1      31.483  30.726  26.140  1.00  0.00     0.002 C 
ENDROOT
BRANCH   1   2
ATOM      2  C   UNL A   1      32.903  30.162  26.105  1.00  0.00     0.002 C 
BRANCH   2   3
ATOM      3  C   UNL A   1      33.048  28.743  25.565  1.00  0.00     0.021 C 
BRANCH   3   4
ATOM      4  C   UNL A   1      33.396  28.598  24.076  1.00  0.00     0.116 C 
BRANCH   4   5
ATOM      5  N   UNL A   1      32.459  29.250  23.184  1.00  0.00    -0.355 N 
ATOM      6  C   UNL A   1      31.231  28.852  22.733  1.00  0.00     0.237 C 
ATOM      7  O   UNL A   1      30.539  29.728  22.197  1.00  0.00    -0.273 OA
ATOM      8  H   UNL A   1      32.756  30.126  22.846  1.00  0.00     0.163 HD
BRANCH   6   9
ATOM      9  C   UNL A   1      30.677  27.409  22.842  1.00  0.00     0.164 C 
ATOM     10  C   UNL A   1      36.189  23.997  25.611  1.00  0.00     0.044 C 
ATOM     11  C   UNL A   1      35.059  23.797  24.645  1.00  0.00    -0.050 A 
ATOM     12  C   UNL A   1      34.660  22.418  24.351  1.00  0.00     0.005 A 
ATOM     13  C   UNL A   1      34.274  24.798  24.188  1.00  0.00     0.015 A 
ATOM     14  C   UNL A   1      33.355  22.106  24.226  1.00  0.00     0.029 A 
ATOM     15  C   UNL A   1      32.990  24.420  23.574  1.00  0.00     0.015 A 
ATOM     16  C   UNL A   1      32.444  23.274  24.384  1.00  0.00     0.076 A 
ATOM     17  C   UNL A   1      31.978  25.253  23.319  1.00  0.00     0.030 C 
ATOM     18  N   UNL A   1      31.459  23.328  25.218  1.00  0.00    -0.209 NA
ATOM     19  S   UNL A   1      31.728  26.208  21.911  1.00  0.00    -0.107 SA
ATOM     20  C   UNL A   1      31.035  25.562  24.352  1.00  0.00     0.054 C 
ATOM     21  C   UNL A   1      30.875  24.565  25.455  1.00  0.00     0.278 C 
ATOM     22  C   UNL A   1      30.443  26.759  24.189  1.00  0.00     0.012 C 
ATOM     23  O   UNL A   1      30.267  24.852  26.476  1.00  0.00    -0.267 OA
ENDBRANCH   6   9
ENDBRANCH   4   5
ENDBRANCH   3   4
ENDBRANCH   2   3
ENDBRANCH   1   2
BRANCH   1  24
ATOM     24  C   UNL A   1      31.351  32.204  26.521  1.00  0.00     0.021 C 
BRANCH  24  25
ATOM     25  C   UNL A   1      32.555  32.803  27.242  1.00  0.00     0.116 C 
BRANCH  25  26
ATOM     26  N   UNL A   1      32.343  34.193  27.616  1.00  0.00    -0.352 N 
ATOM     27  C   UNL A   1      32.951  34.957  28.583  1.00  0.00     0.251 C 
ATOM     28  H   UNL A   1      31.653  34.661  27.093  1.00  0.00     0.163 HD
ATOM     29  O   UNL A   1      32.494  36.056  28.879  1.00  0.00    -0.269 OA
BRANCH  27  30
ATOM     30  C   UNL A   1      34.148  34.449  29.289  1.00  0.00     0.039 A 
ATOM     31  C   UNL A   1      35.422  34.597  28.736  1.00  0.00     0.014 A 
ATOM     32  C   UNL A   1      33.993  33.827  30.531  1.00  0.00     0.014 A 
ATOM     33  C   UNL A   1      36.512  33.980  29.341  1.00  0.00     0.010 A 
ATOM     34  C   UNL A   1      35.103  33.275  31.178  1.00  0.00     0.010 A 
ATOM     35  C   UNL A   1      36.365  33.304  30.563  1.00  0.00    -0.014 A 
BRANCH  35  36
ATOM     36  C   UNL A   1      37.537  32.620  31.168  1.00  0.00     0.031 A 
ATOM     37  C   UNL A   1      38.000  32.978  32.555  1.00  0.00     0.074 A 
ATOM     38  C   UNL A   1      38.148  31.630  30.491  1.00  0.00     0.049 A 
ATOM     39  N   UNL A   1      38.983  32.468  33.256  1.00  0.00    -0.248 NA
ATOM     40  C   UNL A   1      37.267  34.048  33.248  1.00  0.00     0.031 C 
ATOM     41  C   UNL A   1      37.783  31.183  29.147  1.00  0.00     0.029 A 
ATOM     42  N   UNL A   1      39.184  30.802  30.847  1.00  0.00    -0.354 N 
ATOM     43  C   UNL A   1      38.994  33.161  34.460  1.00  0.00     0.074 A 
ATOM     44  C   UNL A   1      37.941  34.151  34.385  1.00  0.00     0.031 C 
ATOM     45  C   UNL A   1      38.545  30.131  28.812  1.00  0.00     0.029 A 
ATOM     46  C   UNL A   1      39.492  29.866  29.890  1.00  0.00     0.049 A 
ATOM     47  H   UNL A   1      39.661  30.874  31.705  1.00  0.00     0.167 HD
ATOM     48  C   UNL A   1      39.797  32.977  35.534  1.00  0.00     0.037 A 
ATOM     49  C   UNL A   1      40.438  28.909  29.877  1.00  0.00     0.037 A 
ATOM     50  C   UNL A   1      40.832  31.979  35.613  1.00  0.00     0.049 A 
ATOM     51  C   UNL A   1      41.349  28.759  31.063  1.00  0.00     0.074 A 
ATOM     52  C   UNL A   1      41.684  31.703  36.668  1.00  0.00     0.029 A 
ATOM     53  N   UNL A   1      41.155  31.092  34.597  1.00  0.00    -0.354 N 
ATOM     54  N   UNL A   1      41.342  29.416  32.196  1.00  0.00    -0.248 NA
ATOM     55  C   UNL A   1      42.407  27.744  30.962  1.00  0.00     0.031 C 
ATOM     56  C   UNL A   1      42.552  30.679  36.275  1.00  0.00     0.029 A 
ATOM     57  C   UNL A   1      42.209  30.283  34.993  1.00  0.00     0.049 A 
ATOM     58  H   UNL A   1      40.702  31.044  33.723  1.00  0.00     0.167 HD
ATOM     59  C   UNL A   1      42.383  28.890  32.948  1.00  0.00     0.074 A 
ATOM     60  C   UNL A   1      42.987  27.843  32.150  1.00  0.00     0.031 C 
ATOM     61  C   UNL A   1      42.803  29.248  34.186  1.00  0.00     0.037 A 
BRANCH  48  62
ATOM     62  C   UNL A   1      39.596  33.875  36.721  1.00  0.00     0.064 A 
ATOM     63  C   UNL A   1      38.802  33.487  37.809  1.00  0.00     0.173 A 
ATOM     64  C   UNL A   1      40.258  35.111  36.799  1.00  0.00     0.173 A 
ATOM     65  F   UNL A   1      38.136  32.322  37.777  1.00  0.00    -0.203 F 
ATOM     66  C   UNL A   1      38.663  34.309  38.925  1.00  0.00     0.198 A 
ATOM     67  C   UNL A   1      40.140  35.917  37.928  1.00  0.00     0.198 A 
ATOM     68  F   UNL A   1      41.035  35.526  35.788  1.00  0.00    -0.203 F 
ATOM     69  F   UNL A   1      37.869  33.934  39.937  1.00  0.00    -0.200 F 
ATOM     70  C   UNL A   1      39.339  35.519  38.987  1.00  0.00     0.200 A 
ATOM     71  F   UNL A   1      40.803  37.081  37.991  1.00  0.00    -0.200 F 
ATOM     72  F   UNL A   1      39.215  36.302  40.068  1.00  0.00    -0.200 F 
ENDBRANCH  48  62
BRANCH  49  73
ATOM     73  C   UNL A   1      40.555  28.012  28.698  1.00  0.00     0.064 A 
ATOM     74  C   UNL A   1      39.868  26.792  28.653  1.00  0.00     0.173 A 
ATOM     75  C   UNL A   1      41.323  28.373  27.581  1.00  0.00     0.173 A 
ATOM     76  F   UNL A   1      39.136  26.395  29.705  1.00  0.00    -0.203 F 
ATOM     77  C   UNL A   1      39.945  25.966  27.533  1.00  0.00     0.198 A 
ATOM     78  C   UNL A   1      41.377  27.560  26.452  1.00  0.00     0.198 A 
ATOM     79  F   UNL A   1      41.996  29.532  27.576  1.00  0.00    -0.203 F 
ATOM     80  F   UNL A   1      39.298  24.792  27.524  1.00  0.00    -0.200 F 
ATOM     81  C   UNL A   1      40.691  26.355  26.430  1.00  0.00     0.200 A 
ATOM     82  F   UNL A   1      42.085  27.949  25.383  1.00  0.00    -0.200 F 
ATOM     83  F   UNL A   1      40.749  25.570  25.347  1.00  0.00    -0.200 F 
ENDBRANCH  49  73
BRANCH  61  84
ATOM     84  C   UNL A   1      43.967  28.500  34.764  1.00  0.00     0.064 A 
ATOM     85  C   UNL A   1      45.280  28.973  34.627  1.00  0.00     0.173 A 
ATOM     86  C   UNL A   1      43.762  27.336  35.521  1.00  0.00     0.173 A 
ATOM     87  F   UNL A   1      45.527  30.073  33.902  1.00  0.00    -0.203 F 
ATOM     88  C   UNL A   1      46.347  28.300  35.216  1.00  0.00     0.198 A 
ATOM     89  C   UNL A   1      44.829  26.681  36.130  1.00  0.00     0.198 A 
ATOM     90  F   UNL A   1      42.524  26.846  35.687  1.00  0.00    -0.203 F 
ATOM     91  F   UNL A   1      47.598  28.751  35.043  1.00  0.00    -0.200 F 
ATOM     92  C   UNL A   1      46.120  27.161  35.974  1.00  0.00     0.200 A 
ATOM     93  F   UNL A   1      44.606  25.588  36.875  1.00  0.00    -0.200 F 
ATOM     94  F   UNL A   1      47.148  26.524  36.552  1.00  0.00    -0.200 F 
ENDBRANCH  61  84
ENDBRANCH  35  36
ENDBRANCH  27  30
ENDBRANCH  25  26
ENDBRANCH  24  25
ENDBRANCH   1  24
TORSDOF 13
ENDMDL
MODEL 2
REMARK VINA RESULT:     -13.1      0.175      1.593
REMARK SMILES Cc1ccc2c(c1)=C1S[C@H](C(=O)NCCCCCCNC(=O)c3ccc(-c4c5nc(c(-c6c(F)c(F)c(F)c(F)c6F)c6ccc([nH]6)c(-c6c(F)c(F)c(F)c(F)c6F)c6nc(c(-c7c(F)c(F)c(F)c(F)c7F)c7ccc4[nH]7)C=C6)C=C5)cc3)C=C1C(=O)N=2
REMARK SMILES IDX 17 1 16 2 15 3 14 4 13 5 11 6 12 7 10 9 1 10 2 11 3 12 7 13
REMARK SMILES IDX 4 14 6 15 5 16 8 17 90 18 9 19 87 20 88 21 86 22 89 23 18 24
REMARK SMILES IDX 19 25 20 26 21 27 22 29 23 30 24 31 85 32 25 33 84 34 26 35
REMARK SMILES IDX 27 36 28 37 78 38 29 39 83 40 77 41 79 42 30 43 82 44 76 45
REMARK SMILES IDX 75 46 31 48 63 49 43 50 62 51 44 52 47 53 61 54 80 55 45 56
REMARK SMILES IDX 46 57 60 59 81 60 48 61 32 62 33 63 41 64 34 65 35 66 39 67
REMARK SMILES IDX 42 68 36 69 37 70 40 71 38 72 64 73 65 74 73 75 66 76 67 77
REMARK SMILES IDX 71 78 74 79 68 80 69 81 72 82 70 83 49 84 50 85 58 86 51 87
REMARK SMILES IDX 52 88 56 89 59 90 53 91 54 92 57 93 55 94
REMARK H PARENT 13 8 20 28 79 47 47 58
REMARK Flexibility Score: inf
ROOT
ATOM      1  C   UNL A   1      31.443  30.733  26.252  1.00  0.00     0.002 C 
ENDROOT
BRANCH   1   2
ATOM      2  C   UNL A   1      32.835  30.110  26.151  1.00  0.00     0.002 C 
BRANCH   2   3
ATOM      3  C   UNL A   1      32.904  28.721  25.524  1.00  0.00     0.021 C 
BRANCH   3   4
ATOM      4  C   UNL A   1      33.258  28.649  24.031  1.00  0.00     0.116 C 
BRANCH   4   5
ATOM      5  N   UNL A   1      32.301  29.304  23.164  1.00  0.00    -0.355 N 
ATOM      6  C   UNL A   1      31.075  28.894  22.717  1.00  0.00     0.237 C 
ATOM      7  O   UNL A   1      30.362  29.770  22.209  1.00  0.00    -0.273 OA
ATOM      8  H   UNL A   1      32.579  30.193  22.842  1.00  0.00     0.163 HD
BRANCH   6   9
ATOM      9  C   UNL A   1      30.547  27.440  22.800  1.00  0.00     0.164 C 
ATOM     10  C   UNL A   1      36.076  24.102  25.625  1.00  0.00     0.044 C 
ATOM     11  C   UNL A   1      34.967  23.892  24.637  1.00  0.00    -0.050 A 
ATOM     12  C   UNL A   1      34.600  22.509  24.321  1.00  0.00     0.005 A 
ATOM     13  C   UNL A   1      34.171  24.883  24.178  1.00  0.00     0.015 A 
ATOM     14  C   UNL A   1      33.303  22.173  24.170  1.00  0.00     0.029 A 
ATOM     15  C   UNL A   1      32.905  24.487  23.538  1.00  0.00     0.015 A 
ATOM     16  C   UNL A   1      32.367  23.322  24.325  1.00  0.00     0.076 A 
ATOM     17  C   UNL A   1      31.881  25.304  23.275  1.00  0.00     0.030 C 
ATOM     18  N   UNL A   1      31.367  23.347  25.142  1.00  0.00    -0.209 NA
ATOM     19  S   UNL A   1      31.637  26.271  21.874  1.00  0.00    -0.107 SA
ATOM     20  C   UNL A   1      30.915  25.583  24.295  1.00  0.00     0.054 C 
ATOM     21  C   UNL A   1      30.755  24.570  25.383  1.00  0.00     0.278 C 
ATOM     22  C   UNL A   1      30.303  26.770  24.136  1.00  0.00     0.012 C 
ATOM     23  O   UNL A   1      30.125  24.833  26.397  1.00  0.00    -0.267 OA
ENDBRANCH   6   9
ENDBRANCH   4   5
ENDBRANCH   3   4
ENDBRANCH   2   3
ENDBRANCH   1   2
BRANCH   1  24
ATOM     24  C   UNL A   1      31.395  32.245  26.494  1.00  0.00     0.021 C 
BRANCH  24  25
ATOM     25  C   UNL A   1      32.599  32.828  27.230  1.00  0.00     0.116 C 
BRANCH  25  26
ATOM     26  N   UNL A   1      32.384  34.207  27.640  1.00  0.00    -0.352 N 
ATOM     27  C   UNL A   1      32.996  34.949  28.621  1.00  0.00     0.251 C 
ATOM     28  H   UNL A   1      31.690  34.686  27.132  1.00  0.00     0.163 HD
ATOM     29  O   UNL A   1      32.537  36.039  28.947  1.00  0.00    -0.269 OA
BRANCH  27  30
ATOM     30  C   UNL A   1      34.198  34.428  29.308  1.00  0.00     0.039 A 
ATOM     31  C   UNL A   1      35.469  34.600  28.756  1.00  0.00     0.014 A 
ATOM     32  C   UNL A   1      34.051  33.768  30.532  1.00  0.00     0.014 A 
ATOM     33  C   UNL A   1      36.566  33.972  29.339  1.00  0.00     0.010 A 
ATOM     34  C   UNL A   1      35.167  33.205  31.158  1.00  0.00     0.010 A 
ATOM     35  C   UNL A   1      36.426  33.259  30.540  1.00  0.00    -0.014 A 
BRANCH  35  36
ATOM     36  C   UNL A   1      37.605  32.565  31.121  1.00  0.00     0.031 A 
ATOM     37  C   UNL A   1      38.087  32.903  32.506  1.00  0.00     0.074 A 
ATOM     38  C   UNL A   1      38.205  31.583  30.422  1.00  0.00     0.049 A 
ATOM     39  N   UNL A   1      39.078  32.382  33.187  1.00  0.00    -0.248 NA
ATOM     40  C   UNL A   1      37.365  33.966  33.223  1.00  0.00     0.031 C 
ATOM     41  C   UNL A   1      37.822  31.154  29.077  1.00  0.00     0.029 A 
ATOM     42  N   UNL A   1      39.244  30.749  30.754  1.00  0.00    -0.354 N 
ATOM     43  C   UNL A   1      39.105  33.059  34.400  1.00  0.00     0.074 A 
ATOM     44  C   UNL A   1      38.054  34.052  34.352  1.00  0.00     0.031 C 
ATOM     45  C   UNL A   1      38.577  30.106  28.718  1.00  0.00     0.029 A 
ATOM     46  C   UNL A   1      39.537  29.825  29.781  1.00  0.00     0.049 A 
ATOM     47  H   UNL A   1      39.732  30.808  31.606  1.00  0.00     0.167 HD
ATOM     48  C   UNL A   1      39.922  32.859  35.461  1.00  0.00     0.037 A 
ATOM     49  C   UNL A   1      40.480  28.865  29.742  1.00  0.00     0.037 A 
ATOM     50  C   UNL A   1      40.956  31.858  35.513  1.00  0.00     0.049 A 
ATOM     51  C   UNL A   1      41.407  28.698  30.914  1.00  0.00     0.074 A 
ATOM     52  C   UNL A   1      41.822  31.565  36.553  1.00  0.00     0.029 A 
ATOM     53  N   UNL A   1      41.264  30.983  34.481  1.00  0.00    -0.354 N 
ATOM     54  N   UNL A   1      41.416  29.340  32.056  1.00  0.00    -0.248 NA
ATOM     55  C   UNL A   1      42.461  27.682  30.785  1.00  0.00     0.031 C 
ATOM     56  C   UNL A   1      42.681  30.546  36.135  1.00  0.00     0.029 A 
ATOM     57  C   UNL A   1      42.321  30.168  34.852  1.00  0.00     0.049 A 
ATOM     58  H   UNL A   1      40.800  30.948  33.613  1.00  0.00     0.167 HD
ATOM     59  C   UNL A   1      42.466  28.802  32.786  1.00  0.00     0.074 A 
ATOM     60  C   UNL A   1      43.057  27.764  31.967  1.00  0.00     0.031 C 
ATOM     61  C   UNL A   1      42.902  29.142  34.024  1.00  0.00     0.037 A 
BRANCH  48  62
ATOM     62  C   UNL A   1      39.739  33.741  36.662  1.00  0.00     0.064 A 
ATOM     63  C   UNL A   1      40.350  35.000  36.748  1.00  0.00     0.173 A 
ATOM     64  C   UNL A   1      38.891  33.351  37.710  1.00  0.00     0.173 A 
ATOM     65  F   UNL A   1      41.182  35.414  35.779  1.00  0.00    -0.203 F 
ATOM     66  C   UNL A   1      40.133  35.830  37.845  1.00  0.00     0.198 A 
ATOM     67  C   UNL A   1      38.654  34.194  38.793  1.00  0.00     0.198 A 
ATOM     68  F   UNL A   1      38.276  32.159  37.674  1.00  0.00    -0.203 F 
ATOM     69  F   UNL A   1      40.757  37.013  37.924  1.00  0.00    -0.200 F 
ATOM     70  C   UNL A   1      39.279  35.429  38.862  1.00  0.00     0.200 A 
ATOM     71  F   UNL A   1      37.818  33.810  39.769  1.00  0.00    -0.200 F 
ATOM     72  F   UNL A   1      39.061  36.235  39.912  1.00  0.00    -0.200 F 
ENDBRANCH  48  62
BRANCH  49  73
ATOM     73  C   UNL A   1      40.580  27.984  28.550  1.00  0.00     0.064 A 
ATOM     74  C   UNL A   1      41.358  28.355  27.446  1.00  0.00     0.173 A 
ATOM     75  C   UNL A   1      39.931  26.741  28.506  1.00  0.00     0.173 A 
ATOM     76  F   UNL A   1      41.982  29.542  27.434  1.00  0.00    -0.203 F 
ATOM     77  C   UNL A   1      41.485  27.514  26.342  1.00  0.00     0.198 A 
ATOM     78  C   UNL A   1      40.080  25.890  27.415  1.00  0.00     0.198 A 
ATOM     79  F   UNL A   1      39.177  26.341  29.540  1.00  0.00    -0.203 F 
ATOM     80  F   UNL A   1      42.216  27.902  25.288  1.00  0.00    -0.200 F 
ATOM     81  C   UNL A   1      40.854  26.278  26.331  1.00  0.00     0.200 A 
ATOM     82  F   UNL A   1      39.483  24.690  27.417  1.00  0.00    -0.200 F 
ATOM     83  F   UNL A   1      40.991  25.462  25.278  1.00  0.00    -0.200 F 
ENDBRANCH  49  73
BRANCH  61  84
ATOM     84  C   UNL A   1      44.072  28.384  34.577  1.00  0.00     0.064 A 
ATOM     85  C   UNL A   1      45.384  28.863  34.441  1.00  0.00     0.173 A 
ATOM     86  C   UNL A   1      43.876  27.202  35.308  1.00  0.00     0.173 A 
ATOM     87  F   UNL A   1      45.623  29.981  33.739  1.00  0.00    -0.203 F 
ATOM     88  C   UNL A   1      46.456  28.180  35.007  1.00  0.00     0.198 A 
ATOM     89  C   UNL A   1      44.948  26.537  35.894  1.00  0.00     0.198 A 
ATOM     90  F   UNL A   1      42.640  26.706  35.472  1.00  0.00    -0.203 F 
ATOM     91  F   UNL A   1      47.705  28.638  34.836  1.00  0.00    -0.200 F 
ATOM     92  C   UNL A   1      46.237  27.023  35.740  1.00  0.00     0.200 A 
ATOM     93  F   UNL A   1      44.733  25.427  36.615  1.00  0.00    -0.200 F 
ATOM     94  F   UNL A   1      47.270  26.376  36.297  1.00  0.00    -0.200 F 
ENDBRANCH  61  84
ENDBRANCH  35  36
ENDBRANCH  27  30
ENDBRANCH  25  26
ENDBRANCH  24  25
ENDBRANCH   1  24
TORSDOF 13
ENDMDL
MODEL 3
REMARK VINA RESULT:     -13.0      0.363      7.360
REMARK SMILES Cc1ccc2c(c1)=C1S[C@H](C(=O)NCCCCCCNC(=O)c3ccc(-c4c5nc(c(-c6c(F)c(F)c(F)c(F)c6F)c6ccc([nH]6)c(-c6c(F)c(F)c(F)c(F)c6F)c6nc(c(-c7c(F)c(F)c(F)c(F)c7F)c7ccc4[nH]7)C=C6)C=C5)cc3)C=C1C(=O)N=2
REMARK SMILES IDX 17 1 16 2 15 3 14 4 13 5 11 6 12 7 10 9 1 10 2 11 3 12 7 13
REMARK SMILES IDX 4 14 6 15 5 16 8 17 90 18 9 19 87 20 88 21 86 22 89 23 18 24
REMARK SMILES IDX 19 25 20 26 21 27 22 29 23 30 24 31 85 32 25 33 84 34 26 35
REMARK SMILES IDX 27 36 28 37 78 38 29 39 83 40 77 41 79 42 30 43 82 44 76 45
REMARK SMILES IDX 75 46 31 48 63 49 43 50 62 51 44 52 47 53 61 54 80 55 45 56
REMARK SMILES IDX 46 57 60 59 81 60 48 61 32 62 33 63 41 64 34 65 35 66 39 67
REMARK SMILES IDX 42 68 36 69 37 70 40 71 38 72 64 73 65 74 73 75 66 76 67 77
REMARK SMILES IDX 71 78 74 79 68 80 69 81 72 82 70 83 49 84 50 85 58 86 51 87
REMARK SMILES IDX 52 88 56 89 59 90 53 91 54 92 57 93 55 94
REMARK H PARENT 13 8 20 28 79 47 47 58
REMARK Flexibility Score: inf
ROOT
ATOM      1  C   UNL A   1      31.491  30.705  26.283  1.00  0.00     0.002 C 
ENDROOT
BRANCH   1   2
ATOM      2  C   UNL A   1      32.896  30.132  26.099  1.00  0.00     0.002 C 
BRANCH   2   3
ATOM      3  C   UNL A   1      32.977  28.738  25.486  1.00  0.00     0.021 C 
BRANCH   3   4
ATOM      4  C   UNL A   1      33.264  28.657  23.980  1.00  0.00     0.116 C 
BRANCH   4   5
ATOM      5  N   UNL A   1      32.281  29.328  23.154  1.00  0.00    -0.355 N 
ATOM      6  C   UNL A   1      31.029  28.941  22.763  1.00  0.00     0.237 C 
ATOM      7  O   UNL A   1      30.310  29.828  22.285  1.00  0.00    -0.273 OA
ATOM      8  H   UNL A   1      32.561  30.211  22.817  1.00  0.00     0.163 HD
BRANCH   6   9
ATOM      9  C   UNL A   1      30.478  27.497  22.875  1.00  0.00     0.164 C 
ATOM     10  C   UNL A   1      36.038  24.077  25.536  1.00  0.00     0.044 C 
ATOM     11  C   UNL A   1      34.893  23.881  24.587  1.00  0.00    -0.050 A 
ATOM     12  C   UNL A   1      34.490  22.503  24.293  1.00  0.00     0.005 A 
ATOM     13  C   UNL A   1      34.099  24.883  24.148  1.00  0.00     0.015 A 
ATOM     14  C   UNL A   1      33.183  22.189  24.188  1.00  0.00     0.029 A 
ATOM     15  C   UNL A   1      32.806  24.506  23.554  1.00  0.00     0.015 A 
ATOM     16  C   UNL A   1      32.274  23.357  24.366  1.00  0.00     0.076 A 
ATOM     17  C   UNL A   1      31.788  25.340  23.319  1.00  0.00     0.030 C 
ATOM     18  N   UNL A   1      31.303  23.405  25.217  1.00  0.00    -0.209 NA
ATOM     19  S   UNL A   1      31.514  26.302  21.921  1.00  0.00    -0.107 SA
ATOM     20  C   UNL A   1      30.863  25.643  24.369  1.00  0.00     0.054 C 
ATOM     21  C   UNL A   1      30.722  24.640  25.469  1.00  0.00     0.278 C 
ATOM     22  C   UNL A   1      30.267  26.840  24.222  1.00  0.00     0.012 C 
ATOM     23  O   UNL A   1      30.130  24.922  26.502  1.00  0.00    -0.267 OA
ENDBRANCH   6   9
ENDBRANCH   4   5
ENDBRANCH   3   4
ENDBRANCH   2   3
ENDBRANCH   1   2
BRANCH   1  24
ATOM     24  C   UNL A   1      31.405  32.206  26.574  1.00  0.00     0.021 C 
BRANCH  24  25
ATOM     25  C   UNL A   1      32.628  32.812  27.257  1.00  0.00     0.116 C 
BRANCH  25  26
ATOM     26  N   UNL A   1      32.426  34.204  27.625  1.00  0.00    -0.352 N 
ATOM     27  C   UNL A   1      32.976  34.943  28.645  1.00  0.00     0.251 C 
ATOM     28  H   UNL A   1      31.795  34.696  27.052  1.00  0.00     0.163 HD
ATOM     29  O   UNL A   1      32.528  36.053  28.913  1.00  0.00    -0.269 OA
BRANCH  27  30
ATOM     30  C   UNL A   1      34.096  34.395  29.440  1.00  0.00     0.039 A 
ATOM     31  C   UNL A   1      35.416  34.526  29.003  1.00  0.00     0.014 A 
ATOM     32  C   UNL A   1      33.822  33.753  30.651  1.00  0.00     0.014 A 
ATOM     33  C   UNL A   1      36.438  33.874  29.687  1.00  0.00     0.010 A 
ATOM     34  C   UNL A   1      34.861  33.165  31.379  1.00  0.00     0.010 A 
ATOM     35  C   UNL A   1      36.171  33.178  30.876  1.00  0.00    -0.014 A 
BRANCH  35  36
ATOM     36  C   UNL A   1      37.273  32.457  31.566  1.00  0.00     0.031 A 
ATOM     37  C   UNL A   1      38.004  31.337  30.877  1.00  0.00     0.074 A 
ATOM     38  C   UNL A   1      37.658  32.855  32.793  1.00  0.00     0.049 A 
ATOM     39  N   UNL A   1      39.008  30.615  31.310  1.00  0.00    -0.248 NA
ATOM     40  C   UNL A   1      37.550  30.975  29.525  1.00  0.00     0.031 C 
ATOM     41  C   UNL A   1      37.037  33.937  33.558  1.00  0.00     0.029 A 
ATOM     42  N   UNL A   1      38.677  32.418  33.602  1.00  0.00    -0.354 N 
ATOM     43  C   UNL A   1      39.295  29.711  30.294  1.00  0.00     0.074 A 
ATOM     44  C   UNL A   1      38.339  29.950  29.235  1.00  0.00     0.031 C 
ATOM     45  C   UNL A   1      37.718  34.115  34.699  1.00  0.00     0.029 A 
ATOM     46  C   UNL A   1      38.786  33.123  34.776  1.00  0.00     0.049 A 
ATOM     47  H   UNL A   1      39.272  31.671  33.364  1.00  0.00     0.167 HD
ATOM     48  C   UNL A   1      40.276  28.779  30.245  1.00  0.00     0.037 A 
ATOM     49  C   UNL A   1      39.642  32.980  35.805  1.00  0.00     0.037 A 
ATOM     50  C   UNL A   1      41.238  28.555  31.293  1.00  0.00     0.049 A 
ATOM     51  C   UNL A   1      40.689  31.904  35.745  1.00  0.00     0.074 A 
ATOM     52  C   UNL A   1      42.283  27.647  31.325  1.00  0.00     0.029 A 
ATOM     53  N   UNL A   1      41.275  29.248  32.494  1.00  0.00    -0.354 N 
ATOM     54  N   UNL A   1      40.954  31.063  34.776  1.00  0.00    -0.248 NA
ATOM     55  C   UNL A   1      41.550  31.750  36.927  1.00  0.00     0.031 C 
ATOM     56  C   UNL A   1      42.923  27.759  32.563  1.00  0.00     0.029 A 
ATOM     57  C   UNL A   1      42.310  28.770  33.283  1.00  0.00     0.049 A 
ATOM     58  H   UNL A   1      40.656  29.971  32.749  1.00  0.00     0.167 HD
ATOM     59  C   UNL A   1      42.013  30.287  35.224  1.00  0.00     0.074 A 
ATOM     60  C   UNL A   1      42.360  30.773  36.544  1.00  0.00     0.031 C 
ATOM     61  C   UNL A   1      42.639  29.261  34.597  1.00  0.00     0.037 A 
BRANCH  48  62
ATOM     62  C   UNL A   1      40.365  27.921  29.016  1.00  0.00     0.064 A 
ATOM     63  C   UNL A   1      39.641  26.726  28.901  1.00  0.00     0.173 A 
ATOM     64  C   UNL A   1      41.133  28.330  27.914  1.00  0.00     0.173 A 
ATOM     65  F   UNL A   1      38.903  26.282  29.931  1.00  0.00    -0.203 F 
ATOM     66  C   UNL A   1      39.694  25.964  27.737  1.00  0.00     0.198 A 
ATOM     67  C   UNL A   1      41.162  27.580  26.742  1.00  0.00     0.198 A 
ATOM     68  F   UNL A   1      41.840  29.469  27.970  1.00  0.00    -0.203 F 
ATOM     69  F   UNL A   1      39.023  24.806  27.664  1.00  0.00    -0.200 F 
ATOM     70  C   UNL A   1      40.448  26.396  26.656  1.00  0.00     0.200 A 
ATOM     71  F   UNL A   1      41.882  28.006  25.694  1.00  0.00    -0.200 F 
ATOM     72  F   UNL A   1      40.487  25.667  25.531  1.00  0.00    -0.200 F 
ENDBRANCH  48  62
BRANCH  49  73
ATOM     73  C   UNL A   1      39.543  33.895  36.972  1.00  0.00     0.064 A 
ATOM     74  C   UNL A   1      40.172  35.145  36.959  1.00  0.00     0.173 A 
ATOM     75  C   UNL A   1      38.788  33.552  38.104  1.00  0.00     0.173 A 
ATOM     76  F   UNL A   1      40.921  35.509  35.907  1.00  0.00    -0.203 F 
ATOM     77  C   UNL A   1      40.050  36.022  38.036  1.00  0.00     0.198 A 
ATOM     78  C   UNL A   1      38.644  34.439  39.167  1.00  0.00     0.198 A 
ATOM     79  F   UNL A   1      38.165  32.367  38.161  1.00  0.00    -0.203 F 
ATOM     80  F   UNL A   1      40.682  37.203  38.011  1.00  0.00    -0.200 F 
ATOM     81  C   UNL A   1      39.278  35.672  39.134  1.00  0.00     0.200 A 
ATOM     82  F   UNL A   1      37.883  34.104  40.218  1.00  0.00    -0.200 F 
ATOM     83  F   UNL A   1      39.145  36.522  40.161  1.00  0.00    -0.200 F 
ENDBRANCH  49  73
BRANCH  61  84
ATOM     84  C   UNL A   1      43.769  28.594  35.324  1.00  0.00     0.064 A 
ATOM     85  C   UNL A   1      43.551  27.480  36.149  1.00  0.00     0.173 A 
ATOM     86  C   UNL A   1      45.091  29.027  35.140  1.00  0.00     0.173 A 
ATOM     87  F   UNL A   1      42.304  27.037  36.366  1.00  0.00    -0.203 F 
ATOM     88  C   UNL A   1      44.614  26.834  36.774  1.00  0.00     0.198 A 
ATOM     89  C   UNL A   1      46.153  28.363  35.745  1.00  0.00     0.198 A 
ATOM     90  F   UNL A   1      45.353  30.084  34.356  1.00  0.00    -0.203 F 
ATOM     91  F   UNL A   1      44.379  25.793  37.585  1.00  0.00    -0.200 F 
ATOM     92  C   UNL A   1      45.914  27.270  36.564  1.00  0.00     0.200 A 
ATOM     93  F   UNL A   1      47.411  28.776  35.530  1.00  0.00    -0.200 F 
ATOM     94  F   UNL A   1      46.937  26.637  37.155  1.00  0.00    -0.200 F 
ENDBRANCH  61  84
ENDBRANCH  35  36
ENDBRANCH  27  30
ENDBRANCH  25  26
ENDBRANCH  24  25
ENDBRANCH   1  24
TORSDOF 13
ENDMDL
