MODEL 1
REMARK VINA RESULT:     -12.8      0.000      0.000
REMARK SMILES CC(C)(C)OC(=O)N1CCN(N[C@@H](C(=O)NCCCCCCNC(=O)c2ccc(-c3c4nc(c(-c5c(F)c(F)c(F)c(F)c5F)c5ccc([nH]5)c(-c5c(F)c(F)c(F)c(F)c5F)c5nc(c(-c6c(F)c(F)c(F)c(F)c6F)c6ccc3[nH]6)C=C5)C=C4)cc2)c2ccccc2Cl)CC1
REMARK SMILES IDX 18 1 17 2 16 3 14 4 15 5 13 7 12 8 11 10 6 11 7 12 8 13 9 14
REMARK SMILES IDX 97 15 10 16 96 17 5 18 2 19 1 20 3 21 4 22 89 23 90 24 94 25
REMARK SMILES IDX 91 26 93 27 95 28 92 29 19 30 20 31 21 32 22 33 23 34 24 35
REMARK SMILES IDX 25 37 26 38 27 39 88 40 28 41 87 42 29 43 30 44 31 45 81 46
REMARK SMILES IDX 32 47 86 48 80 49 82 50 33 51 85 52 79 53 78 54 34 56 66 57
REMARK SMILES IDX 46 58 65 59 47 60 50 61 64 62 83 63 48 64 49 65 63 67 84 68
REMARK SMILES IDX 51 69 35 70 36 71 44 72 37 73 38 74 42 75 45 76 39 77 40 78
REMARK SMILES IDX 43 79 41 80 67 81 68 82 76 83 69 84 70 85 74 86 77 87 71 88
REMARK SMILES IDX 72 89 75 90 73 91 52 92 53 93 61 94 54 95 55 96 59 97 62 98
REMARK SMILES IDX 56 99 57 100 60 101 58 102
REMARK H PARENT 16 6 12 9 23 36 82 55 50 66
REMARK Flexibility Score: inf
ROOT
ATOM      1  C   UNL A   1      33.172  28.474  27.049  1.00  0.00     0.021 C 
ENDROOT
BRANCH   1   2
ATOM      2  C   UNL A   1      33.930  28.056  25.779  1.00  0.00     0.116 C 
BRANCH   2   3
ATOM      3  N   UNL A   1      33.547  28.922  24.678  1.00  0.00    -0.354 N 
ATOM      4  C   UNL A   1      32.568  28.662  23.749  1.00  0.00     0.243 C 
ATOM      5  O   UNL A   1      32.812  29.005  22.586  1.00  0.00    -0.273 OA
ATOM      6  H   UNL A   1      34.033  29.774  24.589  1.00  0.00     0.163 HD
BRANCH   4   7
ATOM      7  C   UNL A   1      31.223  27.972  24.170  1.00  0.00     0.190 C 
BRANCH   7   8
ATOM      8  N   UNL A   1      31.240  26.560  23.637  1.00  0.00    -0.238 NA
ATOM      9  H   UNL A   1      30.319  26.142  23.775  1.00  0.00     0.143 HD
BRANCH   8  10
ATOM     10  N   UNL A   1      32.245  25.742  24.325  1.00  0.00    -0.240 NA
ATOM     11  C   UNL A   1      32.399  21.593  24.427  1.00  0.00     0.410 C 
ATOM     12  O   UNL A   1      31.726  20.942  25.210  1.00  0.00    -0.224 OA
ATOM     13  N   UNL A   1      32.022  22.839  23.977  1.00  0.00    -0.306 N 
ATOM     14  C   UNL A   1      30.993  23.558  24.698  1.00  0.00     0.140 C 
ATOM     15  C   UNL A   1      32.627  23.608  22.896  1.00  0.00     0.140 C 
ATOM     16  C   UNL A   1      31.616  24.819  25.305  1.00  0.00     0.124 C 
ATOM     17  C   UNL A   1      33.115  24.995  23.377  1.00  0.00     0.124 C 
BRANCH  11  18
ATOM     18  O   UNL A   1      33.615  21.209  23.957  1.00  0.00    -0.444 OA
BRANCH  18  19
ATOM     19  C   UNL A   1      34.787  21.343  24.809  1.00  0.00     0.106 C 
ATOM     20  C   UNL A   1      35.737  22.268  24.033  1.00  0.00     0.056 C 
ATOM     21  C   UNL A   1      35.448  19.974  24.987  1.00  0.00     0.056 C 
ATOM     22  C   UNL A   1      34.492  22.012  26.163  1.00  0.00     0.056 C 
ENDBRANCH  18  19
ENDBRANCH  11  18
ENDBRANCH   8  10
ENDBRANCH   7   8
BRANCH   7  23
ATOM     23  C   UNL A   1      29.955  28.721  23.690  1.00  0.00    -0.002 A 
ATOM     24  C   UNL A   1      29.936  30.123  23.519  1.00  0.00     0.007 A 
ATOM     25  C   UNL A   1      28.733  28.056  23.455  1.00  0.00     0.046 A 
ATOM     26  C   UNL A   1      28.804  30.804  23.054  1.00  0.00     0.000 A 
ATOM     27  C   UNL A   1      27.606  28.735  22.962  1.00  0.00     0.021 A 
ATOM     28  Cl  UNL A   1      28.470  26.392  23.827  1.00  0.00    -0.084 Cl
ATOM     29  C   UNL A   1      27.644  30.107  22.752  1.00  0.00     0.002 A 
ENDBRANCH   7  23
ENDBRANCH   4   7
ENDBRANCH   2   3
ENDBRANCH   1   2
BRANCH   1  30
ATOM     30  C   UNL A   1      33.062  29.991  27.229  1.00  0.00     0.002 C 
BRANCH  30  31
ATOM     31  C   UNL A   1      31.683  30.569  26.892  1.00  0.00     0.002 C 
BRANCH  31  32
ATOM     32  C   UNL A   1      31.627  32.095  26.763  1.00  0.00     0.021 C 
BRANCH  32  33
ATOM     33  C   UNL A   1      32.848  32.830  27.313  1.00  0.00     0.116 C 
BRANCH  33  34
ATOM     34  N   UNL A   1      32.545  34.216  27.638  1.00  0.00    -0.352 N 
ATOM     35  C   UNL A   1      33.049  35.010  28.638  1.00  0.00     0.251 C 
ATOM     36  H   UNL A   1      31.881  34.649  27.054  1.00  0.00     0.163 HD
ATOM     37  O   UNL A   1      32.512  36.078  28.916  1.00  0.00    -0.269 OA
BRANCH  35  38
ATOM     38  C   UNL A   1      34.239  34.569  29.395  1.00  0.00     0.039 A 
ATOM     39  C   UNL A   1      34.076  34.079  30.693  1.00  0.00     0.014 A 
ATOM     40  C   UNL A   1      35.510  34.640  28.821  1.00  0.00     0.014 A 
ATOM     41  C   UNL A   1      35.180  33.579  31.387  1.00  0.00     0.010 A 
ATOM     42  C   UNL A   1      36.600  34.091  29.490  1.00  0.00     0.010 A 
ATOM     43  C   UNL A   1      36.442  33.540  30.771  1.00  0.00    -0.014 A 
BRANCH  43  44
ATOM     44  C   UNL A   1      37.601  32.877  31.418  1.00  0.00     0.031 A 
ATOM     45  C   UNL A   1      38.255  31.691  30.773  1.00  0.00     0.074 A 
ATOM     46  C   UNL A   1      37.993  33.287  32.639  1.00  0.00     0.049 A 
ATOM     47  N   UNL A   1      39.190  30.905  31.244  1.00  0.00    -0.248 NA
ATOM     48  C   UNL A   1      37.781  31.325  29.430  1.00  0.00     0.031 C 
ATOM     49  C   UNL A   1      37.407  34.403  33.384  1.00  0.00     0.029 A 
ATOM     50  N   UNL A   1      38.961  32.800  33.481  1.00  0.00    -0.354 N 
ATOM     51  C   UNL A   1      39.407  29.947  30.262  1.00  0.00     0.074 A 
ATOM     52  C   UNL A   1      38.479  30.225  29.187  1.00  0.00     0.031 C 
ATOM     53  C   UNL A   1      38.030  34.519  34.567  1.00  0.00     0.029 A 
ATOM     54  C   UNL A   1      39.027  33.460  34.683  1.00  0.00     0.049 A 
ATOM     55  H   UNL A   1      39.553  32.048  33.246  1.00  0.00     0.167 HD
ATOM     56  C   UNL A   1      40.312  28.940  30.257  1.00  0.00     0.037 A 
ATOM     57  C   UNL A   1      39.788  33.223  35.769  1.00  0.00     0.037 A 
ATOM     58  C   UNL A   1      41.246  28.681  31.321  1.00  0.00     0.049 A 
ATOM     59  C   UNL A   1      40.757  32.073  35.749  1.00  0.00     0.074 A 
ATOM     60  C   UNL A   1      42.255  27.735  31.374  1.00  0.00     0.029 A 
ATOM     61  N   UNL A   1      41.280  29.368  32.526  1.00  0.00    -0.354 N 
ATOM     62  N   UNL A   1      41.003  31.217  34.788  1.00  0.00    -0.248 NA
ATOM     63  C   UNL A   1      41.548  31.852  36.968  1.00  0.00     0.031 C 
ATOM     64  C   UNL A   1      42.866  27.816  32.629  1.00  0.00     0.029 A 
ATOM     65  C   UNL A   1      42.268  28.841  33.343  1.00  0.00     0.049 A 
ATOM     66  H   UNL A   1      40.689  30.119  32.765  1.00  0.00     0.167 HD
ATOM     67  C   UNL A   1      41.984  30.366  35.278  1.00  0.00     0.074 A 
ATOM     68  C   UNL A   1      42.303  30.822  36.615  1.00  0.00     0.031 C 
ATOM     69  C   UNL A   1      42.565  29.300  34.676  1.00  0.00     0.037 A 
BRANCH  56  70
ATOM     70  C   UNL A   1      40.341  28.036  29.058  1.00  0.00     0.064 A 
ATOM     71  C   UNL A   1      39.596  26.849  29.016  1.00  0.00     0.173 A 
ATOM     72  C   UNL A   1      41.082  28.388  27.920  1.00  0.00     0.173 A 
ATOM     73  F   UNL A   1      38.879  26.464  30.082  1.00  0.00    -0.203 F 
ATOM     74  C   UNL A   1      39.610  26.034  27.887  1.00  0.00     0.198 A 
ATOM     75  C   UNL A   1      41.073  27.585  26.782  1.00  0.00     0.198 A 
ATOM     76  F   UNL A   1      41.807  29.517  27.906  1.00  0.00    -0.203 F 
ATOM     77  F   UNL A   1      38.923  24.884  27.884  1.00  0.00    -0.200 F 
ATOM     78  C   UNL A   1      40.342  26.406  26.768  1.00  0.00     0.200 A 
ATOM     79  F   UNL A   1      41.771  27.952  25.699  1.00  0.00    -0.200 F 
ATOM     80  F   UNL A   1      40.348  25.626  25.679  1.00  0.00    -0.200 F 
ENDBRANCH  56  70
BRANCH  57  81
ATOM     81  C   UNL A   1      39.659  34.091  36.968  1.00  0.00     0.064 A 
ATOM     82  C   UNL A   1      38.846  33.710  38.045  1.00  0.00     0.173 A 
ATOM     83  C   UNL A   1      40.342  35.311  37.065  1.00  0.00     0.173 A 
ATOM     84  F   UNL A   1      38.155  32.562  37.989  1.00  0.00    -0.203 F 
ATOM     85  C   UNL A   1      38.711  34.525  39.166  1.00  0.00     0.198 A 
ATOM     86  C   UNL A   1      40.228  36.112  38.199  1.00  0.00     0.198 A 
ATOM     87  F   UNL A   1      41.135  35.718  36.063  1.00  0.00    -0.203 F 
ATOM     88  F   UNL A   1      37.895  34.157  40.165  1.00  0.00    -0.200 F 
ATOM     89  C   UNL A   1      39.405  35.723  39.245  1.00  0.00     0.200 A 
ATOM     90  F   UNL A   1      40.912  37.261  38.278  1.00  0.00    -0.200 F 
ATOM     91  F   UNL A   1      39.279  36.503  40.327  1.00  0.00    -0.200 F 
ENDBRANCH  57  81
BRANCH  69  92
ATOM     92  C   UNL A   1      43.605  28.554  35.457  1.00  0.00     0.064 A 
ATOM     93  C   UNL A   1      43.252  27.525  36.342  1.00  0.00     0.173 A 
ATOM     94  C   UNL A   1      44.968  28.837  35.286  1.00  0.00     0.173 A 
ATOM     95  F   UNL A   1      41.960  27.230  36.553  1.00  0.00    -0.203 F 
ATOM     96  C   UNL A   1      44.226  26.817  37.041  1.00  0.00     0.198 A 
ATOM     97  C   UNL A   1      45.941  28.110  35.966  1.00  0.00     0.198 A 
ATOM     98  F   UNL A   1      45.356  29.810  34.448  1.00  0.00    -0.203 F 
ATOM     99  F   UNL A   1      43.865  25.865  37.911  1.00  0.00    -0.200 F 
ATOM    100  C   UNL A   1      45.569  27.105  36.846  1.00  0.00     0.200 A 
ATOM    101  F   UNL A   1      47.238  28.381  35.769  1.00  0.00    -0.200 F 
ATOM    102  F   UNL A   1      46.506  26.416  37.512  1.00  0.00    -0.200 F 
ENDBRANCH  69  92
ENDBRANCH  43  44
ENDBRANCH  35  38
ENDBRANCH  33  34
ENDBRANCH  32  33
ENDBRANCH  31  32
ENDBRANCH  30  31
ENDBRANCH   1  30
TORSDOF 18
ENDMDL
MODEL 2
REMARK VINA RESULT:     -12.5      0.874      2.262
REMARK SMILES CC(C)(C)OC(=O)N1CCN(N[C@@H](C(=O)NCCCCCCNC(=O)c2ccc(-c3c4nc(c(-c5c(F)c(F)c(F)c(F)c5F)c5ccc([nH]5)c(-c5c(F)c(F)c(F)c(F)c5F)c5nc(c(-c6c(F)c(F)c(F)c(F)c6F)c6ccc3[nH]6)C=C5)C=C4)cc2)c2ccccc2Cl)CC1
REMARK SMILES IDX 18 1 17 2 16 3 14 4 15 5 13 7 12 8 11 10 6 11 7 12 8 13 9 14
REMARK SMILES IDX 97 15 10 16 96 17 5 18 2 19 1 20 3 21 4 22 89 23 90 24 94 25
REMARK SMILES IDX 91 26 93 27 95 28 92 29 19 30 20 31 21 32 22 33 23 34 24 35
REMARK SMILES IDX 25 37 26 38 27 39 88 40 28 41 87 42 29 43 30 44 31 45 81 46
REMARK SMILES IDX 32 47 86 48 80 49 82 50 33 51 85 52 79 53 78 54 34 56 66 57
REMARK SMILES IDX 46 58 65 59 47 60 50 61 64 62 83 63 48 64 49 65 63 67 84 68
REMARK SMILES IDX 51 69 35 70 36 71 44 72 37 73 38 74 42 75 45 76 39 77 40 78
REMARK SMILES IDX 43 79 41 80 67 81 68 82 76 83 69 84 70 85 74 86 77 87 71 88
REMARK SMILES IDX 72 89 75 90 73 91 52 92 53 93 61 94 54 95 55 96 59 97 62 98
REMARK SMILES IDX 56 99 57 100 60 101 58 102
REMARK H PARENT 16 6 12 9 23 36 82 55 50 66
REMARK Flexibility Score: inf
ROOT
ATOM      1  C   UNL A   1      31.788  29.424  26.264  1.00  0.00     0.021 C 
ENDROOT
BRANCH   1   2
ATOM      2  C   UNL A   1      32.646  28.420  25.479  1.00  0.00     0.116 C 
BRANCH   2   3
ATOM      3  N   UNL A   1      32.975  28.974  24.178  1.00  0.00    -0.354 N 
ATOM      4  C   UNL A   1      32.724  28.385  22.963  1.00  0.00     0.243 C 
ATOM      5  O   UNL A   1      33.600  28.516  22.100  1.00  0.00    -0.273 OA
ATOM      6  H   UNL A   1      33.418  29.853  24.166  1.00  0.00     0.163 HD
BRANCH   4   7
ATOM      7  C   UNL A   1      31.390  27.599  22.710  1.00  0.00     0.190 C 
BRANCH   7   8
ATOM      8  N   UNL A   1      31.584  26.734  21.489  1.00  0.00    -0.238 NA
ATOM      9  H   UNL A   1      30.827  26.915  20.830  1.00  0.00     0.143 HD
BRANCH   8  10
ATOM     10  N   UNL A   1      31.585  25.310  21.839  1.00  0.00    -0.240 NA
ATOM     11  C   UNL A   1      34.221  23.405  24.421  1.00  0.00     0.410 C 
ATOM     12  O   UNL A   1      35.328  23.039  24.059  1.00  0.00    -0.224 OA
ATOM     13  N   UNL A   1      33.556  24.459  23.836  1.00  0.00    -0.306 N 
ATOM     14  C   UNL A   1      34.001  24.932  22.542  1.00  0.00     0.140 C 
ATOM     15  C   UNL A   1      32.344  25.113  24.315  1.00  0.00     0.140 C 
ATOM     16  C   UNL A   1      32.889  24.672  21.521  1.00  0.00     0.124 C 
ATOM     17  C   UNL A   1      31.213  25.073  23.260  1.00  0.00     0.124 C 
BRANCH  11  18
ATOM     18  O   UNL A   1      33.489  22.791  25.387  1.00  0.00    -0.444 OA
BRANCH  18  19
ATOM     19  C   UNL A   1      32.697  21.617  25.049  1.00  0.00     0.106 C 
ATOM     20  C   UNL A   1      31.305  21.896  25.634  1.00  0.00     0.056 C 
ATOM     21  C   UNL A   1      33.295  20.384  25.732  1.00  0.00     0.056 C 
ATOM     22  C   UNL A   1      32.529  21.403  23.534  1.00  0.00     0.056 C 
ENDBRANCH  18  19
ENDBRANCH  11  18
ENDBRANCH   8  10
ENDBRANCH   7   8
BRANCH   7  23
ATOM     23  C   UNL A   1      30.146  28.508  22.542  1.00  0.00    -0.002 A 
ATOM     24  C   UNL A   1      30.228  29.778  21.929  1.00  0.00     0.007 A 
ATOM     25  C   UNL A   1      28.877  28.146  23.042  1.00  0.00     0.046 A 
ATOM     26  C   UNL A   1      29.103  30.592  21.744  1.00  0.00     0.000 A 
ATOM     27  C   UNL A   1      27.745  28.950  22.832  1.00  0.00     0.021 A 
ATOM     28  Cl  UNL A   1      28.605  26.755  24.025  1.00  0.00    -0.084 Cl
ATOM     29  C   UNL A   1      27.855  30.167  22.174  1.00  0.00     0.002 A 
ENDBRANCH   7  23
ENDBRANCH   4   7
ENDBRANCH   2   3
ENDBRANCH   1   2
BRANCH   1  30
ATOM     30  C   UNL A   1      31.044  30.425  25.375  1.00  0.00     0.002 C 
BRANCH  30  31
ATOM     31  C   UNL A   1      30.978  31.847  25.943  1.00  0.00     0.002 C 
BRANCH  31  32
ATOM     32  C   UNL A   1      31.659  32.041  27.302  1.00  0.00     0.021 C 
BRANCH  32  33
ATOM     33  C   UNL A   1      32.893  32.942  27.278  1.00  0.00     0.116 C 
BRANCH  33  34
ATOM     34  N   UNL A   1      32.572  34.311  27.653  1.00  0.00    -0.352 N 
ATOM     35  C   UNL A   1      33.058  35.072  28.687  1.00  0.00     0.251 C 
ATOM     36  H   UNL A   1      31.907  34.759  27.080  1.00  0.00     0.163 HD
ATOM     37  O   UNL A   1      32.507  36.123  29.001  1.00  0.00    -0.269 OA
BRANCH  35  38
ATOM     38  C   UNL A   1      34.246  34.615  29.437  1.00  0.00     0.039 A 
ATOM     39  C   UNL A   1      34.077  34.067  30.711  1.00  0.00     0.014 A 
ATOM     40  C   UNL A   1      35.523  34.730  28.880  1.00  0.00     0.014 A 
ATOM     41  C   UNL A   1      35.182  33.553  31.394  1.00  0.00     0.010 A 
ATOM     42  C   UNL A   1      36.614  34.167  29.536  1.00  0.00     0.010 A 
ATOM     43  C   UNL A   1      36.450  33.559  30.790  1.00  0.00    -0.014 A 
BRANCH  43  44
ATOM     44  C   UNL A   1      37.612  32.884  31.421  1.00  0.00     0.031 A 
ATOM     45  C   UNL A   1      38.245  31.691  30.766  1.00  0.00     0.074 A 
ATOM     46  C   UNL A   1      38.027  33.292  32.635  1.00  0.00     0.049 A 
ATOM     47  N   UNL A   1      39.178  30.897  31.224  1.00  0.00    -0.248 NA
ATOM     48  C   UNL A   1      37.747  31.330  29.431  1.00  0.00     0.031 C 
ATOM     49  C   UNL A   1      37.464  34.414  33.388  1.00  0.00     0.029 A 
ATOM     50  N   UNL A   1      39.003  32.795  33.463  1.00  0.00    -0.354 N 
ATOM     51  C   UNL A   1      39.372  29.936  30.240  1.00  0.00     0.074 A 
ATOM     52  C   UNL A   1      38.431  30.222  29.179  1.00  0.00     0.031 C 
ATOM     53  C   UNL A   1      38.105  34.525  34.562  1.00  0.00     0.029 A 
ATOM     54  C   UNL A   1      39.093  33.455  34.664  1.00  0.00     0.049 A 
ATOM     55  H   UNL A   1      39.583  32.038  33.219  1.00  0.00     0.167 HD
ATOM     56  C   UNL A   1      40.267  28.920  30.222  1.00  0.00     0.037 A 
ATOM     57  C   UNL A   1      39.868  33.212  35.738  1.00  0.00     0.037 A 
ATOM     58  C   UNL A   1      41.214  28.652  31.272  1.00  0.00     0.049 A 
ATOM     59  C   UNL A   1      40.825  32.052  35.705  1.00  0.00     0.074 A 
ATOM     60  C   UNL A   1      42.214  27.696  31.311  1.00  0.00     0.029 A 
ATOM     61  N   UNL A   1      41.272  29.340  32.476  1.00  0.00    -0.354 N 
ATOM     62  N   UNL A   1      41.048  31.193  34.740  1.00  0.00    -0.248 NA
ATOM     63  C   UNL A   1      41.632  31.825  36.912  1.00  0.00     0.031 C 
ATOM     64  C   UNL A   1      42.844  27.772  32.557  1.00  0.00     0.029 A 
ATOM     65  C   UNL A   1      42.267  28.804  33.279  1.00  0.00     0.049 A 
ATOM     66  H   UNL A   1      40.693  30.097  32.723  1.00  0.00     0.167 HD
ATOM     67  C   UNL A   1      42.028  30.333  35.217  1.00  0.00     0.074 A 
ATOM     68  C   UNL A   1      42.371  30.786  36.549  1.00  0.00     0.031 C 
ATOM     69  C   UNL A   1      42.589  29.261  34.607  1.00  0.00     0.037 A 
BRANCH  56  70
ATOM     70  C   UNL A   1      40.268  28.015  29.024  1.00  0.00     0.064 A 
ATOM     71  C   UNL A   1      41.010  28.321  27.874  1.00  0.00     0.173 A 
ATOM     72  C   UNL A   1      39.558  26.805  29.046  1.00  0.00     0.173 A 
ATOM     73  F   UNL A   1      41.698  29.471  27.801  1.00  0.00    -0.203 F 
ATOM     74  C   UNL A   1      41.025  27.459  26.781  1.00  0.00     0.198 A 
ATOM     75  C   UNL A   1      39.596  25.932  27.961  1.00  0.00     0.198 A 
ATOM     76  F   UNL A   1      38.837  26.462  30.124  1.00  0.00    -0.203 F 
ATOM     77  F   UNL A   1      41.709  27.791  25.677  1.00  0.00    -0.200 F 
ATOM     78  C   UNL A   1      40.324  26.262  26.827  1.00  0.00     0.200 A 
ATOM     79  F   UNL A   1      38.929  24.772  28.013  1.00  0.00    -0.200 F 
ATOM     80  F   UNL A   1      40.346  25.430  25.777  1.00  0.00    -0.200 F 
ENDBRANCH  56  70
BRANCH  57  81
ATOM     81  C   UNL A   1      39.765  34.082  36.938  1.00  0.00     0.064 A 
ATOM     82  C   UNL A   1      40.494  35.276  37.023  1.00  0.00     0.173 A 
ATOM     83  C   UNL A   1      38.941  33.741  38.020  1.00  0.00     0.173 A 
ATOM     84  F   UNL A   1      41.313  35.632  36.023  1.00  0.00    -0.203 F 
ATOM     85  C   UNL A   1      40.412  36.089  38.151  1.00  0.00     0.198 A 
ATOM     86  C   UNL A   1      38.839  34.569  39.136  1.00  0.00     0.198 A 
ATOM     87  F   UNL A   1      38.221  32.610  37.985  1.00  0.00    -0.203 F 
ATOM     88  F   UNL A   1      41.151  37.205  38.224  1.00  0.00    -0.200 F 
ATOM     89  C   UNL A   1      39.581  35.738  39.204  1.00  0.00     0.200 A 
ATOM     90  F   UNL A   1      38.023  34.234  40.145  1.00  0.00    -0.200 F 
ATOM     91  F   UNL A   1      39.499  36.524  40.286  1.00  0.00    -0.200 F 
ENDBRANCH  57  81
BRANCH  69  92
ATOM     92  C   UNL A   1      43.633  28.505  35.372  1.00  0.00     0.064 A 
ATOM     93  C   UNL A   1      44.990  28.847  35.285  1.00  0.00     0.173 A 
ATOM     94  C   UNL A   1      43.271  27.460  36.236  1.00  0.00     0.173 A 
ATOM     95  F   UNL A   1      45.387  29.827  34.459  1.00  0.00    -0.203 F 
ATOM     96  C   UNL A   1      45.950  28.160  36.023  1.00  0.00     0.198 A 
ATOM     97  C   UNL A   1      44.230  26.793  36.992  1.00  0.00     0.198 A 
ATOM     98  F   UNL A   1      41.986  27.098  36.357  1.00  0.00    -0.203 F 
ATOM     99  F   UNL A   1      47.246  28.477  35.895  1.00  0.00    -0.200 F 
ATOM    100  C   UNL A   1      45.568  27.139  36.881  1.00  0.00     0.200 A 
ATOM    101  F   UNL A   1      43.860  25.814  37.829  1.00  0.00    -0.200 F 
ATOM    102  F   UNL A   1      46.492  26.485  37.598  1.00  0.00    -0.200 F 
ENDBRANCH  69  92
ENDBRANCH  43  44
ENDBRANCH  35  38
ENDBRANCH  33  34
ENDBRANCH  32  33
ENDBRANCH  31  32
ENDBRANCH  30  31
ENDBRANCH   1  30
TORSDOF 18
ENDMDL
MODEL 3
REMARK VINA RESULT:     -12.5      1.010      7.094
REMARK SMILES CC(C)(C)OC(=O)N1CCN(N[C@@H](C(=O)NCCCCCCNC(=O)c2ccc(-c3c4nc(c(-c5c(F)c(F)c(F)c(F)c5F)c5ccc([nH]5)c(-c5c(F)c(F)c(F)c(F)c5F)c5nc(c(-c6c(F)c(F)c(F)c(F)c6F)c6ccc3[nH]6)C=C5)C=C4)cc2)c2ccccc2Cl)CC1
REMARK SMILES IDX 18 1 17 2 16 3 14 4 15 5 13 7 12 8 11 10 6 11 7 12 8 13 9 14
REMARK SMILES IDX 97 15 10 16 96 17 5 18 2 19 1 20 3 21 4 22 89 23 90 24 94 25
REMARK SMILES IDX 91 26 93 27 95 28 92 29 19 30 20 31 21 32 22 33 23 34 24 35
REMARK SMILES IDX 25 37 26 38 27 39 88 40 28 41 87 42 29 43 30 44 31 45 81 46
REMARK SMILES IDX 32 47 86 48 80 49 82 50 33 51 85 52 79 53 78 54 34 56 66 57
REMARK SMILES IDX 46 58 65 59 47 60 50 61 64 62 83 63 48 64 49 65 63 67 84 68
REMARK SMILES IDX 51 69 35 70 36 71 44 72 37 73 38 74 42 75 45 76 39 77 40 78
REMARK SMILES IDX 43 79 41 80 67 81 68 82 76 83 69 84 70 85 74 86 77 87 71 88
REMARK SMILES IDX 72 89 75 90 73 91 52 92 53 93 61 94 54 95 55 96 59 97 62 98
REMARK SMILES IDX 56 99 57 100 60 101 58 102
REMARK H PARENT 16 6 12 9 23 36 82 55 50 66
REMARK Flexibility Score: inf
ROOT
ATOM      1  C   UNL A   1      32.484  28.465  26.692  1.00  0.00     0.021 C 
ENDROOT
BRANCH   1   2
ATOM      2  C   UNL A   1      33.941  28.390  26.210  1.00  0.00     0.116 C 
BRANCH   2   3
ATOM      3  N   UNL A   1      34.015  28.803  24.820  1.00  0.00    -0.354 N 
ATOM      4  C   UNL A   1      33.622  28.058  23.734  1.00  0.00     0.243 C 
ATOM      5  O   UNL A   1      34.337  28.137  22.728  1.00  0.00    -0.273 OA
ATOM      6  H   UNL A   1      34.380  29.699  24.639  1.00  0.00     0.163 HD
BRANCH   4   7
ATOM      7  C   UNL A   1      32.330  27.169  23.794  1.00  0.00     0.190 C 
BRANCH   7   8
ATOM      8  N   UNL A   1      32.583  25.927  22.976  1.00  0.00    -0.238 NA
ATOM      9  H   UNL A   1      31.688  25.503  22.729  1.00  0.00     0.143 HD
BRANCH   8  10
ATOM     10  N   UNL A   1      33.385  24.951  23.723  1.00  0.00    -0.240 NA
ATOM     11  C   UNL A   1      32.343  21.016  24.546  1.00  0.00     0.410 C 
ATOM     12  O   UNL A   1      31.611  20.724  25.479  1.00  0.00    -0.224 OA
ATOM     13  N   UNL A   1      32.290  22.237  23.912  1.00  0.00    -0.306 N 
ATOM     14  C   UNL A   1      31.609  23.335  24.567  1.00  0.00     0.140 C 
ATOM     15  C   UNL A   1      32.955  22.616  22.671  1.00  0.00     0.140 C 
ATOM     16  C   UNL A   1      32.641  24.419  24.894  1.00  0.00     0.124 C 
ATOM     17  C   UNL A   1      33.879  23.843  22.862  1.00  0.00     0.124 C 
BRANCH  11  18
ATOM     18  O   UNL A   1      33.328  20.214  24.065  1.00  0.00    -0.444 OA
BRANCH  18  19
ATOM     19  C   UNL A   1      33.238  18.774  24.257  1.00  0.00     0.106 C 
ATOM     20  C   UNL A   1      34.693  18.283  24.263  1.00  0.00     0.056 C 
ATOM     21  C   UNL A   1      32.498  18.147  23.072  1.00  0.00     0.056 C 
ATOM     22  C   UNL A   1      32.607  18.370  25.601  1.00  0.00     0.056 C 
ENDBRANCH  18  19
ENDBRANCH  11  18
ENDBRANCH   8  10
ENDBRANCH   7   8
BRANCH   7  23
ATOM     23  C   UNL A   1      31.047  27.890  23.307  1.00  0.00    -0.002 A 
ATOM     24  C   UNL A   1      31.103  29.059  22.515  1.00  0.00     0.007 A 
ATOM     25  C   UNL A   1      29.756  27.456  23.675  1.00  0.00     0.046 A 
ATOM     26  C   UNL A   1      29.949  29.697  22.045  1.00  0.00     0.000 A 
ATOM     27  C   UNL A   1      28.600  28.081  23.180  1.00  0.00     0.021 A 
ATOM     28  Cl  UNL A   1      29.466  26.200  24.821  1.00  0.00    -0.084 Cl
ATOM     29  C   UNL A   1      28.695  29.194  22.356  1.00  0.00     0.002 A 
ENDBRANCH   7  23
ENDBRANCH   4   7
ENDBRANCH   2   3
ENDBRANCH   1   2
BRANCH   1  30
ATOM     30  C   UNL A   1      32.078  29.849  27.208  1.00  0.00     0.002 C 
BRANCH  30  31
ATOM     31  C   UNL A   1      31.506  30.782  26.135  1.00  0.00     0.002 C 
BRANCH  31  32
ATOM     32  C   UNL A   1      31.393  32.255  26.542  1.00  0.00     0.021 C 
BRANCH  32  33
ATOM     33  C   UNL A   1      32.626  32.822  27.244  1.00  0.00     0.116 C 
BRANCH  33  34
ATOM     34  N   UNL A   1      32.460  34.230  27.577  1.00  0.00    -0.352 N 
ATOM     35  C   UNL A   1      33.028  34.963  28.589  1.00  0.00     0.251 C 
ATOM     36  H   UNL A   1      31.850  34.732  26.987  1.00  0.00     0.163 HD
ATOM     37  O   UNL A   1      32.598  36.077  28.869  1.00  0.00    -0.269 OA
BRANCH  35  38
ATOM     38  C   UNL A   1      34.156  34.398  29.358  1.00  0.00     0.039 A 
ATOM     39  C   UNL A   1      33.900  33.764  30.576  1.00  0.00     0.014 A 
ATOM     40  C   UNL A   1      35.463  34.497  28.873  1.00  0.00     0.014 A 
ATOM     41  C   UNL A   1      34.946  33.152  31.269  1.00  0.00     0.010 A 
ATOM     42  C   UNL A   1      36.495  33.839  29.536  1.00  0.00     0.010 A 
ATOM     43  C   UNL A   1      36.243  33.146  30.730  1.00  0.00    -0.014 A 
BRANCH  43  44
ATOM     44  C   UNL A   1      37.343  32.375  31.361  1.00  0.00     0.031 A 
ATOM     45  C   UNL A   1      37.866  32.766  32.712  1.00  0.00     0.074 A 
ATOM     46  C   UNL A   1      37.933  31.384  30.665  1.00  0.00     0.049 A 
ATOM     47  N   UNL A   1      38.898  32.297  33.365  1.00  0.00    -0.248 NA
ATOM     48  C   UNL A   1      37.147  33.841  33.412  1.00  0.00     0.031 C 
ATOM     49  C   UNL A   1      37.538  30.941  29.327  1.00  0.00     0.029 A 
ATOM     50  N   UNL A   1      39.006  30.587  30.975  1.00  0.00    -0.354 N 
ATOM     51  C   UNL A   1      38.961  33.026  34.545  1.00  0.00     0.074 A 
ATOM     52  C   UNL A   1      37.888  33.995  34.501  1.00  0.00     0.031 C 
ATOM     53  C   UNL A   1      38.352  29.949  28.933  1.00  0.00     0.029 A 
ATOM     54  C   UNL A   1      39.352  29.718  29.970  1.00  0.00     0.049 A 
ATOM     55  H   UNL A   1      39.483  30.634  31.835  1.00  0.00     0.167 HD
ATOM     56  C   UNL A   1      39.827  32.883  35.577  1.00  0.00     0.037 A 
ATOM     57  C   UNL A   1      40.376  28.847  29.883  1.00  0.00     0.037 A 
ATOM     58  C   UNL A   1      40.880  31.903  35.623  1.00  0.00     0.049 A 
ATOM     59  C   UNL A   1      41.346  28.738  31.027  1.00  0.00     0.074 A 
ATOM     60  C   UNL A   1      41.759  31.627  36.657  1.00  0.00     0.029 A 
ATOM     61  N   UNL A   1      41.204  31.042  34.584  1.00  0.00    -0.354 N 
ATOM     62  N   UNL A   1      41.353  29.383  32.168  1.00  0.00    -0.248 NA
ATOM     63  C   UNL A   1      42.453  27.784  30.869  1.00  0.00     0.031 C 
ATOM     64  C   UNL A   1      42.645  30.635  36.226  1.00  0.00     0.029 A 
ATOM     65  C   UNL A   1      42.292  30.260  34.939  1.00  0.00     0.049 A 
ATOM     66  H   UNL A   1      40.730  30.994  33.723  1.00  0.00     0.167 HD
ATOM     67  C   UNL A   1      42.453  28.907  32.868  1.00  0.00     0.074 A 
ATOM     68  C   UNL A   1      43.078  27.903  32.032  1.00  0.00     0.031 C 
ATOM     69  C   UNL A   1      42.908  29.273  34.091  1.00  0.00     0.037 A 
BRANCH  56  70
ATOM     70  C   UNL A   1      39.674  33.810  36.747  1.00  0.00     0.064 A 
ATOM     71  C   UNL A   1      38.854  33.486  37.837  1.00  0.00     0.173 A 
ATOM     72  C   UNL A   1      40.395  35.013  36.801  1.00  0.00     0.173 A 
ATOM     73  F   UNL A   1      38.137  32.353  37.829  1.00  0.00    -0.203 F 
ATOM     74  C   UNL A   1      38.743  34.343  38.930  1.00  0.00     0.198 A 
ATOM     75  C   UNL A   1      40.303  35.855  37.907  1.00  0.00     0.198 A 
ATOM     76  F   UNL A   1      41.199  35.367  35.787  1.00  0.00    -0.203 F 
ATOM     77  F   UNL A   1      37.922  34.033  39.942  1.00  0.00    -0.200 F 
ATOM     78  C   UNL A   1      39.473  35.523  38.967  1.00  0.00     0.200 A 
ATOM     79  F   UNL A   1      41.017  36.988  37.946  1.00  0.00    -0.200 F 
ATOM     80  F   UNL A   1      39.371  36.342  40.023  1.00  0.00    -0.200 F 
ENDBRANCH  56  70
BRANCH  57  81
ATOM     81  C   UNL A   1      40.540  28.014  28.663  1.00  0.00     0.064 A 
ATOM     82  C   UNL A   1      41.331  28.456  27.594  1.00  0.00     0.173 A 
ATOM     83  C   UNL A   1      39.914  26.766  28.542  1.00  0.00     0.173 A 
ATOM     84  F   UNL A   1      41.931  29.654  27.655  1.00  0.00    -0.203 F 
ATOM     85  C   UNL A   1      41.478  27.686  26.443  1.00  0.00     0.198 A 
ATOM     86  C   UNL A   1      40.083  25.984  27.401  1.00  0.00     0.198 A 
ATOM     87  F   UNL A   1      39.149  26.298  29.539  1.00  0.00    -0.203 F 
ATOM     88  F   UNL A   1      42.207  28.149  25.418  1.00  0.00    -0.200 F 
ATOM     89  C   UNL A   1      40.858  26.448  26.349  1.00  0.00     0.200 A 
ATOM     90  F   UNL A   1      39.496  24.783  27.320  1.00  0.00    -0.200 F 
ATOM     91  F   UNL A   1      41.005  25.706  25.244  1.00  0.00    -0.200 F 
ENDBRANCH  57  81
BRANCH  69  92
ATOM     92  C   UNL A   1      44.137  28.582  34.600  1.00  0.00     0.064 A 
ATOM     93  C   UNL A   1      44.052  27.391  35.335  1.00  0.00     0.173 A 
ATOM     94  C   UNL A   1      45.413  29.089  34.312  1.00  0.00     0.173 A 
ATOM     95  F   UNL A   1      42.854  26.877  35.650  1.00  0.00    -0.203 F 
ATOM     96  C   UNL A   1      45.200  26.740  35.778  1.00  0.00     0.198 A 
ATOM     97  C   UNL A   1      46.560  28.422  34.734  1.00  0.00     0.198 A 
ATOM     98  F   UNL A   1      45.547  30.224  33.610  1.00  0.00    -0.203 F 
ATOM     99  F   UNL A   1      45.096  25.624  36.512  1.00  0.00    -0.200 F 
ATOM    100  C   UNL A   1      46.453  27.252  35.470  1.00  0.00     0.200 A 
ATOM    101  F   UNL A   1      47.769  28.911  34.427  1.00  0.00    -0.200 F 
ATOM    102  F   UNL A   1      47.557  26.619  35.889  1.00  0.00    -0.200 F 
ENDBRANCH  69  92
ENDBRANCH  43  44
ENDBRANCH  35  38
ENDBRANCH  33  34
ENDBRANCH  32  33
ENDBRANCH  31  32
ENDBRANCH  30  31
ENDBRANCH   1  30
TORSDOF 18
ENDMDL
