MODEL 1
REMARK VINA RESULT:     -13.3      0.000      0.000
REMARK SMILES O=C(NCCCCCCNC(=O)c1ccc(-c2c3nc(c(-c4c(F)c(F)c(F)c(F)c4F)c4ccc([nH]4)c(-c4c(F)c(F)c(F)c(F)c4F)c4nc(c(-c5c(F)c(F)c(F)c(F)c5F)c5ccc2[nH]5)C=C4)C=C3)cc1)C1=Cc2cc(S(F)(F)(F)(F)F)cc(Br)c2O[C@@H]1C(F)(F)F
REMARK SMILES IDX 7 1 6 2 5 3 4 4 3 5 1 6 2 7 76 9 77 10 92 11 78 12 91 13
REMARK SMILES IDX 79 14 90 15 80 16 88 17 87 18 89 19 93 20 94 21 95 22 96 23
REMARK SMILES IDX 81 24 82 25 83 26 84 27 85 28 86 29 8 30 9 31 10 32 11 33
REMARK SMILES IDX 12 35 13 36 14 37 75 38 15 39 74 40 16 41 17 42 18 43 68 44
REMARK SMILES IDX 19 45 73 46 67 47 69 48 20 49 72 50 66 51 65 52 21 54 53 55
REMARK SMILES IDX 33 56 52 57 34 58 37 59 51 60 70 61 35 62 36 63 50 65 71 66
REMARK SMILES IDX 38 67 22 68 23 69 31 70 24 71 25 72 29 73 32 74 26 75 27 76
REMARK SMILES IDX 30 77 28 78 54 79 55 80 63 81 56 82 57 83 61 84 64 85 58 86
REMARK SMILES IDX 59 87 62 88 60 89 39 90 40 91 48 92 41 93 42 94 46 95 49 96
REMARK SMILES IDX 43 97 44 98 47 99 45 100
REMARK H PARENT 3 8 10 34 69 53 37 64
REMARK Flexibility Score: inf
ROOT
ATOM      1  C   UNL A   1      31.784  30.972  26.273  1.00  0.00     0.002 C 
ENDROOT
BRANCH   1   2
ATOM      2  C   UNL A   1      32.737  30.304  27.251  1.00  0.00     0.002 C 
BRANCH   2   3
ATOM      3  C   UNL A   1      33.981  29.842  26.510  1.00  0.00     0.021 C 
BRANCH   3   4
ATOM      4  C   UNL A   1      33.904  28.341  26.276  1.00  0.00     0.116 C 
BRANCH   4   5
ATOM      5  N   UNL A   1      32.822  27.773  27.093  1.00  0.00    -0.352 N 
ATOM      6  O   UNL A   1      30.672  26.766  27.154  1.00  0.00    -0.270 OA
ATOM      7  C   UNL A   1      31.607  27.257  26.448  1.00  0.00     0.251 C 
ATOM      8  H   UNL A   1      32.912  27.739  28.073  1.00  0.00     0.163 HD
BRANCH   7   9
ATOM      9  C   UNL A   1      31.469  27.310  24.935  1.00  0.00     0.067 C 
ATOM     10  C   UNL A   1      32.139  26.416  24.159  1.00  0.00     0.025 C 
ATOM     11  C   UNL A   1      30.583  28.364  24.289  1.00  0.00     0.314 C 
ATOM     12  C   UNL A   1      33.025  25.364  24.805  1.00  0.00     0.020 A 
ATOM     13  O   UNL A   1      31.369  25.091  26.488  1.00  0.00    -0.474 OA
ATOM     14  C   UNL A   1      34.273  25.104  24.263  1.00  0.00     0.036 A 
ATOM     15  C   UNL A   1      32.580  24.693  25.861  1.00  0.00     0.142 A 
ATOM     16  C   UNL A   1      34.865  23.909  24.734  1.00  0.00     0.109 A 
ATOM     17  C   UNL A   1      33.280  23.618  26.353  1.00  0.00     0.062 A 
ATOM     18  C   UNL A   1      34.493  23.269  25.827  1.00  0.00     0.044 A 
ATOM     19  Br  UNL A   1      32.529  22.570  27.829  1.00  0.00    -0.047 Br
BRANCH  11  20
ATOM     20  C   UNL A   1      29.487  27.681  23.486  1.00  0.00     0.429 C 
ATOM     21  F   UNL A   1      29.986  27.252  22.330  1.00  0.00    -0.167 F 
ATOM     22  F   UNL A   1      29.011  26.648  24.176  1.00  0.00    -0.167 F 
ATOM     23  F   UNL A   1      28.505  28.547  23.251  1.00  0.00    -0.167 F 
ENDBRANCH  11  20
BRANCH  16  24
ATOM     24  S   UNL A   1      36.230  23.209  23.772  1.00  0.00     0.310 S 
ATOM     25  F   UNL A   1      36.170  21.838  24.567  1.00  0.00    -0.094 F 
ATOM     26  F   UNL A   1      37.231  23.725  24.873  1.00  0.00    -0.094 F 
ATOM     27  F   UNL A   1      37.403  22.608  22.947  1.00  0.00    -0.094 F 
ATOM     28  F   UNL A   1      35.201  22.579  22.753  1.00  0.00    -0.094 F 
ATOM     29  F   UNL A   1      35.021  23.716  24.657  1.00  0.00    -0.094 F 
ENDBRANCH  16  24
ENDBRANCH   7   9
ENDBRANCH   4   5
ENDBRANCH   3   4
ENDBRANCH   2   3
ENDBRANCH   1   2
BRANCH   1  30
ATOM     30  C   UNL A   1      31.405  32.347  26.794  1.00  0.00     0.021 C 
BRANCH  30  31
ATOM     31  C   UNL A   1      32.655  33.072  27.267  1.00  0.00     0.116 C 
BRANCH  31  32
ATOM     32  N   UNL A   1      32.301  34.433  27.695  1.00  0.00    -0.352 N 
ATOM     33  C   UNL A   1      33.076  35.097  28.752  1.00  0.00     0.251 C 
ATOM     34  H   UNL A   1      31.543  34.900  27.274  1.00  0.00     0.163 HD
ATOM     35  O   UNL A   1      32.770  36.273  29.122  1.00  0.00    -0.269 OA
BRANCH  33  36
ATOM     36  C   UNL A   1      34.247  34.377  29.403  1.00  0.00     0.039 A 
ATOM     37  C   UNL A   1      35.536  34.648  28.973  1.00  0.00     0.014 A 
ATOM     38  C   UNL A   1      34.014  33.500  30.373  1.00  0.00     0.014 A 
ATOM     39  C   UNL A   1      36.500  33.723  29.435  1.00  0.00     0.010 A 
ATOM     40  C   UNL A   1      35.031  32.724  30.873  1.00  0.00     0.010 A 
ATOM     41  C   UNL A   1      36.320  32.897  30.451  1.00  0.00    -0.014 A 
BRANCH  41  42
ATOM     42  C   UNL A   1      37.483  32.177  31.114  1.00  0.00     0.031 A 
ATOM     43  C   UNL A   1      37.837  32.556  32.409  1.00  0.00     0.074 A 
ATOM     44  C   UNL A   1      38.127  31.184  30.394  1.00  0.00     0.049 A 
ATOM     45  N   UNL A   1      38.795  32.036  33.176  1.00  0.00    -0.248 NA
ATOM     46  C   UNL A   1      37.177  33.634  33.162  1.00  0.00     0.031 C 
ATOM     47  C   UNL A   1      37.770  30.790  29.091  1.00  0.00     0.029 A 
ATOM     48  N   UNL A   1      39.200  30.415  30.789  1.00  0.00    -0.354 N 
ATOM     49  C   UNL A   1      38.822  32.649  34.362  1.00  0.00     0.074 A 
ATOM     50  C   UNL A   1      37.785  33.689  34.367  1.00  0.00     0.031 C 
ATOM     51  C   UNL A   1      38.622  29.805  28.700  1.00  0.00     0.029 A 
ATOM     52  C   UNL A   1      39.525  29.567  29.754  1.00  0.00     0.049 A 
ATOM     53  H   UNL A   1      39.654  30.463  31.661  1.00  0.00     0.167 HD
ATOM     54  C   UNL A   1      39.667  32.379  35.439  1.00  0.00     0.037 A 
ATOM     55  C   UNL A   1      40.549  28.634  29.712  1.00  0.00     0.037 A 
ATOM     56  C   UNL A   1      40.664  31.416  35.411  1.00  0.00     0.049 A 
ATOM     57  C   UNL A   1      41.434  28.405  30.768  1.00  0.00     0.074 A 
ATOM     58  C   UNL A   1      41.520  31.126  36.491  1.00  0.00     0.029 A 
ATOM     59  N   UNL A   1      41.006  30.585  34.367  1.00  0.00    -0.354 N 
ATOM     60  N   UNL A   1      41.434  28.990  31.967  1.00  0.00    -0.248 NA
ATOM     61  C   UNL A   1      42.542  27.442  30.722  1.00  0.00     0.031 C 
ATOM     62  C   UNL A   1      42.372  30.141  36.101  1.00  0.00     0.029 A 
ATOM     63  C   UNL A   1      42.062  29.800  34.770  1.00  0.00     0.049 A 
ATOM     64  H   UNL A   1      40.569  30.558  33.485  1.00  0.00     0.167 HD
ATOM     65  C   UNL A   1      42.419  28.497  32.719  1.00  0.00     0.074 A 
ATOM     66  C   UNL A   1      43.151  27.499  31.927  1.00  0.00     0.031 C 
ATOM     67  C   UNL A   1      42.736  28.837  34.036  1.00  0.00     0.037 A 
BRANCH  54  68
ATOM     68  C   UNL A   1      39.486  33.187  36.714  1.00  0.00     0.064 A 
ATOM     69  C   UNL A   1      38.574  32.719  37.645  1.00  0.00     0.173 A 
ATOM     70  C   UNL A   1      40.150  34.320  36.909  1.00  0.00     0.173 A 
ATOM     71  F   UNL A   1      38.080  31.484  37.620  1.00  0.00    -0.203 F 
ATOM     72  C   UNL A   1      38.215  33.673  38.626  1.00  0.00     0.198 A 
ATOM     73  C   UNL A   1      39.838  35.139  37.967  1.00  0.00     0.198 A 
ATOM     74  F   UNL A   1      41.124  34.666  36.072  1.00  0.00    -0.203 F 
ATOM     75  F   UNL A   1      37.107  33.453  39.328  1.00  0.00    -0.200 F 
ATOM     76  C   UNL A   1      38.904  34.767  38.894  1.00  0.00     0.200 A 
ATOM     77  F   UNL A   1      40.454  36.312  38.091  1.00  0.00    -0.200 F 
ATOM     78  F   UNL A   1      38.702  35.470  40.005  1.00  0.00    -0.200 F 
ENDBRANCH  54  68
BRANCH  55  79
ATOM     79  C   UNL A   1      40.720  27.814  28.442  1.00  0.00     0.064 A 
ATOM     80  C   UNL A   1      41.569  28.220  27.427  1.00  0.00     0.173 A 
ATOM     81  C   UNL A   1      40.035  26.680  28.356  1.00  0.00     0.173 A 
ATOM     82  F   UNL A   1      42.456  29.200  27.572  1.00  0.00    -0.203 F 
ATOM     83  C   UNL A   1      41.409  27.497  26.222  1.00  0.00     0.198 A 
ATOM     84  C   UNL A   1      40.032  25.953  27.190  1.00  0.00     0.198 A 
ATOM     85  F   UNL A   1      39.346  26.244  29.406  1.00  0.00    -0.203 F 
ATOM     86  F   UNL A   1      41.904  28.030  25.110  1.00  0.00    -0.200 F 
ATOM     87  C   UNL A   1      40.803  26.327  26.125  1.00  0.00     0.200 A 
ATOM     88  F   UNL A   1      39.268  24.868  27.097  1.00  0.00    -0.200 F 
ATOM     89  F   UNL A   1      40.935  25.555  25.050  1.00  0.00    -0.200 F 
ENDBRANCH  55  79
BRANCH  67  90
ATOM     90  C   UNL A   1      43.888  28.104  34.704  1.00  0.00     0.064 A 
ATOM     91  C   UNL A   1      43.648  26.900  35.344  1.00  0.00     0.173 A 
ATOM     92  C   UNL A   1      45.107  28.630  34.660  1.00  0.00     0.173 A 
ATOM     93  F   UNL A   1      42.516  26.215  35.201  1.00  0.00    -0.203 F 
ATOM     94  C   UNL A   1      44.713  26.465  36.166  1.00  0.00     0.198 A 
ATOM     95  C   UNL A   1      46.135  28.073  35.382  1.00  0.00     0.198 A 
ATOM     96  F   UNL A   1      45.334  29.706  33.912  1.00  0.00    -0.203 F 
ATOM     97  F   UNL A   1      44.450  25.538  37.083  1.00  0.00    -0.200 F 
ATOM     98  C   UNL A   1      45.952  26.916  36.087  1.00  0.00     0.200 A 
ATOM     99  F   UNL A   1      47.324  28.668  35.396  1.00  0.00    -0.200 F 
ATOM    100  F   UNL A   1      46.968  26.278  36.662  1.00  0.00    -0.200 F 
ENDBRANCH  67  90
ENDBRANCH  41  42
ENDBRANCH  33  36
ENDBRANCH  31  32
ENDBRANCH  30  31
ENDBRANCH   1  30
TORSDOF 15
ENDMDL
MODEL 2
REMARK VINA RESULT:     -13.2      0.188      1.140
REMARK SMILES O=C(NCCCCCCNC(=O)c1ccc(-c2c3nc(c(-c4c(F)c(F)c(F)c(F)c4F)c4ccc([nH]4)c(-c4c(F)c(F)c(F)c(F)c4F)c4nc(c(-c5c(F)c(F)c(F)c(F)c5F)c5ccc2[nH]5)C=C4)C=C3)cc1)C1=Cc2cc(S(F)(F)(F)(F)F)cc(Br)c2O[C@@H]1C(F)(F)F
REMARK SMILES IDX 7 1 6 2 5 3 4 4 3 5 1 6 2 7 76 9 77 10 92 11 78 12 91 13
REMARK SMILES IDX 79 14 90 15 80 16 88 17 87 18 89 19 93 20 94 21 95 22 96 23
REMARK SMILES IDX 81 24 82 25 83 26 84 27 85 28 86 29 8 30 9 31 10 32 11 33
REMARK SMILES IDX 12 35 13 36 14 37 75 38 15 39 74 40 16 41 17 42 18 43 68 44
REMARK SMILES IDX 19 45 73 46 67 47 69 48 20 49 72 50 66 51 65 52 21 54 53 55
REMARK SMILES IDX 33 56 52 57 34 58 37 59 51 60 70 61 35 62 36 63 50 65 71 66
REMARK SMILES IDX 38 67 22 68 23 69 31 70 24 71 25 72 29 73 32 74 26 75 27 76
REMARK SMILES IDX 30 77 28 78 54 79 55 80 63 81 56 82 57 83 61 84 64 85 58 86
REMARK SMILES IDX 59 87 62 88 60 89 39 90 40 91 48 92 41 93 42 94 46 95 49 96
REMARK SMILES IDX 43 97 44 98 47 99 45 100
REMARK H PARENT 3 8 10 34 69 53 37 64
REMARK Flexibility Score: inf
ROOT
ATOM      1  C   UNL A   1      31.783  31.006  26.268  1.00  0.00     0.002 C 
ENDROOT
BRANCH   1   2
ATOM      2  C   UNL A   1      32.699  30.293  27.248  1.00  0.00     0.002 C 
BRANCH   2   3
ATOM      3  C   UNL A   1      33.965  29.853  26.530  1.00  0.00     0.021 C 
BRANCH   3   4
ATOM      4  C   UNL A   1      33.910  28.354  26.280  1.00  0.00     0.116 C 
BRANCH   4   5
ATOM      5  N   UNL A   1      32.807  27.767  27.055  1.00  0.00    -0.352 N 
ATOM      6  O   UNL A   1      30.653  26.766  27.036  1.00  0.00    -0.270 OA
ATOM      7  C   UNL A   1      31.607  27.273  26.366  1.00  0.00     0.251 C 
ATOM      8  H   UNL A   1      32.872  27.707  28.035  1.00  0.00     0.163 HD
BRANCH   7   9
ATOM      9  C   UNL A   1      31.507  27.366  24.852  1.00  0.00     0.067 C 
ATOM     10  C   UNL A   1      32.179  26.479  24.070  1.00  0.00     0.025 C 
ATOM     11  C   UNL A   1      30.655  28.451  24.212  1.00  0.00     0.314 C 
ATOM     12  C   UNL A   1      33.030  25.395  24.710  1.00  0.00     0.020 A 
ATOM     13  O   UNL A   1      31.329  25.111  26.346  1.00  0.00    -0.474 OA
ATOM     14  C   UNL A   1      34.286  25.126  24.191  1.00  0.00     0.036 A 
ATOM     15  C   UNL A   1      32.547  24.707  25.738  1.00  0.00     0.142 A 
ATOM     16  C   UNL A   1      34.845  23.908  24.646  1.00  0.00     0.109 A 
ATOM     17  C   UNL A   1      33.216  23.607  26.218  1.00  0.00     0.062 A 
ATOM     18  C   UNL A   1      34.435  23.248  25.713  1.00  0.00     0.044 A 
ATOM     19  Br  UNL A   1      32.410  22.536  27.650  1.00  0.00    -0.047 Br
BRANCH  11  20
ATOM     20  C   UNL A   1      29.567  27.809  23.366  1.00  0.00     0.429 C 
ATOM     21  F   UNL A   1      28.578  28.680  23.182  1.00  0.00    -0.167 F 
ATOM     22  F   UNL A   1      30.073  27.454  22.189  1.00  0.00    -0.167 F 
ATOM     23  F   UNL A   1      29.098  26.733  23.991  1.00  0.00    -0.167 F 
ENDBRANCH  11  20
BRANCH  16  24
ATOM     24  S   UNL A   1      36.220  23.208  23.699  1.00  0.00     0.310 S 
ATOM     25  F   UNL A   1      36.149  21.836  24.492  1.00  0.00    -0.094 F 
ATOM     26  F   UNL A   1      37.209  23.722  24.813  1.00  0.00    -0.094 F 
ATOM     27  F   UNL A   1      37.402  22.606  22.887  1.00  0.00    -0.094 F 
ATOM     28  F   UNL A   1      35.202  22.580  22.668  1.00  0.00    -0.094 F 
ATOM     29  F   UNL A   1      35.001  23.715  24.570  1.00  0.00    -0.094 F 
ENDBRANCH  16  24
ENDBRANCH   7   9
ENDBRANCH   4   5
ENDBRANCH   3   4
ENDBRANCH   2   3
ENDBRANCH   1   2
BRANCH   1  30
ATOM     30  C   UNL A   1      31.406  32.368  26.824  1.00  0.00     0.021 C 
BRANCH  30  31
ATOM     31  C   UNL A   1      32.663  33.099  27.269  1.00  0.00     0.116 C 
BRANCH  31  32
ATOM     32  N   UNL A   1      32.314  34.462  27.693  1.00  0.00    -0.352 N 
ATOM     33  C   UNL A   1      33.092  35.126  28.749  1.00  0.00     0.251 C 
ATOM     34  H   UNL A   1      31.558  34.931  27.271  1.00  0.00     0.163 HD
ATOM     35  O   UNL A   1      32.791  36.304  29.116  1.00  0.00    -0.269 OA
BRANCH  33  36
ATOM     36  C   UNL A   1      34.260  34.402  29.401  1.00  0.00     0.039 A 
ATOM     37  C   UNL A   1      35.554  34.716  29.017  1.00  0.00     0.014 A 
ATOM     38  C   UNL A   1      34.020  33.483  30.329  1.00  0.00     0.014 A 
ATOM     39  C   UNL A   1      36.525  33.791  29.467  1.00  0.00     0.010 A 
ATOM     40  C   UNL A   1      35.040  32.707  30.825  1.00  0.00     0.010 A 
ATOM     41  C   UNL A   1      36.336  32.922  30.444  1.00  0.00    -0.014 A 
BRANCH  41  42
ATOM     42  C   UNL A   1      37.496  32.198  31.109  1.00  0.00     0.031 A 
ATOM     43  C   UNL A   1      37.849  32.576  32.405  1.00  0.00     0.074 A 
ATOM     44  C   UNL A   1      38.138  31.204  30.389  1.00  0.00     0.049 A 
ATOM     45  N   UNL A   1      38.804  32.052  33.173  1.00  0.00    -0.248 NA
ATOM     46  C   UNL A   1      37.190  33.654  33.157  1.00  0.00     0.031 C 
ATOM     47  C   UNL A   1      37.782  30.812  29.085  1.00  0.00     0.029 A 
ATOM     48  N   UNL A   1      39.208  30.432  30.785  1.00  0.00    -0.354 N 
ATOM     49  C   UNL A   1      38.830  32.664  34.359  1.00  0.00     0.074 A 
ATOM     50  C   UNL A   1      37.796  33.708  34.363  1.00  0.00     0.031 C 
ATOM     51  C   UNL A   1      38.632  29.825  28.695  1.00  0.00     0.029 A 
ATOM     52  C   UNL A   1      39.533  29.584  29.750  1.00  0.00     0.049 A 
ATOM     53  H   UNL A   1      39.661  30.478  31.658  1.00  0.00     0.167 HD
ATOM     54  C   UNL A   1      39.673  32.392  35.437  1.00  0.00     0.037 A 
ATOM     55  C   UNL A   1      40.555  28.649  29.709  1.00  0.00     0.037 A 
ATOM     56  C   UNL A   1      40.667  31.426  35.411  1.00  0.00     0.049 A 
ATOM     57  C   UNL A   1      41.437  28.416  30.766  1.00  0.00     0.074 A 
ATOM     58  C   UNL A   1      41.521  31.133  36.491  1.00  0.00     0.029 A 
ATOM     59  N   UNL A   1      41.009  30.595  34.366  1.00  0.00    -0.354 N 
ATOM     60  N   UNL A   1      41.436  29.000  31.965  1.00  0.00    -0.248 NA
ATOM     61  C   UNL A   1      42.542  27.451  30.721  1.00  0.00     0.031 C 
ATOM     62  C   UNL A   1      42.371  30.146  36.102  1.00  0.00     0.029 A 
ATOM     63  C   UNL A   1      42.063  29.807  34.771  1.00  0.00     0.049 A 
ATOM     64  H   UNL A   1      40.574  30.569  33.484  1.00  0.00     0.167 HD
ATOM     65  C   UNL A   1      42.419  28.505  32.719  1.00  0.00     0.074 A 
ATOM     66  C   UNL A   1      43.150  27.505  31.928  1.00  0.00     0.031 C 
ATOM     67  C   UNL A   1      42.735  28.842  34.036  1.00  0.00     0.037 A 
BRANCH  54  68
ATOM     68  C   UNL A   1      39.492  33.199  36.712  1.00  0.00     0.064 A 
ATOM     69  C   UNL A   1      38.591  32.723  37.650  1.00  0.00     0.173 A 
ATOM     70  C   UNL A   1      40.145  34.340  36.902  1.00  0.00     0.173 A 
ATOM     71  F   UNL A   1      38.110  31.482  37.629  1.00  0.00    -0.203 F 
ATOM     72  C   UNL A   1      38.229  33.674  38.633  1.00  0.00     0.198 A 
ATOM     73  C   UNL A   1      39.832  35.157  37.961  1.00  0.00     0.198 A 
ATOM     74  F   UNL A   1      41.110  34.694  36.058  1.00  0.00    -0.203 F 
ATOM     75  F   UNL A   1      37.128  33.443  39.342  1.00  0.00    -0.200 F 
ATOM     76  C   UNL A   1      38.908  34.776  38.895  1.00  0.00     0.200 A 
ATOM     77  F   UNL A   1      40.436  36.336  38.080  1.00  0.00    -0.200 F 
ATOM     78  F   UNL A   1      38.706  35.477  40.007  1.00  0.00    -0.200 F 
ENDBRANCH  54  68
BRANCH  55  79
ATOM     79  C   UNL A   1      40.725  27.829  28.439  1.00  0.00     0.064 A 
ATOM     80  C   UNL A   1      41.572  28.237  27.423  1.00  0.00     0.173 A 
ATOM     81  C   UNL A   1      40.042  26.694  28.353  1.00  0.00     0.173 A 
ATOM     82  F   UNL A   1      42.458  29.218  27.567  1.00  0.00    -0.203 F 
ATOM     83  C   UNL A   1      41.412  27.513  26.218  1.00  0.00     0.198 A 
ATOM     84  C   UNL A   1      40.039  25.966  27.187  1.00  0.00     0.198 A 
ATOM     85  F   UNL A   1      39.355  26.256  29.404  1.00  0.00    -0.203 F 
ATOM     86  F   UNL A   1      41.905  28.048  25.105  1.00  0.00    -0.200 F 
ATOM     87  C   UNL A   1      40.808  26.342  26.121  1.00  0.00     0.200 A 
ATOM     88  F   UNL A   1      39.277  24.880  27.095  1.00  0.00    -0.200 F 
ATOM     89  F   UNL A   1      40.940  25.571  25.046  1.00  0.00    -0.200 F 
ENDBRANCH  55  79
BRANCH  67  90
ATOM     90  C   UNL A   1      43.884  28.106  34.706  1.00  0.00     0.064 A 
ATOM     91  C   UNL A   1      45.161  28.638  34.640  1.00  0.00     0.173 A 
ATOM     92  C   UNL A   1      43.644  26.967  35.343  1.00  0.00     0.173 A 
ATOM     93  F   UNL A   1      45.410  29.882  34.241  1.00  0.00    -0.203 F 
ATOM     94  C   UNL A   1      46.178  27.737  35.036  1.00  0.00     0.198 A 
ATOM     95  C   UNL A   1      44.680  26.203  35.824  1.00  0.00     0.198 A 
ATOM     96  F   UNL A   1      42.390  26.561  35.518  1.00  0.00    -0.203 F 
ATOM     97  F   UNL A   1      47.427  28.015  34.673  1.00  0.00    -0.200 F 
ATOM     98  C   UNL A   1      45.973  26.639  35.740  1.00  0.00     0.200 A 
ATOM     99  F   UNL A   1      44.421  25.022  36.379  1.00  0.00    -0.200 F 
ATOM    100  F   UNL A   1      46.971  25.991  36.335  1.00  0.00    -0.200 F 
ENDBRANCH  67  90
ENDBRANCH  41  42
ENDBRANCH  33  36
ENDBRANCH  31  32
ENDBRANCH  30  31
ENDBRANCH   1  30
TORSDOF 15
ENDMDL
MODEL 3
REMARK VINA RESULT:     -13.2      0.333      7.041
REMARK SMILES O=C(NCCCCCCNC(=O)c1ccc(-c2c3nc(c(-c4c(F)c(F)c(F)c(F)c4F)c4ccc([nH]4)c(-c4c(F)c(F)c(F)c(F)c4F)c4nc(c(-c5c(F)c(F)c(F)c(F)c5F)c5ccc2[nH]5)C=C4)C=C3)cc1)C1=Cc2cc(S(F)(F)(F)(F)F)cc(Br)c2O[C@@H]1C(F)(F)F
REMARK SMILES IDX 7 1 6 2 5 3 4 4 3 5 1 6 2 7 76 9 77 10 92 11 78 12 91 13
REMARK SMILES IDX 79 14 90 15 80 16 88 17 87 18 89 19 93 20 94 21 95 22 96 23
REMARK SMILES IDX 81 24 82 25 83 26 84 27 85 28 86 29 8 30 9 31 10 32 11 33
REMARK SMILES IDX 12 35 13 36 14 37 75 38 15 39 74 40 16 41 17 42 18 43 68 44
REMARK SMILES IDX 19 45 73 46 67 47 69 48 20 49 72 50 66 51 65 52 21 54 53 55
REMARK SMILES IDX 33 56 52 57 34 58 37 59 51 60 70 61 35 62 36 63 50 65 71 66
REMARK SMILES IDX 38 67 22 68 23 69 31 70 24 71 25 72 29 73 32 74 26 75 27 76
REMARK SMILES IDX 30 77 28 78 54 79 55 80 63 81 56 82 57 83 61 84 64 85 58 86
REMARK SMILES IDX 59 87 62 88 60 89 39 90 40 91 48 92 41 93 42 94 46 95 49 96
REMARK SMILES IDX 43 97 44 98 47 99 45 100
REMARK H PARENT 3 8 10 34 69 53 37 64
REMARK Flexibility Score: inf
ROOT
ATOM      1  C   UNL A   1      31.818  30.921  26.197  1.00  0.00     0.002 C 
ENDROOT
BRANCH   1   2
ATOM      2  C   UNL A   1      32.751  30.346  27.251  1.00  0.00     0.002 C 
BRANCH   2   3
ATOM      3  C   UNL A   1      34.021  29.845  26.583  1.00  0.00     0.021 C 
BRANCH   3   4
ATOM      4  C   UNL A   1      33.871  28.368  26.252  1.00  0.00     0.116 C 
BRANCH   4   5
ATOM      5  N   UNL A   1      32.799  27.788  27.074  1.00  0.00    -0.352 N 
ATOM      6  O   UNL A   1      30.664  26.748  27.144  1.00  0.00    -0.270 OA
ATOM      7  C   UNL A   1      31.591  27.250  26.433  1.00  0.00     0.251 C 
ATOM      8  H   UNL A   1      32.890  27.761  28.054  1.00  0.00     0.163 HD
BRANCH   7   9
ATOM      9  C   UNL A   1      31.450  27.292  24.921  1.00  0.00     0.067 C 
ATOM     10  C   UNL A   1      32.123  26.396  24.150  1.00  0.00     0.025 C 
ATOM     11  C   UNL A   1      30.558  28.337  24.269  1.00  0.00     0.314 C 
ATOM     12  C   UNL A   1      33.015  25.352  24.801  1.00  0.00     0.020 A 
ATOM     13  O   UNL A   1      31.364  25.083  26.489  1.00  0.00    -0.474 OA
ATOM     14  C   UNL A   1      34.263  25.095  24.258  1.00  0.00     0.036 A 
ATOM     15  C   UNL A   1      32.575  24.687  25.862  1.00  0.00     0.142 A 
ATOM     16  C   UNL A   1      34.862  23.905  24.737  1.00  0.00     0.109 A 
ATOM     17  C   UNL A   1      33.281  23.619  26.360  1.00  0.00     0.062 A 
ATOM     18  C   UNL A   1      34.495  23.271  25.834  1.00  0.00     0.044 A 
ATOM     19  Br  UNL A   1      32.538  22.577  27.845  1.00  0.00    -0.047 Br
BRANCH  11  20
ATOM     20  C   UNL A   1      29.464  27.643  23.473  1.00  0.00     0.429 C 
ATOM     21  F   UNL A   1      28.528  28.529  23.142  1.00  0.00    -0.167 F 
ATOM     22  F   UNL A   1      29.985  27.115  22.370  1.00  0.00    -0.167 F 
ATOM     23  F   UNL A   1      28.920  26.680  24.212  1.00  0.00    -0.167 F 
ENDBRANCH  11  20
BRANCH  16  24
ATOM     24  S   UNL A   1      36.228  23.206  23.777  1.00  0.00     0.310 S 
ATOM     25  F   UNL A   1      36.161  21.832  24.566  1.00  0.00    -0.094 F 
ATOM     26  F   UNL A   1      37.227  23.715  24.884  1.00  0.00    -0.094 F 
ATOM     27  F   UNL A   1      37.403  22.605  22.954  1.00  0.00    -0.094 F 
ATOM     28  F   UNL A   1      35.202  22.583  22.751  1.00  0.00    -0.094 F 
ATOM     29  F   UNL A   1      35.017  23.712  24.659  1.00  0.00    -0.094 F 
ENDBRANCH  16  24
ENDBRANCH   7   9
ENDBRANCH   4   5
ENDBRANCH   3   4
ENDBRANCH   2   3
ENDBRANCH   1   2
BRANCH   1  30
ATOM     30  C   UNL A   1      31.400  32.324  26.601  1.00  0.00     0.021 C 
BRANCH  30  31
ATOM     31  C   UNL A   1      32.601  33.068  27.164  1.00  0.00     0.116 C 
BRANCH  31  32
ATOM     32  N   UNL A   1      32.180  34.399  27.626  1.00  0.00    -0.352 N 
ATOM     33  C   UNL A   1      32.903  35.058  28.723  1.00  0.00     0.251 C 
ATOM     34  H   UNL A   1      31.414  34.848  27.202  1.00  0.00     0.163 HD
ATOM     35  O   UNL A   1      32.540  36.208  29.124  1.00  0.00    -0.269 OA
BRANCH  33  36
ATOM     36  C   UNL A   1      34.086  34.364  29.379  1.00  0.00     0.039 A 
ATOM     37  C   UNL A   1      35.369  34.646  28.938  1.00  0.00     0.014 A 
ATOM     38  C   UNL A   1      33.871  33.501  30.365  1.00  0.00     0.014 A 
ATOM     39  C   UNL A   1      36.349  33.741  29.409  1.00  0.00     0.010 A 
ATOM     40  C   UNL A   1      34.901  32.747  30.872  1.00  0.00     0.010 A 
ATOM     41  C   UNL A   1      36.186  32.930  30.439  1.00  0.00    -0.014 A 
BRANCH  41  42
ATOM     42  C   UNL A   1      37.362  32.237  31.108  1.00  0.00     0.031 A 
ATOM     43  C   UNL A   1      37.990  31.199  30.418  1.00  0.00     0.074 A 
ATOM     44  C   UNL A   1      37.744  32.675  32.365  1.00  0.00     0.049 A 
ATOM     45  N   UNL A   1      39.049  30.489  30.806  1.00  0.00    -0.248 NA
ATOM     46  C   UNL A   1      37.564  30.711  29.098  1.00  0.00     0.031 C 
ATOM     47  C   UNL A   1      37.121  33.726  33.063  1.00  0.00     0.029 A 
ATOM     48  N   UNL A   1      38.765  32.191  33.153  1.00  0.00    -0.354 N 
ATOM     49  C   UNL A   1      39.374  29.594  29.870  1.00  0.00     0.074 A 
ATOM     50  C   UNL A   1      38.419  29.721  28.760  1.00  0.00     0.031 C 
ATOM     51  C   UNL A   1      37.749  33.868  34.260  1.00  0.00     0.029 A 
ATOM     52  C   UNL A   1      38.776  32.907  34.329  1.00  0.00     0.049 A 
ATOM     53  H   UNL A   1      39.381  31.460  32.916  1.00  0.00     0.167 HD
ATOM     54  C   UNL A   1      40.429  28.681  29.896  1.00  0.00     0.037 A 
ATOM     55  C   UNL A   1      39.625  32.746  35.413  1.00  0.00     0.037 A 
ATOM     56  C   UNL A   1      41.304  28.549  30.963  1.00  0.00     0.049 A 
ATOM     57  C   UNL A   1      40.644  31.792  35.465  1.00  0.00     0.074 A 
ATOM     58  C   UNL A   1      42.378  27.639  31.003  1.00  0.00     0.029 A 
ATOM     59  N   UNL A   1      41.300  29.249  32.150  1.00  0.00    -0.354 N 
ATOM     60  N   UNL A   1      40.993  30.926  34.512  1.00  0.00    -0.248 NA
ATOM     61  C   UNL A   1      41.527  31.591  36.621  1.00  0.00     0.031 C 
ATOM     62  C   UNL A   1      43.007  27.780  32.200  1.00  0.00     0.029 A 
ATOM     63  C   UNL A   1      42.335  28.782  32.928  1.00  0.00     0.049 A 
ATOM     64  H   UNL A   1      40.666  29.960  32.398  1.00  0.00     0.167 HD
ATOM     65  C   UNL A   1      42.026  30.188  34.918  1.00  0.00     0.074 A 
ATOM     66  C   UNL A   1      42.382  30.599  36.283  1.00  0.00     0.031 C 
ATOM     67  C   UNL A   1      42.691  29.188  34.204  1.00  0.00     0.037 A 
BRANCH  54  68
ATOM     68  C   UNL A   1      40.629  27.780  28.688  1.00  0.00     0.064 A 
ATOM     69  C   UNL A   1      41.488  28.222  27.695  1.00  0.00     0.173 A 
ATOM     70  C   UNL A   1      39.975  26.631  28.572  1.00  0.00     0.173 A 
ATOM     71  F   UNL A   1      42.348  29.222  27.871  1.00  0.00    -0.203 F 
ATOM     72  C   UNL A   1      41.369  27.513  26.476  1.00  0.00     0.198 A 
ATOM     73  C   UNL A   1      40.012  25.921  27.397  1.00  0.00     0.198 A 
ATOM     74  F   UNL A   1      39.277  26.164  29.603  1.00  0.00    -0.203 F 
ATOM     75  F   UNL A   1      41.870  28.076  25.381  1.00  0.00    -0.200 F 
ATOM     76  C   UNL A   1      40.794  26.330  26.351  1.00  0.00     0.200 A 
ATOM     77  F   UNL A   1      39.277  24.820  27.273  1.00  0.00    -0.200 F 
ATOM     78  F   UNL A   1      40.965  25.578  25.268  1.00  0.00    -0.200 F 
ENDBRANCH  54  68
BRANCH  55  79
ATOM     79  C   UNL A   1      39.435  33.658  36.615  1.00  0.00     0.064 A 
ATOM     80  C   UNL A   1      40.029  34.907  36.676  1.00  0.00     0.173 A 
ATOM     81  C   UNL A   1      38.657  33.217  37.596  1.00  0.00     0.173 A 
ATOM     82  F   UNL A   1      40.599  35.492  35.626  1.00  0.00    -0.203 F 
ATOM     83  C   UNL A   1      39.973  35.507  37.957  1.00  0.00     0.198 A 
ATOM     84  C   UNL A   1      38.542  33.922  38.769  1.00  0.00     0.198 A 
ATOM     85  F   UNL A   1      37.982  32.080  37.442  1.00  0.00    -0.203 F 
ATOM     86  F   UNL A   1      40.806  36.512  38.206  1.00  0.00    -0.200 F 
ATOM     87  C   UNL A   1      39.150  35.137  38.922  1.00  0.00     0.200 A 
ATOM     88  F   UNL A   1      37.829  33.416  39.771  1.00  0.00    -0.200 F 
ATOM     89  F   UNL A   1      38.925  35.905  39.984  1.00  0.00    -0.200 F 
ENDBRANCH  55  79
BRANCH  67  90
ATOM     90  C   UNL A   1      43.878  28.508  34.867  1.00  0.00     0.064 A 
ATOM     91  C   UNL A   1      45.142  29.056  34.725  1.00  0.00     0.173 A 
ATOM     92  C   UNL A   1      43.683  27.399  35.572  1.00  0.00     0.173 A 
ATOM     93  F   UNL A   1      45.352  30.282  34.253  1.00  0.00    -0.203 F 
ATOM     94  C   UNL A   1      46.189  28.195  35.128  1.00  0.00     0.198 A 
ATOM     95  C   UNL A   1      44.750  26.679  36.052  1.00  0.00     0.198 A 
ATOM     96  F   UNL A   1      42.444  26.982  35.815  1.00  0.00    -0.203 F 
ATOM     97  F   UNL A   1      47.418  28.473  34.704  1.00  0.00    -0.200 F 
ATOM     98  C   UNL A   1      46.030  27.131  35.895  1.00  0.00     0.200 A 
ATOM     99  F   UNL A   1      44.534  25.525  36.676  1.00  0.00    -0.200 F 
ATOM    100  F   UNL A   1      47.062  26.533  36.485  1.00  0.00    -0.200 F 
ENDBRANCH  67  90
ENDBRANCH  41  42
ENDBRANCH  33  36
ENDBRANCH  31  32
ENDBRANCH  30  31
ENDBRANCH   1  30
TORSDOF 15
ENDMDL
