MODEL 1
REMARK VINA RESULT:     -10.9      0.000      0.000
REMARK SMILES CCC[C@@H](C)C[C@H](C(=O)NCCCCCCNC(=O)c1ccc(-c2c3nc(c(-c4c(F)c(F)c(F)c(F)c4F)c4ccc([nH]4)c(-c4c(F)c(F)c(F)c(F)c4F)c4nc(c(-c5c(F)c(F)c(F)c(F)c5F)c5ccc2[nH]5)C=C4)C=C3)cc1)c1ccccc1C
REMARK SMILES IDX 12 1 11 2 10 3 8 4 9 5 7 7 6 8 4 9 5 10 3 11 2 12 1 13 83 14
REMARK SMILES IDX 84 15 88 16 85 17 87 18 89 19 86 20 13 21 14 22 15 23 16 24
REMARK SMILES IDX 17 25 18 26 19 28 20 29 21 30 82 31 22 32 81 33 23 34 24 35
REMARK SMILES IDX 25 36 75 37 26 38 80 39 74 40 76 41 27 42 79 43 73 44 72 45
REMARK SMILES IDX 28 47 60 48 40 49 59 50 41 51 44 52 58 53 77 54 42 55 43 56
REMARK SMILES IDX 57 58 78 59 45 60 29 61 30 62 38 63 31 64 32 65 36 66 39 67
REMARK SMILES IDX 33 68 34 69 37 70 35 71 61 72 62 73 70 74 63 75 64 76 68 77
REMARK SMILES IDX 71 78 65 79 66 80 69 81 67 82 46 83 47 84 55 85 48 86 49 87
REMARK SMILES IDX 53 88 56 89 50 90 51 91 54 92 52 93
REMARK H PARENT 10 6 17 27 76 46 44 57
REMARK Flexibility Score: inf
ROOT
ATOM      1  C   UNL A   1      30.444  26.289  23.758  1.00  0.00     0.021 C 
ENDROOT
BRANCH   1   2
ATOM      2  C   UNL A   1      30.214  24.782  23.812  1.00  0.00     0.116 C 
BRANCH   2   3
ATOM      3  N   UNL A   1      30.215  24.253  25.164  1.00  0.00    -0.356 N 
ATOM      4  C   UNL A   1      31.256  23.832  25.948  1.00  0.00     0.227 C 
ATOM      5  O   UNL A   1      31.026  23.645  27.145  1.00  0.00    -0.274 OA
ATOM      6  H   UNL A   1      29.326  24.186  25.585  1.00  0.00     0.163 HD
BRANCH   4   7
ATOM      7  C   UNL A   1      32.644  23.582  25.335  1.00  0.00     0.109 C 
BRANCH   7   8
ATOM      8  C   UNL A   1      33.740  24.335  26.132  1.00  0.00     0.021 C 
BRANCH   8   9
ATOM      9  C   UNL A   1      35.021  24.707  25.335  1.00  0.00    -0.013 C 
ATOM     10  C   UNL A   1      34.640  24.902  23.860  1.00  0.00     0.007 C 
BRANCH   9  11
ATOM     11  C   UNL A   1      36.138  23.651  25.450  1.00  0.00     0.003 C 
BRANCH  11  12
ATOM     12  C   UNL A   1      36.295  22.705  24.253  1.00  0.00    -0.003 C 
ATOM     13  C   UNL A   1      36.758  21.305  24.628  1.00  0.00     0.004 C 
ENDBRANCH  11  12
ENDBRANCH   9  11
ENDBRANCH   8   9
ENDBRANCH   7   8
BRANCH   7  14
ATOM     14  C   UNL A   1      32.817  22.059  25.140  1.00  0.00    -0.033 A 
ATOM     15  C   UNL A   1      32.388  21.558  23.884  1.00  0.00     0.005 A 
ATOM     16  C   UNL A   1      33.278  21.122  26.093  1.00  0.00    -0.047 A 
ATOM     17  C   UNL A   1      32.433  20.199  23.569  1.00  0.00     0.000 A 
ATOM     18  C   UNL A   1      33.346  19.755  25.740  1.00  0.00     0.004 A 
ATOM     19  C   UNL A   1      33.735  21.461  27.485  1.00  0.00     0.044 C 
ATOM     20  C   UNL A   1      32.922  19.296  24.497  1.00  0.00     0.000 A 
ENDBRANCH   7  14
ENDBRANCH   4   7
ENDBRANCH   2   3
ENDBRANCH   1   2
BRANCH   1  21
ATOM     21  C   UNL A   1      31.537  26.760  22.791  1.00  0.00     0.002 C 
BRANCH  21  22
ATOM     22  C   UNL A   1      32.319  28.010  23.207  1.00  0.00     0.002 C 
BRANCH  22  23
ATOM     23  C   UNL A   1      32.694  28.104  24.687  1.00  0.00     0.021 C 
BRANCH  23  24
ATOM     24  C   UNL A   1      33.603  29.269  25.061  1.00  0.00     0.116 C 
BRANCH  24  25
ATOM     25  N   UNL A   1      32.895  30.370  25.693  1.00  0.00    -0.352 N 
ATOM     26  C   UNL A   1      33.240  31.078  26.821  1.00  0.00     0.251 C 
ATOM     27  H   UNL A   1      32.058  30.646  25.256  1.00  0.00     0.163 HD
ATOM     28  O   UNL A   1      32.475  31.912  27.294  1.00  0.00    -0.269 OA
BRANCH  26  29
ATOM     29  C   UNL A   1      34.533  30.805  27.485  1.00  0.00     0.039 A 
ATOM     30  C   UNL A   1      35.458  31.844  27.620  1.00  0.00     0.014 A 
ATOM     31  C   UNL A   1      34.820  29.534  27.989  1.00  0.00     0.014 A 
ATOM     32  C   UNL A   1      36.646  31.625  28.323  1.00  0.00     0.010 A 
ATOM     33  C   UNL A   1      35.971  29.336  28.743  1.00  0.00     0.010 A 
ATOM     34  C   UNL A   1      36.895  30.379  28.920  1.00  0.00    -0.014 A 
BRANCH  34  35
ATOM     35  C   UNL A   1      38.121  30.121  29.716  1.00  0.00     0.031 A 
ATOM     36  C   UNL A   1      39.169  29.188  29.181  1.00  0.00     0.074 A 
ATOM     37  C   UNL A   1      38.249  30.646  30.950  1.00  0.00     0.049 A 
ATOM     38  N   UNL A   1      40.227  28.696  29.775  1.00  0.00    -0.248 NA
ATOM     39  C   UNL A   1      38.984  28.719  27.799  1.00  0.00     0.031 C 
ATOM     40  C   UNL A   1      37.290  31.546  31.591  1.00  0.00     0.029 A 
ATOM     41  N   UNL A   1      39.229  30.476  31.896  1.00  0.00    -0.354 N 
ATOM     42  C   UNL A   1      40.814  27.842  28.852  1.00  0.00     0.074 A 
ATOM     43  C   UNL A   1      39.974  27.848  27.673  1.00  0.00     0.031 C 
ATOM     44  C   UNL A   1      37.734  31.857  32.820  1.00  0.00     0.029 A 
ATOM     45  C   UNL A   1      38.983  31.144  33.071  1.00  0.00     0.049 A 
ATOM     46  H   UNL A   1      40.033  29.928  31.746  1.00  0.00     0.167 HD
ATOM     47  C   UNL A   1      41.960  27.130  28.971  1.00  0.00     0.037 A 
ATOM     48  C   UNL A   1      39.678  31.162  34.225  1.00  0.00     0.037 A 
ATOM     49  C   UNL A   1      42.810  27.153  30.131  1.00  0.00     0.049 A 
ATOM     50  C   UNL A   1      40.945  30.357  34.333  1.00  0.00     0.074 A 
ATOM     51  C   UNL A   1      44.015  26.505  30.331  1.00  0.00     0.029 A 
ATOM     52  N   UNL A   1      42.543  27.870  31.289  1.00  0.00    -0.354 N 
ATOM     53  N   UNL A   1      41.513  29.582  33.441  1.00  0.00    -0.248 NA
ATOM     54  C   UNL A   1      41.670  30.430  35.611  1.00  0.00     0.031 C 
ATOM     55  C   UNL A   1      44.460  26.800  31.624  1.00  0.00     0.029 A 
ATOM     56  C   UNL A   1      43.556  27.670  32.211  1.00  0.00     0.049 A 
ATOM     57  H   UNL A   1      41.751  28.437  31.432  1.00  0.00     0.167 HD
ATOM     58  C   UNL A   1      42.676  29.107  34.032  1.00  0.00     0.074 A 
ATOM     59  C   UNL A   1      42.736  29.681  35.360  1.00  0.00     0.031 C 
ATOM     60  C   UNL A   1      43.612  28.272  33.518  1.00  0.00     0.037 A 
BRANCH  47  61
ATOM     61  C   UNL A   1      42.359  26.263  27.812  1.00  0.00     0.064 A 
ATOM     62  C   UNL A   1      43.285  26.701  26.852  1.00  0.00     0.173 A 
ATOM     63  C   UNL A   1      41.832  24.971  27.674  1.00  0.00     0.173 A 
ATOM     64  F   UNL A   1      43.810  27.933  26.931  1.00  0.00    -0.203 F 
ATOM     65  C   UNL A   1      43.642  25.888  25.779  1.00  0.00     0.198 A 
ATOM     66  C   UNL A   1      42.214  24.149  26.617  1.00  0.00     0.198 A 
ATOM     67  F   UNL A   1      40.947  24.502  28.567  1.00  0.00    -0.203 F 
ATOM     68  F   UNL A   1      44.487  26.347  24.846  1.00  0.00    -0.200 F 
ATOM     69  C   UNL A   1      43.112  24.612  25.666  1.00  0.00     0.200 A 
ATOM     70  F   UNL A   1      41.711  22.912  26.515  1.00  0.00    -0.200 F 
ATOM     71  F   UNL A   1      43.460  23.828  24.635  1.00  0.00    -0.200 F 
ENDBRANCH  47  61
BRANCH  48  72
ATOM     72  C   UNL A   1      39.203  31.988  35.365  1.00  0.00     0.064 A 
ATOM     73  C   UNL A   1      39.534  33.348  35.450  1.00  0.00     0.173 A 
ATOM     74  C   UNL A   1      38.418  31.441  36.390  1.00  0.00     0.173 A 
ATOM     75  F   UNL A   1      40.300  33.911  34.504  1.00  0.00    -0.203 F 
ATOM     76  C   UNL A   1      39.114  34.125  36.527  1.00  0.00     0.198 A 
ATOM     77  C   UNL A   1      37.977  32.225  37.454  1.00  0.00     0.198 A 
ATOM     78  F   UNL A   1      38.072  30.147  36.353  1.00  0.00    -0.203 F 
ATOM     79  F   UNL A   1      39.482  35.411  36.606  1.00  0.00    -0.200 F 
ATOM     80  C   UNL A   1      38.331  33.566  37.526  1.00  0.00     0.200 A 
ATOM     81  F   UNL A   1      37.210  31.684  38.410  1.00  0.00    -0.200 F 
ATOM     82  F   UNL A   1      37.926  34.313  38.561  1.00  0.00    -0.200 F 
ENDBRANCH  48  72
BRANCH  60  83
ATOM     83  C   UNL A   1      44.813  27.973  34.365  1.00  0.00     0.064 A 
ATOM     84  C   UNL A   1      44.858  26.859  35.215  1.00  0.00     0.173 A 
ATOM     85  C   UNL A   1      45.957  28.780  34.275  1.00  0.00     0.173 A 
ATOM     86  F   UNL A   1      43.783  26.066  35.346  1.00  0.00    -0.203 F 
ATOM     87  C   UNL A   1      46.002  26.571  35.955  1.00  0.00     0.198 A 
ATOM     88  C   UNL A   1      47.108  28.475  34.996  1.00  0.00     0.198 A 
ATOM     89  F   UNL A   1      45.965  29.854  33.472  1.00  0.00    -0.203 F 
ATOM     90  F   UNL A   1      46.013  25.521  36.787  1.00  0.00    -0.200 F 
ATOM     91  C   UNL A   1      47.128  27.374  35.838  1.00  0.00     0.200 A 
ATOM     92  F   UNL A   1      48.198  29.243  34.871  1.00  0.00    -0.200 F 
ATOM     93  F   UNL A   1      48.233  27.087  36.540  1.00  0.00    -0.200 F 
ENDBRANCH  60  83
ENDBRANCH  34  35
ENDBRANCH  26  29
ENDBRANCH  24  25
ENDBRANCH  23  24
ENDBRANCH  22  23
ENDBRANCH  21  22
ENDBRANCH   1  21
TORSDOF 18
ENDMDL
MODEL 2
REMARK VINA RESULT:     -10.7      1.932      3.795
REMARK SMILES CCC[C@@H](C)C[C@H](C(=O)NCCCCCCNC(=O)c1ccc(-c2c3nc(c(-c4c(F)c(F)c(F)c(F)c4F)c4ccc([nH]4)c(-c4c(F)c(F)c(F)c(F)c4F)c4nc(c(-c5c(F)c(F)c(F)c(F)c5F)c5ccc2[nH]5)C=C4)C=C3)cc1)c1ccccc1C
REMARK SMILES IDX 12 1 11 2 10 3 8 4 9 5 7 7 6 8 4 9 5 10 3 11 2 12 1 13 83 14
REMARK SMILES IDX 84 15 88 16 85 17 87 18 89 19 86 20 13 21 14 22 15 23 16 24
REMARK SMILES IDX 17 25 18 26 19 28 20 29 21 30 82 31 22 32 81 33 23 34 24 35
REMARK SMILES IDX 25 36 75 37 26 38 80 39 74 40 76 41 27 42 79 43 73 44 72 45
REMARK SMILES IDX 28 47 60 48 40 49 59 50 41 51 44 52 58 53 77 54 42 55 43 56
REMARK SMILES IDX 57 58 78 59 45 60 29 61 30 62 38 63 31 64 32 65 36 66 39 67
REMARK SMILES IDX 33 68 34 69 37 70 35 71 61 72 62 73 70 74 63 75 64 76 68 77
REMARK SMILES IDX 71 78 65 79 66 80 69 81 67 82 46 83 47 84 55 85 48 86 49 87
REMARK SMILES IDX 53 88 56 89 50 90 51 91 54 92 52 93
REMARK H PARENT 10 6 17 27 76 46 44 57
REMARK Flexibility Score: inf
ROOT
ATOM      1  C   UNL A   1      31.851  28.622  27.563  1.00  0.00     0.021 C 
ENDROOT
BRANCH   1   2
ATOM      2  C   UNL A   1      32.224  27.305  26.890  1.00  0.00     0.116 C 
BRANCH   2   3
ATOM      3  N   UNL A   1      31.149  26.330  26.910  1.00  0.00    -0.356 N 
ATOM      4  C   UNL A   1      30.798  25.383  25.985  1.00  0.00     0.227 C 
ATOM      5  O   UNL A   1      29.991  24.518  26.336  1.00  0.00    -0.274 OA
ATOM      6  H   UNL A   1      30.583  26.352  27.716  1.00  0.00     0.163 HD
BRANCH   4   7
ATOM      7  C   UNL A   1      31.376  25.429  24.560  1.00  0.00     0.109 C 
BRANCH   7   8
ATOM      8  C   UNL A   1      31.069  24.113  23.801  1.00  0.00     0.021 C 
BRANCH   8   9
ATOM      9  C   UNL A   1      32.268  23.473  23.045  1.00  0.00    -0.013 C 
ATOM     10  C   UNL A   1      32.094  21.947  23.055  1.00  0.00     0.007 C 
BRANCH   9  11
ATOM     11  C   UNL A   1      33.636  23.846  23.648  1.00  0.00     0.003 C 
BRANCH  11  12
ATOM     12  C   UNL A   1      34.838  23.042  23.135  1.00  0.00    -0.003 C 
ATOM     13  C   UNL A   1      36.124  23.292  23.909  1.00  0.00     0.004 C 
ENDBRANCH  11  12
ENDBRANCH   9  11
ENDBRANCH   8   9
ENDBRANCH   7   8
BRANCH   7  14
ATOM     14  C   UNL A   1      30.936  26.756  23.904  1.00  0.00    -0.033 A 
ATOM     15  C   UNL A   1      29.534  26.938  23.791  1.00  0.00     0.005 A 
ATOM     16  C   UNL A   1      31.770  27.752  23.346  1.00  0.00    -0.047 A 
ATOM     17  C   UNL A   1      28.975  28.061  23.179  1.00  0.00     0.000 A 
ATOM     18  C   UNL A   1      31.182  28.897  22.762  1.00  0.00     0.004 A 
ATOM     19  C   UNL A   1      33.273  27.712  23.336  1.00  0.00     0.044 C 
ATOM     20  C   UNL A   1      29.802  29.048  22.671  1.00  0.00     0.000 A 
ENDBRANCH   7  14
ENDBRANCH   4   7
ENDBRANCH   2   3
ENDBRANCH   1   2
BRANCH   1  21
ATOM     21  C   UNL A   1      32.413  29.888  26.903  1.00  0.00     0.002 C 
BRANCH  21  22
ATOM     22  C   UNL A   1      31.423  30.724  26.086  1.00  0.00     0.002 C 
BRANCH  22  23
ATOM     23  C   UNL A   1      31.314  32.200  26.473  1.00  0.00     0.021 C 
BRANCH  23  24
ATOM     24  C   UNL A   1      32.579  32.820  27.056  1.00  0.00     0.116 C 
BRANCH  24  25
ATOM     25  N   UNL A   1      32.361  34.141  27.625  1.00  0.00    -0.352 N 
ATOM     26  C   UNL A   1      33.055  34.767  28.634  1.00  0.00     0.251 C 
ATOM     27  H   UNL A   1      31.617  34.655  27.236  1.00  0.00     0.163 HD
ATOM     28  O   UNL A   1      32.675  35.844  29.079  1.00  0.00    -0.269 OA
BRANCH  26  29
ATOM     29  C   UNL A   1      34.252  34.114  29.206  1.00  0.00     0.039 A 
ATOM     30  C   UNL A   1      35.517  34.494  28.745  1.00  0.00     0.014 A 
ATOM     31  C   UNL A   1      34.127  33.149  30.207  1.00  0.00     0.014 A 
ATOM     32  C   UNL A   1      36.660  33.953  29.338  1.00  0.00     0.010 A 
ATOM     33  C   UNL A   1      35.265  32.660  30.839  1.00  0.00     0.010 A 
ATOM     34  C   UNL A   1      36.543  33.058  30.413  1.00  0.00    -0.014 A 
BRANCH  34  35
ATOM     35  C   UNL A   1      37.734  32.499  31.101  1.00  0.00     0.031 A 
ATOM     36  C   UNL A   1      38.514  31.392  30.450  1.00  0.00     0.074 A 
ATOM     37  C   UNL A   1      38.056  32.915  32.341  1.00  0.00     0.049 A 
ATOM     38  N   UNL A   1      39.475  30.652  30.941  1.00  0.00    -0.248 NA
ATOM     39  C   UNL A   1      38.138  31.051  29.069  1.00  0.00     0.031 C 
ATOM     40  C   UNL A   1      37.363  33.964  33.089  1.00  0.00     0.029 A 
ATOM     41  N   UNL A   1      39.037  32.486  33.200  1.00  0.00    -0.354 N 
ATOM     42  C   UNL A   1      39.798  29.744  29.943  1.00  0.00     0.074 A 
ATOM     43  C   UNL A   1      38.903  29.996  28.834  1.00  0.00     0.031 C 
ATOM     44  C   UNL A   1      37.945  34.104  34.291  1.00  0.00     0.029 A 
ATOM     45  C   UNL A   1      39.022  33.126  34.417  1.00  0.00     0.049 A 
ATOM     46  H   UNL A   1      39.689  31.787  32.968  1.00  0.00     0.167 HD
ATOM     47  C   UNL A   1      40.766  28.796  29.945  1.00  0.00     0.037 A 
ATOM     48  C   UNL A   1      39.780  32.931  35.513  1.00  0.00     0.037 A 
ATOM     49  C   UNL A   1      41.676  28.572  31.035  1.00  0.00     0.049 A 
ATOM     50  C   UNL A   1      40.844  31.866  35.491  1.00  0.00     0.074 A 
ATOM     51  C   UNL A   1      42.721  27.669  31.117  1.00  0.00     0.029 A 
ATOM     52  N   UNL A   1      41.651  29.265  32.238  1.00  0.00    -0.354 N 
ATOM     53  N   UNL A   1      41.167  31.038  34.529  1.00  0.00    -0.248 NA
ATOM     54  C   UNL A   1      41.651  31.711  36.711  1.00  0.00     0.031 C 
ATOM     55  C   UNL A   1      43.305  27.790  32.381  1.00  0.00     0.029 A 
ATOM     56  C   UNL A   1      42.655  28.800  33.070  1.00  0.00     0.049 A 
ATOM     57  H   UNL A   1      41.014  29.980  32.464  1.00  0.00     0.167 HD
ATOM     58  C   UNL A   1      42.235  30.291  35.008  1.00  0.00     0.074 A 
ATOM     59  C   UNL A   1      42.508  30.765  36.349  1.00  0.00     0.031 C 
ATOM     60  C   UNL A   1      42.929  29.304  34.391  1.00  0.00     0.037 A 
BRANCH  47  61
ATOM     61  C   UNL A   1      40.887  27.928  28.725  1.00  0.00     0.064 A 
ATOM     62  C   UNL A   1      40.081  26.793  28.548  1.00  0.00     0.173 A 
ATOM     63  C   UNL A   1      41.801  28.249  27.711  1.00  0.00     0.173 A 
ATOM     64  F   UNL A   1      39.200  26.435  29.495  1.00  0.00    -0.203 F 
ATOM     65  C   UNL A   1      40.209  25.994  27.415  1.00  0.00     0.198 A 
ATOM     66  C   UNL A   1      41.905  27.465  26.565  1.00  0.00     0.198 A 
ATOM     67  F   UNL A   1      42.591  29.327  27.828  1.00  0.00    -0.203 F 
ATOM     68  F   UNL A   1      39.466  24.885  27.293  1.00  0.00    -0.200 F 
ATOM     69  C   UNL A   1      41.115  26.334  26.422  1.00  0.00     0.200 A 
ATOM     70  F   UNL A   1      42.772  27.801  25.601  1.00  0.00    -0.200 F 
ATOM     71  F   UNL A   1      41.235  25.566  25.330  1.00  0.00    -0.200 F 
ENDBRANCH  47  61
BRANCH  48  72
ATOM     72  C   UNL A   1      39.574  33.776  36.717  1.00  0.00     0.064 A 
ATOM     73  C   UNL A   1      38.813  33.309  37.798  1.00  0.00     0.173 A 
ATOM     74  C   UNL A   1      40.126  35.061  36.814  1.00  0.00     0.173 A 
ATOM     75  F   UNL A   1      38.247  32.094  37.743  1.00  0.00    -0.203 F 
ATOM     76  C   UNL A   1      38.594  34.103  38.921  1.00  0.00     0.198 A 
ATOM     77  C   UNL A   1      39.928  35.845  37.948  1.00  0.00     0.198 A 
ATOM     78  F   UNL A   1      40.865  35.553  35.809  1.00  0.00    -0.203 F 
ATOM     79  F   UNL A   1      37.826  33.649  39.920  1.00  0.00    -0.200 F 
ATOM     80  C   UNL A   1      39.156  35.369  38.999  1.00  0.00     0.200 A 
ATOM     81  F   UNL A   1      40.484  37.062  38.025  1.00  0.00    -0.200 F 
ATOM     82  F   UNL A   1      38.948  36.132  40.080  1.00  0.00    -0.200 F 
ENDBRANCH  48  72
BRANCH  60  83
ATOM     83  C   UNL A   1      44.089  28.707  35.131  1.00  0.00     0.064 A 
ATOM     84  C   UNL A   1      43.929  27.622  36.004  1.00  0.00     0.173 A 
ATOM     85  C   UNL A   1      45.388  29.190  34.911  1.00  0.00     0.173 A 
ATOM     86  F   UNL A   1      42.704  27.135  36.259  1.00  0.00    -0.203 F 
ATOM     87  C   UNL A   1      45.027  27.051  36.642  1.00  0.00     0.198 A 
ATOM     88  C   UNL A   1      46.486  28.600  35.529  1.00  0.00     0.198 A 
ATOM     89  F   UNL A   1      45.594  30.223  34.079  1.00  0.00    -0.203 F 
ATOM     90  F   UNL A   1      44.849  26.036  37.499  1.00  0.00    -0.200 F 
ATOM     91  C   UNL A   1      46.305  27.534  36.397  1.00  0.00     0.200 A 
ATOM     92  F   UNL A   1      47.720  29.058  35.280  1.00  0.00    -0.200 F 
ATOM     93  F   UNL A   1      47.361  26.973  37.001  1.00  0.00    -0.200 F 
ENDBRANCH  60  83
ENDBRANCH  34  35
ENDBRANCH  26  29
ENDBRANCH  24  25
ENDBRANCH  23  24
ENDBRANCH  22  23
ENDBRANCH  21  22
ENDBRANCH   1  21
TORSDOF 18
ENDMDL
MODEL 3
REMARK VINA RESULT:     -10.6      1.906      3.143
REMARK SMILES CCC[C@@H](C)C[C@H](C(=O)NCCCCCCNC(=O)c1ccc(-c2c3nc(c(-c4c(F)c(F)c(F)c(F)c4F)c4ccc([nH]4)c(-c4c(F)c(F)c(F)c(F)c4F)c4nc(c(-c5c(F)c(F)c(F)c(F)c5F)c5ccc2[nH]5)C=C4)C=C3)cc1)c1ccccc1C
REMARK SMILES IDX 12 1 11 2 10 3 8 4 9 5 7 7 6 8 4 9 5 10 3 11 2 12 1 13 83 14
REMARK SMILES IDX 84 15 88 16 85 17 87 18 89 19 86 20 13 21 14 22 15 23 16 24
REMARK SMILES IDX 17 25 18 26 19 28 20 29 21 30 82 31 22 32 81 33 23 34 24 35
REMARK SMILES IDX 25 36 75 37 26 38 80 39 74 40 76 41 27 42 79 43 73 44 72 45
REMARK SMILES IDX 28 47 60 48 40 49 59 50 41 51 44 52 58 53 77 54 42 55 43 56
REMARK SMILES IDX 57 58 78 59 45 60 29 61 30 62 38 63 31 64 32 65 36 66 39 67
REMARK SMILES IDX 33 68 34 69 37 70 35 71 61 72 62 73 70 74 63 75 64 76 68 77
REMARK SMILES IDX 71 78 65 79 66 80 69 81 67 82 46 83 47 84 55 85 48 86 49 87
REMARK SMILES IDX 53 88 56 89 50 90 51 91 54 92 52 93
REMARK H PARENT 10 6 17 27 76 46 44 57
REMARK Flexibility Score: inf
ROOT
ATOM      1  C   UNL A   1      31.858  28.270  27.612  1.00  0.00     0.021 C 
ENDROOT
BRANCH   1   2
ATOM      2  C   UNL A   1      31.828  27.270  26.460  1.00  0.00     0.116 C 
BRANCH   2   3
ATOM      3  N   UNL A   1      30.703  26.355  26.528  1.00  0.00    -0.356 N 
ATOM      4  C   UNL A   1      30.675  24.987  26.485  1.00  0.00     0.227 C 
ATOM      5  O   UNL A   1      29.618  24.431  26.797  1.00  0.00    -0.274 OA
ATOM      6  H   UNL A   1      29.822  26.785  26.620  1.00  0.00     0.163 HD
BRANCH   4   7
ATOM      7  C   UNL A   1      31.912  24.192  26.036  1.00  0.00     0.109 C 
BRANCH   7   8
ATOM      8  C   UNL A   1      31.687  22.670  26.229  1.00  0.00     0.021 C 
BRANCH   8   9
ATOM      9  C   UNL A   1      32.967  21.824  26.477  1.00  0.00    -0.013 C 
ATOM     10  C   UNL A   1      33.853  22.562  27.491  1.00  0.00     0.007 C 
BRANCH   9  11
ATOM     11  C   UNL A   1      33.769  21.541  25.192  1.00  0.00     0.003 C 
BRANCH  11  12
ATOM     12  C   UNL A   1      32.944  21.164  23.954  1.00  0.00    -0.003 C 
ATOM     13  C   UNL A   1      32.524  19.702  23.914  1.00  0.00     0.004 C 
ENDBRANCH  11  12
ENDBRANCH   9  11
ENDBRANCH   8   9
ENDBRANCH   7   8
BRANCH   7  14
ATOM     14  C   UNL A   1      32.317  24.685  24.628  1.00  0.00    -0.033 A 
ATOM     15  C   UNL A   1      31.282  24.662  23.659  1.00  0.00     0.005 A 
ATOM     16  C   UNL A   1      33.605  25.076  24.198  1.00  0.00    -0.047 A 
ATOM     17  C   UNL A   1      31.497  25.030  22.330  1.00  0.00     0.000 A 
ATOM     18  C   UNL A   1      33.792  25.477  22.855  1.00  0.00     0.004 A 
ATOM     19  C   UNL A   1      34.829  25.124  25.070  1.00  0.00     0.044 C 
ATOM     20  C   UNL A   1      32.754  25.448  21.929  1.00  0.00     0.000 A 
ENDBRANCH   7  14
ENDBRANCH   4   7
ENDBRANCH   2   3
ENDBRANCH   1   2
BRANCH   1  21
ATOM     21  C   UNL A   1      32.487  29.632  27.294  1.00  0.00     0.002 C 
BRANCH  21  22
ATOM     22  C   UNL A   1      31.781  30.472  26.224  1.00  0.00     0.002 C 
BRANCH  22  23
ATOM     23  C   UNL A   1      31.507  31.931  26.591  1.00  0.00     0.021 C 
BRANCH  23  24
ATOM     24  C   UNL A   1      32.639  32.648  27.318  1.00  0.00     0.116 C 
BRANCH  24  25
ATOM     25  N   UNL A   1      32.343  34.042  27.608  1.00  0.00    -0.352 N 
ATOM     26  C   UNL A   1      32.958  34.882  28.506  1.00  0.00     0.251 C 
ATOM     27  H   UNL A   1      31.603  34.437  27.092  1.00  0.00     0.163 HD
ATOM     28  O   UNL A   1      32.516  36.007  28.715  1.00  0.00    -0.269 OA
BRANCH  26  29
ATOM     29  C   UNL A   1      34.145  34.408  29.250  1.00  0.00     0.039 A 
ATOM     30  C   UNL A   1      33.960  33.682  30.431  1.00  0.00     0.014 A 
ATOM     31  C   UNL A   1      35.432  34.661  28.772  1.00  0.00     0.014 A 
ATOM     32  C   UNL A   1      35.067  33.151  31.097  1.00  0.00     0.010 A 
ATOM     33  C   UNL A   1      36.528  34.076  29.399  1.00  0.00     0.010 A 
ATOM     34  C   UNL A   1      36.356  33.315  30.567  1.00  0.00    -0.014 A 
BRANCH  34  35
ATOM     35  C   UNL A   1      37.553  32.724  31.217  1.00  0.00     0.031 A 
ATOM     36  C   UNL A   1      38.285  31.600  30.540  1.00  0.00     0.074 A 
ATOM     37  C   UNL A   1      37.923  33.127  32.447  1.00  0.00     0.049 A 
ATOM     38  N   UNL A   1      39.241  30.834  30.999  1.00  0.00    -0.248 NA
ATOM     39  C   UNL A   1      37.859  31.273  29.170  1.00  0.00     0.031 C 
ATOM     40  C   UNL A   1      37.280  34.190  33.219  1.00  0.00     0.029 A 
ATOM     41  N   UNL A   1      38.918  32.670  33.276  1.00  0.00    -0.354 N 
ATOM     42  C   UNL A   1      39.510  29.921  29.989  1.00  0.00     0.074 A 
ATOM     43  C   UNL A   1      38.588  30.199  28.908  1.00  0.00     0.031 C 
ATOM     44  C   UNL A   1      37.901  34.311  34.403  1.00  0.00     0.029 A 
ATOM     45  C   UNL A   1      38.957  33.306  34.493  1.00  0.00     0.049 A 
ATOM     46  H   UNL A   1      39.546  31.956  33.022  1.00  0.00     0.167 HD
ATOM     47  C   UNL A   1      40.453  28.949  29.959  1.00  0.00     0.037 A 
ATOM     48  C   UNL A   1      39.742  33.088  35.565  1.00  0.00     0.037 A 
ATOM     49  C   UNL A   1      41.390  28.698  31.020  1.00  0.00     0.049 A 
ATOM     50  C   UNL A   1      40.778  31.997  35.508  1.00  0.00     0.074 A 
ATOM     51  C   UNL A   1      42.414  27.769  31.068  1.00  0.00     0.029 A 
ATOM     52  N   UNL A   1      41.419  29.387  32.225  1.00  0.00    -0.354 N 
ATOM     53  N   UNL A   1      41.051  31.164  34.534  1.00  0.00    -0.248 NA
ATOM     54  C   UNL A   1      41.618  31.818  36.702  1.00  0.00     0.031 C 
ATOM     55  C   UNL A   1      43.039  27.870  32.314  1.00  0.00     0.029 A 
ATOM     56  C   UNL A   1      42.436  28.895  33.025  1.00  0.00     0.049 A 
ATOM     57  H   UNL A   1      40.808  30.118  32.472  1.00  0.00     0.167 HD
ATOM     58  C   UNL A   1      42.113  30.389  34.979  1.00  0.00     0.074 A 
ATOM     59  C   UNL A   1      42.439  30.852  36.312  1.00  0.00     0.031 C 
ATOM     60  C   UNL A   1      42.763  29.387  34.339  1.00  0.00     0.037 A 
BRANCH  47  61
ATOM     61  C   UNL A   1      40.516  28.083  28.734  1.00  0.00     0.064 A 
ATOM     62  C   UNL A   1      41.288  28.442  27.619  1.00  0.00     0.173 A 
ATOM     63  C   UNL A   1      39.817  26.868  28.685  1.00  0.00     0.173 A 
ATOM     64  F   UNL A   1      41.966  29.600  27.610  1.00  0.00    -0.203 F 
ATOM     65  C   UNL A   1      41.332  27.631  26.488  1.00  0.00     0.198 A 
ATOM     66  C   UNL A   1      39.887  26.045  27.564  1.00  0.00     0.198 A 
ATOM     67  F   UNL A   1      39.067  26.476  29.726  1.00  0.00    -0.203 F 
ATOM     68  F   UNL A   1      42.034  28.020  25.414  1.00  0.00    -0.200 F 
ATOM     69  C   UNL A   1      40.638  26.431  26.464  1.00  0.00     0.200 A 
ATOM     70  F   UNL A   1      39.226  24.880  27.547  1.00  0.00    -0.200 F 
ATOM     71  F   UNL A   1      40.684  25.650  25.375  1.00  0.00    -0.200 F 
ENDBRANCH  47  61
BRANCH  48  72
ATOM     72  C   UNL A   1      39.595  33.934  36.778  1.00  0.00     0.064 A 
ATOM     73  C   UNL A   1      40.271  35.159  36.883  1.00  0.00     0.173 A 
ATOM     74  C   UNL A   1      38.788  33.540  37.854  1.00  0.00     0.173 A 
ATOM     75  F   UNL A   1      41.072  35.568  35.888  1.00  0.00    -0.203 F 
ATOM     76  C   UNL A   1      40.160  35.947  38.025  1.00  0.00     0.198 A 
ATOM     77  C   UNL A   1      38.656  34.341  38.986  1.00  0.00     0.198 A 
ATOM     78  F   UNL A   1      38.118  32.379  37.802  1.00  0.00    -0.203 F 
ATOM     79  F   UNL A   1      40.850  37.091  38.117  1.00  0.00    -0.200 F 
ATOM     80  C   UNL A   1      39.348  35.541  39.074  1.00  0.00     0.200 A 
ATOM     81  F   UNL A   1      37.861  33.952  39.991  1.00  0.00    -0.200 F 
ATOM     82  F   UNL A   1      39.239  36.301  40.172  1.00  0.00    -0.200 F 
ENDBRANCH  48  72
BRANCH  60  83
ATOM     83  C   UNL A   1      43.930  28.758  35.041  1.00  0.00     0.064 A 
ATOM     84  C   UNL A   1      43.780  27.624  35.852  1.00  0.00     0.173 A 
ATOM     85  C   UNL A   1      45.224  29.263  34.846  1.00  0.00     0.173 A 
ATOM     86  F   UNL A   1      42.560  27.114  36.080  1.00  0.00    -0.203 F 
ATOM     87  C   UNL A   1      44.884  27.027  36.454  1.00  0.00     0.198 A 
ATOM     88  C   UNL A   1      46.328  28.648  35.428  1.00  0.00     0.198 A 
ATOM     89  F   UNL A   1      45.420  30.343  34.074  1.00  0.00    -0.203 F 
ATOM     90  F   UNL A   1      44.716  25.964  37.253  1.00  0.00    -0.200 F 
ATOM     91  C   UNL A   1      46.157  27.533  36.234  1.00  0.00     0.200 A 
ATOM     92  F   UNL A   1      47.558  29.130  35.203  1.00  0.00    -0.200 F 
ATOM     93  F   UNL A   1      47.220  26.947  36.803  1.00  0.00    -0.200 F 
ENDBRANCH  60  83
ENDBRANCH  34  35
ENDBRANCH  26  29
ENDBRANCH  24  25
ENDBRANCH  23  24
ENDBRANCH  22  23
ENDBRANCH  21  22
ENDBRANCH   1  21
TORSDOF 18
ENDMDL
