MODEL 1
REMARK VINA RESULT:     -11.6      0.000      0.000
REMARK SMILES O=C(NCCCCCCNC(=O)c1ccn(CC(F)(F)F)c1)c1ccc(-c2c3nc(c(-c4c(F)c(F)c(F)c(F)c4F)c4ccc([nH]4)c(-c4c(F)c(F)c(F)c(F)c4F)c4nc(c(-c5c(F)c(F)c(F)c(F)c5F)c5ccc2[nH]5)C=C4)C=C3)cc1
REMARK SMILES IDX 6 1 5 2 4 3 3 4 1 5 2 6 23 8 24 9 85 10 25 11 84 12 26 13
REMARK SMILES IDX 27 14 28 15 78 16 29 17 83 18 77 19 79 20 30 21 82 22 76 23
REMARK SMILES IDX 75 24 31 26 63 27 43 28 62 29 44 30 47 31 61 32 80 33 45 34
REMARK SMILES IDX 46 35 60 37 81 38 48 39 32 40 33 41 41 42 34 43 35 44 39 45
REMARK SMILES IDX 42 46 36 47 37 48 40 49 38 50 64 51 65 52 73 53 66 54 67 55
REMARK SMILES IDX 71 56 74 57 68 58 69 59 72 60 70 61 49 62 50 63 58 64 51 65
REMARK SMILES IDX 52 66 56 67 59 68 53 69 54 70 57 71 55 72 7 73 8 74 9 75
REMARK SMILES IDX 10 76 11 77 12 79 13 80 14 81 22 82 15 83 16 84 17 85 18 86
REMARK SMILES IDX 19 87 20 88 21 89
REMARK H PARENT 3 7 79 25 47 36 10 78
REMARK Flexibility Score: inf
ROOT
ATOM      1  C   UNL A   1      32.914  26.592  26.147  1.00  0.00     0.002 C 
ENDROOT
BRANCH   1   2
ATOM      2  C   UNL A   1      33.166  27.953  26.797  1.00  0.00     0.021 C 
BRANCH   2   3
ATOM      3  C   UNL A   1      34.573  28.515  26.581  1.00  0.00     0.116 C 
BRANCH   3   4
ATOM      4  N   UNL A   1      34.800  29.847  27.112  1.00  0.00    -0.352 N 
ATOM      5  O   UNL A   1      35.818  31.656  27.946  1.00  0.00    -0.269 OA
ATOM      6  C   UNL A   1      35.909  30.473  27.620  1.00  0.00     0.251 C 
ATOM      7  H   UNL A   1      33.996  30.415  27.107  1.00  0.00     0.163 HD
BRANCH   6   8
ATOM      8  C   UNL A   1      37.191  29.764  27.851  1.00  0.00     0.039 A 
ATOM      9  C   UNL A   1      38.263  29.817  26.961  1.00  0.00     0.014 A 
ATOM     10  C   UNL A   1      37.322  29.034  29.045  1.00  0.00     0.014 A 
ATOM     11  C   UNL A   1      39.408  29.069  27.197  1.00  0.00     0.010 A 
ATOM     12  C   UNL A   1      38.494  28.324  29.317  1.00  0.00     0.010 A 
ATOM     13  C   UNL A   1      39.534  28.338  28.383  1.00  0.00    -0.014 A 
BRANCH  13  14
ATOM     14  C   UNL A   1      40.869  27.767  28.671  1.00  0.00     0.031 A 
ATOM     15  C   UNL A   1      40.995  26.319  28.208  1.00  0.00     0.074 A 
ATOM     16  C   UNL A   1      41.751  28.533  29.371  1.00  0.00     0.049 A 
ATOM     17  N   UNL A   1      41.712  25.350  28.692  1.00  0.00    -0.248 NA
ATOM     18  C   UNL A   1      40.125  25.858  27.094  1.00  0.00     0.031 C 
ATOM     19  C   UNL A   1      41.494  29.929  29.752  1.00  0.00     0.029 A 
ATOM     20  N   UNL A   1      43.006  28.312  29.912  1.00  0.00    -0.354 N 
ATOM     21  C   UNL A   1      41.530  24.243  27.842  1.00  0.00     0.074 A 
ATOM     22  C   UNL A   1      40.444  24.570  26.968  1.00  0.00     0.031 C 
ATOM     23  C   UNL A   1      42.507  30.409  30.498  1.00  0.00     0.029 A 
ATOM     24  C   UNL A   1      43.524  29.390  30.674  1.00  0.00     0.049 A 
ATOM     25  H   UNL A   1      43.500  27.472  29.778  1.00  0.00     0.167 HD
ATOM     26  C   UNL A   1      42.383  23.181  27.799  1.00  0.00     0.037 A 
ATOM     27  C   UNL A   1      44.669  29.458  31.424  1.00  0.00     0.037 A 
ATOM     28  C   UNL A   1      43.412  23.307  28.775  1.00  0.00     0.049 A 
ATOM     29  C   UNL A   1      45.387  28.190  31.197  1.00  0.00     0.074 A 
ATOM     30  C   UNL A   1      43.470  23.134  30.131  1.00  0.00     0.029 A 
ATOM     31  N   UNL A   1      44.585  23.889  28.362  1.00  0.00    -0.354 N 
ATOM     32  N   UNL A   1      46.030  27.889  30.109  1.00  0.00    -0.248 NA
ATOM     33  C   UNL A   1      45.365  27.158  32.243  1.00  0.00     0.031 C 
ATOM     34  C   UNL A   1      44.562  23.924  30.555  1.00  0.00     0.029 A 
ATOM     35  C   UNL A   1      45.135  24.540  29.438  1.00  0.00     0.049 A 
ATOM     36  H   UNL A   1      44.965  23.846  27.454  1.00  0.00     0.167 HD
ATOM     37  C   UNL A   1      46.207  26.528  30.228  1.00  0.00     0.074 A 
ATOM     38  C   UNL A   1      46.073  26.214  31.629  1.00  0.00     0.031 C 
ATOM     39  C   UNL A   1      45.918  25.727  29.172  1.00  0.00     0.037 A 
BRANCH  26  40
ATOM     40  C   UNL A   1      42.548  22.101  26.763  1.00  0.00     0.064 A 
ATOM     41  C   UNL A   1      42.023  20.816  27.044  1.00  0.00     0.173 A 
ATOM     42  C   UNL A   1      43.466  22.172  25.703  1.00  0.00     0.173 A 
ATOM     43  F   UNL A   1      41.113  20.644  28.015  1.00  0.00    -0.203 F 
ATOM     44  C   UNL A   1      42.482  19.670  26.397  1.00  0.00     0.198 A 
ATOM     45  C   UNL A   1      43.881  21.026  25.019  1.00  0.00     0.198 A 
ATOM     46  F   UNL A   1      44.060  23.325  25.373  1.00  0.00    -0.203 F 
ATOM     47  F   UNL A   1      42.057  18.463  26.796  1.00  0.00    -0.200 F 
ATOM     48  C   UNL A   1      43.422  19.775  25.392  1.00  0.00     0.200 A 
ATOM     49  F   UNL A   1      44.792  21.135  24.041  1.00  0.00    -0.200 F 
ATOM     50  F   UNL A   1      43.914  18.673  24.811  1.00  0.00    -0.200 F 
ENDBRANCH  26  40
BRANCH  27  51
ATOM     51  C   UNL A   1      45.306  30.429  32.403  1.00  0.00     0.064 A 
ATOM     52  C   UNL A   1      45.025  30.531  33.774  1.00  0.00     0.173 A 
ATOM     53  C   UNL A   1      46.337  31.315  31.969  1.00  0.00     0.173 A 
ATOM     54  F   UNL A   1      44.011  29.869  34.332  1.00  0.00    -0.203 F 
ATOM     55  C   UNL A   1      45.769  31.349  34.642  1.00  0.00     0.198 A 
ATOM     56  C   UNL A   1      47.097  32.106  32.835  1.00  0.00     0.198 A 
ATOM     57  F   UNL A   1      46.651  31.451  30.674  1.00  0.00    -0.203 F 
ATOM     58  F   UNL A   1      45.458  31.383  35.946  1.00  0.00    -0.200 F 
ATOM     59  C   UNL A   1      46.825  32.109  34.179  1.00  0.00     0.200 A 
ATOM     60  F   UNL A   1      48.105  32.844  32.347  1.00  0.00    -0.200 F 
ATOM     61  F   UNL A   1      47.560  32.850  35.019  1.00  0.00    -0.200 F 
ENDBRANCH  27  51
BRANCH  39  62
ATOM     62  C   UNL A   1      46.009  26.454  27.845  1.00  0.00     0.064 A 
ATOM     63  C   UNL A   1      44.844  26.813  27.152  1.00  0.00     0.173 A 
ATOM     64  C   UNL A   1      47.222  26.660  27.169  1.00  0.00     0.173 A 
ATOM     65  F   UNL A   1      43.644  26.650  27.728  1.00  0.00    -0.203 F 
ATOM     66  C   UNL A   1      44.898  27.332  25.854  1.00  0.00     0.198 A 
ATOM     67  C   UNL A   1      47.282  27.189  25.882  1.00  0.00     0.198 A 
ATOM     68  F   UNL A   1      48.377  26.344  27.748  1.00  0.00    -0.203 F 
ATOM     69  F   UNL A   1      43.764  27.653  25.216  1.00  0.00    -0.200 F 
ATOM     70  C   UNL A   1      46.117  27.517  25.220  1.00  0.00     0.200 A 
ATOM     71  F   UNL A   1      48.472  27.376  25.290  1.00  0.00    -0.200 F 
ATOM     72  F   UNL A   1      46.169  28.020  23.978  1.00  0.00    -0.200 F 
ENDBRANCH  39  62
ENDBRANCH  13  14
ENDBRANCH   6   8
ENDBRANCH   3   4
ENDBRANCH   2   3
ENDBRANCH   1   2
BRANCH   1  73
ATOM     73  C   UNL A   1      34.145  25.926  25.528  1.00  0.00     0.002 C 
BRANCH  73  74
ATOM     74  C   UNL A   1      33.917  24.523  24.953  1.00  0.00     0.021 C 
BRANCH  74  75
ATOM     75  C   UNL A   1      32.736  24.409  23.988  1.00  0.00     0.116 C 
BRANCH  75  76
ATOM     76  N   UNL A   1      33.169  24.570  22.612  1.00  0.00    -0.352 N 
ATOM     77  C   UNL A   1      33.035  25.662  21.796  1.00  0.00     0.252 C 
ATOM     78  H   UNL A   1      33.620  23.791  22.212  1.00  0.00     0.163 HD
ATOM     79  O   UNL A   1      33.161  25.518  20.577  1.00  0.00    -0.269 OA
BRANCH  77  80
ATOM     80  C   UNL A   1      32.743  26.953  22.397  1.00  0.00     0.057 A 
ATOM     81  C   UNL A   1      33.612  28.067  22.592  1.00  0.00     0.033 A 
ATOM     82  C   UNL A   1      31.494  27.357  22.837  1.00  0.00     0.099 A 
ATOM     83  C   UNL A   1      32.880  29.080  23.171  1.00  0.00     0.087 A 
ATOM     84  N   UNL A   1      31.600  28.625  23.343  1.00  0.00    -0.344 N 
BRANCH  84  85
ATOM     85  C   UNL A   1      30.509  29.392  23.914  1.00  0.00     0.236 C 
BRANCH  85  86
ATOM     86  C   UNL A   1      29.586  29.972  22.867  1.00  0.00     0.406 C 
ATOM     87  F   UNL A   1      28.404  29.318  22.810  1.00  0.00    -0.169 F 
ATOM     88  F   UNL A   1      29.307  31.266  23.161  1.00  0.00    -0.169 F 
ATOM     89  F   UNL A   1      30.135  29.955  21.633  1.00  0.00    -0.169 F 
ENDBRANCH  85  86
ENDBRANCH  84  85
ENDBRANCH  77  80
ENDBRANCH  75  76
ENDBRANCH  74  75
ENDBRANCH  73  74
ENDBRANCH   1  73
TORSDOF 15
ENDMDL
MODEL 2
REMARK VINA RESULT:     -11.3      2.135      3.279
REMARK SMILES O=C(NCCCCCCNC(=O)c1ccn(CC(F)(F)F)c1)c1ccc(-c2c3nc(c(-c4c(F)c(F)c(F)c(F)c4F)c4ccc([nH]4)c(-c4c(F)c(F)c(F)c(F)c4F)c4nc(c(-c5c(F)c(F)c(F)c(F)c5F)c5ccc2[nH]5)C=C4)C=C3)cc1
REMARK SMILES IDX 6 1 5 2 4 3 3 4 1 5 2 6 23 8 24 9 85 10 25 11 84 12 26 13
REMARK SMILES IDX 27 14 28 15 78 16 29 17 83 18 77 19 79 20 30 21 82 22 76 23
REMARK SMILES IDX 75 24 31 26 63 27 43 28 62 29 44 30 47 31 61 32 80 33 45 34
REMARK SMILES IDX 46 35 60 37 81 38 48 39 32 40 33 41 41 42 34 43 35 44 39 45
REMARK SMILES IDX 42 46 36 47 37 48 40 49 38 50 64 51 65 52 73 53 66 54 67 55
REMARK SMILES IDX 71 56 74 57 68 58 69 59 72 60 70 61 49 62 50 63 58 64 51 65
REMARK SMILES IDX 52 66 56 67 59 68 53 69 54 70 57 71 55 72 7 73 8 74 9 75
REMARK SMILES IDX 10 76 11 77 12 79 13 80 14 81 22 82 15 83 16 84 17 85 18 86
REMARK SMILES IDX 19 87 20 88 21 89
REMARK H PARENT 3 7 79 25 47 36 10 78
REMARK Flexibility Score: inf
ROOT
ATOM      1  C   UNL A   1      33.069  27.079  25.308  1.00  0.00     0.002 C 
ENDROOT
BRANCH   1   2
ATOM      2  C   UNL A   1      33.213  28.282  26.242  1.00  0.00     0.021 C 
BRANCH   2   3
ATOM      3  C   UNL A   1      34.634  28.535  26.748  1.00  0.00     0.116 C 
BRANCH   3   4
ATOM      4  N   UNL A   1      34.895  29.881  27.227  1.00  0.00    -0.352 N 
ATOM      5  O   UNL A   1      35.961  31.700  27.972  1.00  0.00    -0.269 OA
ATOM      6  C   UNL A   1      36.026  30.506  27.684  1.00  0.00     0.251 C 
ATOM      7  H   UNL A   1      34.099  30.460  27.224  1.00  0.00     0.163 HD
BRANCH   6   8
ATOM      8  C   UNL A   1      37.303  29.786  27.904  1.00  0.00     0.039 A 
ATOM      9  C   UNL A   1      38.361  29.813  26.994  1.00  0.00     0.014 A 
ATOM     10  C   UNL A   1      37.448  29.073  29.106  1.00  0.00     0.014 A 
ATOM     11  C   UNL A   1      39.501  29.056  27.222  1.00  0.00     0.010 A 
ATOM     12  C   UNL A   1      38.615  28.353  29.369  1.00  0.00     0.010 A 
ATOM     13  C   UNL A   1      39.639  28.341  28.416  1.00  0.00    -0.014 A 
BRANCH  13  14
ATOM     14  C   UNL A   1      40.973  27.759  28.691  1.00  0.00     0.031 A 
ATOM     15  C   UNL A   1      41.084  26.312  28.220  1.00  0.00     0.074 A 
ATOM     16  C   UNL A   1      41.866  28.515  29.386  1.00  0.00     0.049 A 
ATOM     17  N   UNL A   1      41.798  25.336  28.693  1.00  0.00    -0.248 NA
ATOM     18  C   UNL A   1      40.201  25.863  27.112  1.00  0.00     0.031 C 
ATOM     19  C   UNL A   1      41.623  29.911  29.776  1.00  0.00     0.029 A 
ATOM     20  N   UNL A   1      43.124  28.283  29.915  1.00  0.00    -0.354 N 
ATOM     21  C   UNL A   1      41.601  24.234  27.840  1.00  0.00     0.074 A 
ATOM     22  C   UNL A   1      40.509  24.573  26.977  1.00  0.00     0.031 C 
ATOM     23  C   UNL A   1      42.646  30.380  30.515  1.00  0.00     0.029 A 
ATOM     24  C   UNL A   1      43.657  29.353  30.677  1.00  0.00     0.049 A 
ATOM     25  H   UNL A   1      43.611  27.440  29.774  1.00  0.00     0.167 HD
ATOM     26  C   UNL A   1      42.446  23.166  27.784  1.00  0.00     0.037 A 
ATOM     27  C   UNL A   1      44.809  29.409  31.418  1.00  0.00     0.037 A 
ATOM     28  C   UNL A   1      43.484  23.280  28.751  1.00  0.00     0.049 A 
ATOM     29  C   UNL A   1      45.515  28.137  31.179  1.00  0.00     0.074 A 
ATOM     30  C   UNL A   1      43.552  23.100  30.106  1.00  0.00     0.029 A 
ATOM     31  N   UNL A   1      44.658  23.855  28.331  1.00  0.00    -0.354 N 
ATOM     32  N   UNL A   1      46.147  27.836  30.084  1.00  0.00    -0.248 NA
ATOM     33  C   UNL A   1      45.495  27.101  32.220  1.00  0.00     0.031 C 
ATOM     34  C   UNL A   1      44.654  23.881  30.525  1.00  0.00     0.029 A 
ATOM     35  C   UNL A   1      45.221  24.498  29.406  1.00  0.00     0.049 A 
ATOM     36  H   UNL A   1      45.029  23.814  27.420  1.00  0.00     0.167 HD
ATOM     37  C   UNL A   1      46.315  26.473  30.195  1.00  0.00     0.074 A 
ATOM     38  C   UNL A   1      46.191  26.154  31.596  1.00  0.00     0.031 C 
ATOM     39  C   UNL A   1      46.010  25.680  29.138  1.00  0.00     0.037 A 
BRANCH  26  40
ATOM     40  C   UNL A   1      42.594  22.089  26.741  1.00  0.00     0.064 A 
ATOM     41  C   UNL A   1      42.029  20.818  27.005  1.00  0.00     0.173 A 
ATOM     42  C   UNL A   1      43.527  22.142  25.695  1.00  0.00     0.173 A 
ATOM     43  F   UNL A   1      41.100  20.665  27.963  1.00  0.00    -0.203 F 
ATOM     44  C   UNL A   1      42.463  19.665  26.355  1.00  0.00     0.198 A 
ATOM     45  C   UNL A   1      43.919  20.991  25.007  1.00  0.00     0.198 A 
ATOM     46  F   UNL A   1      44.159  23.281  25.382  1.00  0.00    -0.203 F 
ATOM     47  F   UNL A   1      41.998  18.467  26.739  1.00  0.00    -0.200 F 
ATOM     48  C   UNL A   1      43.420  19.750  25.364  1.00  0.00     0.200 A 
ATOM     49  F   UNL A   1      44.845  21.080  24.042  1.00  0.00    -0.200 F 
ATOM     50  F   UNL A   1      43.887  18.639  24.780  1.00  0.00    -0.200 F 
ENDBRANCH  26  40
BRANCH  27  51
ATOM     51  C   UNL A   1      45.461  30.371  32.396  1.00  0.00     0.064 A 
ATOM     52  C   UNL A   1      46.609  31.143  32.161  1.00  0.00     0.173 A 
ATOM     53  C   UNL A   1      44.875  30.604  33.676  1.00  0.00     0.173 A 
ATOM     54  F   UNL A   1      47.358  30.971  31.072  1.00  0.00    -0.203 F 
ATOM     55  C   UNL A   1      47.060  32.125  33.061  1.00  0.00     0.198 A 
ATOM     56  C   UNL A   1      45.303  31.600  34.558  1.00  0.00     0.198 A 
ATOM     57  F   UNL A   1      43.851  29.867  34.127  1.00  0.00    -0.203 F 
ATOM     58  F   UNL A   1      48.154  32.840  32.763  1.00  0.00    -0.200 F 
ATOM     59  C   UNL A   1      46.389  32.376  34.241  1.00  0.00     0.200 A 
ATOM     60  F   UNL A   1      44.635  31.804  35.703  1.00  0.00    -0.200 F 
ATOM     61  F   UNL A   1      46.796  33.345  35.072  1.00  0.00    -0.200 F 
ENDBRANCH  27  51
BRANCH  39  62
ATOM     62  C   UNL A   1      46.095  26.412  27.814  1.00  0.00     0.064 A 
ATOM     63  C   UNL A   1      44.927  26.785  27.133  1.00  0.00     0.173 A 
ATOM     64  C   UNL A   1      47.303  26.612  27.127  1.00  0.00     0.173 A 
ATOM     65  F   UNL A   1      43.731  26.628  27.720  1.00  0.00    -0.203 F 
ATOM     66  C   UNL A   1      44.974  27.309  25.838  1.00  0.00     0.198 A 
ATOM     67  C   UNL A   1      47.356  27.145  25.842  1.00  0.00     0.198 A 
ATOM     68  F   UNL A   1      48.461  26.283  27.694  1.00  0.00    -0.203 F 
ATOM     69  F   UNL A   1      43.837  27.642  25.211  1.00  0.00    -0.200 F 
ATOM     70  C   UNL A   1      46.188  27.487  25.193  1.00  0.00     0.200 A 
ATOM     71  F   UNL A   1      48.543  27.326  25.240  1.00  0.00    -0.200 F 
ATOM     72  F   UNL A   1      46.232  27.995  23.953  1.00  0.00    -0.200 F 
ENDBRANCH  39  62
ENDBRANCH  13  14
ENDBRANCH   6   8
ENDBRANCH   3   4
ENDBRANCH   2   3
ENDBRANCH   1   2
BRANCH   1  73
ATOM     73  C   UNL A   1      31.954  27.193  24.266  1.00  0.00     0.002 C 
BRANCH  73  74
ATOM     74  C   UNL A   1      30.567  26.734  24.732  1.00  0.00     0.021 C 
BRANCH  74  75
ATOM     75  C   UNL A   1      30.337  25.223  24.671  1.00  0.00     0.116 C 
BRANCH  75  76
ATOM     76  N   UNL A   1      29.964  24.698  25.971  1.00  0.00    -0.352 N 
ATOM     77  C   UNL A   1      30.453  23.596  26.620  1.00  0.00     0.252 C 
ATOM     78  H   UNL A   1      29.267  25.201  26.452  1.00  0.00     0.163 HD
ATOM     79  O   UNL A   1      29.807  23.114  27.554  1.00  0.00    -0.269 OA
BRANCH  77  80
ATOM     80  C   UNL A   1      31.718  23.028  26.181  1.00  0.00     0.057 A 
ATOM     81  C   UNL A   1      31.949  21.952  25.273  1.00  0.00     0.033 A 
ATOM     82  C   UNL A   1      32.967  23.506  26.537  1.00  0.00     0.099 A 
ATOM     83  C   UNL A   1      33.310  21.792  25.141  1.00  0.00     0.087 A 
ATOM     84  N   UNL A   1      33.919  22.724  25.939  1.00  0.00    -0.344 N 
BRANCH  84  85
ATOM     85  C   UNL A   1      35.352  22.898  26.079  1.00  0.00     0.236 C 
BRANCH  85  86
ATOM     86  C   UNL A   1      35.966  23.672  24.935  1.00  0.00     0.406 C 
ATOM     87  F   UNL A   1      35.237  24.762  24.607  1.00  0.00    -0.169 F 
ATOM     88  F   UNL A   1      37.200  24.114  25.285  1.00  0.00    -0.169 F 
ATOM     89  F   UNL A   1      36.115  22.916  23.827  1.00  0.00    -0.169 F 
ENDBRANCH  85  86
ENDBRANCH  84  85
ENDBRANCH  77  80
ENDBRANCH  75  76
ENDBRANCH  74  75
ENDBRANCH  73  74
ENDBRANCH   1  73
TORSDOF 15
ENDMDL
MODEL 3
REMARK VINA RESULT:     -11.3      1.634      2.625
REMARK SMILES O=C(NCCCCCCNC(=O)c1ccn(CC(F)(F)F)c1)c1ccc(-c2c3nc(c(-c4c(F)c(F)c(F)c(F)c4F)c4ccc([nH]4)c(-c4c(F)c(F)c(F)c(F)c4F)c4nc(c(-c5c(F)c(F)c(F)c(F)c5F)c5ccc2[nH]5)C=C4)C=C3)cc1
REMARK SMILES IDX 6 1 5 2 4 3 3 4 1 5 2 6 23 8 24 9 85 10 25 11 84 12 26 13
REMARK SMILES IDX 27 14 28 15 78 16 29 17 83 18 77 19 79 20 30 21 82 22 76 23
REMARK SMILES IDX 75 24 31 26 63 27 43 28 62 29 44 30 47 31 61 32 80 33 45 34
REMARK SMILES IDX 46 35 60 37 81 38 48 39 32 40 33 41 41 42 34 43 35 44 39 45
REMARK SMILES IDX 42 46 36 47 37 48 40 49 38 50 64 51 65 52 73 53 66 54 67 55
REMARK SMILES IDX 71 56 74 57 68 58 69 59 72 60 70 61 49 62 50 63 58 64 51 65
REMARK SMILES IDX 52 66 56 67 59 68 53 69 54 70 57 71 55 72 7 73 8 74 9 75
REMARK SMILES IDX 10 76 11 77 12 79 13 80 14 81 22 82 15 83 16 84 17 85 18 86
REMARK SMILES IDX 19 87 20 88 21 89
REMARK H PARENT 3 7 79 25 47 36 10 78
REMARK Flexibility Score: inf
ROOT
ATOM      1  C   UNL A   1      32.501  27.845  25.298  1.00  0.00     0.002 C 
ENDROOT
BRANCH   1   2
ATOM      2  C   UNL A   1      33.127  28.064  26.676  1.00  0.00     0.021 C 
BRANCH   2   3
ATOM      3  C   UNL A   1      34.586  28.525  26.652  1.00  0.00     0.116 C 
BRANCH   3   4
ATOM      4  N   UNL A   1      34.825  29.864  27.162  1.00  0.00    -0.352 N 
ATOM      5  O   UNL A   1      35.860  31.679  27.959  1.00  0.00    -0.269 OA
ATOM      6  C   UNL A   1      35.942  30.491  27.648  1.00  0.00     0.251 C 
ATOM      7  H   UNL A   1      34.023  30.436  27.157  1.00  0.00     0.163 HD
BRANCH   6   8
ATOM      8  C   UNL A   1      37.223  29.780  27.875  1.00  0.00     0.039 A 
ATOM      9  C   UNL A   1      38.289  29.822  26.977  1.00  0.00     0.014 A 
ATOM     10  C   UNL A   1      37.361  29.058  29.074  1.00  0.00     0.014 A 
ATOM     11  C   UNL A   1      39.433  29.072  27.209  1.00  0.00     0.010 A 
ATOM     12  C   UNL A   1      38.532  28.346  29.342  1.00  0.00     0.010 A 
ATOM     13  C   UNL A   1      39.565  28.349  28.400  1.00  0.00    -0.014 A 
BRANCH  13  14
ATOM     14  C   UNL A   1      40.900  27.776  28.682  1.00  0.00     0.031 A 
ATOM     15  C   UNL A   1      41.022  26.328  28.217  1.00  0.00     0.074 A 
ATOM     16  C   UNL A   1      41.786  28.539  29.379  1.00  0.00     0.049 A 
ATOM     17  N   UNL A   1      41.739  25.358  28.697  1.00  0.00    -0.248 NA
ATOM     18  C   UNL A   1      40.147  25.870  27.106  1.00  0.00     0.031 C 
ATOM     19  C   UNL A   1      41.533  29.935  29.763  1.00  0.00     0.029 A 
ATOM     20  N   UNL A   1      43.043  28.316  29.916  1.00  0.00    -0.354 N 
ATOM     21  C   UNL A   1      41.552  24.252  27.847  1.00  0.00     0.074 A 
ATOM     22  C   UNL A   1      40.463  24.582  26.977  1.00  0.00     0.031 C 
ATOM     23  C   UNL A   1      42.550  30.413  30.506  1.00  0.00     0.029 A 
ATOM     24  C   UNL A   1      43.566  29.392  30.676  1.00  0.00     0.049 A 
ATOM     25  H   UNL A   1      43.535  27.475  29.779  1.00  0.00     0.167 HD
ATOM     26  C   UNL A   1      42.404  23.188  27.799  1.00  0.00     0.037 A 
ATOM     27  C   UNL A   1      44.714  29.457  31.423  1.00  0.00     0.037 A 
ATOM     28  C   UNL A   1      43.436  23.311  28.771  1.00  0.00     0.049 A 
ATOM     29  C   UNL A   1      45.429  28.188  31.192  1.00  0.00     0.074 A 
ATOM     30  C   UNL A   1      43.499  23.136  30.127  1.00  0.00     0.029 A 
ATOM     31  N   UNL A   1      44.609  23.892  28.354  1.00  0.00    -0.354 N 
ATOM     32  N   UNL A   1      46.067  27.887  30.100  1.00  0.00    -0.248 NA
ATOM     33  C   UNL A   1      45.409  27.155  32.236  1.00  0.00     0.031 C 
ATOM     34  C   UNL A   1      44.594  23.925  30.548  1.00  0.00     0.029 A 
ATOM     35  C   UNL A   1      45.163  24.541  29.430  1.00  0.00     0.049 A 
ATOM     36  H   UNL A   1      44.985  23.849  27.445  1.00  0.00     0.167 HD
ATOM     37  C   UNL A   1      46.242  26.526  30.217  1.00  0.00     0.074 A 
ATOM     38  C   UNL A   1      46.113  26.210  31.619  1.00  0.00     0.031 C 
ATOM     39  C   UNL A   1      45.947  25.727  29.161  1.00  0.00     0.037 A 
BRANCH  26  40
ATOM     40  C   UNL A   1      42.563  22.109  26.761  1.00  0.00     0.064 A 
ATOM     41  C   UNL A   1      42.015  20.832  27.032  1.00  0.00     0.173 A 
ATOM     42  C   UNL A   1      43.492  22.169  25.711  1.00  0.00     0.173 A 
ATOM     43  F   UNL A   1      41.092  20.670  27.994  1.00  0.00    -0.203 F 
ATOM     44  C   UNL A   1      42.462  19.681  26.386  1.00  0.00     0.198 A 
ATOM     45  C   UNL A   1      43.897  21.020  25.027  1.00  0.00     0.198 A 
ATOM     46  F   UNL A   1      44.108  23.315  25.391  1.00  0.00    -0.203 F 
ATOM     47  F   UNL A   1      42.015  18.479  26.776  1.00  0.00    -0.200 F 
ATOM     48  C   UNL A   1      43.415  19.774  25.392  1.00  0.00     0.200 A 
ATOM     49  F   UNL A   1      44.819  21.117  24.059  1.00  0.00    -0.200 F 
ATOM     50  F   UNL A   1      43.895  18.667  24.811  1.00  0.00    -0.200 F 
ENDBRANCH  26  40
BRANCH  27  51
ATOM     51  C   UNL A   1      45.356  30.426  32.401  1.00  0.00     0.064 A 
ATOM     52  C   UNL A   1      46.397  31.323  32.118  1.00  0.00     0.173 A 
ATOM     53  C   UNL A   1      44.869  30.526  33.738  1.00  0.00     0.173 A 
ATOM     54  F   UNL A   1      47.056  31.289  30.960  1.00  0.00    -0.203 F 
ATOM     55  C   UNL A   1      46.830  32.296  33.036  1.00  0.00     0.198 A 
ATOM     56  C   UNL A   1      45.277  31.511  34.641  1.00  0.00     0.198 A 
ATOM     57  F   UNL A   1      43.968  29.665  34.227  1.00  0.00    -0.203 F 
ATOM     58  F   UNL A   1      47.817  33.135  32.692  1.00  0.00    -0.200 F 
ATOM     59  C   UNL A   1      46.249  32.411  34.283  1.00  0.00     0.200 A 
ATOM     60  F   UNL A   1      44.701  31.583  35.850  1.00  0.00    -0.200 F 
ATOM     61  F   UNL A   1      46.633  33.370  35.136  1.00  0.00    -0.200 F 
ENDBRANCH  27  51
BRANCH  39  62
ATOM     62  C   UNL A   1      46.034  26.455  27.835  1.00  0.00     0.064 A 
ATOM     63  C   UNL A   1      44.868  26.816  27.146  1.00  0.00     0.173 A 
ATOM     64  C   UNL A   1      47.245  26.661  27.155  1.00  0.00     0.173 A 
ATOM     65  F   UNL A   1      43.670  26.652  27.726  1.00  0.00    -0.203 F 
ATOM     66  C   UNL A   1      44.918  27.336  25.849  1.00  0.00     0.198 A 
ATOM     67  C   UNL A   1      47.302  27.191  25.868  1.00  0.00     0.198 A 
ATOM     68  F   UNL A   1      48.402  26.344  27.731  1.00  0.00    -0.203 F 
ATOM     69  F   UNL A   1      43.782  27.658  25.214  1.00  0.00    -0.200 F 
ATOM     70  C   UNL A   1      46.135  27.521  25.211  1.00  0.00     0.200 A 
ATOM     71  F   UNL A   1      48.490  27.379  25.273  1.00  0.00    -0.200 F 
ATOM     72  F   UNL A   1      46.183  28.025  23.969  1.00  0.00    -0.200 F 
ENDBRANCH  39  62
ENDBRANCH  13  14
ENDBRANCH   6   8
ENDBRANCH   3   4
ENDBRANCH   2   3
ENDBRANCH   1   2
BRANCH   1  73
ATOM     73  C   UNL A   1      32.800  28.935  24.266  1.00  0.00     0.002 C 
BRANCH  73  74
ATOM     74  C   UNL A   1      31.923  28.910  23.008  1.00  0.00     0.021 C 
BRANCH  74  75
ATOM     75  C   UNL A   1      31.171  27.598  22.776  1.00  0.00     0.116 C 
BRANCH  75  76
ATOM     76  N   UNL A   1      31.685  26.899  21.613  1.00  0.00    -0.352 N 
ATOM     77  C   UNL A   1      32.532  25.824  21.568  1.00  0.00     0.252 C 
ATOM     78  H   UNL A   1      31.384  27.242  20.740  1.00  0.00     0.163 HD
ATOM     79  O   UNL A   1      33.116  25.565  20.513  1.00  0.00    -0.269 OA
BRANCH  77  80
ATOM     80  C   UNL A   1      32.716  25.026  22.769  1.00  0.00     0.057 A 
ATOM     81  C   UNL A   1      33.870  24.913  23.600  1.00  0.00     0.033 A 
ATOM     82  C   UNL A   1      31.732  24.261  23.371  1.00  0.00     0.099 A 
ATOM     83  C   UNL A   1      33.562  24.065  24.641  1.00  0.00     0.087 A 
ATOM     84  N   UNL A   1      32.268  23.651  24.473  1.00  0.00    -0.344 N 
BRANCH  84  85
ATOM     85  C   UNL A   1      31.555  22.755  25.363  1.00  0.00     0.236 C 
BRANCH  85  86
ATOM     86  C   UNL A   1      31.325  23.347  26.735  1.00  0.00     0.406 C 
ATOM     87  F   UNL A   1      32.340  23.074  27.585  1.00  0.00    -0.169 F 
ATOM     88  F   UNL A   1      31.234  24.697  26.648  1.00  0.00    -0.169 F 
ATOM     89  F   UNL A   1      30.178  22.908  27.297  1.00  0.00    -0.169 F 
ENDBRANCH  85  86
ENDBRANCH  84  85
ENDBRANCH  77  80
ENDBRANCH  75  76
ENDBRANCH  74  75
ENDBRANCH  73  74
ENDBRANCH   1  73
TORSDOF 15
ENDMDL
