MODEL 1
REMARK VINA RESULT:     -12.7      0.000      0.000
REMARK SMILES Cc1ccccc1N[C@H](C(=O)NCCCCCCNC(=O)c1ccc(-c2c3nc(c(-c4c(F)c(F)c(F)c(F)c4F)c4ccc([nH]4)c(-c4c(F)c(F)c(F)c(F)c4F)c4nc(c(-c5c(F)c(F)c(F)c(F)c5F)c5ccc2[nH]5)C=C4)C=C3)cc1)c1ccccc1
REMARK SMILES IDX 15 1 14 2 13 3 12 4 10 5 11 6 9 8 8 9 7 11 1 12 2 13 3 14
REMARK SMILES IDX 4 15 6 16 5 17 85 18 86 19 90 20 87 21 89 22 88 23 16 24
REMARK SMILES IDX 17 25 18 26 19 27 20 28 21 30 22 31 23 32 84 33 24 34 83 35
REMARK SMILES IDX 25 36 26 37 27 38 77 39 28 40 82 41 76 42 78 43 29 44 81 45
REMARK SMILES IDX 75 46 74 47 30 49 62 50 42 51 61 52 43 53 46 54 60 55 79 56
REMARK SMILES IDX 44 57 45 58 59 60 80 61 47 62 31 63 32 64 40 65 33 66 34 67
REMARK SMILES IDX 38 68 41 69 35 70 36 71 39 72 37 73 63 74 64 75 72 76 65 77
REMARK SMILES IDX 66 78 70 79 73 80 67 81 68 82 71 83 69 84 48 85 49 86 57 87
REMARK SMILES IDX 50 88 51 89 55 90 58 91 52 92 53 93 56 94 54 95
REMARK H PARENT 12 7 8 10 19 29 78 48 46 59
REMARK Flexibility Score: inf
ROOT
ATOM      1  C   UNL A   1      33.570  28.412  26.835  1.00  0.00     0.002 C 
ENDROOT
BRANCH   1   2
ATOM      2  C   UNL A   1      33.824  27.875  25.423  1.00  0.00     0.021 C 
BRANCH   2   3
ATOM      3  C   UNL A   1      32.778  26.962  24.794  1.00  0.00     0.116 C 
BRANCH   3   4
ATOM      4  N   UNL A   1      33.042  26.586  23.423  1.00  0.00    -0.354 N 
ATOM      5  C   UNL A   1      33.398  25.332  22.977  1.00  0.00     0.247 C 
ATOM      6  O   UNL A   1      33.642  25.200  21.773  1.00  0.00    -0.272 OA
ATOM      7  H   UNL A   1      32.959  27.293  22.743  1.00  0.00     0.163 HD
BRANCH   5   8
ATOM      8  C   UNL A   1      33.499  24.120  23.967  1.00  0.00     0.200 C 
BRANCH   8   9
ATOM      9  N   UNL A   1      32.523  23.090  23.532  1.00  0.00    -0.370 N 
ATOM     10  H   UNL A   1      31.726  23.515  23.139  1.00  0.00     0.161 HD
BRANCH   9  11
ATOM     11  C   UNL A   1      32.399  21.723  23.513  1.00  0.00     0.038 A 
ATOM     12  C   UNL A   1      32.558  21.611  26.091  1.00  0.00     0.046 C 
ATOM     13  C   UNL A   1      32.531  20.983  24.717  1.00  0.00    -0.028 A 
ATOM     14  C   UNL A   1      32.582  19.571  24.697  1.00  0.00     0.005 A 
ATOM     15  C   UNL A   1      32.431  18.868  23.511  1.00  0.00     0.000 A 
ATOM     16  C   UNL A   1      32.102  20.971  22.374  1.00  0.00     0.026 A 
ATOM     17  C   UNL A   1      32.153  19.570  22.352  1.00  0.00     0.002 A 
ENDBRANCH   9  11
ENDBRANCH   8   9
BRANCH   8  18
ATOM     18  C   UNL A   1      34.920  23.719  24.346  1.00  0.00    -0.016 A 
ATOM     19  C   UNL A   1      35.499  24.169  25.545  1.00  0.00     0.006 A 
ATOM     20  C   UNL A   1      35.733  22.952  23.492  1.00  0.00     0.006 A 
ATOM     21  C   UNL A   1      36.749  23.699  25.962  1.00  0.00     0.000 A 
ATOM     22  C   UNL A   1      36.992  22.500  23.893  1.00  0.00     0.000 A 
ATOM     23  C   UNL A   1      37.482  22.842  25.146  1.00  0.00     0.000 A 
ENDBRANCH   8  18
ENDBRANCH   5   8
ENDBRANCH   3   4
ENDBRANCH   2   3
ENDBRANCH   1   2
BRANCH   1  24
ATOM     24  C   UNL A   1      32.370  29.337  27.083  1.00  0.00     0.002 C 
BRANCH  24  25
ATOM     25  C   UNL A   1      32.629  30.834  27.251  1.00  0.00     0.021 C 
BRANCH  25  26
ATOM     26  C   UNL A   1      34.090  31.242  27.367  1.00  0.00     0.116 C 
BRANCH  26  27
ATOM     27  N   UNL A   1      34.475  31.841  28.638  1.00  0.00    -0.352 N 
ATOM     28  C   UNL A   1      35.413  31.374  29.555  1.00  0.00     0.251 C 
ATOM     29  H   UNL A   1      34.018  32.680  28.877  1.00  0.00     0.163 HD
ATOM     30  O   UNL A   1      35.622  31.953  30.597  1.00  0.00    -0.269 OA
BRANCH  28  31
ATOM     31  C   UNL A   1      36.240  30.204  29.161  1.00  0.00     0.039 A 
ATOM     32  C   UNL A   1      36.673  29.344  30.173  1.00  0.00     0.014 A 
ATOM     33  C   UNL A   1      36.776  30.119  27.878  1.00  0.00     0.014 A 
ATOM     34  C   UNL A   1      37.818  28.578  29.965  1.00  0.00     0.010 A 
ATOM     35  C   UNL A   1      37.960  29.429  27.696  1.00  0.00     0.010 A 
ATOM     36  C   UNL A   1      38.518  28.717  28.763  1.00  0.00    -0.014 A 
BRANCH  36  37
ATOM     37  C   UNL A   1      39.888  28.247  28.600  1.00  0.00     0.031 A 
ATOM     38  C   UNL A   1      40.167  26.827  28.317  1.00  0.00     0.074 A 
ATOM     39  C   UNL A   1      40.925  29.103  28.739  1.00  0.00     0.049 A 
ATOM     40  N   UNL A   1      41.185  26.192  28.801  1.00  0.00    -0.248 NA
ATOM     41  C   UNL A   1      39.306  25.999  27.480  1.00  0.00     0.031 C 
ATOM     42  C   UNL A   1      42.334  28.822  28.471  1.00  0.00     0.029 A 
ATOM     43  N   UNL A   1      40.931  30.366  29.356  1.00  0.00    -0.354 N 
ATOM     44  C   UNL A   1      41.253  24.982  28.158  1.00  0.00     0.074 A 
ATOM     45  C   UNL A   1      40.025  24.874  27.400  1.00  0.00     0.031 C 
ATOM     46  C   UNL A   1      43.086  29.687  29.166  1.00  0.00     0.029 A 
ATOM     47  C   UNL A   1      42.192  30.485  29.984  1.00  0.00     0.049 A 
ATOM     48  H   UNL A   1      40.206  31.031  29.351  1.00  0.00     0.167 HD
ATOM     49  C   UNL A   1      42.396  24.244  28.202  1.00  0.00     0.037 A 
ATOM     50  C   UNL A   1      42.315  30.679  31.327  1.00  0.00     0.037 A 
ATOM     51  C   UNL A   1      43.455  24.911  28.942  1.00  0.00     0.049 A 
ATOM     52  C   UNL A   1      43.104  29.606  32.035  1.00  0.00     0.074 A 
ATOM     53  C   UNL A   1      44.511  25.707  28.530  1.00  0.00     0.029 A 
ATOM     54  N   UNL A   1      43.339  25.091  30.317  1.00  0.00    -0.354 N 
ATOM     55  N   UNL A   1      43.352  28.435  31.521  1.00  0.00    -0.248 NA
ATOM     56  C   UNL A   1      43.636  29.744  33.388  1.00  0.00     0.031 C 
ATOM     57  C   UNL A   1      45.012  26.397  29.656  1.00  0.00     0.029 A 
ATOM     58  C   UNL A   1      44.274  26.008  30.759  1.00  0.00     0.049 A 
ATOM     59  H   UNL A   1      42.685  24.630  30.891  1.00  0.00     0.167 HD
ATOM     60  C   UNL A   1      44.026  27.667  32.435  1.00  0.00     0.074 A 
ATOM     61  C   UNL A   1      44.198  28.538  33.581  1.00  0.00     0.031 C 
ATOM     62  C   UNL A   1      44.373  26.374  32.162  1.00  0.00     0.037 A 
BRANCH  49  63
ATOM     63  C   UNL A   1      42.598  23.068  27.287  1.00  0.00     0.064 A 
ATOM     64  C   UNL A   1      41.984  21.825  27.533  1.00  0.00     0.173 A 
ATOM     65  C   UNL A   1      43.451  23.117  26.170  1.00  0.00     0.173 A 
ATOM     66  F   UNL A   1      41.108  21.661  28.532  1.00  0.00    -0.203 F 
ATOM     67  C   UNL A   1      42.278  20.690  26.775  1.00  0.00     0.198 A 
ATOM     68  C   UNL A   1      43.780  21.973  25.440  1.00  0.00     0.198 A 
ATOM     69  F   UNL A   1      43.994  24.280  25.776  1.00  0.00    -0.203 F 
ATOM     70  F   UNL A   1      41.683  19.524  27.066  1.00  0.00    -0.200 F 
ATOM     71  C   UNL A   1      43.200  20.756  25.751  1.00  0.00     0.200 A 
ATOM     72  F   UNL A   1      44.679  22.050  24.449  1.00  0.00    -0.200 F 
ATOM     73  F   UNL A   1      43.528  19.653  25.063  1.00  0.00    -0.200 F 
ENDBRANCH  49  63
BRANCH  50  74
ATOM     74  C   UNL A   1      41.195  31.454  31.912  1.00  0.00     0.064 A 
ATOM     75  C   UNL A   1      41.171  32.845  31.696  1.00  0.00     0.173 A 
ATOM     76  C   UNL A   1      40.004  30.839  32.315  1.00  0.00     0.173 A 
ATOM     77  F   UNL A   1      42.288  33.481  31.307  1.00  0.00    -0.203 F 
ATOM     78  C   UNL A   1      39.982  33.567  31.761  1.00  0.00     0.198 A 
ATOM     79  C   UNL A   1      38.816  31.570  32.393  1.00  0.00     0.198 A 
ATOM     80  F   UNL A   1      39.963  29.514  32.521  1.00  0.00    -0.203 F 
ATOM     81  F   UNL A   1      39.973  34.868  31.436  1.00  0.00    -0.200 F 
ATOM     82  C   UNL A   1      38.800  32.922  32.081  1.00  0.00     0.200 A 
ATOM     83  F   UNL A   1      37.669  30.945  32.694  1.00  0.00    -0.200 F 
ATOM     84  F   UNL A   1      37.641  33.596  32.051  1.00  0.00    -0.200 F 
ENDBRANCH  50  74
BRANCH  62  85
ATOM     85  C   UNL A   1      44.939  25.367  33.132  1.00  0.00     0.064 A 
ATOM     86  C   UNL A   1      46.287  24.974  33.163  1.00  0.00     0.173 A 
ATOM     87  C   UNL A   1      44.135  24.864  34.187  1.00  0.00     0.173 A 
ATOM     88  F   UNL A   1      47.174  25.464  32.288  1.00  0.00    -0.203 F 
ATOM     89  C   UNL A   1      46.779  24.102  34.139  1.00  0.00     0.198 A 
ATOM     90  C   UNL A   1      44.643  24.040  35.190  1.00  0.00     0.198 A 
ATOM     91  F   UNL A   1      42.834  25.177  34.289  1.00  0.00    -0.203 F 
ATOM     92  F   UNL A   1      48.066  23.726  34.103  1.00  0.00    -0.200 F 
ATOM     93  C   UNL A   1      45.964  23.647  35.158  1.00  0.00     0.200 A 
ATOM     94  F   UNL A   1      43.848  23.649  36.196  1.00  0.00    -0.200 F 
ATOM     95  F   UNL A   1      46.452  22.850  36.117  1.00  0.00    -0.200 F 
ENDBRANCH  62  85
ENDBRANCH  36  37
ENDBRANCH  28  31
ENDBRANCH  26  27
ENDBRANCH  25  26
ENDBRANCH  24  25
ENDBRANCH   1  24
TORSDOF 16
ENDMDL
MODEL 2
REMARK VINA RESULT:     -12.6      1.210      2.970
REMARK SMILES Cc1ccccc1N[C@H](C(=O)NCCCCCCNC(=O)c1ccc(-c2c3nc(c(-c4c(F)c(F)c(F)c(F)c4F)c4ccc([nH]4)c(-c4c(F)c(F)c(F)c(F)c4F)c4nc(c(-c5c(F)c(F)c(F)c(F)c5F)c5ccc2[nH]5)C=C4)C=C3)cc1)c1ccccc1
REMARK SMILES IDX 15 1 14 2 13 3 12 4 10 5 11 6 9 8 8 9 7 11 1 12 2 13 3 14
REMARK SMILES IDX 4 15 6 16 5 17 85 18 86 19 90 20 87 21 89 22 88 23 16 24
REMARK SMILES IDX 17 25 18 26 19 27 20 28 21 30 22 31 23 32 84 33 24 34 83 35
REMARK SMILES IDX 25 36 26 37 27 38 77 39 28 40 82 41 76 42 78 43 29 44 81 45
REMARK SMILES IDX 75 46 74 47 30 49 62 50 42 51 61 52 43 53 46 54 60 55 79 56
REMARK SMILES IDX 44 57 45 58 59 60 80 61 47 62 31 63 32 64 40 65 33 66 34 67
REMARK SMILES IDX 38 68 41 69 35 70 36 71 39 72 37 73 63 74 64 75 72 76 65 77
REMARK SMILES IDX 66 78 70 79 73 80 67 81 68 82 71 83 69 84 48 85 49 86 57 87
REMARK SMILES IDX 50 88 51 89 55 90 58 91 52 92 53 93 56 94 54 95
REMARK H PARENT 12 7 8 10 19 29 78 48 46 59
REMARK Flexibility Score: inf
ROOT
ATOM      1  C   UNL A   1      32.728  27.290  26.470  1.00  0.00     0.002 C 
ENDROOT
BRANCH   1   2
ATOM      2  C   UNL A   1      33.692  26.692  25.441  1.00  0.00     0.021 C 
BRANCH   2   3
ATOM      3  C   UNL A   1      34.103  25.232  25.593  1.00  0.00     0.116 C 
BRANCH   3   4
ATOM      4  N   UNL A   1      34.762  24.661  24.439  1.00  0.00    -0.354 N 
ATOM      5  C   UNL A   1      34.299  23.614  23.673  1.00  0.00     0.247 C 
ATOM      6  O   UNL A   1      35.021  23.214  22.753  1.00  0.00    -0.272 OA
ATOM      7  H   UNL A   1      35.623  25.058  24.176  1.00  0.00     0.163 HD
BRANCH   5   8
ATOM      8  C   UNL A   1      32.910  22.948  23.968  1.00  0.00     0.200 C 
BRANCH   8   9
ATOM      9  N   UNL A   1      31.876  23.686  23.202  1.00  0.00    -0.370 N 
ATOM     10  H   UNL A   1      31.529  23.131  22.467  1.00  0.00     0.161 HD
BRANCH   9  11
ATOM     11  C   UNL A   1      31.259  24.914  23.210  1.00  0.00     0.038 A 
ATOM     12  C   UNL A   1      32.521  25.631  21.071  1.00  0.00     0.046 C 
ATOM     13  C   UNL A   1      31.641  25.904  22.268  1.00  0.00    -0.028 A 
ATOM     14  C   UNL A   1      31.149  27.225  22.368  1.00  0.00     0.005 A 
ATOM     15  C   UNL A   1      30.225  27.571  23.343  1.00  0.00     0.000 A 
ATOM     16  C   UNL A   1      30.222  25.271  24.073  1.00  0.00     0.026 A 
ATOM     17  C   UNL A   1      29.733  26.581  24.174  1.00  0.00     0.002 A 
ENDBRANCH   9  11
ENDBRANCH   8   9
BRANCH   8  18
ATOM     18  C   UNL A   1      32.918  21.424  23.973  1.00  0.00    -0.016 A 
ATOM     19  C   UNL A   1      32.155  20.697  23.043  1.00  0.00     0.006 A 
ATOM     20  C   UNL A   1      33.621  20.683  24.941  1.00  0.00     0.006 A 
ATOM     21  C   UNL A   1      32.259  19.304  22.957  1.00  0.00     0.000 A 
ATOM     22  C   UNL A   1      33.710  19.291  24.873  1.00  0.00     0.000 A 
ATOM     23  C   UNL A   1      33.060  18.605  23.855  1.00  0.00     0.000 A 
ENDBRANCH   8  18
ENDBRANCH   5   8
ENDBRANCH   3   4
ENDBRANCH   2   3
ENDBRANCH   1   2
BRANCH   1  24
ATOM     24  C   UNL A   1      32.144  28.689  26.230  1.00  0.00     0.002 C 
BRANCH  24  25
ATOM     25  C   UNL A   1      32.438  29.785  27.253  1.00  0.00     0.021 C 
BRANCH  25  26
ATOM     26  C   UNL A   1      33.806  30.441  27.142  1.00  0.00     0.116 C 
BRANCH  26  27
ATOM     27  N   UNL A   1      34.171  31.322  28.243  1.00  0.00    -0.352 N 
ATOM     28  C   UNL A   1      35.245  31.195  29.120  1.00  0.00     0.251 C 
ATOM     29  H   UNL A   1      33.588  32.103  28.384  1.00  0.00     0.163 HD
ATOM     30  O   UNL A   1      35.424  31.984  30.020  1.00  0.00    -0.269 OA
BRANCH  28  31
ATOM     31  C   UNL A   1      36.239  30.125  28.844  1.00  0.00     0.039 A 
ATOM     32  C   UNL A   1      36.658  29.335  29.917  1.00  0.00     0.014 A 
ATOM     33  C   UNL A   1      36.915  30.087  27.627  1.00  0.00     0.014 A 
ATOM     34  C   UNL A   1      37.900  28.706  29.850  1.00  0.00     0.010 A 
ATOM     35  C   UNL A   1      38.184  29.539  27.588  1.00  0.00     0.010 A 
ATOM     36  C   UNL A   1      38.702  28.911  28.724  1.00  0.00    -0.014 A 
BRANCH  36  37
ATOM     37  C   UNL A   1      40.128  28.603  28.717  1.00  0.00     0.031 A 
ATOM     38  C   UNL A   1      40.608  27.275  28.292  1.00  0.00     0.074 A 
ATOM     39  C   UNL A   1      41.027  29.523  29.132  1.00  0.00     0.049 A 
ATOM     40  N   UNL A   1      41.613  26.674  28.841  1.00  0.00    -0.248 NA
ATOM     41  C   UNL A   1      39.976  26.505  27.226  1.00  0.00     0.031 C 
ATOM     42  C   UNL A   1      42.483  29.420  29.053  1.00  0.00     0.029 A 
ATOM     43  N   UNL A   1      40.798  30.672  29.907  1.00  0.00    -0.354 N 
ATOM     44  C   UNL A   1      41.912  25.587  28.058  1.00  0.00     0.074 A 
ATOM     45  C   UNL A   1      40.825  25.478  27.109  1.00  0.00     0.031 C 
ATOM     46  C   UNL A   1      43.022  30.238  29.969  1.00  0.00     0.029 A 
ATOM     47  C   UNL A   1      41.934  30.814  30.736  1.00  0.00     0.049 A 
ATOM     48  H   UNL A   1      40.008  31.259  29.878  1.00  0.00     0.167 HD
ATOM     49  C   UNL A   1      43.116  24.962  28.181  1.00  0.00     0.037 A 
ATOM     50  C   UNL A   1      41.842  30.814  32.095  1.00  0.00     0.037 A 
ATOM     51  C   UNL A   1      43.974  25.607  29.163  1.00  0.00     0.049 A 
ATOM     52  C   UNL A   1      42.641  29.726  32.768  1.00  0.00     0.074 A 
ATOM     53  C   UNL A   1      44.977  26.553  29.033  1.00  0.00     0.029 A 
ATOM     54  N   UNL A   1      43.644  25.565  30.513  1.00  0.00    -0.354 N 
ATOM     55  N   UNL A   1      43.095  28.675  32.145  1.00  0.00    -0.248 NA
ATOM     56  C   UNL A   1      42.957  29.708  34.193  1.00  0.00     0.031 C 
ATOM     57  C   UNL A   1      45.230  27.109  30.307  1.00  0.00     0.029 A 
ATOM     58  C   UNL A   1      44.393  26.489  31.217  1.00  0.00     0.049 A 
ATOM     59  H   UNL A   1      42.973  24.963  30.910  1.00  0.00     0.167 HD
ATOM     60  C   UNL A   1      43.718  27.845  33.041  1.00  0.00     0.074 A 
ATOM     61  C   UNL A   1      43.622  28.546  34.308  1.00  0.00     0.031 C 
ATOM     62  C   UNL A   1      44.248  26.647  32.655  1.00  0.00     0.037 A 
BRANCH  49  63
ATOM     63  C   UNL A   1      43.581  23.963  27.160  1.00  0.00     0.064 A 
ATOM     64  C   UNL A   1      44.423  24.333  26.093  1.00  0.00     0.173 A 
ATOM     65  C   UNL A   1      43.166  22.620  27.172  1.00  0.00     0.173 A 
ATOM     66  F   UNL A   1      44.932  25.566  25.996  1.00  0.00    -0.203 F 
ATOM     67  C   UNL A   1      44.743  23.448  25.061  1.00  0.00     0.198 A 
ATOM     68  C   UNL A   1      43.449  21.748  26.118  1.00  0.00     0.198 A 
ATOM     69  F   UNL A   1      42.461  22.132  28.206  1.00  0.00    -0.203 F 
ATOM     70  F   UNL A   1      45.530  23.858  24.055  1.00  0.00    -0.200 F 
ATOM     71  C   UNL A   1      44.230  22.167  25.056  1.00  0.00     0.200 A 
ATOM     72  F   UNL A   1      42.943  20.507  26.124  1.00  0.00    -0.200 F 
ATOM     73  F   UNL A   1      44.488  21.339  24.034  1.00  0.00    -0.200 F 
ENDBRANCH  49  63
BRANCH  50  74
ATOM     74  C   UNL A   1      40.567  31.381  32.596  1.00  0.00     0.064 A 
ATOM     75  C   UNL A   1      40.399  32.778  32.537  1.00  0.00     0.173 A 
ATOM     76  C   UNL A   1      39.420  30.595  32.750  1.00  0.00     0.173 A 
ATOM     77  F   UNL A   1      41.469  33.576  32.389  1.00  0.00    -0.203 F 
ATOM     78  C   UNL A   1      39.131  33.354  32.510  1.00  0.00     0.198 A 
ATOM     79  C   UNL A   1      38.151  31.178  32.738  1.00  0.00     0.198 A 
ATOM     80  F   UNL A   1      39.517  29.259  32.797  1.00  0.00    -0.203 F 
ATOM     81  F   UNL A   1      39.003  34.677  32.337  1.00  0.00    -0.200 F 
ATOM     82  C   UNL A   1      38.007  32.549  32.581  1.00  0.00     0.200 A 
ATOM     83  F   UNL A   1      37.061  30.400  32.798  1.00  0.00    -0.200 F 
ATOM     84  F   UNL A   1      36.787  33.093  32.460  1.00  0.00    -0.200 F 
ENDBRANCH  50  74
BRANCH  62  85
ATOM     85  C   UNL A   1      44.784  25.563  33.557  1.00  0.00     0.064 A 
ATOM     86  C   UNL A   1      43.980  24.736  34.357  1.00  0.00     0.173 A 
ATOM     87  C   UNL A   1      46.160  25.224  33.523  1.00  0.00     0.173 A 
ATOM     88  F   UNL A   1      42.649  24.882  34.391  1.00  0.00    -0.203 F 
ATOM     89  C   UNL A   1      44.518  23.687  35.110  1.00  0.00     0.198 A 
ATOM     90  C   UNL A   1      46.684  24.143  34.231  1.00  0.00     0.198 A 
ATOM     91  F   UNL A   1      47.037  25.919  32.783  1.00  0.00    -0.203 F 
ATOM     92  F   UNL A   1      43.713  22.950  35.889  1.00  0.00    -0.200 F 
ATOM     93  C   UNL A   1      45.864  23.382  35.037  1.00  0.00     0.200 A 
ATOM     94  F   UNL A   1      47.983  23.833  34.109  1.00  0.00    -0.200 F 
ATOM     95  F   UNL A   1      46.366  22.347  35.722  1.00  0.00    -0.200 F 
ENDBRANCH  62  85
ENDBRANCH  36  37
ENDBRANCH  28  31
ENDBRANCH  26  27
ENDBRANCH  25  26
ENDBRANCH  24  25
ENDBRANCH   1  24
TORSDOF 16
ENDMDL
MODEL 3
REMARK VINA RESULT:     -12.5      1.565      2.741
REMARK SMILES Cc1ccccc1N[C@H](C(=O)NCCCCCCNC(=O)c1ccc(-c2c3nc(c(-c4c(F)c(F)c(F)c(F)c4F)c4ccc([nH]4)c(-c4c(F)c(F)c(F)c(F)c4F)c4nc(c(-c5c(F)c(F)c(F)c(F)c5F)c5ccc2[nH]5)C=C4)C=C3)cc1)c1ccccc1
REMARK SMILES IDX 15 1 14 2 13 3 12 4 10 5 11 6 9 8 8 9 7 11 1 12 2 13 3 14
REMARK SMILES IDX 4 15 6 16 5 17 85 18 86 19 90 20 87 21 89 22 88 23 16 24
REMARK SMILES IDX 17 25 18 26 19 27 20 28 21 30 22 31 23 32 84 33 24 34 83 35
REMARK SMILES IDX 25 36 26 37 27 38 77 39 28 40 82 41 76 42 78 43 29 44 81 45
REMARK SMILES IDX 75 46 74 47 30 49 62 50 42 51 61 52 43 53 46 54 60 55 79 56
REMARK SMILES IDX 44 57 45 58 59 60 80 61 47 62 31 63 32 64 40 65 33 66 34 67
REMARK SMILES IDX 38 68 41 69 35 70 36 71 39 72 37 73 63 74 64 75 72 76 65 77
REMARK SMILES IDX 66 78 70 79 73 80 67 81 68 82 71 83 69 84 48 85 49 86 57 87
REMARK SMILES IDX 50 88 51 89 55 90 58 91 52 92 53 93 56 94 54 95
REMARK H PARENT 12 7 8 10 19 29 78 48 46 59
REMARK Flexibility Score: inf
ROOT
ATOM      1  C   UNL A   1      31.808  28.075  26.302  1.00  0.00     0.002 C 
ENDROOT
BRANCH   1   2
ATOM      2  C   UNL A   1      32.936  27.138  25.856  1.00  0.00     0.021 C 
BRANCH   2   3
ATOM      3  C   UNL A   1      32.787  25.644  26.122  1.00  0.00     0.116 C 
BRANCH   3   4
ATOM      4  N   UNL A   1      31.573  25.266  26.811  1.00  0.00    -0.354 N 
ATOM      5  C   UNL A   1      30.724  24.241  26.459  1.00  0.00     0.247 C 
ATOM      6  O   UNL A   1      29.696  24.091  27.129  1.00  0.00    -0.272 OA
ATOM      7  H   UNL A   1      31.331  25.791  27.608  1.00  0.00     0.163 HD
BRANCH   5   8
ATOM      8  C   UNL A   1      31.046  23.304  25.243  1.00  0.00     0.200 C 
BRANCH   8   9
ATOM      9  N   UNL A   1      30.641  24.010  24.002  1.00  0.00    -0.370 N 
ATOM     10  H   UNL A   1      30.467  23.364  23.279  1.00  0.00     0.161 HD
BRANCH   9  11
ATOM     11  C   UNL A   1      30.436  25.294  23.559  1.00  0.00     0.038 A 
ATOM     12  C   UNL A   1      32.514  25.162  22.026  1.00  0.00     0.046 C 
ATOM     13  C   UNL A   1      31.388  25.908  22.703  1.00  0.00    -0.028 A 
ATOM     14  C   UNL A   1      31.289  27.280  22.378  1.00  0.00     0.005 A 
ATOM     15  C   UNL A   1      30.222  28.044  22.826  1.00  0.00     0.000 A 
ATOM     16  C   UNL A   1      29.310  26.063  23.858  1.00  0.00     0.026 A 
ATOM     17  C   UNL A   1      29.212  27.424  23.537  1.00  0.00     0.002 A 
ENDBRANCH   9  11
ENDBRANCH   8   9
BRANCH   8  18
ATOM     18  C   UNL A   1      32.394  22.597  25.318  1.00  0.00    -0.016 A 
ATOM     19  C   UNL A   1      32.866  22.074  26.535  1.00  0.00     0.006 A 
ATOM     20  C   UNL A   1      33.252  22.501  24.206  1.00  0.00     0.006 A 
ATOM     21  C   UNL A   1      34.037  21.311  26.585  1.00  0.00     0.000 A 
ATOM     22  C   UNL A   1      34.434  21.759  24.257  1.00  0.00     0.000 A 
ATOM     23  C   UNL A   1      34.805  21.131  25.438  1.00  0.00     0.000 A 
ENDBRANCH   8  18
ENDBRANCH   5   8
ENDBRANCH   3   4
ENDBRANCH   2   3
ENDBRANCH   1   2
BRANCH   1  24
ATOM     24  C   UNL A   1      31.795  29.527  25.805  1.00  0.00     0.002 C 
BRANCH  24  25
ATOM     25  C   UNL A   1      32.366  30.612  26.717  1.00  0.00     0.021 C 
BRANCH  25  26
ATOM     26  C   UNL A   1      33.630  30.239  27.475  1.00  0.00     0.116 C 
BRANCH  26  27
ATOM     27  N   UNL A   1      34.117  31.240  28.415  1.00  0.00    -0.352 N 
ATOM     28  C   UNL A   1      35.300  31.220  29.149  1.00  0.00     0.251 C 
ATOM     29  H   UNL A   1      33.539  32.027  28.547  1.00  0.00     0.163 HD
ATOM     30  O   UNL A   1      35.578  32.106  29.926  1.00  0.00    -0.269 OA
BRANCH  28  31
ATOM     31  C   UNL A   1      36.273  30.135  28.860  1.00  0.00     0.039 A 
ATOM     32  C   UNL A   1      36.705  29.347  29.929  1.00  0.00     0.014 A 
ATOM     33  C   UNL A   1      36.923  30.080  27.629  1.00  0.00     0.014 A 
ATOM     34  C   UNL A   1      37.936  28.702  29.840  1.00  0.00     0.010 A 
ATOM     35  C   UNL A   1      38.183  29.515  27.567  1.00  0.00     0.010 A 
ATOM     36  C   UNL A   1      38.718  28.888  28.696  1.00  0.00    -0.014 A 
BRANCH  36  37
ATOM     37  C   UNL A   1      40.138  28.561  28.661  1.00  0.00     0.031 A 
ATOM     38  C   UNL A   1      40.594  27.235  28.202  1.00  0.00     0.074 A 
ATOM     39  C   UNL A   1      41.057  29.460  29.081  1.00  0.00     0.049 A 
ATOM     40  N   UNL A   1      41.598  26.609  28.723  1.00  0.00    -0.248 NA
ATOM     41  C   UNL A   1      39.936  26.497  27.130  1.00  0.00     0.031 C 
ATOM     42  C   UNL A   1      42.510  29.339  28.979  1.00  0.00     0.029 A 
ATOM     43  N   UNL A   1      40.855  30.596  29.883  1.00  0.00    -0.354 N 
ATOM     44  C   UNL A   1      41.871  25.535  27.914  1.00  0.00     0.074 A 
ATOM     45  C   UNL A   1      40.769  25.461  26.979  1.00  0.00     0.031 C 
ATOM     46  C   UNL A   1      43.073  30.130  29.903  1.00  0.00     0.029 A 
ATOM     47  C   UNL A   1      42.005  30.705  30.698  1.00  0.00     0.049 A 
ATOM     48  H   UNL A   1      40.073  31.194  29.879  1.00  0.00     0.167 HD
ATOM     49  C   UNL A   1      43.068  24.892  28.006  1.00  0.00     0.037 A 
ATOM     50  C   UNL A   1      41.933  30.677  32.059  1.00  0.00     0.037 A 
ATOM     51  C   UNL A   1      43.949  25.504  28.987  1.00  0.00     0.049 A 
ATOM     52  C   UNL A   1      42.727  29.565  32.696  1.00  0.00     0.074 A 
ATOM     53  C   UNL A   1      44.963  26.439  28.862  1.00  0.00     0.029 A 
ATOM     54  N   UNL A   1      43.638  25.439  30.341  1.00  0.00    -0.354 N 
ATOM     55  N   UNL A   1      43.157  28.521  32.045  1.00  0.00    -0.248 NA
ATOM     56  C   UNL A   1      43.063  29.513  34.116  1.00  0.00     0.031 C 
ATOM     57  C   UNL A   1      45.242  26.965  30.144  1.00  0.00     0.029 A 
ATOM     58  C   UNL A   1      44.410  26.338  31.053  1.00  0.00     0.049 A 
ATOM     59  H   UNL A   1      42.965  24.838  30.736  1.00  0.00     0.167 HD
ATOM     60  C   UNL A   1      43.781  27.665  32.915  1.00  0.00     0.074 A 
ATOM     61  C   UNL A   1      43.714  28.340  34.197  1.00  0.00     0.031 C 
ATOM     62  C   UNL A   1      44.290  26.468  32.495  1.00  0.00     0.037 A 
BRANCH  49  63
ATOM     63  C   UNL A   1      43.504  23.908  26.957  1.00  0.00     0.064 A 
ATOM     64  C   UNL A   1      43.079  22.566  26.978  1.00  0.00     0.173 A 
ATOM     65  C   UNL A   1      44.403  24.247  25.930  1.00  0.00     0.173 A 
ATOM     66  F   UNL A   1      42.183  22.129  27.871  1.00  0.00    -0.203 F 
ATOM     67  C   UNL A   1      43.591  21.611  26.097  1.00  0.00     0.198 A 
ATOM     68  C   UNL A   1      44.949  23.284  25.077  1.00  0.00     0.198 A 
ATOM     69  F   UNL A   1      44.780  25.522  25.745  1.00  0.00    -0.203 F 
ATOM     70  F   UNL A   1      43.169  20.341  26.175  1.00  0.00    -0.200 F 
ATOM     71  C   UNL A   1      44.550  21.963  25.169  1.00  0.00     0.200 A 
ATOM     72  F   UNL A   1      45.882  23.638  24.182  1.00  0.00    -0.200 F 
ATOM     73  F   UNL A   1      45.085  21.035  24.365  1.00  0.00    -0.200 F 
ENDBRANCH  49  63
BRANCH  50  74
ATOM     74  C   UNL A   1      40.674  31.251  32.590  1.00  0.00     0.064 A 
ATOM     75  C   UNL A   1      40.516  32.650  32.546  1.00  0.00     0.173 A 
ATOM     76  C   UNL A   1      39.523  30.474  32.762  1.00  0.00     0.173 A 
ATOM     77  F   UNL A   1      41.590  33.439  32.383  1.00  0.00    -0.203 F 
ATOM     78  C   UNL A   1      39.253  33.237  32.550  1.00  0.00     0.198 A 
ATOM     79  C   UNL A   1      38.259  31.068  32.780  1.00  0.00     0.198 A 
ATOM     80  F   UNL A   1      39.609  29.136  32.795  1.00  0.00    -0.203 F 
ATOM     81  F   UNL A   1      39.133  34.562  32.391  1.00  0.00    -0.200 F 
ATOM     82  C   UNL A   1      38.124  32.441  32.638  1.00  0.00     0.200 A 
ATOM     83  F   UNL A   1      37.164  30.298  32.855  1.00  0.00    -0.200 F 
ATOM     84  F   UNL A   1      36.907  32.996  32.546  1.00  0.00    -0.200 F 
ENDBRANCH  50  74
BRANCH  62  85
ATOM     85  C   UNL A   1      44.823  25.358  33.367  1.00  0.00     0.064 A 
ATOM     86  C   UNL A   1      44.015  24.456  34.077  1.00  0.00     0.173 A 
ATOM     87  C   UNL A   1      46.213  25.077  33.391  1.00  0.00     0.173 A 
ATOM     88  F   UNL A   1      42.678  24.546  34.045  1.00  0.00    -0.203 F 
ATOM     89  C   UNL A   1      44.557  23.390  34.801  1.00  0.00     0.198 A 
ATOM     90  C   UNL A   1      46.745  23.980  34.068  1.00  0.00     0.198 A 
ATOM     91  F   UNL A   1      47.097  25.847  32.738  1.00  0.00    -0.203 F 
ATOM     92  F   UNL A   1      43.745  22.579  35.494  1.00  0.00    -0.200 F 
ATOM     93  C   UNL A   1      45.917  23.144  34.786  1.00  0.00     0.200 A 
ATOM     94  F   UNL A   1      48.060  23.731  34.002  1.00  0.00    -0.200 F 
ATOM     95  F   UNL A   1      46.427  22.094  35.442  1.00  0.00    -0.200 F 
ENDBRANCH  62  85
ENDBRANCH  36  37
ENDBRANCH  28  31
ENDBRANCH  26  27
ENDBRANCH  25  26
ENDBRANCH  24  25
ENDBRANCH   1  24
TORSDOF 16
ENDMDL
