MODEL 1
REMARK VINA RESULT:     -12.7      0.000      0.000
REMARK SMILES COc1nc(-c2ccccc2)nc(C)c1CC(=O)NCCCCCCNC(=O)c1ccc(-c2c3nc(c(-c4c(F)c(F)c(F)c(F)c4F)c4ccc([nH]4)c(-c4c(F)c(F)c(F)c(F)c4F)c4nc(c(-c5c(F)c(F)c(F)c(F)c5F)c5ccc2[nH]5)C=C4)C=C3)cc1
REMARK SMILES IDX 22 1 21 2 20 3 19 4 17 5 18 6 16 8 15 9 3 10 4 11 5 12 13 13
REMARK SMILES IDX 12 14 14 15 2 16 1 17 6 18 7 19 11 20 8 21 10 22 9 23 23 24
REMARK SMILES IDX 24 25 25 26 26 27 27 28 28 30 29 31 30 32 91 33 31 34 90 35
REMARK SMILES IDX 32 36 33 37 34 38 84 39 35 40 89 41 83 42 85 43 36 44 88 45
REMARK SMILES IDX 82 46 81 47 37 49 69 50 49 51 68 52 50 53 53 54 67 55 86 56
REMARK SMILES IDX 51 57 52 58 66 60 87 61 54 62 38 63 39 64 47 65 40 66 41 67
REMARK SMILES IDX 45 68 48 69 42 70 43 71 46 72 44 73 70 74 71 75 79 76 72 77
REMARK SMILES IDX 73 78 77 79 80 80 74 81 75 82 78 83 76 84 55 85 56 86 64 87
REMARK SMILES IDX 57 88 58 89 62 90 65 91 59 92 60 93 63 94 61 95
REMARK H PARENT 19 7 26 29 85 48 53 59
REMARK Flexibility Score: inf
ROOT
ATOM      1  C   UNL A   1      32.847  29.979  27.202  1.00  0.00     0.002 C 
ENDROOT
BRANCH   1   2
ATOM      2  C   UNL A   1      32.850  28.446  27.261  1.00  0.00     0.021 C 
BRANCH   2   3
ATOM      3  C   UNL A   1      31.814  27.780  26.352  1.00  0.00     0.116 C 
BRANCH   3   4
ATOM      4  N   UNL A   1      31.385  26.495  26.859  1.00  0.00    -0.356 N 
ATOM      5  C   UNL A   1      31.824  25.234  26.599  1.00  0.00     0.224 C 
ATOM      6  O   UNL A   1      31.311  24.324  27.258  1.00  0.00    -0.275 OA
ATOM      7  H   UNL A   1      30.644  26.541  27.506  1.00  0.00     0.163 HD
BRANCH   5   8
ATOM      8  C   UNL A   1      32.948  24.933  25.618  1.00  0.00     0.143 C 
BRANCH   8   9
ATOM      9  C   UNL A   1      33.097  23.498  25.193  1.00  0.00     0.045 A 
ATOM     10  C   UNL A   1      34.048  22.671  25.779  1.00  0.00     0.220 A 
ATOM     11  N   UNL A   1      34.198  21.358  25.523  1.00  0.00    -0.193 NA
ATOM     12  C   UNL A   1      33.385  20.864  24.578  1.00  0.00     0.163 A 
ATOM     13  C   UNL A   1      32.326  22.887  24.213  1.00  0.00     0.049 A 
ATOM     14  N   UNL A   1      32.466  21.581  23.908  1.00  0.00    -0.233 NA
ATOM     15  C   UNL A   1      31.275  23.573  23.391  1.00  0.00     0.067 C 
BRANCH  10  16
ATOM     16  O   UNL A   1      35.060  23.253  26.507  1.00  0.00    -0.481 OA
ATOM     17  C   UNL A   1      36.290  23.292  25.796  1.00  0.00     0.280 C 
ENDBRANCH  10  16
BRANCH  12  18
ATOM     18  C   UNL A   1      33.477  19.446  24.206  1.00  0.00     0.019 A 
ATOM     19  C   UNL A   1      34.579  18.673  24.623  1.00  0.00     0.012 A 
ATOM     20  C   UNL A   1      32.523  18.834  23.379  1.00  0.00     0.012 A 
ATOM     21  C   UNL A   1      34.726  17.342  24.225  1.00  0.00     0.001 A 
ATOM     22  C   UNL A   1      32.678  17.505  22.965  1.00  0.00     0.001 A 
ATOM     23  C   UNL A   1      33.779  16.761  23.388  1.00  0.00     0.000 A 
ENDBRANCH  12  18
ENDBRANCH   8   9
ENDBRANCH   5   8
ENDBRANCH   3   4
ENDBRANCH   2   3
ENDBRANCH   1   2
BRANCH   1  24
ATOM     24  C   UNL A   1      31.669  30.606  26.448  1.00  0.00     0.002 C 
BRANCH  24  25
ATOM     25  C   UNL A   1      31.583  32.132  26.532  1.00  0.00     0.021 C 
BRANCH  25  26
ATOM     26  C   UNL A   1      32.677  32.778  27.371  1.00  0.00     0.116 C 
BRANCH  26  27
ATOM     27  N   UNL A   1      32.395  34.177  27.653  1.00  0.00    -0.352 N 
ATOM     28  C   UNL A   1      32.960  34.997  28.604  1.00  0.00     0.251 C 
ATOM     29  H   UNL A   1      31.706  34.594  27.088  1.00  0.00     0.163 HD
ATOM     30  O   UNL A   1      32.484  36.094  28.848  1.00  0.00    -0.269 OA
BRANCH  28  31
ATOM     31  C   UNL A   1      34.148  34.521  29.343  1.00  0.00     0.039 A 
ATOM     32  C   UNL A   1      33.977  33.891  30.578  1.00  0.00     0.014 A 
ATOM     33  C   UNL A   1      35.425  34.682  28.800  1.00  0.00     0.014 A 
ATOM     34  C   UNL A   1      35.087  33.358  31.240  1.00  0.00     0.010 A 
ATOM     35  C   UNL A   1      36.516  34.089  29.423  1.00  0.00     0.010 A 
ATOM     36  C   UNL A   1      36.358  33.423  30.649  1.00  0.00    -0.014 A 
BRANCH  36  37
ATOM     37  C   UNL A   1      37.557  32.825  31.289  1.00  0.00     0.031 A 
ATOM     38  C   UNL A   1      38.239  31.660  30.630  1.00  0.00     0.074 A 
ATOM     39  C   UNL A   1      37.961  33.252  32.501  1.00  0.00     0.049 A 
ATOM     40  N   UNL A   1      39.172  30.870  31.096  1.00  0.00    -0.248 NA
ATOM     41  C   UNL A   1      37.784  31.318  29.272  1.00  0.00     0.031 C 
ATOM     42  C   UNL A   1      37.367  34.359  33.251  1.00  0.00     0.029 A 
ATOM     43  N   UNL A   1      38.951  32.783  33.329  1.00  0.00    -0.354 N 
ATOM     44  C   UNL A   1      39.393  29.924  30.105  1.00  0.00     0.074 A 
ATOM     45  C   UNL A   1      38.466  30.209  29.031  1.00  0.00     0.031 C 
ATOM     46  C   UNL A   1      38.006  34.486  34.426  1.00  0.00     0.029 A 
ATOM     47  C   UNL A   1      39.018  33.439  34.533  1.00  0.00     0.049 A 
ATOM     48  H   UNL A   1      39.557  32.047  33.082  1.00  0.00     0.167 HD
ATOM     49  C   UNL A   1      40.298  28.918  30.086  1.00  0.00     0.037 A 
ATOM     50  C   UNL A   1      39.790  33.205  35.612  1.00  0.00     0.037 A 
ATOM     51  C   UNL A   1      41.235  28.658  31.148  1.00  0.00     0.049 A 
ATOM     52  C   UNL A   1      40.774  32.065  35.577  1.00  0.00     0.074 A 
ATOM     53  C   UNL A   1      42.227  27.696  31.206  1.00  0.00     0.029 A 
ATOM     54  N   UNL A   1      41.292  29.367  32.340  1.00  0.00    -0.354 N 
ATOM     55  N   UNL A   1      41.008  31.203  34.617  1.00  0.00    -0.248 NA
ATOM     56  C   UNL A   1      41.603  31.865  36.775  1.00  0.00     0.031 C 
ATOM     57  C   UNL A   1      42.852  27.789  32.453  1.00  0.00     0.029 A 
ATOM     58  C   UNL A   1      42.291  28.850  33.147  1.00  0.00     0.049 A 
ATOM     59  H   UNL A   1      40.709  30.125  32.575  1.00  0.00     0.167 HD
ATOM     60  C   UNL A   1      42.036  30.389  35.076  1.00  0.00     0.074 A 
ATOM     61  C   UNL A   1      42.381  30.858  36.402  1.00  0.00     0.031 C 
ATOM     62  C   UNL A   1      42.642  29.350  34.451  1.00  0.00     0.037 A 
BRANCH  49  63
ATOM     63  C   UNL A   1      40.317  28.018  28.884  1.00  0.00     0.064 A 
ATOM     64  C   UNL A   1      41.065  28.332  27.739  1.00  0.00     0.173 A 
ATOM     65  C   UNL A   1      39.605  26.809  28.891  1.00  0.00     0.173 A 
ATOM     66  F   UNL A   1      41.755  29.481  27.677  1.00  0.00    -0.203 F 
ATOM     67  C   UNL A   1      41.074  27.485  26.634  1.00  0.00     0.198 A 
ATOM     68  C   UNL A   1      39.644  25.948  27.797  1.00  0.00     0.198 A 
ATOM     69  F   UNL A   1      38.878  26.457  29.962  1.00  0.00    -0.203 F 
ATOM     70  F   UNL A   1      41.752  27.831  25.532  1.00  0.00    -0.200 F 
ATOM     71  C   UNL A   1      40.370  26.291  26.667  1.00  0.00     0.200 A 
ATOM     72  F   UNL A   1      38.975  24.787  27.837  1.00  0.00    -0.200 F 
ATOM     73  F   UNL A   1      40.387  25.472  25.606  1.00  0.00    -0.200 F 
ENDBRANCH  49  63
BRANCH  50  74
ATOM     74  C   UNL A   1      39.672  34.072  36.815  1.00  0.00     0.064 A 
ATOM     75  C   UNL A   1      40.369  35.286  36.896  1.00  0.00     0.173 A 
ATOM     76  C   UNL A   1      38.871  33.706  37.907  1.00  0.00     0.173 A 
ATOM     77  F   UNL A   1      41.164  35.669  35.886  1.00  0.00    -0.203 F 
ATOM     78  C   UNL A   1      40.288  36.089  38.031  1.00  0.00     0.198 A 
ATOM     79  C   UNL A   1      38.767  34.525  39.029  1.00  0.00     0.198 A 
ATOM     80  F   UNL A   1      38.179  32.558  37.878  1.00  0.00    -0.203 F 
ATOM     81  F   UNL A   1      41.003  37.220  38.101  1.00  0.00    -0.200 F 
ATOM     82  C   UNL A   1      39.483  35.711  39.094  1.00  0.00     0.200 A 
ATOM     83  F   UNL A   1      37.975  34.164  40.048  1.00  0.00    -0.200 F 
ATOM     84  F   UNL A   1      39.402  36.486  40.185  1.00  0.00    -0.200 F 
ENDBRANCH  50  74
BRANCH  62  85
ATOM     85  C   UNL A   1      43.789  28.686  35.155  1.00  0.00     0.064 A 
ATOM     86  C   UNL A   1      45.105  29.153  35.034  1.00  0.00     0.173 A 
ATOM     87  C   UNL A   1      43.548  27.614  36.029  1.00  0.00     0.173 A 
ATOM     88  F   UNL A   1      45.389  30.164  34.200  1.00  0.00    -0.203 F 
ATOM     89  C   UNL A   1      46.141  28.562  35.754  1.00  0.00     0.198 A 
ATOM     90  C   UNL A   1      44.580  27.046  36.769  1.00  0.00     0.198 A 
ATOM     91  F   UNL A   1      42.304  27.135  36.186  1.00  0.00    -0.203 F 
ATOM     92  F   UNL A   1      47.397  29.001  35.599  1.00  0.00    -0.200 F 
ATOM     93  C   UNL A   1      45.876  27.519  36.629  1.00  0.00     0.200 A 
ATOM     94  F   UNL A   1      44.320  26.050  37.627  1.00  0.00    -0.200 F 
ATOM     95  F   UNL A   1      46.872  26.966  37.336  1.00  0.00    -0.200 F 
ENDBRANCH  62  85
ENDBRANCH  36  37
ENDBRANCH  28  31
ENDBRANCH  26  27
ENDBRANCH  25  26
ENDBRANCH  24  25
ENDBRANCH   1  24
TORSDOF 16
ENDMDL
MODEL 2
REMARK VINA RESULT:     -12.6      0.106      1.657
REMARK SMILES COc1nc(-c2ccccc2)nc(C)c1CC(=O)NCCCCCCNC(=O)c1ccc(-c2c3nc(c(-c4c(F)c(F)c(F)c(F)c4F)c4ccc([nH]4)c(-c4c(F)c(F)c(F)c(F)c4F)c4nc(c(-c5c(F)c(F)c(F)c(F)c5F)c5ccc2[nH]5)C=C4)C=C3)cc1
REMARK SMILES IDX 22 1 21 2 20 3 19 4 17 5 18 6 16 8 15 9 3 10 4 11 5 12 13 13
REMARK SMILES IDX 12 14 14 15 2 16 1 17 6 18 7 19 11 20 8 21 10 22 9 23 23 24
REMARK SMILES IDX 24 25 25 26 26 27 27 28 28 30 29 31 30 32 91 33 31 34 90 35
REMARK SMILES IDX 32 36 33 37 34 38 84 39 35 40 89 41 83 42 85 43 36 44 88 45
REMARK SMILES IDX 82 46 81 47 37 49 69 50 49 51 68 52 50 53 53 54 67 55 86 56
REMARK SMILES IDX 51 57 52 58 66 60 87 61 54 62 38 63 39 64 47 65 40 66 41 67
REMARK SMILES IDX 45 68 48 69 42 70 43 71 46 72 44 73 70 74 71 75 79 76 72 77
REMARK SMILES IDX 73 78 77 79 80 80 74 81 75 82 78 83 76 84 55 85 56 86 64 87
REMARK SMILES IDX 57 88 58 89 62 90 65 91 59 92 60 93 63 94 61 95
REMARK H PARENT 19 7 26 29 85 48 53 59
REMARK Flexibility Score: inf
ROOT
ATOM      1  C   UNL A   1      32.918  29.896  27.109  1.00  0.00     0.002 C 
ENDROOT
BRANCH   1   2
ATOM      2  C   UNL A   1      32.833  28.369  27.237  1.00  0.00     0.021 C 
BRANCH   2   3
ATOM      3  C   UNL A   1      31.774  27.721  26.342  1.00  0.00     0.116 C 
BRANCH   3   4
ATOM      4  N   UNL A   1      31.344  26.434  26.844  1.00  0.00    -0.356 N 
ATOM      5  C   UNL A   1      31.838  25.182  26.645  1.00  0.00     0.224 C 
ATOM      6  O   UNL A   1      31.304  24.270  27.283  1.00  0.00    -0.275 OA
ATOM      7  H   UNL A   1      30.557  26.470  27.432  1.00  0.00     0.163 HD
BRANCH   5   8
ATOM      8  C   UNL A   1      33.041  24.896  25.756  1.00  0.00     0.143 C 
BRANCH   8   9
ATOM      9  C   UNL A   1      33.201  23.477  25.287  1.00  0.00     0.045 A 
ATOM     10  C   UNL A   1      34.135  22.628  25.871  1.00  0.00     0.220 A 
ATOM     11  N   UNL A   1      34.293  21.325  25.574  1.00  0.00    -0.193 NA
ATOM     12  C   UNL A   1      33.507  20.864  24.590  1.00  0.00     0.163 A 
ATOM     13  C   UNL A   1      32.458  22.900  24.266  1.00  0.00     0.049 A 
ATOM     14  N   UNL A   1      32.606  21.606  23.920  1.00  0.00    -0.233 NA
ATOM     15  C   UNL A   1      31.430  23.615  23.439  1.00  0.00     0.067 C 
BRANCH  10  16
ATOM     16  O   UNL A   1      35.127  23.184  26.646  1.00  0.00    -0.481 OA
ATOM     17  C   UNL A   1      36.337  23.380  25.926  1.00  0.00     0.280 C 
ENDBRANCH  10  16
BRANCH  12  18
ATOM     18  C   UNL A   1      33.608  19.461  24.173  1.00  0.00     0.019 A 
ATOM     19  C   UNL A   1      32.627  18.897  23.332  1.00  0.00     0.012 A 
ATOM     20  C   UNL A   1      34.630  18.620  24.641  1.00  0.00     0.012 A 
ATOM     21  C   UNL A   1      32.662  17.546  22.977  1.00  0.00     0.001 A 
ATOM     22  C   UNL A   1      34.656  17.262  24.300  1.00  0.00     0.001 A 
ATOM     23  C   UNL A   1      33.672  16.727  23.470  1.00  0.00     0.000 A 
ENDBRANCH  12  18
ENDBRANCH   8   9
ENDBRANCH   5   8
ENDBRANCH   3   4
ENDBRANCH   2   3
ENDBRANCH   1   2
BRANCH   1  24
ATOM     24  C   UNL A   1      31.791  30.552  26.303  1.00  0.00     0.002 C 
BRANCH  24  25
ATOM     25  C   UNL A   1      31.570  32.040  26.590  1.00  0.00     0.021 C 
BRANCH  25  26
ATOM     26  C   UNL A   1      32.646  32.679  27.457  1.00  0.00     0.116 C 
BRANCH  26  27
ATOM     27  N   UNL A   1      32.393  34.093  27.687  1.00  0.00    -0.352 N 
ATOM     28  C   UNL A   1      32.984  34.940  28.597  1.00  0.00     0.251 C 
ATOM     29  H   UNL A   1      31.703  34.500  27.115  1.00  0.00     0.163 HD
ATOM     30  O   UNL A   1      32.531  36.053  28.804  1.00  0.00    -0.269 OA
BRANCH  28  31
ATOM     31  C   UNL A   1      34.174  34.471  29.340  1.00  0.00     0.039 A 
ATOM     32  C   UNL A   1      34.006  33.866  30.587  1.00  0.00     0.014 A 
ATOM     33  C   UNL A   1      35.449  34.615  28.787  1.00  0.00     0.014 A 
ATOM     34  C   UNL A   1      35.116  33.339  31.254  1.00  0.00     0.010 A 
ATOM     35  C   UNL A   1      36.540  34.028  29.416  1.00  0.00     0.010 A 
ATOM     36  C   UNL A   1      36.385  33.386  30.655  1.00  0.00    -0.014 A 
BRANCH  36  37
ATOM     37  C   UNL A   1      37.584  32.794  31.300  1.00  0.00     0.031 A 
ATOM     38  C   UNL A   1      38.281  31.639  30.639  1.00  0.00     0.074 A 
ATOM     39  C   UNL A   1      37.974  33.216  32.518  1.00  0.00     0.049 A 
ATOM     40  N   UNL A   1      39.216  30.854  31.106  1.00  0.00    -0.248 NA
ATOM     41  C   UNL A   1      37.839  31.303  29.275  1.00  0.00     0.031 C 
ATOM     42  C   UNL A   1      37.365  34.313  33.271  1.00  0.00     0.029 A 
ATOM     43  N   UNL A   1      38.963  32.750  33.350  1.00  0.00    -0.354 N 
ATOM     44  C   UNL A   1      39.453  29.917  30.110  1.00  0.00     0.074 A 
ATOM     45  C   UNL A   1      38.533  30.201  29.031  1.00  0.00     0.031 C 
ATOM     46  C   UNL A   1      37.995  34.438  34.451  1.00  0.00     0.029 A 
ATOM     47  C   UNL A   1      39.014  33.398  34.560  1.00  0.00     0.049 A 
ATOM     48  H   UNL A   1      39.577  32.021  33.103  1.00  0.00     0.167 HD
ATOM     49  C   UNL A   1      40.367  28.918  30.092  1.00  0.00     0.037 A 
ATOM     50  C   UNL A   1      39.780  33.163  35.643  1.00  0.00     0.037 A 
ATOM     51  C   UNL A   1      41.298  28.660  31.159  1.00  0.00     0.049 A 
ATOM     52  C   UNL A   1      40.774  32.032  35.608  1.00  0.00     0.074 A 
ATOM     53  C   UNL A   1      42.298  27.705  31.218  1.00  0.00     0.029 A 
ATOM     54  N   UNL A   1      41.339  29.360  32.356  1.00  0.00    -0.354 N 
ATOM     55  N   UNL A   1      41.023  31.178  34.644  1.00  0.00    -0.248 NA
ATOM     56  C   UNL A   1      41.596  31.831  36.810  1.00  0.00     0.031 C 
ATOM     57  C   UNL A   1      42.913  27.796  32.471  1.00  0.00     0.029 A 
ATOM     58  C   UNL A   1      42.337  28.846  33.168  1.00  0.00     0.049 A 
ATOM     59  H   UNL A   1      40.749  30.112  32.593  1.00  0.00     0.167 HD
ATOM     60  C   UNL A   1      42.054  30.370  35.105  1.00  0.00     0.074 A 
ATOM     61  C   UNL A   1      42.385  30.833  36.437  1.00  0.00     0.031 C 
ATOM     62  C   UNL A   1      42.674  29.341  34.478  1.00  0.00     0.037 A 
BRANCH  49  63
ATOM     63  C   UNL A   1      40.403  28.027  28.884  1.00  0.00     0.064 A 
ATOM     64  C   UNL A   1      39.672  26.831  28.828  1.00  0.00     0.173 A 
ATOM     65  C   UNL A   1      41.149  28.393  27.754  1.00  0.00     0.173 A 
ATOM     66  F   UNL A   1      38.950  26.430  29.886  1.00  0.00    -0.203 F 
ATOM     67  C   UNL A   1      39.713  26.017  27.699  1.00  0.00     0.198 A 
ATOM     68  C   UNL A   1      41.160  27.595  26.613  1.00  0.00     0.198 A 
ATOM     69  F   UNL A   1      41.861  29.530  27.750  1.00  0.00    -0.203 F 
ATOM     70  F   UNL A   1      39.050  24.853  27.689  1.00  0.00    -0.200 F 
ATOM     71  C   UNL A   1      40.451  26.404  26.590  1.00  0.00     0.200 A 
ATOM     72  F   UNL A   1      41.861  27.976  25.537  1.00  0.00    -0.200 F 
ATOM     73  F   UNL A   1      40.482  25.625  25.500  1.00  0.00    -0.200 F 
ENDBRANCH  49  63
BRANCH  50  74
ATOM     74  C   UNL A   1      39.646  34.021  36.851  1.00  0.00     0.064 A 
ATOM     75  C   UNL A   1      38.850  33.617  37.933  1.00  0.00     0.173 A 
ATOM     76  C   UNL A   1      40.299  35.258  36.949  1.00  0.00     0.173 A 
ATOM     77  F   UNL A   1      38.188  32.452  37.878  1.00  0.00    -0.203 F 
ATOM     78  C   UNL A   1      38.694  34.428  39.054  1.00  0.00     0.198 A 
ATOM     79  C   UNL A   1      40.168  36.053  38.085  1.00  0.00     0.198 A 
ATOM     80  F   UNL A   1      41.077  35.688  35.945  1.00  0.00    -0.203 F 
ATOM     81  F   UNL A   1      37.889  34.039  40.052  1.00  0.00    -0.200 F 
ATOM     82  C   UNL A   1      39.358  35.642  39.132  1.00  0.00     0.200 A 
ATOM     83  F   UNL A   1      40.823  37.219  38.163  1.00  0.00    -0.200 F 
ATOM     84  F   UNL A   1      39.211  36.420  40.214  1.00  0.00    -0.200 F 
ENDBRANCH  50  74
BRANCH  62  85
ATOM     85  C   UNL A   1      43.821  28.682  35.186  1.00  0.00     0.064 A 
ATOM     86  C   UNL A   1      45.142  29.123  35.031  1.00  0.00     0.173 A 
ATOM     87  C   UNL A   1      43.576  27.642  36.098  1.00  0.00     0.173 A 
ATOM     88  F   UNL A   1      45.429  30.103  34.161  1.00  0.00    -0.203 F 
ATOM     89  C   UNL A   1      46.179  28.540  35.754  1.00  0.00     0.198 A 
ATOM     90  C   UNL A   1      44.611  27.083  36.841  1.00  0.00     0.198 A 
ATOM     91  F   UNL A   1      42.328  27.188  36.288  1.00  0.00    -0.203 F 
ATOM     92  F   UNL A   1      47.440  28.954  35.567  1.00  0.00    -0.200 F 
ATOM     93  C   UNL A   1      45.912  27.530  36.666  1.00  0.00     0.200 A 
ATOM     94  F   UNL A   1      44.348  26.118  37.734  1.00  0.00    -0.200 F 
ATOM     95  F   UNL A   1      46.910  26.984  37.377  1.00  0.00    -0.200 F 
ENDBRANCH  62  85
ENDBRANCH  36  37
ENDBRANCH  28  31
ENDBRANCH  26  27
ENDBRANCH  25  26
ENDBRANCH  24  25
ENDBRANCH   1  24
TORSDOF 16
ENDMDL
MODEL 3
REMARK VINA RESULT:     -12.4      0.819      2.307
REMARK SMILES COc1nc(-c2ccccc2)nc(C)c1CC(=O)NCCCCCCNC(=O)c1ccc(-c2c3nc(c(-c4c(F)c(F)c(F)c(F)c4F)c4ccc([nH]4)c(-c4c(F)c(F)c(F)c(F)c4F)c4nc(c(-c5c(F)c(F)c(F)c(F)c5F)c5ccc2[nH]5)C=C4)C=C3)cc1
REMARK SMILES IDX 22 1 21 2 20 3 19 4 17 5 18 6 16 8 15 9 3 10 4 11 5 12 13 13
REMARK SMILES IDX 12 14 14 15 2 16 1 17 6 18 7 19 11 20 8 21 10 22 9 23 23 24
REMARK SMILES IDX 24 25 25 26 26 27 27 28 28 30 29 31 30 32 91 33 31 34 90 35
REMARK SMILES IDX 32 36 33 37 34 38 84 39 35 40 89 41 83 42 85 43 36 44 88 45
REMARK SMILES IDX 82 46 81 47 37 49 69 50 49 51 68 52 50 53 53 54 67 55 86 56
REMARK SMILES IDX 51 57 52 58 66 60 87 61 54 62 38 63 39 64 47 65 40 66 41 67
REMARK SMILES IDX 45 68 48 69 42 70 43 71 46 72 44 73 70 74 71 75 79 76 72 77
REMARK SMILES IDX 73 78 77 79 80 80 74 81 75 82 78 83 76 84 55 85 56 86 64 87
REMARK SMILES IDX 57 88 58 89 62 90 65 91 59 92 60 93 63 94 61 95
REMARK H PARENT 19 7 26 29 85 48 53 59
REMARK Flexibility Score: inf
ROOT
ATOM      1  C   UNL A   1      31.803  29.323  27.173  1.00  0.00     0.002 C 
ENDROOT
BRANCH   1   2
ATOM      2  C   UNL A   1      32.530  28.050  26.717  1.00  0.00     0.021 C 
BRANCH   2   3
ATOM      3  C   UNL A   1      33.697  28.300  25.761  1.00  0.00     0.116 C 
BRANCH   3   4
ATOM      4  N   UNL A   1      33.634  27.459  24.586  1.00  0.00    -0.356 N 
ATOM      5  C   UNL A   1      33.813  26.120  24.427  1.00  0.00     0.224 C 
ATOM      6  O   UNL A   1      33.609  25.665  23.298  1.00  0.00    -0.275 OA
ATOM      7  H   UNL A   1      33.424  27.941  23.754  1.00  0.00     0.163 HD
BRANCH   5   8
ATOM      8  C   UNL A   1      34.163  25.189  25.580  1.00  0.00     0.143 C 
BRANCH   8   9
ATOM      9  C   UNL A   1      34.081  23.715  25.295  1.00  0.00     0.045 A 
ATOM     10  C   UNL A   1      32.913  23.000  25.536  1.00  0.00     0.220 A 
ATOM     11  N   UNL A   1      32.721  21.702  25.237  1.00  0.00    -0.193 NA
ATOM     12  C   UNL A   1      33.787  21.071  24.722  1.00  0.00     0.163 A 
ATOM     13  C   UNL A   1      35.125  22.957  24.781  1.00  0.00     0.049 A 
ATOM     14  N   UNL A   1      34.981  21.648  24.495  1.00  0.00    -0.233 NA
ATOM     15  C   UNL A   1      36.503  23.473  24.490  1.00  0.00     0.067 C 
BRANCH  10  16
ATOM     16  O   UNL A   1      31.951  23.573  26.336  1.00  0.00    -0.481 OA
ATOM     17  C   UNL A   1      30.631  23.286  25.891  1.00  0.00     0.280 C 
ENDBRANCH  10  16
BRANCH  12  18
ATOM     18  C   UNL A   1      33.694  19.648  24.376  1.00  0.00     0.019 A 
ATOM     19  C   UNL A   1      34.777  18.783  24.631  1.00  0.00     0.012 A 
ATOM     20  C   UNL A   1      32.571  19.115  23.725  1.00  0.00     0.012 A 
ATOM     21  C   UNL A   1      34.743  17.440  24.247  1.00  0.00     0.001 A 
ATOM     22  C   UNL A   1      32.542  17.773  23.325  1.00  0.00     0.001 A 
ATOM     23  C   UNL A   1      33.627  16.938  23.586  1.00  0.00     0.000 A 
ENDBRANCH  12  18
ENDBRANCH   8   9
ENDBRANCH   5   8
ENDBRANCH   3   4
ENDBRANCH   2   3
ENDBRANCH   1   2
BRANCH   1  24
ATOM     24  C   UNL A   1      31.867  30.502  26.195  1.00  0.00     0.002 C 
BRANCH  24  25
ATOM     25  C   UNL A   1      31.563  31.871  26.808  1.00  0.00     0.021 C 
BRANCH  25  26
ATOM     26  C   UNL A   1      32.793  32.638  27.274  1.00  0.00     0.116 C 
BRANCH  26  27
ATOM     27  N   UNL A   1      32.488  34.029  27.574  1.00  0.00    -0.352 N 
ATOM     28  C   UNL A   1      33.025  34.840  28.548  1.00  0.00     0.251 C 
ATOM     29  H   UNL A   1      31.803  34.446  27.004  1.00  0.00     0.163 HD
ATOM     30  O   UNL A   1      32.531  35.926  28.802  1.00  0.00    -0.269 OA
BRANCH  28  31
ATOM     31  C   UNL A   1      34.207  34.367  29.300  1.00  0.00     0.039 A 
ATOM     32  C   UNL A   1      34.024  33.722  30.525  1.00  0.00     0.014 A 
ATOM     33  C   UNL A   1      35.490  34.546  28.777  1.00  0.00     0.014 A 
ATOM     34  C   UNL A   1      35.128  33.192  31.198  1.00  0.00     0.010 A 
ATOM     35  C   UNL A   1      36.577  33.956  29.410  1.00  0.00     0.010 A 
ATOM     36  C   UNL A   1      36.408  33.275  30.627  1.00  0.00    -0.014 A 
BRANCH  36  37
ATOM     37  C   UNL A   1      37.603  32.682  31.277  1.00  0.00     0.031 A 
ATOM     38  C   UNL A   1      38.313  31.538  30.610  1.00  0.00     0.074 A 
ATOM     39  C   UNL A   1      37.978  33.091  32.504  1.00  0.00     0.049 A 
ATOM     40  N   UNL A   1      39.247  30.753  31.079  1.00  0.00    -0.248 NA
ATOM     41  C   UNL A   1      37.887  31.215  29.238  1.00  0.00     0.031 C 
ATOM     42  C   UNL A   1      37.355  34.177  33.263  1.00  0.00     0.029 A 
ATOM     43  N   UNL A   1      38.960  32.621  33.342  1.00  0.00    -0.354 N 
ATOM     44  C   UNL A   1      39.499  29.828  30.075  1.00  0.00     0.074 A 
ATOM     45  C   UNL A   1      38.589  30.120  28.990  1.00  0.00     0.031 C 
ATOM     46  C   UNL A   1      37.971  34.291  34.452  1.00  0.00     0.029 A 
ATOM     47  C   UNL A   1      38.995  33.255  34.559  1.00  0.00     0.049 A 
ATOM     48  H   UNL A   1      39.580  31.897  33.093  1.00  0.00     0.167 HD
ATOM     49  C   UNL A   1      40.419  28.834  30.055  1.00  0.00     0.037 A 
ATOM     50  C   UNL A   1      39.750  33.012  35.648  1.00  0.00     0.037 A 
ATOM     51  C   UNL A   1      41.339  28.568  31.129  1.00  0.00     0.049 A 
ATOM     52  C   UNL A   1      40.750  31.886  35.611  1.00  0.00     0.074 A 
ATOM     53  C   UNL A   1      42.343  27.617  31.188  1.00  0.00     0.029 A 
ATOM     54  N   UNL A   1      41.364  29.255  32.335  1.00  0.00    -0.354 N 
ATOM     55  N   UNL A   1      41.014  31.044  34.640  1.00  0.00    -0.248 NA
ATOM     56  C   UNL A   1      41.560  31.675  36.819  1.00  0.00     0.031 C 
ATOM     57  C   UNL A   1      42.944  27.696  32.448  1.00  0.00     0.029 A 
ATOM     58  C   UNL A   1      42.355  28.736  33.151  1.00  0.00     0.049 A 
ATOM     59  H   UNL A   1      40.767  30.000  32.573  1.00  0.00     0.167 HD
ATOM     60  C   UNL A   1      42.044  30.236  35.103  1.00  0.00     0.074 A 
ATOM     61  C   UNL A   1      42.358  30.685  36.443  1.00  0.00     0.031 C 
ATOM     62  C   UNL A   1      42.676  29.217  34.471  1.00  0.00     0.037 A 
BRANCH  49  63
ATOM     63  C   UNL A   1      40.471  27.957  28.838  1.00  0.00     0.064 A 
ATOM     64  C   UNL A   1      39.742  26.761  28.757  1.00  0.00     0.173 A 
ATOM     65  C   UNL A   1      41.233  28.336  27.723  1.00  0.00     0.173 A 
ATOM     66  F   UNL A   1      39.005  26.348  29.800  1.00  0.00    -0.203 F 
ATOM     67  C   UNL A   1      39.799  25.961  27.619  1.00  0.00     0.198 A 
ATOM     68  C   UNL A   1      41.261  27.551  26.572  1.00  0.00     0.198 A 
ATOM     69  F   UNL A   1      41.946  29.473  27.743  1.00  0.00    -0.203 F 
ATOM     70  F   UNL A   1      39.137  24.797  27.587  1.00  0.00    -0.200 F 
ATOM     71  C   UNL A   1      40.552  26.360  26.526  1.00  0.00     0.200 A 
ATOM     72  F   UNL A   1      41.978  27.945  25.511  1.00  0.00    -0.200 F 
ATOM     73  F   UNL A   1      40.599  25.594  25.428  1.00  0.00    -0.200 F 
ENDBRANCH  49  63
BRANCH  50  74
ATOM     74  C   UNL A   1      39.599  33.855  36.864  1.00  0.00     0.064 A 
ATOM     75  C   UNL A   1      38.792  33.435  37.932  1.00  0.00     0.173 A 
ATOM     76  C   UNL A   1      40.246  35.093  36.983  1.00  0.00     0.173 A 
ATOM     77  F   UNL A   1      38.136  32.268  37.856  1.00  0.00    -0.203 F 
ATOM     78  C   UNL A   1      38.621  34.232  39.061  1.00  0.00     0.198 A 
ATOM     79  C   UNL A   1      40.098  35.875  38.127  1.00  0.00     0.198 A 
ATOM     80  F   UNL A   1      41.033  35.538  35.994  1.00  0.00    -0.203 F 
ATOM     81  F   UNL A   1      37.806  33.829  40.045  1.00  0.00    -0.200 F 
ATOM     82  C   UNL A   1      39.278  35.449  39.161  1.00  0.00     0.200 A 
ATOM     83  F   UNL A   1      40.748  37.043  38.226  1.00  0.00    -0.200 F 
ATOM     84  F   UNL A   1      39.116  36.213  40.249  1.00  0.00    -0.200 F 
ENDBRANCH  50  74
BRANCH  62  85
ATOM     85  C   UNL A   1      43.818  28.555  35.183  1.00  0.00     0.064 A 
ATOM     86  C   UNL A   1      43.634  27.426  35.993  1.00  0.00     0.173 A 
ATOM     87  C   UNL A   1      45.130  29.016  34.983  1.00  0.00     0.173 A 
ATOM     88  F   UNL A   1      42.400  26.957  36.228  1.00  0.00    -0.203 F 
ATOM     89  C   UNL A   1      44.722  26.788  36.586  1.00  0.00     0.198 A 
ATOM     90  C   UNL A   1      46.215  28.358  35.552  1.00  0.00     0.198 A 
ATOM     91  F   UNL A   1      45.359  30.089  34.211  1.00  0.00    -0.203 F 
ATOM     92  F   UNL A   1      44.521  25.730  37.383  1.00  0.00    -0.200 F 
ATOM     93  C   UNL A   1      46.010  27.247  36.355  1.00  0.00     0.200 A 
ATOM     94  F   UNL A   1      47.461  28.792  35.314  1.00  0.00    -0.200 F 
ATOM     95  F   UNL A   1      47.057  26.618  36.910  1.00  0.00    -0.200 F 
ENDBRANCH  62  85
ENDBRANCH  36  37
ENDBRANCH  28  31
ENDBRANCH  26  27
ENDBRANCH  25  26
ENDBRANCH  24  25
ENDBRANCH   1  24
TORSDOF 16
ENDMDL
