MODEL 1
REMARK VINA RESULT:     -11.0      0.000      0.000
REMARK SMILES COc1ccc(OCC(C)(C)C(=O)NCCCCCCNC(=O)c2ccc(-c3c4nc(c(-c5c(F)c(F)c(F)c(F)c5F)c5ccc([nH]5)c(-c5c(F)c(F)c(F)c(F)c5F)c5nc(c(-c6c(F)c(F)c(F)c(F)c6F)c6ccc3[nH]6)C=C5)C=C4)cc2)c(CC[NH3+])c1
REMARK SMILES IDX 15 1 14 2 12 3 13 4 9 6 10 7 11 8 8 9 7 10 6 11 3 12 4 13
REMARK SMILES IDX 91 14 5 15 87 16 2 17 1 18 88 19 89 20 90 21 16 25 17 26
REMARK SMILES IDX 18 27 19 28 20 29 21 30 22 31 23 33 24 34 25 35 86 36 26 37
REMARK SMILES IDX 85 38 27 39 28 40 29 41 79 42 30 43 84 44 78 45 80 46 31 47
REMARK SMILES IDX 83 48 77 49 76 50 32 52 64 53 44 54 63 55 45 56 48 57 62 58
REMARK SMILES IDX 81 59 46 60 47 61 61 63 82 64 49 65 33 66 34 67 42 68 35 69
REMARK SMILES IDX 36 70 40 71 43 72 37 73 38 74 41 75 39 76 65 77 66 78 74 79
REMARK SMILES IDX 67 80 68 81 72 82 75 83 69 84 70 85 73 86 71 87 50 88 51 89
REMARK SMILES IDX 59 90 52 91 53 92 57 93 60 94 54 95 55 96 58 97 56 98
REMARK H PARENT 14 5 90 22 90 23 90 24 21 32 80 51 48 62
REMARK Flexibility Score: inf
ROOT
ATOM      1  C   UNL A   1      32.650  27.387  26.453  1.00  0.00     0.116 C 
ENDROOT
BRANCH   1   2
ATOM      2  N   UNL A   1      31.729  26.732  25.544  1.00  0.00    -0.356 N 
ATOM      3  C   UNL A   1      31.920  26.186  24.309  1.00  0.00     0.229 C 
ATOM      4  O   UNL A   1      30.937  25.675  23.772  1.00  0.00    -0.274 OA
ATOM      5  H   UNL A   1      30.804  26.671  25.877  1.00  0.00     0.163 HD
BRANCH   3   6
ATOM      6  C   UNL A   1      33.306  26.218  23.649  1.00  0.00     0.077 C 
ATOM      7  C   UNL A   1      33.829  27.665  23.746  1.00  0.00     0.025 C 
ATOM      8  C   UNL A   1      33.185  25.720  22.184  1.00  0.00     0.025 C 
BRANCH   6   9
ATOM      9  C   UNL A   1      34.232  25.138  24.314  1.00  0.00     0.245 C 
BRANCH   9  10
ATOM     10  O   UNL A   1      33.774  24.351  25.404  1.00  0.00    -0.492 OA
BRANCH  10  11
ATOM     11  C   UNL A   1      33.701  22.993  25.368  1.00  0.00     0.123 A 
ATOM     12  C   UNL A   1      34.098  20.268  24.876  1.00  0.00     0.119 A 
ATOM     13  C   UNL A   1      35.194  21.078  25.123  1.00  0.00     0.050 A 
ATOM     14  C   UNL A   1      32.806  20.786  25.004  1.00  0.00     0.054 A 
ATOM     15  C   UNL A   1      34.992  22.433  25.364  1.00  0.00     0.050 A 
ATOM     16  C   UNL A   1      32.575  22.155  25.280  1.00  0.00     0.003 A 
BRANCH  12  17
ATOM     17  O   UNL A   1      34.339  18.953  24.588  1.00  0.00    -0.497 OA
ATOM     18  C   UNL A   1      33.207  18.315  23.994  1.00  0.00     0.278 C 
ENDBRANCH  12  17
BRANCH  16  19
ATOM     19  C   UNL A   1      31.127  22.587  25.406  1.00  0.00     0.101 C 
BRANCH  19  20
ATOM     20  C   UNL A   1      30.609  22.872  26.821  1.00  0.00     0.263 C 
BRANCH  20  21
ATOM     21  N   UNL A   1      29.224  22.494  27.078  1.00  0.00    -0.357 N 
ATOM     22  H   UNL A   1      28.718  23.294  27.456  1.00  0.00     0.344 HD
ATOM     23  H   UNL A   1      29.201  21.728  27.751  1.00  0.00     0.344 HD
ATOM     24  H   UNL A   1      28.787  22.194  26.207  1.00  0.00     0.344 HD
ENDBRANCH  20  21
ENDBRANCH  19  20
ENDBRANCH  16  19
ENDBRANCH  10  11
ENDBRANCH   9  10
ENDBRANCH   6   9
ENDBRANCH   3   6
ENDBRANCH   1   2
BRANCH   1  25
ATOM     25  C   UNL A   1      31.960  28.472  27.256  1.00  0.00     0.021 C 
BRANCH  25  26
ATOM     26  C   UNL A   1      32.533  29.859  26.971  1.00  0.00     0.002 C 
BRANCH  26  27
ATOM     27  C   UNL A   1      31.613  30.762  26.139  1.00  0.00     0.002 C 
BRANCH  27  28
ATOM     28  C   UNL A   1      31.386  32.158  26.727  1.00  0.00     0.021 C 
BRANCH  28  29
ATOM     29  C   UNL A   1      32.645  32.801  27.292  1.00  0.00     0.116 C 
BRANCH  29  30
ATOM     30  N   UNL A   1      32.427  34.197  27.627  1.00  0.00    -0.352 N 
ATOM     31  C   UNL A   1      32.992  34.936  28.627  1.00  0.00     0.251 C 
ATOM     32  H   UNL A   1      31.783  34.676  27.055  1.00  0.00     0.163 HD
ATOM     33  O   UNL A   1      32.536  36.039  28.925  1.00  0.00    -0.269 OA
BRANCH  31  34
ATOM     34  C   UNL A   1      34.147  34.388  29.356  1.00  0.00     0.039 A 
ATOM     35  C   UNL A   1      33.921  33.624  30.500  1.00  0.00     0.014 A 
ATOM     36  C   UNL A   1      35.447  34.620  28.896  1.00  0.00     0.014 A 
ATOM     37  C   UNL A   1      35.005  33.055  31.165  1.00  0.00     0.010 A 
ATOM     38  C   UNL A   1      36.517  33.984  29.511  1.00  0.00     0.010 A 
ATOM     39  C   UNL A   1      36.306  33.206  30.659  1.00  0.00    -0.014 A 
BRANCH  39  40
ATOM     40  C   UNL A   1      37.461  32.561  31.325  1.00  0.00     0.031 A 
ATOM     41  C   UNL A   1      38.160  31.406  30.671  1.00  0.00     0.074 A 
ATOM     42  C   UNL A   1      37.837  32.981  32.548  1.00  0.00     0.049 A 
ATOM     43  N   UNL A   1      39.158  30.684  31.113  1.00  0.00    -0.248 NA
ATOM     44  C   UNL A   1      37.652  30.984  29.356  1.00  0.00     0.031 C 
ATOM     45  C   UNL A   1      37.193  34.056  33.305  1.00  0.00     0.029 A 
ATOM     46  N   UNL A   1      38.843  32.549  33.372  1.00  0.00    -0.354 N 
ATOM     47  C   UNL A   1      39.383  29.718  30.142  1.00  0.00     0.074 A 
ATOM     48  C   UNL A   1      38.382  29.906  29.116  1.00  0.00     0.031 C 
ATOM     49  C   UNL A   1      37.836  34.215  34.473  1.00  0.00     0.029 A 
ATOM     50  C   UNL A   1      38.906  33.227  34.564  1.00  0.00     0.049 A 
ATOM     51  H   UNL A   1      39.461  31.821  33.133  1.00  0.00     0.167 HD
ATOM     52  C   UNL A   1      40.353  28.773  30.101  1.00  0.00     0.037 A 
ATOM     53  C   UNL A   1      39.729  33.062  35.616  1.00  0.00     0.037 A 
ATOM     54  C   UNL A   1      41.356  28.608  31.122  1.00  0.00     0.049 A 
ATOM     55  C   UNL A   1      40.799  32.008  35.549  1.00  0.00     0.074 A 
ATOM     56  C   UNL A   1      42.429  27.734  31.142  1.00  0.00     0.029 A 
ATOM     57  N   UNL A   1      41.400  29.325  32.310  1.00  0.00    -0.354 N 
ATOM     58  N   UNL A   1      41.060  31.155  34.588  1.00  0.00    -0.248 NA
ATOM     59  C   UNL A   1      41.694  31.900  36.708  1.00  0.00     0.031 C 
ATOM     60  C   UNL A   1      43.082  27.875  32.371  1.00  0.00     0.029 A 
ATOM     61  C   UNL A   1      42.461  28.886  33.088  1.00  0.00     0.049 A 
ATOM     62  H   UNL A   1      40.772  30.038  32.562  1.00  0.00     0.167 HD
ATOM     63  C   UNL A   1      42.162  30.425  35.014  1.00  0.00     0.074 A 
ATOM     64  C   UNL A   1      42.530  30.949  36.313  1.00  0.00     0.031 C 
ATOM     65  C   UNL A   1      42.810  29.413  34.384  1.00  0.00     0.037 A 
BRANCH  52  66
ATOM     66  C   UNL A   1      40.363  27.840  28.924  1.00  0.00     0.064 A 
ATOM     67  C   UNL A   1      39.648  26.632  28.927  1.00  0.00     0.173 A 
ATOM     68  C   UNL A   1      41.089  28.166  27.767  1.00  0.00     0.173 A 
ATOM     69  F   UNL A   1      38.946  26.265  30.009  1.00  0.00    -0.203 F 
ATOM     70  C   UNL A   1      39.694  25.767  27.835  1.00  0.00     0.198 A 
ATOM     71  C   UNL A   1      41.101  27.317  26.664  1.00  0.00     0.198 A 
ATOM     72  F   UNL A   1      41.786  29.310  27.705  1.00  0.00    -0.203 F 
ATOM     73  F   UNL A   1      39.058  24.589  27.889  1.00  0.00    -0.200 F 
ATOM     74  C   UNL A   1      40.416  26.113  26.704  1.00  0.00     0.200 A 
ATOM     75  F   UNL A   1      41.787  27.661  25.565  1.00  0.00    -0.200 F 
ATOM     76  F   UNL A   1      40.457  25.282  25.654  1.00  0.00    -0.200 F 
ENDBRANCH  52  66
BRANCH  53  77
ATOM     77  C   UNL A   1      39.576  33.935  36.810  1.00  0.00     0.064 A 
ATOM     78  C   UNL A   1      38.832  33.517  37.921  1.00  0.00     0.173 A 
ATOM     79  C   UNL A   1      40.193  35.193  36.874  1.00  0.00     0.173 A 
ATOM     80  F   UNL A   1      38.210  32.328  37.902  1.00  0.00    -0.203 F 
ATOM     81  C   UNL A   1      38.699  34.329  39.045  1.00  0.00     0.198 A 
ATOM     82  C   UNL A   1      40.085  35.991  38.010  1.00  0.00     0.198 A 
ATOM     83  F   UNL A   1      40.924  35.636  35.841  1.00  0.00    -0.203 F 
ATOM     84  F   UNL A   1      37.951  33.921  40.079  1.00  0.00    -0.200 F 
ATOM     85  C   UNL A   1      39.332  35.562  39.092  1.00  0.00     0.200 A 
ATOM     86  F   UNL A   1      40.715  37.173  38.058  1.00  0.00    -0.200 F 
ATOM     87  F   UNL A   1      39.215  36.338  40.178  1.00  0.00    -0.200 F 
ENDBRANCH  53  77
BRANCH  65  88
ATOM     88  C   UNL A   1      44.002  28.821  35.080  1.00  0.00     0.064 A 
ATOM     89  C   UNL A   1      43.885  27.722  35.944  1.00  0.00     0.173 A 
ATOM     90  C   UNL A   1      45.288  29.338  34.848  1.00  0.00     0.173 A 
ATOM     91  F   UNL A   1      42.678  27.200  36.211  1.00  0.00    -0.203 F 
ATOM     92  C   UNL A   1      45.005  27.179  36.569  1.00  0.00     0.198 A 
ATOM     93  C   UNL A   1      46.408  28.770  35.447  1.00  0.00     0.198 A 
ATOM     94  F   UNL A   1      45.457  30.384  34.025  1.00  0.00    -0.203 F 
ATOM     95  F   UNL A   1      44.861  26.163  37.431  1.00  0.00    -0.200 F 
ATOM     96  C   UNL A   1      46.264  27.698  36.313  1.00  0.00     0.200 A 
ATOM     97  F   UNL A   1      47.627  29.261  35.184  1.00  0.00    -0.200 F 
ATOM     98  F   UNL A   1      47.343  27.168  36.909  1.00  0.00    -0.200 F 
ENDBRANCH  65  88
ENDBRANCH  39  40
ENDBRANCH  31  34
ENDBRANCH  29  30
ENDBRANCH  28  29
ENDBRANCH  27  28
ENDBRANCH  26  27
ENDBRANCH  25  26
ENDBRANCH   1  25
TORSDOF 20
ENDMDL
MODEL 2
REMARK VINA RESULT:     -11.0      5.431     11.104
REMARK SMILES COc1ccc(OCC(C)(C)C(=O)NCCCCCCNC(=O)c2ccc(-c3c4nc(c(-c5c(F)c(F)c(F)c(F)c5F)c5ccc([nH]5)c(-c5c(F)c(F)c(F)c(F)c5F)c5nc(c(-c6c(F)c(F)c(F)c(F)c6F)c6ccc3[nH]6)C=C5)C=C4)cc2)c(CC[NH3+])c1
REMARK SMILES IDX 15 1 14 2 12 3 13 4 9 6 10 7 11 8 8 9 7 10 6 11 3 12 4 13
REMARK SMILES IDX 91 14 5 15 87 16 2 17 1 18 88 19 89 20 90 21 16 25 17 26
REMARK SMILES IDX 18 27 19 28 20 29 21 30 22 31 23 33 24 34 25 35 86 36 26 37
REMARK SMILES IDX 85 38 27 39 28 40 29 41 79 42 30 43 84 44 78 45 80 46 31 47
REMARK SMILES IDX 83 48 77 49 76 50 32 52 64 53 44 54 63 55 45 56 48 57 62 58
REMARK SMILES IDX 81 59 46 60 47 61 61 63 82 64 49 65 33 66 34 67 42 68 35 69
REMARK SMILES IDX 36 70 40 71 43 72 37 73 38 74 41 75 39 76 65 77 66 78 74 79
REMARK SMILES IDX 67 80 68 81 72 82 75 83 69 84 70 85 73 86 71 87 50 88 51 89
REMARK SMILES IDX 59 90 52 91 53 92 57 93 60 94 54 95 55 96 58 97 56 98
REMARK H PARENT 14 5 90 22 90 23 90 24 21 32 80 51 48 62
REMARK Flexibility Score: inf
ROOT
ATOM      1  C   UNL A   1      35.722  23.820  25.574  1.00  0.00     0.116 C 
ENDROOT
BRANCH   1   2
ATOM      2  N   UNL A   1      35.124  24.734  24.620  1.00  0.00    -0.356 N 
ATOM      3  C   UNL A   1      33.830  24.899  24.222  1.00  0.00     0.229 C 
ATOM      4  O   UNL A   1      33.614  25.782  23.392  1.00  0.00    -0.274 OA
ATOM      5  H   UNL A   1      35.764  25.342  24.183  1.00  0.00     0.163 HD
BRANCH   3   6
ATOM      6  C   UNL A   1      32.718  24.013  24.802  1.00  0.00     0.077 C 
ATOM      7  C   UNL A   1      32.841  24.066  26.339  1.00  0.00     0.025 C 
ATOM      8  C   UNL A   1      32.864  22.576  24.237  1.00  0.00     0.025 C 
BRANCH   6   9
ATOM      9  C   UNL A   1      31.327  24.475  24.238  1.00  0.00     0.245 C 
BRANCH   9  10
ATOM     10  O   UNL A   1      30.503  25.374  24.967  1.00  0.00    -0.492 OA
BRANCH  10  11
ATOM     11  C   UNL A   1      30.331  26.678  24.620  1.00  0.00     0.123 A 
ATOM     12  C   UNL A   1      29.802  29.086  23.298  1.00  0.00     0.119 A 
ATOM     13  C   UNL A   1      28.940  28.016  23.126  1.00  0.00     0.050 A 
ATOM     14  C   UNL A   1      30.846  28.999  24.224  1.00  0.00     0.054 A 
ATOM     15  C   UNL A   1      29.209  26.820  23.783  1.00  0.00     0.050 A 
ATOM     16  C   UNL A   1      31.119  27.802  24.928  1.00  0.00     0.003 A 
BRANCH  12  17
ATOM     17  O   UNL A   1      29.537  30.228  22.593  1.00  0.00    -0.497 OA
ATOM     18  C   UNL A   1      28.415  30.076  21.723  1.00  0.00     0.278 C 
ENDBRANCH  12  17
BRANCH  16  19
ATOM     19  C   UNL A   1      32.271  27.843  25.914  1.00  0.00     0.101 C 
BRANCH  19  20
ATOM     20  C   UNL A   1      32.017  28.553  27.248  1.00  0.00     0.263 C 
BRANCH  20  21
ATOM     21  N   UNL A   1      31.082  27.890  28.151  1.00  0.00    -0.357 N 
ATOM     22  H   UNL A   1      31.585  27.551  28.971  1.00  0.00     0.344 HD
ATOM     23  H   UNL A   1      30.645  27.104  27.671  1.00  0.00     0.344 HD
ATOM     24  H   UNL A   1      30.363  28.552  28.442  1.00  0.00     0.344 HD
ENDBRANCH  20  21
ENDBRANCH  19  20
ENDBRANCH  16  19
ENDBRANCH  10  11
ENDBRANCH   9  10
ENDBRANCH   6   9
ENDBRANCH   3   6
ENDBRANCH   1   2
BRANCH   1  25
ATOM     25  C   UNL A   1      37.010  23.224  25.040  1.00  0.00     0.021 C 
BRANCH  25  26
ATOM     26  C   UNL A   1      36.769  21.959  24.219  1.00  0.00     0.002 C 
BRANCH  26  27
ATOM     27  C   UNL A   1      36.699  20.673  25.051  1.00  0.00     0.002 C 
BRANCH  27  28
ATOM     28  C   UNL A   1      37.936  19.775  24.945  1.00  0.00     0.021 C 
BRANCH  28  29
ATOM     29  C   UNL A   1      39.115  20.250  25.784  1.00  0.00     0.116 C 
BRANCH  29  30
ATOM     30  N   UNL A   1      40.102  19.199  25.960  1.00  0.00    -0.352 N 
ATOM     31  C   UNL A   1      41.453  19.312  26.126  1.00  0.00     0.251 C 
ATOM     32  H   UNL A   1      39.748  18.279  25.959  1.00  0.00     0.163 HD
ATOM     33  O   UNL A   1      42.180  18.325  26.033  1.00  0.00    -0.269 OA
BRANCH  31  34
ATOM     34  C   UNL A   1      42.031  20.637  26.404  1.00  0.00     0.039 A 
ATOM     35  C   UNL A   1      42.355  21.469  25.332  1.00  0.00     0.014 A 
ATOM     36  C   UNL A   1      42.236  21.057  27.722  1.00  0.00     0.014 A 
ATOM     37  C   UNL A   1      42.850  22.746  25.586  1.00  0.00     0.010 A 
ATOM     38  C   UNL A   1      42.649  22.358  27.972  1.00  0.00     0.010 A 
ATOM     39  C   UNL A   1      42.973  23.209  26.906  1.00  0.00    -0.014 A 
BRANCH  39  40
ATOM     40  C   UNL A   1      43.447  24.584  27.188  1.00  0.00     0.031 A 
ATOM     41  C   UNL A   1      42.495  25.615  27.720  1.00  0.00     0.074 A 
ATOM     42  C   UNL A   1      44.721  24.914  26.906  1.00  0.00     0.049 A 
ATOM     43  N   UNL A   1      42.707  26.879  27.987  1.00  0.00    -0.248 NA
ATOM     44  C   UNL A   1      41.109  25.179  27.953  1.00  0.00     0.031 C 
ATOM     45  C   UNL A   1      45.719  24.010  26.333  1.00  0.00     0.029 A 
ATOM     46  N   UNL A   1      45.391  26.101  27.054  1.00  0.00    -0.354 N 
ATOM     47  C   UNL A   1      41.484  27.387  28.402  1.00  0.00     0.074 A 
ATOM     48  C   UNL A   1      40.520  26.314  28.295  1.00  0.00     0.031 C 
ATOM     49  C   UNL A   1      46.882  24.668  26.200  1.00  0.00     0.029 A 
ATOM     50  C   UNL A   1      46.698  26.049  26.638  1.00  0.00     0.049 A 
ATOM     51  H   UNL A   1      44.976  26.913  27.424  1.00  0.00     0.167 HD
ATOM     52  C   UNL A   1      41.197  28.631  28.854  1.00  0.00     0.037 A 
ATOM     53  C   UNL A   1      47.640  27.010  26.603  1.00  0.00     0.037 A 
ATOM     54  C   UNL A   1      42.170  29.686  28.973  1.00  0.00     0.049 A 
ATOM     55  C   UNL A   1      47.300  28.384  27.110  1.00  0.00     0.074 A 
ATOM     56  C   UNL A   1      42.003  30.959  29.490  1.00  0.00     0.029 A 
ATOM     57  N   UNL A   1      43.491  29.593  28.556  1.00  0.00    -0.354 N 
ATOM     58  N   UNL A   1      46.162  28.833  27.582  1.00  0.00    -0.248 NA
ATOM     59  C   UNL A   1      48.376  29.382  27.086  1.00  0.00     0.031 C 
ATOM     60  C   UNL A   1      43.204  31.657  29.324  1.00  0.00     0.029 A 
ATOM     61  C   UNL A   1      44.141  30.800  28.769  1.00  0.00     0.049 A 
ATOM     62  H   UNL A   1      43.906  28.790  28.167  1.00  0.00     0.167 HD
ATOM     63  C   UNL A   1      46.390  30.156  27.935  1.00  0.00     0.074 A 
ATOM     64  C   UNL A   1      47.780  30.432  27.637  1.00  0.00     0.031 C 
ATOM     65  C   UNL A   1      45.525  31.060  28.460  1.00  0.00     0.037 A 
BRANCH  52  66
ATOM     66  C   UNL A   1      39.773  28.920  29.236  1.00  0.00     0.064 A 
ATOM     67  C   UNL A   1      39.296  28.711  30.539  1.00  0.00     0.173 A 
ATOM     68  C   UNL A   1      38.873  29.427  28.285  1.00  0.00     0.173 A 
ATOM     69  F   UNL A   1      40.109  28.218  31.486  1.00  0.00    -0.203 F 
ATOM     70  C   UNL A   1      37.964  28.959  30.865  1.00  0.00     0.198 A 
ATOM     71  C   UNL A   1      37.553  29.709  28.624  1.00  0.00     0.198 A 
ATOM     72  F   UNL A   1      39.275  29.652  27.025  1.00  0.00    -0.203 F 
ATOM     73  F   UNL A   1      37.516  28.688  32.098  1.00  0.00    -0.200 F 
ATOM     74  C   UNL A   1      37.096  29.462  29.908  1.00  0.00     0.200 A 
ATOM     75  F   UNL A   1      36.720  30.211  27.702  1.00  0.00    -0.200 F 
ATOM     76  F   UNL A   1      35.816  29.702  30.224  1.00  0.00    -0.200 F 
ENDBRANCH  52  66
BRANCH  53  77
ATOM     77  C   UNL A   1      48.995  26.690  26.084  1.00  0.00     0.064 A 
ATOM     78  C   UNL A   1      49.355  26.991  24.764  1.00  0.00     0.173 A 
ATOM     79  C   UNL A   1      49.967  26.101  26.906  1.00  0.00     0.173 A 
ATOM     80  F   UNL A   1      48.455  27.541  23.933  1.00  0.00    -0.203 F 
ATOM     81  C   UNL A   1      50.629  26.703  24.281  1.00  0.00     0.198 A 
ATOM     82  C   UNL A   1      51.251  25.842  26.432  1.00  0.00     0.198 A 
ATOM     83  F   UNL A   1      49.677  25.801  28.181  1.00  0.00    -0.203 F 
ATOM     84  F   UNL A   1      50.935  26.967  23.003  1.00  0.00    -0.200 F 
ATOM     85  C   UNL A   1      51.579  26.136  25.117  1.00  0.00     0.200 A 
ATOM     86  F   UNL A   1      52.171  25.312  27.250  1.00  0.00    -0.200 F 
ATOM     87  F   UNL A   1      52.809  25.871  24.657  1.00  0.00    -0.200 F 
ENDBRANCH  53  77
BRANCH  65  88
ATOM     88  C   UNL A   1      46.064  32.428  28.770  1.00  0.00     0.064 A 
ATOM     89  C   UNL A   1      46.002  33.476  27.841  1.00  0.00     0.173 A 
ATOM     90  C   UNL A   1      46.615  32.703  30.033  1.00  0.00     0.173 A 
ATOM     91  F   UNL A   1      45.499  33.263  26.616  1.00  0.00    -0.203 F 
ATOM     92  C   UNL A   1      46.495  34.741  28.153  1.00  0.00     0.198 A 
ATOM     93  C   UNL A   1      47.075  33.977  30.353  1.00  0.00     0.198 A 
ATOM     94  F   UNL A   1      46.692  31.738  30.962  1.00  0.00    -0.203 F 
ATOM     95  F   UNL A   1      46.473  35.713  27.230  1.00  0.00    -0.200 F 
ATOM     96  C   UNL A   1      47.022  34.992  29.410  1.00  0.00     0.200 A 
ATOM     97  F   UNL A   1      47.567  34.222  31.575  1.00  0.00    -0.200 F 
ATOM     98  F   UNL A   1      47.488  36.212  29.712  1.00  0.00    -0.200 F 
ENDBRANCH  65  88
ENDBRANCH  39  40
ENDBRANCH  31  34
ENDBRANCH  29  30
ENDBRANCH  28  29
ENDBRANCH  27  28
ENDBRANCH  26  27
ENDBRANCH  25  26
ENDBRANCH   1  25
TORSDOF 20
ENDMDL
MODEL 3
REMARK VINA RESULT:     -10.9      0.866      1.787
REMARK SMILES COc1ccc(OCC(C)(C)C(=O)NCCCCCCNC(=O)c2ccc(-c3c4nc(c(-c5c(F)c(F)c(F)c(F)c5F)c5ccc([nH]5)c(-c5c(F)c(F)c(F)c(F)c5F)c5nc(c(-c6c(F)c(F)c(F)c(F)c6F)c6ccc3[nH]6)C=C5)C=C4)cc2)c(CC[NH3+])c1
REMARK SMILES IDX 15 1 14 2 12 3 13 4 9 6 10 7 11 8 8 9 7 10 6 11 3 12 4 13
REMARK SMILES IDX 91 14 5 15 87 16 2 17 1 18 88 19 89 20 90 21 16 25 17 26
REMARK SMILES IDX 18 27 19 28 20 29 21 30 22 31 23 33 24 34 25 35 86 36 26 37
REMARK SMILES IDX 85 38 27 39 28 40 29 41 79 42 30 43 84 44 78 45 80 46 31 47
REMARK SMILES IDX 83 48 77 49 76 50 32 52 64 53 44 54 63 55 45 56 48 57 62 58
REMARK SMILES IDX 81 59 46 60 47 61 61 63 82 64 49 65 33 66 34 67 42 68 35 69
REMARK SMILES IDX 36 70 40 71 43 72 37 73 38 74 41 75 39 76 65 77 66 78 74 79
REMARK SMILES IDX 67 80 68 81 72 82 75 83 69 84 70 85 73 86 71 87 50 88 51 89
REMARK SMILES IDX 59 90 52 91 53 92 57 93 60 94 54 95 55 96 58 97 56 98
REMARK H PARENT 14 5 90 22 90 23 90 24 21 32 80 51 48 62
REMARK Flexibility Score: inf
ROOT
ATOM      1  C   UNL A   1      32.438  27.549  26.256  1.00  0.00     0.116 C 
ENDROOT
BRANCH   1   2
ATOM      2  N   UNL A   1      31.361  26.846  25.585  1.00  0.00    -0.356 N 
ATOM      3  C   UNL A   1      31.270  26.332  24.325  1.00  0.00     0.229 C 
ATOM      4  O   UNL A   1      30.218  25.764  24.034  1.00  0.00    -0.274 OA
ATOM      5  H   UNL A   1      30.555  26.717  26.136  1.00  0.00     0.163 HD
BRANCH   3   6
ATOM      6  C   UNL A   1      32.442  26.469  23.342  1.00  0.00     0.077 C 
ATOM      7  C   UNL A   1      32.804  27.966  23.260  1.00  0.00     0.025 C 
ATOM      8  C   UNL A   1      32.028  25.875  21.970  1.00  0.00     0.025 C 
BRANCH   6   9
ATOM      9  C   UNL A   1      33.620  25.531  23.791  1.00  0.00     0.245 C 
BRANCH   9  10
ATOM     10  O   UNL A   1      33.449  24.597  24.847  1.00  0.00    -0.492 OA
BRANCH  10  11
ATOM     11  C   UNL A   1      33.737  23.273  24.727  1.00  0.00     0.123 A 
ATOM     12  C   UNL A   1      33.643  20.485  24.514  1.00  0.00     0.119 A 
ATOM     13  C   UNL A   1      32.739  21.249  23.796  1.00  0.00     0.050 A 
ATOM     14  C   UNL A   1      34.670  21.108  25.229  1.00  0.00     0.054 A 
ATOM     15  C   UNL A   1      32.787  22.635  23.908  1.00  0.00     0.050 A 
ATOM     16  C   UNL A   1      34.758  22.517  25.331  1.00  0.00     0.003 A 
BRANCH  12  17
ATOM     17  O   UNL A   1      33.530  19.125  24.423  1.00  0.00    -0.497 OA
ATOM     18  C   UNL A   1      32.720  18.581  25.466  1.00  0.00     0.278 C 
ENDBRANCH  12  17
BRANCH  16  19
ATOM     19  C   UNL A   1      35.928  23.067  26.125  1.00  0.00     0.101 C 
BRANCH  19  20
ATOM     20  C   UNL A   1      37.031  23.778  25.333  1.00  0.00     0.263 C 
BRANCH  20  21
ATOM     21  N   UNL A   1      37.282  23.261  23.991  1.00  0.00    -0.357 N 
ATOM     22  H   UNL A   1      38.207  22.833  23.961  1.00  0.00     0.344 HD
ATOM     23  H   UNL A   1      37.238  24.027  23.319  1.00  0.00     0.344 HD
ATOM     24  H   UNL A   1      36.576  22.564  23.759  1.00  0.00     0.344 HD
ENDBRANCH  20  21
ENDBRANCH  19  20
ENDBRANCH  16  19
ENDBRANCH  10  11
ENDBRANCH   9  10
ENDBRANCH   6   9
ENDBRANCH   3   6
ENDBRANCH   1   2
BRANCH   1  25
ATOM     25  C   UNL A   1      31.907  28.508  27.303  1.00  0.00     0.021 C 
BRANCH  25  26
ATOM     26  C   UNL A   1      32.420  29.932  27.101  1.00  0.00     0.002 C 
BRANCH  26  27
ATOM     27  C   UNL A   1      31.573  30.777  26.142  1.00  0.00     0.002 C 
BRANCH  27  28
ATOM     28  C   UNL A   1      31.389  32.238  26.567  1.00  0.00     0.021 C 
BRANCH  28  29
ATOM     29  C   UNL A   1      32.571  32.806  27.341  1.00  0.00     0.116 C 
BRANCH  29  30
ATOM     30  N   UNL A   1      32.385  34.216  27.638  1.00  0.00    -0.352 N 
ATOM     31  C   UNL A   1      32.976  34.971  28.610  1.00  0.00     0.251 C 
ATOM     32  H   UNL A   1      31.745  34.691  27.059  1.00  0.00     0.163 HD
ATOM     33  O   UNL A   1      32.547  36.091  28.881  1.00  0.00    -0.269 OA
BRANCH  31  34
ATOM     34  C   UNL A   1      34.129  34.421  29.341  1.00  0.00     0.039 A 
ATOM     35  C   UNL A   1      33.902  33.717  30.524  1.00  0.00     0.014 A 
ATOM     36  C   UNL A   1      35.426  34.590  28.847  1.00  0.00     0.014 A 
ATOM     37  C   UNL A   1      34.981  33.145  31.194  1.00  0.00     0.010 A 
ATOM     38  C   UNL A   1      36.488  33.948  29.470  1.00  0.00     0.010 A 
ATOM     39  C   UNL A   1      36.276  33.231  30.657  1.00  0.00    -0.014 A 
BRANCH  39  40
ATOM     40  C   UNL A   1      37.424  32.581  31.331  1.00  0.00     0.031 A 
ATOM     41  C   UNL A   1      38.120  31.420  30.682  1.00  0.00     0.074 A 
ATOM     42  C   UNL A   1      37.795  33.000  32.555  1.00  0.00     0.049 A 
ATOM     43  N   UNL A   1      39.111  30.693  31.131  1.00  0.00    -0.248 NA
ATOM     44  C   UNL A   1      37.616  30.999  29.366  1.00  0.00     0.031 C 
ATOM     45  C   UNL A   1      37.154  34.081  33.307  1.00  0.00     0.029 A 
ATOM     46  N   UNL A   1      38.794  32.564  33.385  1.00  0.00    -0.354 N 
ATOM     47  C   UNL A   1      39.336  29.724  30.163  1.00  0.00     0.074 A 
ATOM     48  C   UNL A   1      38.341  29.916  29.131  1.00  0.00     0.031 C 
ATOM     49  C   UNL A   1      37.791  34.238  34.477  1.00  0.00     0.029 A 
ATOM     50  C   UNL A   1      38.855  33.243  34.576  1.00  0.00     0.049 A 
ATOM     51  H   UNL A   1      39.410  31.832  33.150  1.00  0.00     0.167 HD
ATOM     52  C   UNL A   1      40.301  28.774  30.129  1.00  0.00     0.037 A 
ATOM     53  C   UNL A   1      39.671  33.076  35.633  1.00  0.00     0.037 A 
ATOM     54  C   UNL A   1      41.297  28.605  31.155  1.00  0.00     0.049 A 
ATOM     55  C   UNL A   1      40.736  32.016  35.574  1.00  0.00     0.074 A 
ATOM     56  C   UNL A   1      42.365  27.725  31.182  1.00  0.00     0.029 A 
ATOM     57  N   UNL A   1      41.339  29.323  32.342  1.00  0.00    -0.354 N 
ATOM     58  N   UNL A   1      40.997  31.159  34.616  1.00  0.00    -0.248 NA
ATOM     59  C   UNL A   1      41.623  31.904  36.738  1.00  0.00     0.031 C 
ATOM     60  C   UNL A   1      43.012  27.864  32.415  1.00  0.00     0.029 A 
ATOM     61  C   UNL A   1      42.393  28.880  33.127  1.00  0.00     0.049 A 
ATOM     62  H   UNL A   1      40.714  30.041  32.590  1.00  0.00     0.167 HD
ATOM     63  C   UNL A   1      42.092  30.424  35.048  1.00  0.00     0.074 A 
ATOM     64  C   UNL A   1      42.456  30.947  36.349  1.00  0.00     0.031 C 
ATOM     65  C   UNL A   1      42.737  29.407  34.424  1.00  0.00     0.037 A 
BRANCH  52  66
ATOM     66  C   UNL A   1      40.312  27.838  28.953  1.00  0.00     0.064 A 
ATOM     67  C   UNL A   1      39.609  26.623  28.964  1.00  0.00     0.173 A 
ATOM     68  C   UNL A   1      41.025  28.169  27.790  1.00  0.00     0.173 A 
ATOM     69  F   UNL A   1      38.918  26.251  30.052  1.00  0.00    -0.203 F 
ATOM     70  C   UNL A   1      39.656  25.757  27.873  1.00  0.00     0.198 A 
ATOM     71  C   UNL A   1      41.039  27.319  26.688  1.00  0.00     0.198 A 
ATOM     72  F   UNL A   1      41.711  29.321  27.721  1.00  0.00    -0.203 F 
ATOM     73  F   UNL A   1      39.032  24.573  27.934  1.00  0.00    -0.200 F 
ATOM     74  C   UNL A   1      40.366  26.109  26.736  1.00  0.00     0.200 A 
ATOM     75  F   UNL A   1      41.713  27.668  25.584  1.00  0.00    -0.200 F 
ATOM     76  F   UNL A   1      40.408  25.275  25.687  1.00  0.00    -0.200 F 
ENDBRANCH  52  66
BRANCH  53  77
ATOM     77  C   UNL A   1      39.517  33.951  36.824  1.00  0.00     0.064 A 
ATOM     78  C   UNL A   1      38.782  33.531  37.941  1.00  0.00     0.173 A 
ATOM     79  C   UNL A   1      40.124  35.215  36.881  1.00  0.00     0.173 A 
ATOM     80  F   UNL A   1      38.169  32.337  37.929  1.00  0.00    -0.203 F 
ATOM     81  C   UNL A   1      38.647  34.346  39.062  1.00  0.00     0.198 A 
ATOM     82  C   UNL A   1      40.015  36.016  38.015  1.00  0.00     0.198 A 
ATOM     83  F   UNL A   1      40.846  35.660  35.843  1.00  0.00    -0.203 F 
ATOM     84  F   UNL A   1      37.907  33.936  40.101  1.00  0.00    -0.200 F 
ATOM     85  C   UNL A   1      39.270  35.585  39.102  1.00  0.00     0.200 A 
ATOM     86  F   UNL A   1      40.635  37.203  38.056  1.00  0.00    -0.200 F 
ATOM     87  F   UNL A   1      39.152  36.363  40.186  1.00  0.00    -0.200 F 
ENDBRANCH  53  77
BRANCH  65  88
ATOM     88  C   UNL A   1      43.923  28.810  35.127  1.00  0.00     0.064 A 
ATOM     89  C   UNL A   1      45.220  29.316  34.952  1.00  0.00     0.173 A 
ATOM     90  C   UNL A   1      43.752  27.741  36.022  1.00  0.00     0.173 A 
ATOM     91  F   UNL A   1      45.440  30.327  34.098  1.00  0.00    -0.203 F 
ATOM     92  C   UNL A   1      46.304  28.757  35.624  1.00  0.00     0.198 A 
ATOM     93  C   UNL A   1      44.833  27.208  36.717  1.00  0.00     0.198 A 
ATOM     94  F   UNL A   1      42.532  27.223  36.232  1.00  0.00    -0.203 F 
ATOM     95  F   UNL A   1      47.541  29.223  35.399  1.00  0.00    -0.200 F 
ATOM     96  C   UNL A   1      46.108  27.710  36.512  1.00  0.00     0.200 A 
ATOM     97  F   UNL A   1      44.639  26.208  37.590  1.00  0.00    -0.200 F 
ATOM     98  F   UNL A   1      47.152  27.180  37.165  1.00  0.00    -0.200 F 
ENDBRANCH  65  88
ENDBRANCH  39  40
ENDBRANCH  31  34
ENDBRANCH  29  30
ENDBRANCH  28  29
ENDBRANCH  27  28
ENDBRANCH  26  27
ENDBRANCH  25  26
ENDBRANCH   1  25
TORSDOF 20
ENDMDL
