MODEL 1
REMARK VINA RESULT:     -10.8      0.000      0.000
REMARK SMILES CC(C)(C)[C@H](CCC(=O)NCCCCCCNC(=O)c1ccc(-c2c3nc(c(-c4c(F)c(F)c(F)c(F)c4F)c4ccc([nH]4)c(-c4c(F)c(F)c(F)c(F)c4F)c4nc(c(-c5c(F)c(F)c(F)c(F)c5F)c5ccc2[nH]5)C=C4)C=C3)cc1)CC[NH+]1CCOCC1
REMARK SMILES IDX 12 1 11 2 10 3 8 4 9 5 7 7 6 8 5 9 2 10 1 11 3 12 4 13 83 14
REMARK SMILES IDX 84 15 85 16 86 17 90 18 87 20 89 21 88 22 13 23 14 24 15 25
REMARK SMILES IDX 16 26 17 27 18 28 19 30 20 31 21 32 82 33 22 34 81 35 23 36
REMARK SMILES IDX 24 37 25 38 75 39 26 40 80 41 74 42 76 43 27 44 79 45 73 46
REMARK SMILES IDX 72 47 28 49 60 50 40 51 59 52 41 53 44 54 58 55 77 56 42 57
REMARK SMILES IDX 43 58 57 60 78 61 45 62 29 63 30 64 38 65 31 66 32 67 36 68
REMARK SMILES IDX 39 69 33 70 34 71 37 72 35 73 61 74 62 75 70 76 63 77 64 78
REMARK SMILES IDX 68 79 71 80 65 81 66 82 69 83 67 84 46 85 47 86 55 87 48 88
REMARK SMILES IDX 49 89 53 90 56 91 50 92 51 93 54 94 52 95
REMARK H PARENT 10 6 85 19 17 29 76 48 44 59
REMARK Flexibility Score: inf
ROOT
ATOM      1  C   UNL A   1      34.842  31.672  28.629  1.00  0.00     0.021 C 
ENDROOT
BRANCH   1   2
ATOM      2  C   UNL A   1      33.920  31.222  27.491  1.00  0.00     0.116 C 
BRANCH   2   3
ATOM      3  N   UNL A   1      33.323  29.925  27.810  1.00  0.00    -0.356 N 
ATOM      4  C   UNL A   1      32.395  29.157  27.166  1.00  0.00     0.220 C 
ATOM      5  O   UNL A   1      31.917  28.205  27.789  1.00  0.00    -0.275 OA
ATOM      6  H   UNL A   1      33.653  29.532  28.650  1.00  0.00     0.163 HD
BRANCH   4   7
ATOM      7  C   UNL A   1      32.018  29.385  25.710  1.00  0.00     0.100 C 
BRANCH   7   8
ATOM      8  C   UNL A   1      32.136  28.187  24.743  1.00  0.00     0.014 C 
BRANCH   8   9
ATOM      9  C   UNL A   1      30.898  27.828  23.889  1.00  0.00     0.000 C 
BRANCH   9  10
ATOM     10  C   UNL A   1      30.147  26.440  24.252  1.00  0.00    -0.035 C 
ATOM     11  C   UNL A   1      28.640  26.462  23.915  1.00  0.00     0.011 C 
ATOM     12  C   UNL A   1      30.235  25.998  25.729  1.00  0.00     0.011 C 
ATOM     13  C   UNL A   1      30.779  25.289  23.428  1.00  0.00     0.011 C 
ENDBRANCH   9  10
BRANCH   9  14
ATOM     14  C   UNL A   1      29.873  29.035  23.827  1.00  0.00     0.065 C 
BRANCH  14  15
ATOM     15  C   UNL A   1      29.414  29.801  22.529  1.00  0.00     0.262 C 
BRANCH  15  16
ATOM     16  N   UNL A   1      28.082  30.367  22.277  1.00  0.00    -0.331 N 
ATOM     17  C   UNL A   1      27.837  30.880  20.909  1.00  0.00     0.291 C 
ATOM     18  C   UNL A   1      27.650  31.396  23.196  1.00  0.00     0.291 C 
ATOM     19  H   UNL A   1      27.528  29.523  22.421  1.00  0.00     0.348 HD
ATOM     20  C   UNL A   1      28.350  32.318  20.635  1.00  0.00     0.221 C 
ATOM     21  C   UNL A   1      28.399  32.703  22.949  1.00  0.00     0.221 C 
ATOM     22  O   UNL A   1      28.027  33.247  21.682  1.00  0.00    -0.370 OA
ENDBRANCH  15  16
ENDBRANCH  14  15
ENDBRANCH   9  14
ENDBRANCH   8   9
ENDBRANCH   7   8
ENDBRANCH   4   7
ENDBRANCH   2   3
ENDBRANCH   1   2
BRANCH   1  23
ATOM     23  C   UNL A   1      34.556  32.969  29.383  1.00  0.00     0.002 C 
BRANCH  23  24
ATOM     24  C   UNL A   1      34.216  34.181  28.509  1.00  0.00     0.002 C 
BRANCH  24  25
ATOM     25  C   UNL A   1      32.998  35.042  28.889  1.00  0.00     0.021 C 
BRANCH  25  26
ATOM     26  C   UNL A   1      33.211  36.292  29.746  1.00  0.00     0.116 C 
BRANCH  26  27
ATOM     27  N   UNL A   1      32.391  36.357  30.936  1.00  0.00    -0.352 N 
ATOM     28  C   UNL A   1      32.601  35.808  32.180  1.00  0.00     0.251 C 
ATOM     29  H   UNL A   1      31.557  36.872  30.842  1.00  0.00     0.163 HD
ATOM     30  O   UNL A   1      31.766  35.950  33.062  1.00  0.00    -0.269 OA
BRANCH  28  31
ATOM     31  C   UNL A   1      33.811  34.998  32.451  1.00  0.00     0.039 A 
ATOM     32  C   UNL A   1      35.055  35.576  32.186  1.00  0.00     0.014 A 
ATOM     33  C   UNL A   1      33.738  33.686  32.926  1.00  0.00     0.014 A 
ATOM     34  C   UNL A   1      36.227  34.863  32.448  1.00  0.00     0.010 A 
ATOM     35  C   UNL A   1      34.913  32.993  33.241  1.00  0.00     0.010 A 
ATOM     36  C   UNL A   1      36.170  33.576  33.008  1.00  0.00    -0.014 A 
BRANCH  36  37
ATOM     37  C   UNL A   1      37.423  32.852  33.357  1.00  0.00     0.031 A 
ATOM     38  C   UNL A   1      38.161  33.161  34.630  1.00  0.00     0.074 A 
ATOM     39  C   UNL A   1      37.910  31.920  32.513  1.00  0.00     0.049 A 
ATOM     40  N   UNL A   1      39.267  32.633  35.096  1.00  0.00    -0.248 NA
ATOM     41  C   UNL A   1      37.593  34.213  35.486  1.00  0.00     0.031 C 
ATOM     42  C   UNL A   1      37.309  31.549  31.231  1.00  0.00     0.029 A 
ATOM     43  N   UNL A   1      39.022  31.118  32.602  1.00  0.00    -0.354 N 
ATOM     44  C   UNL A   1      39.528  33.291  36.292  1.00  0.00     0.074 A 
ATOM     45  C   UNL A   1      38.495  34.291  36.454  1.00  0.00     0.031 C 
ATOM     46  C   UNL A   1      38.043  30.576  30.666  1.00  0.00     0.029 A 
ATOM     47  C   UNL A   1      39.187  30.282  31.523  1.00  0.00     0.049 A 
ATOM     48  H   UNL A   1      39.641  31.138  33.366  1.00  0.00     0.167 HD
ATOM     49  C   UNL A   1      40.526  33.068  37.181  1.00  0.00     0.037 A 
ATOM     50  C   UNL A   1      40.156  29.385  31.250  1.00  0.00     0.037 A 
ATOM     51  C   UNL A   1      41.546  32.062  37.024  1.00  0.00     0.049 A 
ATOM     52  C   UNL A   1      41.268  29.178  32.243  1.00  0.00     0.074 A 
ATOM     53  C   UNL A   1      42.565  31.724  37.898  1.00  0.00     0.029 A 
ATOM     54  N   UNL A   1      41.685  31.241  35.914  1.00  0.00    -0.354 N 
ATOM     55  N   UNL A   1      41.461  29.753  33.405  1.00  0.00    -0.248 NA
ATOM     56  C   UNL A   1      42.296  28.188  31.889  1.00  0.00     0.031 C 
ATOM     57  C   UNL A   1      43.357  30.743  37.291  1.00  0.00     0.029 A 
ATOM     58  C   UNL A   1      42.793  30.420  36.068  1.00  0.00     0.049 A 
ATOM     59  H   UNL A   1      41.085  31.241  35.133  1.00  0.00     0.167 HD
ATOM     60  C   UNL A   1      42.608  29.175  33.933  1.00  0.00     0.074 A 
ATOM     61  C   UNL A   1      43.059  28.191  32.972  1.00  0.00     0.031 C 
ATOM     62  C   UNL A   1      43.230  29.438  35.108  1.00  0.00     0.037 A 
BRANCH  49  63
ATOM     63  C   UNL A   1      40.575  33.934  38.408  1.00  0.00     0.064 A 
ATOM     64  C   UNL A   1      41.329  35.117  38.449  1.00  0.00     0.173 A 
ATOM     65  C   UNL A   1      39.818  33.604  39.544  1.00  0.00     0.173 A 
ATOM     66  F   UNL A   1      42.077  35.477  37.394  1.00  0.00    -0.203 F 
ATOM     67  C   UNL A   1      41.349  35.917  39.588  1.00  0.00     0.198 A 
ATOM     68  C   UNL A   1      39.813  34.425  40.668  1.00  0.00     0.198 A 
ATOM     69  F   UNL A   1      39.069  32.490  39.557  1.00  0.00    -0.203 F 
ATOM     70  F   UNL A   1      42.117  37.016  39.620  1.00  0.00    -0.200 F 
ATOM     71  C   UNL A   1      40.585  35.576  40.693  1.00  0.00     0.200 A 
ATOM     72  F   UNL A   1      39.061  34.101  41.729  1.00  0.00    -0.200 F 
ATOM     73  F   UNL A   1      40.597  36.352  41.785  1.00  0.00    -0.200 F 
ENDBRANCH  49  63
BRANCH  50  74
ATOM     74  C   UNL A   1      40.115  28.605  29.983  1.00  0.00     0.064 A 
ATOM     75  C   UNL A   1      39.477  27.358  29.921  1.00  0.00     0.173 A 
ATOM     76  C   UNL A   1      40.730  29.080  28.815  1.00  0.00     0.173 A 
ATOM     77  F   UNL A   1      38.894  26.848  31.017  1.00  0.00    -0.203 F 
ATOM     78  C   UNL A   1      39.481  26.604  28.749  1.00  0.00     0.198 A 
ATOM     79  C   UNL A   1      40.702  28.341  27.634  1.00  0.00     0.198 A 
ATOM     80  F   UNL A   1      41.350  30.269  28.817  1.00  0.00    -0.203 F 
ATOM     81  F   UNL A   1      38.914  25.390  28.734  1.00  0.00    -0.200 F 
ATOM     82  C   UNL A   1      40.088  27.098  27.604  1.00  0.00     0.200 A 
ATOM     83  F   UNL A   1      41.276  28.831  26.527  1.00  0.00    -0.200 F 
ATOM     84  F   UNL A   1      40.089  26.375  26.477  1.00  0.00    -0.200 F 
ENDBRANCH  50  74
BRANCH  62  85
ATOM     85  C   UNL A   1      44.447  28.621  35.446  1.00  0.00     0.064 A 
ATOM     86  C   UNL A   1      45.736  29.022  35.067  1.00  0.00     0.173 A 
ATOM     87  C   UNL A   1      44.322  27.438  36.192  1.00  0.00     0.173 A 
ATOM     88  F   UNL A   1      45.912  30.135  34.340  1.00  0.00    -0.203 F 
ATOM     89  C   UNL A   1      46.852  28.254  35.397  1.00  0.00     0.198 A 
ATOM     90  C   UNL A   1      45.441  26.692  36.550  1.00  0.00     0.198 A 
ATOM     91  F   UNL A   1      43.112  27.012  36.587  1.00  0.00    -0.203 F 
ATOM     92  F   UNL A   1      48.068  28.629  34.976  1.00  0.00    -0.200 F 
ATOM     93  C   UNL A   1      46.704  27.096  36.145  1.00  0.00     0.200 A 
ATOM     94  F   UNL A   1      45.297  25.583  37.288  1.00  0.00    -0.200 F 
ATOM     95  F   UNL A   1      47.779  26.364  36.469  1.00  0.00    -0.200 F 
ENDBRANCH  62  85
ENDBRANCH  36  37
ENDBRANCH  28  31
ENDBRANCH  26  27
ENDBRANCH  25  26
ENDBRANCH  24  25
ENDBRANCH  23  24
ENDBRANCH   1  23
TORSDOF 19
ENDMDL
MODEL 2
REMARK VINA RESULT:     -10.7      3.739      6.215
REMARK SMILES CC(C)(C)[C@H](CCC(=O)NCCCCCCNC(=O)c1ccc(-c2c3nc(c(-c4c(F)c(F)c(F)c(F)c4F)c4ccc([nH]4)c(-c4c(F)c(F)c(F)c(F)c4F)c4nc(c(-c5c(F)c(F)c(F)c(F)c5F)c5ccc2[nH]5)C=C4)C=C3)cc1)CC[NH+]1CCOCC1
REMARK SMILES IDX 12 1 11 2 10 3 8 4 9 5 7 7 6 8 5 9 2 10 1 11 3 12 4 13 83 14
REMARK SMILES IDX 84 15 85 16 86 17 90 18 87 20 89 21 88 22 13 23 14 24 15 25
REMARK SMILES IDX 16 26 17 27 18 28 19 30 20 31 21 32 82 33 22 34 81 35 23 36
REMARK SMILES IDX 24 37 25 38 75 39 26 40 80 41 74 42 76 43 27 44 79 45 73 46
REMARK SMILES IDX 72 47 28 49 60 50 40 51 59 52 41 53 44 54 58 55 77 56 42 57
REMARK SMILES IDX 43 58 57 60 78 61 45 62 29 63 30 64 38 65 31 66 32 67 36 68
REMARK SMILES IDX 39 69 33 70 34 71 37 72 35 73 61 74 62 75 70 76 63 77 64 78
REMARK SMILES IDX 68 79 71 80 65 81 66 82 69 83 67 84 46 85 47 86 55 87 48 88
REMARK SMILES IDX 49 89 53 90 56 91 50 92 51 93 54 94 52 95
REMARK H PARENT 10 6 85 19 17 29 76 48 44 59
REMARK Flexibility Score: inf
ROOT
ATOM      1  C   UNL A   1      30.170  26.312  24.314  1.00  0.00     0.021 C 
ENDROOT
BRANCH   1   2
ATOM      2  C   UNL A   1      30.580  25.110  23.456  1.00  0.00     0.116 C 
BRANCH   2   3
ATOM      3  N   UNL A   1      31.582  25.515  22.470  1.00  0.00    -0.356 N 
ATOM      4  C   UNL A   1      32.752  24.942  22.061  1.00  0.00     0.220 C 
ATOM      5  O   UNL A   1      33.507  25.628  21.366  1.00  0.00    -0.275 OA
ATOM      6  H   UNL A   1      31.372  26.362  22.015  1.00  0.00     0.163 HD
BRANCH   4   7
ATOM      7  C   UNL A   1      33.095  23.489  22.357  1.00  0.00     0.100 C 
BRANCH   7   8
ATOM      8  C   UNL A   1      34.331  23.210  23.239  1.00  0.00     0.014 C 
BRANCH   8   9
ATOM      9  C   UNL A   1      34.132  22.341  24.503  1.00  0.00     0.000 C 
BRANCH   9  10
ATOM     10  C   UNL A   1      33.637  23.112  25.839  1.00  0.00    -0.035 C 
ATOM     11  C   UNL A   1      34.276  22.555  27.129  1.00  0.00     0.011 C 
ATOM     12  C   UNL A   1      32.114  23.101  26.093  1.00  0.00     0.011 C 
ATOM     13  C   UNL A   1      34.038  24.606  25.742  1.00  0.00     0.011 C 
ENDBRANCH   9  10
BRANCH   9  14
ATOM     14  C   UNL A   1      33.219  21.083  24.196  1.00  0.00     0.065 C 
BRANCH  14  15
ATOM     15  C   UNL A   1      33.443  19.618  24.732  1.00  0.00     0.262 C 
BRANCH  15  16
ATOM     16  N   UNL A   1      32.570  18.460  24.493  1.00  0.00    -0.331 N 
ATOM     17  C   UNL A   1      32.609  17.389  25.515  1.00  0.00     0.291 C 
ATOM     18  C   UNL A   1      32.712  17.819  23.205  1.00  0.00     0.291 C 
ATOM     19  H   UNL A   1      31.669  18.936  24.542  1.00  0.00     0.348 HD
ATOM     20  C   UNL A   1      33.770  16.372  25.369  1.00  0.00     0.221 C 
ATOM     21  C   UNL A   1      34.012  17.024  23.129  1.00  0.00     0.221 C 
ATOM     22  O   UNL A   1      33.958  15.910  24.022  1.00  0.00    -0.370 OA
ENDBRANCH  15  16
ENDBRANCH  14  15
ENDBRANCH   9  14
ENDBRANCH   8   9
ENDBRANCH   7   8
ENDBRANCH   4   7
ENDBRANCH   2   3
ENDBRANCH   1   2
BRANCH   1  23
ATOM     23  C   UNL A   1      31.218  27.330  24.760  1.00  0.00     0.002 C 
BRANCH  23  24
ATOM     24  C   UNL A   1      31.515  27.360  26.263  1.00  0.00     0.002 C 
BRANCH  24  25
ATOM     25  C   UNL A   1      31.843  28.712  26.921  1.00  0.00     0.021 C 
BRANCH  25  26
ATOM     26  C   UNL A   1      32.799  29.672  26.210  1.00  0.00     0.116 C 
BRANCH  26  27
ATOM     27  N   UNL A   1      32.627  31.066  26.556  1.00  0.00    -0.352 N 
ATOM     28  C   UNL A   1      33.418  31.886  27.326  1.00  0.00     0.251 C 
ATOM     29  H   UNL A   1      31.821  31.493  26.184  1.00  0.00     0.163 HD
ATOM     30  O   UNL A   1      33.085  33.044  27.531  1.00  0.00    -0.269 OA
BRANCH  28  31
ATOM     31  C   UNL A   1      34.654  31.364  27.955  1.00  0.00     0.039 A 
ATOM     32  C   UNL A   1      35.743  32.232  28.070  1.00  0.00     0.014 A 
ATOM     33  C   UNL A   1      34.764  30.043  28.400  1.00  0.00     0.014 A 
ATOM     34  C   UNL A   1      36.923  31.796  28.678  1.00  0.00     0.010 A 
ATOM     35  C   UNL A   1      35.925  29.625  29.059  1.00  0.00     0.010 A 
ATOM     36  C   UNL A   1      37.016  30.498  29.208  1.00  0.00    -0.014 A 
BRANCH  36  37
ATOM     37  C   UNL A   1      38.247  30.065  29.923  1.00  0.00     0.031 A 
ATOM     38  C   UNL A   1      38.550  30.568  31.308  1.00  0.00     0.074 A 
ATOM     39  C   UNL A   1      39.110  29.226  29.315  1.00  0.00     0.049 A 
ATOM     40  N   UNL A   1      39.573  30.301  32.082  1.00  0.00    -0.248 NA
ATOM     41  C   UNL A   1      37.585  31.509  31.896  1.00  0.00     0.031 C 
ATOM     42  C   UNL A   1      38.952  28.690  27.962  1.00  0.00     0.029 A 
ATOM     43  N   UNL A   1      40.292  28.677  29.752  1.00  0.00    -0.354 N 
ATOM     44  C   UNL A   1      39.378  31.042  33.241  1.00  0.00     0.074 A 
ATOM     45  C   UNL A   1      38.167  31.809  33.048  1.00  0.00     0.031 C 
ATOM     46  C   UNL A   1      39.981  27.872  27.690  1.00  0.00     0.029 A 
ATOM     47  C   UNL A   1      40.893  27.855  28.829  1.00  0.00     0.049 A 
ATOM     48  H   UNL A   1      40.671  28.855  30.643  1.00  0.00     0.167 HD
ATOM     49  C   UNL A   1      40.129  31.065  34.368  1.00  0.00     0.037 A 
ATOM     50  C   UNL A   1      42.053  27.172  28.889  1.00  0.00     0.037 A 
ATOM     51  C   UNL A   1      41.329  30.290  34.563  1.00  0.00     0.049 A 
ATOM     52  C   UNL A   1      42.882  27.238  30.145  1.00  0.00     0.074 A 
ATOM     53  C   UNL A   1      42.126  30.204  35.691  1.00  0.00     0.029 A 
ATOM     54  N   UNL A   1      41.910  29.476  33.602  1.00  0.00    -0.354 N 
ATOM     55  N   UNL A   1      42.647  27.883  31.261  1.00  0.00    -0.248 NA
ATOM     56  C   UNL A   1      44.137  26.472  30.150  1.00  0.00     0.031 C 
ATOM     57  C   UNL A   1      43.223  29.390  35.393  1.00  0.00     0.029 A 
ATOM     58  C   UNL A   1      43.075  28.911  34.102  1.00  0.00     0.049 A 
ATOM     59  H   UNL A   1      41.550  29.322  32.699  1.00  0.00     0.167 HD
ATOM     60  C   UNL A   1      43.703  27.577  32.110  1.00  0.00     0.074 A 
ATOM     61  C   UNL A   1      44.572  26.675  31.385  1.00  0.00     0.031 C 
ATOM     62  C   UNL A   1      43.930  28.007  33.375  1.00  0.00     0.037 A 
BRANCH  49  63
ATOM     63  C   UNL A   1      39.685  31.967  35.485  1.00  0.00     0.064 A 
ATOM     64  C   UNL A   1      40.149  33.287  35.598  1.00  0.00     0.173 A 
ATOM     65  C   UNL A   1      38.745  31.522  36.428  1.00  0.00     0.173 A 
ATOM     66  F   UNL A   1      41.053  33.762  34.728  1.00  0.00    -0.203 F 
ATOM     67  C   UNL A   1      39.713  34.115  36.630  1.00  0.00     0.198 A 
ATOM     68  C   UNL A   1      38.286  32.364  37.438  1.00  0.00     0.198 A 
ATOM     69  F   UNL A   1      38.260  30.273  36.362  1.00  0.00    -0.203 F 
ATOM     70  F   UNL A   1      40.208  35.355  36.746  1.00  0.00    -0.200 F 
ATOM     71  C   UNL A   1      38.776  33.657  37.543  1.00  0.00     0.200 A 
ATOM     72  F   UNL A   1      37.368  31.924  38.310  1.00  0.00    -0.200 F 
ATOM     73  F   UNL A   1      38.350  34.457  38.529  1.00  0.00    -0.200 F 
ENDBRANCH  49  63
BRANCH  50  74
ATOM     74  C   UNL A   1      42.498  26.354  27.728  1.00  0.00     0.064 A 
ATOM     75  C   UNL A   1      42.028  25.047  27.540  1.00  0.00     0.173 A 
ATOM     76  C   UNL A   1      43.419  26.855  26.796  1.00  0.00     0.173 A 
ATOM     77  F   UNL A   1      41.164  24.513  28.417  1.00  0.00    -0.203 F 
ATOM     78  C   UNL A   1      42.482  24.262  26.481  1.00  0.00     0.198 A 
ATOM     79  C   UNL A   1      43.846  26.082  25.717  1.00  0.00     0.198 A 
ATOM     80  F   UNL A   1      43.898  28.101  26.926  1.00  0.00    -0.203 F 
ATOM     81  F   UNL A   1      42.060  22.997  26.357  1.00  0.00    -0.200 F 
ATOM     82  C   UNL A   1      43.386  24.783  25.566  1.00  0.00     0.200 A 
ATOM     83  F   UNL A   1      44.706  26.595  24.828  1.00  0.00    -0.200 F 
ATOM     84  F   UNL A   1      43.821  24.030  24.547  1.00  0.00    -0.200 F 
ENDBRANCH  50  74
BRANCH  62  85
ATOM     85  C   UNL A   1      45.148  27.475  34.079  1.00  0.00     0.064 A 
ATOM     86  C   UNL A   1      46.391  28.121  33.998  1.00  0.00     0.173 A 
ATOM     87  C   UNL A   1      45.060  26.323  34.875  1.00  0.00     0.173 A 
ATOM     88  F   UNL A   1      46.535  29.217  33.239  1.00  0.00    -0.203 F 
ATOM     89  C   UNL A   1      47.506  27.616  34.664  1.00  0.00     0.198 A 
ATOM     90  C   UNL A   1      46.167  25.841  35.569  1.00  0.00     0.198 A 
ATOM     91  F   UNL A   1      43.894  25.670  34.994  1.00  0.00    -0.203 F 
ATOM     92  F   UNL A   1      48.695  28.219  34.528  1.00  0.00    -0.200 F 
ATOM     93  C   UNL A   1      47.391  26.482  35.455  1.00  0.00     0.200 A 
ATOM     94  F   UNL A   1      46.049  24.756  36.346  1.00  0.00    -0.200 F 
ATOM     95  F   UNL A   1      48.462  26.004  36.103  1.00  0.00    -0.200 F 
ENDBRANCH  62  85
ENDBRANCH  36  37
ENDBRANCH  28  31
ENDBRANCH  26  27
ENDBRANCH  25  26
ENDBRANCH  24  25
ENDBRANCH  23  24
ENDBRANCH   1  23
TORSDOF 19
ENDMDL
MODEL 3
REMARK VINA RESULT:     -10.5      3.457      9.007
REMARK SMILES CC(C)(C)[C@H](CCC(=O)NCCCCCCNC(=O)c1ccc(-c2c3nc(c(-c4c(F)c(F)c(F)c(F)c4F)c4ccc([nH]4)c(-c4c(F)c(F)c(F)c(F)c4F)c4nc(c(-c5c(F)c(F)c(F)c(F)c5F)c5ccc2[nH]5)C=C4)C=C3)cc1)CC[NH+]1CCOCC1
REMARK SMILES IDX 12 1 11 2 10 3 8 4 9 5 7 7 6 8 5 9 2 10 1 11 3 12 4 13 83 14
REMARK SMILES IDX 84 15 85 16 86 17 90 18 87 20 89 21 88 22 13 23 14 24 15 25
REMARK SMILES IDX 16 26 17 27 18 28 19 30 20 31 21 32 82 33 22 34 81 35 23 36
REMARK SMILES IDX 24 37 25 38 75 39 26 40 80 41 74 42 76 43 27 44 79 45 73 46
REMARK SMILES IDX 72 47 28 49 60 50 40 51 59 52 41 53 44 54 58 55 77 56 42 57
REMARK SMILES IDX 43 58 57 60 78 61 45 62 29 63 30 64 38 65 31 66 32 67 36 68
REMARK SMILES IDX 39 69 33 70 34 71 37 72 35 73 61 74 62 75 70 76 63 77 64 78
REMARK SMILES IDX 68 79 71 80 65 81 66 82 69 83 67 84 46 85 47 86 55 87 48 88
REMARK SMILES IDX 49 89 53 90 56 91 50 92 51 93 54 94 52 95
REMARK H PARENT 10 6 85 19 17 29 76 48 44 59
REMARK Flexibility Score: inf
ROOT
ATOM      1  C   UNL A   1      31.213  27.556  26.782  1.00  0.00     0.021 C 
ENDROOT
BRANCH   1   2
ATOM      2  C   UNL A   1      31.497  26.199  26.128  1.00  0.00     0.116 C 
BRANCH   2   3
ATOM      3  N   UNL A   1      30.683  25.159  26.756  1.00  0.00    -0.356 N 
ATOM      4  C   UNL A   1      30.797  23.798  26.789  1.00  0.00     0.220 C 
ATOM      5  O   UNL A   1      29.831  23.159  27.215  1.00  0.00    -0.275 OA
ATOM      6  H   UNL A   1      29.905  25.506  27.248  1.00  0.00     0.163 HD
BRANCH   4   7
ATOM      7  C   UNL A   1      32.083  23.079  26.411  1.00  0.00     0.100 C 
BRANCH   7   8
ATOM      8  C   UNL A   1      32.309  22.751  24.919  1.00  0.00     0.014 C 
BRANCH   8   9
ATOM      9  C   UNL A   1      33.704  22.229  24.500  1.00  0.00     0.000 C 
BRANCH   9  10
ATOM     10  C   UNL A   1      34.923  23.294  24.564  1.00  0.00    -0.035 C 
ATOM     11  C   UNL A   1      35.690  23.253  25.903  1.00  0.00     0.011 C 
ATOM     12  C   UNL A   1      34.532  24.772  24.354  1.00  0.00     0.011 C 
ATOM     13  C   UNL A   1      35.944  22.964  23.446  1.00  0.00     0.011 C 
ENDBRANCH   9  10
BRANCH   9  14
ATOM     14  C   UNL A   1      34.069  20.892  25.267  1.00  0.00     0.065 C 
BRANCH  14  15
ATOM     15  C   UNL A   1      34.111  19.444  24.646  1.00  0.00     0.262 C 
BRANCH  15  16
ATOM     16  N   UNL A   1      32.977  18.518  24.518  1.00  0.00    -0.331 N 
ATOM     17  C   UNL A   1      32.836  17.503  25.588  1.00  0.00     0.291 C 
ATOM     18  C   UNL A   1      32.875  17.818  23.257  1.00  0.00     0.291 C 
ATOM     19  H   UNL A   1      32.218  19.195  24.597  1.00  0.00     0.348 HD
ATOM     20  C   UNL A   1      33.714  16.236  25.423  1.00  0.00     0.221 C 
ATOM     21  C   UNL A   1      33.945  16.736  23.143  1.00  0.00     0.221 C 
ATOM     22  O   UNL A   1      33.694  15.698  24.092  1.00  0.00    -0.370 OA
ENDBRANCH  15  16
ENDBRANCH  14  15
ENDBRANCH   9  14
ENDBRANCH   8   9
ENDBRANCH   7   8
ENDBRANCH   4   7
ENDBRANCH   2   3
ENDBRANCH   1   2
BRANCH   1  23
ATOM     23  C   UNL A   1      31.836  28.829  26.211  1.00  0.00     0.002 C 
BRANCH  23  24
ATOM     24  C   UNL A   1      32.122  29.940  27.226  1.00  0.00     0.002 C 
BRANCH  24  25
ATOM     25  C   UNL A   1      31.734  31.385  26.864  1.00  0.00     0.021 C 
BRANCH  25  26
ATOM     26  C   UNL A   1      32.829  32.451  26.792  1.00  0.00     0.116 C 
BRANCH  26  27
ATOM     27  N   UNL A   1      32.471  33.728  27.369  1.00  0.00    -0.352 N 
ATOM     28  C   UNL A   1      33.054  34.421  28.404  1.00  0.00     0.251 C 
ATOM     29  H   UNL A   1      31.691  34.168  26.959  1.00  0.00     0.163 HD
ATOM     30  O   UNL A   1      32.581  35.486  28.773  1.00  0.00    -0.269 OA
BRANCH  28  31
ATOM     31  C   UNL A   1      34.228  33.863  29.117  1.00  0.00     0.039 A 
ATOM     32  C   UNL A   1      33.999  32.867  30.069  1.00  0.00     0.014 A 
ATOM     33  C   UNL A   1      35.527  34.323  28.885  1.00  0.00     0.014 A 
ATOM     34  C   UNL A   1      35.074  32.291  30.750  1.00  0.00     0.010 A 
ATOM     35  C   UNL A   1      36.608  33.707  29.527  1.00  0.00     0.010 A 
ATOM     36  C   UNL A   1      36.393  32.683  30.464  1.00  0.00    -0.014 A 
BRANCH  36  37
ATOM     37  C   UNL A   1      37.538  32.011  31.137  1.00  0.00     0.031 A 
ATOM     38  C   UNL A   1      38.328  30.944  30.431  1.00  0.00     0.074 A 
ATOM     39  C   UNL A   1      37.861  32.354  32.401  1.00  0.00     0.049 A 
ATOM     40  N   UNL A   1      39.354  30.250  30.861  1.00  0.00    -0.248 NA
ATOM     41  C   UNL A   1      37.898  30.595  29.069  1.00  0.00     0.031 C 
ATOM     42  C   UNL A   1      37.156  33.350  33.209  1.00  0.00     0.029 A 
ATOM     43  N   UNL A   1      38.860  31.901  33.229  1.00  0.00    -0.354 N 
ATOM     44  C   UNL A   1      39.687  29.384  29.827  1.00  0.00     0.074 A 
ATOM     45  C   UNL A   1      38.724  29.601  28.770  1.00  0.00     0.031 C 
ATOM     46  C   UNL A   1      37.759  33.452  34.405  1.00  0.00     0.029 A 
ATOM     47  C   UNL A   1      38.866  32.502  34.465  1.00  0.00     0.049 A 
ATOM     48  H   UNL A   1      39.511  31.213  32.962  1.00  0.00     0.167 HD
ATOM     49  C   UNL A   1      40.714  28.502  29.759  1.00  0.00     0.037 A 
ATOM     50  C   UNL A   1      39.666  32.304  35.532  1.00  0.00     0.037 A 
ATOM     51  C   UNL A   1      41.681  28.296  30.808  1.00  0.00     0.049 A 
ATOM     52  C   UNL A   1      40.782  31.298  35.437  1.00  0.00     0.074 A 
ATOM     53  C   UNL A   1      42.789  27.466  30.808  1.00  0.00     0.029 A 
ATOM     54  N   UNL A   1      41.649  28.918  32.048  1.00  0.00    -0.354 N 
ATOM     55  N   UNL A   1      41.133  30.540  34.428  1.00  0.00    -0.248 NA
ATOM     56  C   UNL A   1      41.621  31.126  36.632  1.00  0.00     0.031 C 
ATOM     57  C   UNL A   1      43.390  27.537  32.069  1.00  0.00     0.029 A 
ATOM     58  C   UNL A   1      42.699  28.463  32.832  1.00  0.00     0.049 A 
ATOM     59  H   UNL A   1      40.979  29.583  32.329  1.00  0.00     0.167 HD
ATOM     60  C   UNL A   1      42.247  29.827  34.851  1.00  0.00     0.074 A 
ATOM     61  C   UNL A   1      42.525  30.255  36.206  1.00  0.00     0.031 C 
ATOM     62  C   UNL A   1      42.972  28.901  34.178  1.00  0.00     0.037 A 
BRANCH  49  63
ATOM     63  C   UNL A   1      40.846  27.679  28.509  1.00  0.00     0.064 A 
ATOM     64  C   UNL A   1      40.241  26.419  28.386  1.00  0.00     0.173 A 
ATOM     65  C   UNL A   1      41.547  28.177  27.399  1.00  0.00     0.173 A 
ATOM     66  F   UNL A   1      39.564  25.891  29.418  1.00  0.00    -0.203 F 
ATOM     67  C   UNL A   1      40.358  25.677  27.213  1.00  0.00     0.198 A 
ATOM     68  C   UNL A   1      41.633  27.447  26.216  1.00  0.00     0.198 A 
ATOM     69  F   UNL A   1      42.136  29.381  27.456  1.00  0.00    -0.203 F 
ATOM     70  F   UNL A   1      39.813  24.454  27.139  1.00  0.00    -0.200 F 
ATOM     71  C   UNL A   1      41.046  26.195  26.127  1.00  0.00     0.200 A 
ATOM     72  F   UNL A   1      42.284  27.957  25.162  1.00  0.00    -0.200 F 
ATOM     73  F   UNL A   1      41.150  25.484  24.996  1.00  0.00    -0.200 F 
ENDBRANCH  49  63
BRANCH  50  74
ATOM     74  C   UNL A   1      39.451  33.083  36.781  1.00  0.00     0.064 A 
ATOM     75  C   UNL A   1      38.535  32.654  37.753  1.00  0.00     0.173 A 
ATOM     76  C   UNL A   1      40.139  34.281  37.020  1.00  0.00     0.173 A 
ATOM     77  F   UNL A   1      37.834  31.526  37.562  1.00  0.00    -0.203 F 
ATOM     78  C   UNL A   1      38.296  33.407  38.901  1.00  0.00     0.198 A 
ATOM     79  C   UNL A   1      39.925  35.016  38.185  1.00  0.00     0.198 A 
ATOM     80  F   UNL A   1      41.030  34.736  36.126  1.00  0.00    -0.203 F 
ATOM     81  F   UNL A   1      37.374  33.004  39.785  1.00  0.00    -0.200 F 
ATOM     82  C   UNL A   1      38.996  34.585  39.120  1.00  0.00     0.200 A 
ATOM     83  F   UNL A   1      40.615  36.144  38.399  1.00  0.00    -0.200 F 
ATOM     84  F   UNL A   1      38.767  35.308  40.224  1.00  0.00    -0.200 F 
ENDBRANCH  50  74
BRANCH  62  85
ATOM     85  C   UNL A   1      44.167  28.314  34.878  1.00  0.00     0.064 A 
ATOM     86  C   UNL A   1      45.426  28.931  34.837  1.00  0.00     0.173 A 
ATOM     87  C   UNL A   1      44.039  27.136  35.631  1.00  0.00     0.173 A 
ATOM     88  F   UNL A   1      45.607  30.049  34.119  1.00  0.00    -0.203 F 
ATOM     89  C   UNL A   1      46.518  28.374  35.499  1.00  0.00     0.198 A 
ATOM     90  C   UNL A   1      45.124  26.602  36.321  1.00  0.00     0.198 A 
ATOM     91  F   UNL A   1      42.856  26.508  35.711  1.00  0.00    -0.203 F 
ATOM     92  F   UNL A   1      47.724  28.952  35.400  1.00  0.00    -0.200 F 
ATOM     93  C   UNL A   1      46.364  27.216  36.247  1.00  0.00     0.200 A 
ATOM     94  F   UNL A   1      44.968  25.493  37.057  1.00  0.00    -0.200 F 
ATOM     95  F   UNL A   1      47.415  26.688  36.891  1.00  0.00    -0.200 F 
ENDBRANCH  62  85
ENDBRANCH  36  37
ENDBRANCH  28  31
ENDBRANCH  26  27
ENDBRANCH  25  26
ENDBRANCH  24  25
ENDBRANCH  23  24
ENDBRANCH   1  23
TORSDOF 19
ENDMDL
