MODEL 1
REMARK VINA RESULT:     -12.8      0.000      0.000
REMARK SMILES CC(C)(C(=O)N1C[C@@H]2c3ccccc3OC[C@]2(C(=O)NCCCCCCNC(=O)c2ccc(-c3c4nc(c(-c5c(F)c(F)c(F)c(F)c5F)c5ccc([nH]5)c(-c5c(F)c(F)c(F)c(F)c5F)c5nc(c(-c6c(F)c(F)c(F)c(F)c6F)c6ccc3[nH]6)C=C5)C=C4)cc2)C1)[NH+]1CCOCC1
REMARK SMILES IDX 23 1 22 2 21 3 20 4 18 5 19 6 17 8 6 9 7 10 93 11 8 12 9 13
REMARK SMILES IDX 16 14 10 15 14 16 15 17 11 18 13 19 12 20 4 21 5 22 2 23
REMARK SMILES IDX 1 24 3 25 94 26 95 27 99 28 96 30 98 31 97 32 24 33 25 34
REMARK SMILES IDX 26 35 27 36 28 37 29 39 30 40 31 41 92 42 32 43 91 44 33 45
REMARK SMILES IDX 34 46 35 47 85 48 36 49 90 50 84 51 86 52 37 53 89 54 83 55
REMARK SMILES IDX 82 56 38 58 70 59 50 60 69 61 51 62 54 63 68 64 87 65 52 66
REMARK SMILES IDX 53 67 67 69 88 70 55 71 39 72 40 73 48 74 41 75 42 76 46 77
REMARK SMILES IDX 49 78 43 79 44 80 47 81 45 82 71 83 72 84 80 85 73 86 74 87
REMARK SMILES IDX 78 88 81 89 75 90 76 91 79 92 77 93 56 94 57 95 65 96 58 97
REMARK SMILES IDX 59 98 63 99 66 100 60 101 61 102 64 103 62 104
REMARK H PARENT 20 7 94 29 27 38 86 57 54 68
REMARK Flexibility Score: inf
ROOT
ATOM      1  C   UNL A   1      34.574  29.689  27.558  1.00  0.00     0.002 C 
ENDROOT
BRANCH   1   2
ATOM      2  C   UNL A   1      33.254  29.112  27.045  1.00  0.00     0.021 C 
BRANCH   2   3
ATOM      3  C   UNL A   1      32.927  29.292  25.571  1.00  0.00     0.116 C 
BRANCH   3   4
ATOM      4  N   UNL A   1      33.957  28.909  24.621  1.00  0.00    -0.355 N 
ATOM      5  C   UNL A   1      33.718  28.536  23.302  1.00  0.00     0.232 C 
ATOM      6  O   UNL A   1      34.604  28.697  22.461  1.00  0.00    -0.274 OA
ATOM      7  H   UNL A   1      34.891  28.914  24.932  1.00  0.00     0.163 HD
BRANCH   5   8
ATOM      8  C   UNL A   1      32.321  27.874  23.017  1.00  0.00     0.109 C 
ATOM      9  N   UNL A   1      32.251  25.485  23.577  1.00  0.00    -0.335 N 
ATOM     10  C   UNL A   1      30.886  25.922  23.442  1.00  0.00     0.129 C 
ATOM     11  C   UNL A   1      33.025  26.682  23.865  1.00  0.00     0.141 C 
ATOM     12  C   UNL A   1      30.947  27.434  23.724  1.00  0.00     0.063 C 
ATOM     13  C   UNL A   1      29.637  28.052  23.283  1.00  0.00     0.000 A 
ATOM     14  C   UNL A   1      31.887  29.396  22.837  1.00  0.00     0.249 C 
ATOM     15  C   UNL A   1      28.401  27.640  23.803  1.00  0.00     0.008 A 
ATOM     16  C   UNL A   1      29.655  29.092  22.365  1.00  0.00     0.122 A 
ATOM     17  O   UNL A   1      30.837  29.530  21.857  1.00  0.00    -0.492 OA
ATOM     18  C   UNL A   1      27.217  28.257  23.390  1.00  0.00     0.001 A 
ATOM     19  C   UNL A   1      28.481  29.710  21.940  1.00  0.00     0.047 A 
ATOM     20  C   UNL A   1      27.257  29.296  22.461  1.00  0.00     0.004 A 
BRANCH   9  21
ATOM     21  C   UNL A   1      32.760  24.525  22.697  1.00  0.00     0.283 C 
ATOM     22  O   UNL A   1      32.952  24.858  21.526  1.00  0.00    -0.268 OA
BRANCH  21  23
ATOM     23  C   UNL A   1      33.163  23.099  23.295  1.00  0.00     0.171 C 
ATOM     24  C   UNL A   1      32.495  22.000  22.443  1.00  0.00     0.090 C 
ATOM     25  C   UNL A   1      34.693  22.913  23.177  1.00  0.00     0.090 C 
BRANCH  23  26
ATOM     26  N   UNL A   1      32.604  22.803  24.663  1.00  0.00    -0.319 N 
ATOM     27  C   UNL A   1      33.273  23.317  25.870  1.00  0.00     0.291 C 
ATOM     28  C   UNL A   1      32.139  21.438  24.965  1.00  0.00     0.291 C 
ATOM     29  H   UNL A   1      31.800  23.403  24.479  1.00  0.00     0.349 HD
ATOM     30  C   UNL A   1      34.420  22.403  26.325  1.00  0.00     0.221 C 
ATOM     31  C   UNL A   1      33.254  20.518  25.488  1.00  0.00     0.221 C 
ATOM     32  O   UNL A   1      33.926  21.086  26.623  1.00  0.00    -0.370 OA
ENDBRANCH  23  26
ENDBRANCH  21  23
ENDBRANCH   9  21
ENDBRANCH   5   8
ENDBRANCH   3   4
ENDBRANCH   2   3
ENDBRANCH   1   2
BRANCH   1  33
ATOM     33  C   UNL A   1      34.611  31.154  28.000  1.00  0.00     0.002 C 
BRANCH  33  34
ATOM     34  C   UNL A   1      33.292  31.923  28.041  1.00  0.00     0.021 C 
BRANCH  34  35
ATOM     35  C   UNL A   1      33.159  33.104  27.090  1.00  0.00     0.116 C 
BRANCH  35  36
ATOM     36  N   UNL A   1      32.628  34.303  27.716  1.00  0.00    -0.352 N 
ATOM     37  C   UNL A   1      33.074  34.989  28.822  1.00  0.00     0.251 C 
ATOM     38  H   UNL A   1      31.828  34.681  27.284  1.00  0.00     0.163 HD
ATOM     39  O   UNL A   1      32.437  35.945  29.255  1.00  0.00    -0.269 OA
BRANCH  37  40
ATOM     40  C   UNL A   1      34.297  34.543  29.528  1.00  0.00     0.039 A 
ATOM     41  C   UNL A   1      35.560  34.692  28.951  1.00  0.00     0.014 A 
ATOM     42  C   UNL A   1      34.169  33.934  30.780  1.00  0.00     0.014 A 
ATOM     43  C   UNL A   1      36.660  34.069  29.532  1.00  0.00     0.010 A 
ATOM     44  C   UNL A   1      35.292  33.382  31.404  1.00  0.00     0.010 A 
ATOM     45  C   UNL A   1      36.537  33.392  30.757  1.00  0.00    -0.014 A 
BRANCH  45  46
ATOM     46  C   UNL A   1      37.711  32.680  31.326  1.00  0.00     0.031 A 
ATOM     47  C   UNL A   1      38.218  33.014  32.704  1.00  0.00     0.074 A 
ATOM     48  C   UNL A   1      38.286  31.684  30.624  1.00  0.00     0.049 A 
ATOM     49  N   UNL A   1      39.223  32.494  33.365  1.00  0.00    -0.248 NA
ATOM     50  C   UNL A   1      37.507  34.073  33.438  1.00  0.00     0.031 C 
ATOM     51  C   UNL A   1      37.875  31.251  29.288  1.00  0.00     0.029 A 
ATOM     52  N   UNL A   1      39.321  30.840  30.944  1.00  0.00    -0.354 N 
ATOM     53  C   UNL A   1      39.273  33.168  34.578  1.00  0.00     0.074 A 
ATOM     54  C   UNL A   1      38.217  34.158  34.555  1.00  0.00     0.031 C 
ATOM     55  C   UNL A   1      38.612  30.191  28.924  1.00  0.00     0.029 A 
ATOM     56  C   UNL A   1      39.587  29.907  29.972  1.00  0.00     0.049 A 
ATOM     57  H   UNL A   1      39.823  30.899  31.788  1.00  0.00     0.167 HD
ATOM     58  C   UNL A   1      40.112  32.969  35.622  1.00  0.00     0.037 A 
ATOM     59  C   UNL A   1      40.519  28.937  29.925  1.00  0.00     0.037 A 
ATOM     60  C   UNL A   1      41.144  31.967  35.658  1.00  0.00     0.049 A 
ATOM     61  C   UNL A   1      41.468  28.770  31.079  1.00  0.00     0.074 A 
ATOM     62  C   UNL A   1      42.034  31.681  36.680  1.00  0.00     0.029 A 
ATOM     63  N   UNL A   1      41.420  31.080  34.628  1.00  0.00    -0.354 N 
ATOM     64  N   UNL A   1      41.507  29.420  32.216  1.00  0.00    -0.248 NA
ATOM     65  C   UNL A   1      42.510  27.743  30.936  1.00  0.00     0.031 C 
ATOM     66  C   UNL A   1      42.873  30.647  36.254  1.00  0.00     0.029 A 
ATOM     67  C   UNL A   1      42.478  30.259  34.984  1.00  0.00     0.049 A 
ATOM     68  H   UNL A   1      40.936  31.040  33.771  1.00  0.00     0.167 HD
ATOM     69  C   UNL A   1      42.566  28.876  32.929  1.00  0.00     0.074 A 
ATOM     70  C   UNL A   1      43.133  27.828  32.104  1.00  0.00     0.031 C 
ATOM     71  C   UNL A   1      43.031  29.220  34.154  1.00  0.00     0.037 A 
BRANCH  58  72
ATOM     72  C   UNL A   1      39.958  33.853  36.826  1.00  0.00     0.064 A 
ATOM     73  C   UNL A   1      40.628  35.080  36.925  1.00  0.00     0.173 A 
ATOM     74  C   UNL A   1      39.071  33.504  37.856  1.00  0.00     0.173 A 
ATOM     75  F   UNL A   1      41.496  35.455  35.973  1.00  0.00    -0.203 F 
ATOM     76  C   UNL A   1      40.424  35.923  38.015  1.00  0.00     0.198 A 
ATOM     77  C   UNL A   1      38.850  34.360  38.932  1.00  0.00     0.198 A 
ATOM     78  F   UNL A   1      38.400  32.344  37.807  1.00  0.00    -0.203 F 
ATOM     79  F   UNL A   1      41.094  37.080  38.101  1.00  0.00    -0.200 F 
ATOM     80  C   UNL A   1      39.527  35.567  39.011  1.00  0.00     0.200 A 
ATOM     81  F   UNL A   1      37.973  34.021  39.888  1.00  0.00    -0.200 F 
ATOM     82  F   UNL A   1      39.318  36.388  40.050  1.00  0.00    -0.200 F 
ENDBRANCH  58  72
BRANCH  59  83
ATOM     83  C   UNL A   1      40.592  28.046  28.739  1.00  0.00     0.064 A 
ATOM     84  C   UNL A   1      39.874  26.844  28.698  1.00  0.00     0.173 A 
ATOM     85  C   UNL A   1      41.357  28.390  27.615  1.00  0.00     0.173 A 
ATOM     86  F   UNL A   1      39.146  26.462  29.758  1.00  0.00    -0.203 F 
ATOM     87  C   UNL A   1      39.922  26.016  27.579  1.00  0.00     0.198 A 
ATOM     88  C   UNL A   1      41.382  27.576  26.486  1.00  0.00     0.198 A 
ATOM     89  F   UNL A   1      42.061  29.530  27.605  1.00  0.00    -0.203 F 
ATOM     90  F   UNL A   1      39.251  24.856  27.577  1.00  0.00    -0.200 F 
ATOM     91  C   UNL A   1      40.668  26.387  26.470  1.00  0.00     0.200 A 
ATOM     92  F   UNL A   1      42.093  27.944  25.412  1.00  0.00    -0.200 F 
ATOM     93  F   UNL A   1      40.704  25.596  25.389  1.00  0.00    -0.200 F 
ENDBRANCH  59  83
BRANCH  71  94
ATOM     94  C   UNL A   1      44.203  28.454  34.689  1.00  0.00     0.064 A 
ATOM     95  C   UNL A   1      44.029  27.262  35.405  1.00  0.00     0.173 A 
ATOM     96  C   UNL A   1      45.513  28.882  34.428  1.00  0.00     0.173 A 
ATOM     97  F   UNL A   1      42.796  26.820  35.692  1.00  0.00    -0.203 F 
ATOM     98  C   UNL A   1      45.128  26.531  35.851  1.00  0.00     0.198 A 
ATOM     99  C   UNL A   1      46.608  28.136  34.853  1.00  0.00     0.198 A 
ATOM    100  F   UNL A   1      45.730  30.014  33.740  1.00  0.00    -0.203 F 
ATOM    101  F   UNL A   1      44.940  25.410  36.562  1.00  0.00    -0.200 F 
ATOM    102  C   UNL A   1      46.414  26.963  35.568  1.00  0.00     0.200 A 
ATOM    103  F   UNL A   1      47.851  28.548  34.568  1.00  0.00    -0.200 F 
ATOM    104  F   UNL A   1      47.469  26.251  35.986  1.00  0.00    -0.200 F 
ENDBRANCH  71  94
ENDBRANCH  45  46
ENDBRANCH  37  40
ENDBRANCH  35  36
ENDBRANCH  34  35
ENDBRANCH  33  34
ENDBRANCH   1  33
TORSDOF 16
ENDMDL
MODEL 2
REMARK VINA RESULT:     -12.7      5.186     10.976
REMARK SMILES CC(C)(C(=O)N1C[C@@H]2c3ccccc3OC[C@]2(C(=O)NCCCCCCNC(=O)c2ccc(-c3c4nc(c(-c5c(F)c(F)c(F)c(F)c5F)c5ccc([nH]5)c(-c5c(F)c(F)c(F)c(F)c5F)c5nc(c(-c6c(F)c(F)c(F)c(F)c6F)c6ccc3[nH]6)C=C5)C=C4)cc2)C1)[NH+]1CCOCC1
REMARK SMILES IDX 23 1 22 2 21 3 20 4 18 5 19 6 17 8 6 9 7 10 93 11 8 12 9 13
REMARK SMILES IDX 16 14 10 15 14 16 15 17 11 18 13 19 12 20 4 21 5 22 2 23
REMARK SMILES IDX 1 24 3 25 94 26 95 27 99 28 96 30 98 31 97 32 24 33 25 34
REMARK SMILES IDX 26 35 27 36 28 37 29 39 30 40 31 41 92 42 32 43 91 44 33 45
REMARK SMILES IDX 34 46 35 47 85 48 36 49 90 50 84 51 86 52 37 53 89 54 83 55
REMARK SMILES IDX 82 56 38 58 70 59 50 60 69 61 51 62 54 63 68 64 87 65 52 66
REMARK SMILES IDX 53 67 67 69 88 70 55 71 39 72 40 73 48 74 41 75 42 76 46 77
REMARK SMILES IDX 49 78 43 79 44 80 47 81 45 82 71 83 72 84 80 85 73 86 74 87
REMARK SMILES IDX 78 88 81 89 75 90 76 91 79 92 77 93 56 94 57 95 65 96 58 97
REMARK SMILES IDX 59 98 63 99 66 100 60 101 61 102 64 103 62 104
REMARK H PARENT 20 7 94 29 27 38 86 57 54 68
REMARK Flexibility Score: inf
ROOT
ATOM      1  C   UNL A   1      37.573  22.104  25.154  1.00  0.00     0.002 C 
ENDROOT
BRANCH   1   2
ATOM      2  C   UNL A   1      37.062  23.230  24.255  1.00  0.00     0.021 C 
BRANCH   2   3
ATOM      3  C   UNL A   1      35.660  23.760  24.512  1.00  0.00     0.116 C 
BRANCH   3   4
ATOM      4  N   UNL A   1      35.262  23.915  25.901  1.00  0.00    -0.355 N 
ATOM      5  C   UNL A   1      34.382  23.072  26.571  1.00  0.00     0.232 C 
ATOM      6  O   UNL A   1      34.467  22.964  27.796  1.00  0.00    -0.274 OA
ATOM      7  H   UNL A   1      35.644  24.670  26.404  1.00  0.00     0.163 HD
BRANCH   5   8
ATOM      8  C   UNL A   1      33.297  22.362  25.682  1.00  0.00     0.109 C 
ATOM      9  N   UNL A   1      31.974  23.931  24.335  1.00  0.00    -0.335 N 
ATOM     10  C   UNL A   1      31.762  22.621  23.779  1.00  0.00     0.129 C 
ATOM     11  C   UNL A   1      33.237  23.858  25.053  1.00  0.00     0.141 C 
ATOM     12  C   UNL A   1      33.015  21.830  24.193  1.00  0.00     0.063 C 
ATOM     13  C   UNL A   1      32.748  20.359  23.953  1.00  0.00     0.000 A 
ATOM     14  C   UNL A   1      34.104  21.063  26.128  1.00  0.00     0.249 C 
ATOM     15  C   UNL A   1      32.408  19.855  22.689  1.00  0.00     0.008 A 
ATOM     16  C   UNL A   1      32.885  19.466  25.006  1.00  0.00     0.122 A 
ATOM     17  O   UNL A   1      33.234  19.918  26.239  1.00  0.00    -0.492 OA
ATOM     18  C   UNL A   1      32.198  18.486  22.504  1.00  0.00     0.001 A 
ATOM     19  C   UNL A   1      32.671  18.100  24.836  1.00  0.00     0.047 A 
ATOM     20  C   UNL A   1      32.334  17.606  23.578  1.00  0.00     0.004 A 
BRANCH   9  21
ATOM     21  C   UNL A   1      30.899  24.629  24.894  1.00  0.00     0.283 C 
ATOM     22  O   UNL A   1      30.196  24.043  25.720  1.00  0.00    -0.268 OA
BRANCH  21  23
ATOM     23  C   UNL A   1      30.722  26.168  24.506  1.00  0.00     0.171 C 
ATOM     24  C   UNL A   1      29.244  26.419  24.138  1.00  0.00     0.090 C 
ATOM     25  C   UNL A   1      31.047  27.042  25.739  1.00  0.00     0.090 C 
BRANCH  23  26
ATOM     26  N   UNL A   1      31.424  26.590  23.241  1.00  0.00    -0.319 N 
ATOM     27  C   UNL A   1      32.830  27.029  23.279  1.00  0.00     0.291 C 
ATOM     28  C   UNL A   1      30.717  27.461  22.287  1.00  0.00     0.291 C 
ATOM     29  H   UNL A   1      31.412  25.629  22.899  1.00  0.00     0.349 HD
ATOM     30  C   UNL A   1      32.959  28.515  23.647  1.00  0.00     0.221 C 
ATOM     31  C   UNL A   1      30.885  28.959  22.591  1.00  0.00     0.221 C 
ATOM     32  O   UNL A   1      32.268  29.333  22.687  1.00  0.00    -0.370 OA
ENDBRANCH  23  26
ENDBRANCH  21  23
ENDBRANCH   9  21
ENDBRANCH   5   8
ENDBRANCH   3   4
ENDBRANCH   2   3
ENDBRANCH   1   2
BRANCH   1  33
ATOM     33  C   UNL A   1      37.219  20.660  24.792  1.00  0.00     0.002 C 
BRANCH  33  34
ATOM     34  C   UNL A   1      38.171  19.554  25.243  1.00  0.00     0.021 C 
BRANCH  34  35
ATOM     35  C   UNL A   1      39.509  19.997  25.818  1.00  0.00     0.116 C 
BRANCH  35  36
ATOM     36  N   UNL A   1      40.524  18.957  25.807  1.00  0.00    -0.352 N 
ATOM     37  C   UNL A   1      41.877  19.045  26.046  1.00  0.00     0.251 C 
ATOM     38  H   UNL A   1      40.194  18.052  25.597  1.00  0.00     0.163 HD
ATOM     39  O   UNL A   1      42.594  18.058  25.907  1.00  0.00    -0.269 OA
BRANCH  37  40
ATOM     40  C   UNL A   1      42.481  20.344  26.419  1.00  0.00     0.039 A 
ATOM     41  C   UNL A   1      42.409  20.826  27.726  1.00  0.00     0.014 A 
ATOM     42  C   UNL A   1      43.104  21.108  25.426  1.00  0.00     0.014 A 
ATOM     43  C   UNL A   1      42.786  22.138  27.999  1.00  0.00     0.010 A 
ATOM     44  C   UNL A   1      43.559  22.397  25.723  1.00  0.00     0.010 A 
ATOM     45  C   UNL A   1      43.350  22.945  26.997  1.00  0.00    -0.014 A 
BRANCH  45  46
ATOM     46  C   UNL A   1      43.685  24.362  27.295  1.00  0.00     0.031 A 
ATOM     47  C   UNL A   1      45.060  24.903  27.005  1.00  0.00     0.074 A 
ATOM     48  C   UNL A   1      42.728  25.184  27.770  1.00  0.00     0.049 A 
ATOM     49  N   UNL A   1      45.531  26.111  27.192  1.00  0.00    -0.248 NA
ATOM     50  C   UNL A   1      46.040  23.965  26.434  1.00  0.00     0.031 C 
ATOM     51  C   UNL A   1      41.353  24.786  28.071  1.00  0.00     0.029 A 
ATOM     52  N   UNL A   1      42.758  26.525  28.059  1.00  0.00    -0.354 N 
ATOM     53  C   UNL A   1      46.856  26.075  26.777  1.00  0.00     0.074 A 
ATOM     54  C   UNL A   1      47.129  24.718  26.356  1.00  0.00     0.031 C 
ATOM     55  C   UNL A   1      40.657  25.867  28.452  1.00  0.00     0.029 A 
ATOM     56  C   UNL A   1      41.549  27.022  28.480  1.00  0.00     0.049 A 
ATOM     57  H   UNL A   1      43.569  27.077  27.972  1.00  0.00     0.167 HD
ATOM     58  C   UNL A   1      47.757  27.084  26.737  1.00  0.00     0.037 A 
ATOM     59  C   UNL A   1      41.200  28.266  28.856  1.00  0.00     0.037 A 
ATOM     60  C   UNL A   1      47.479  28.441  27.130  1.00  0.00     0.049 A 
ATOM     61  C   UNL A   1      42.234  29.357  28.847  1.00  0.00     0.074 A 
ATOM     62  C   UNL A   1      48.327  29.536  27.109  1.00  0.00     0.029 A 
ATOM     63  N   UNL A   1      46.257  28.890  27.608  1.00  0.00    -0.354 N 
ATOM     64  N   UNL A   1      43.485  29.305  28.458  1.00  0.00    -0.248 NA
ATOM     65  C   UNL A   1      41.811  30.675  29.339  1.00  0.00     0.031 C 
ATOM     66  C   UNL A   1      47.629  30.639  27.610  1.00  0.00     0.029 A 
ATOM     67  C   UNL A   1      46.334  30.242  27.902  1.00  0.00     0.049 A 
ATOM     68  H   UNL A   1      45.454  28.331  27.721  1.00  0.00     0.167 HD
ATOM     69  C   UNL A   1      43.995  30.582  28.648  1.00  0.00     0.074 A 
ATOM     70  C   UNL A   1      42.913  31.393  29.168  1.00  0.00     0.031 C 
ATOM     71  C   UNL A   1      45.250  31.037  28.418  1.00  0.00     0.037 A 
BRANCH  58  72
ATOM     72  C   UNL A   1      49.142  26.772  26.250  1.00  0.00     0.064 A 
ATOM     73  C   UNL A   1      50.107  26.207  27.097  1.00  0.00     0.173 A 
ATOM     74  C   UNL A   1      49.483  26.965  24.903  1.00  0.00     0.173 A 
ATOM     75  F   UNL A   1      49.835  26.012  28.396  1.00  0.00    -0.203 F 
ATOM     76  C   UNL A   1      51.366  25.857  26.615  1.00  0.00     0.198 A 
ATOM     77  C   UNL A   1      50.734  26.591  24.419  1.00  0.00     0.198 A 
ATOM     78  F   UNL A   1      48.594  27.496  24.049  1.00  0.00    -0.203 F 
ATOM     79  F   UNL A   1      52.281  25.343  27.448  1.00  0.00    -0.200 F 
ATOM     80  C   UNL A   1      51.675  26.039  25.275  1.00  0.00     0.200 A 
ATOM     81  F   UNL A   1      51.027  26.755  23.121  1.00  0.00    -0.200 F 
ATOM     82  F   UNL A   1      52.881  25.685  24.809  1.00  0.00    -0.200 F 
ENDBRANCH  58  72
BRANCH  59  83
ATOM     83  C   UNL A   1      39.801  28.542  29.271  1.00  0.00     0.064 A 
ATOM     84  C   UNL A   1      39.384  28.316  30.589  1.00  0.00     0.173 A 
ATOM     85  C   UNL A   1      38.861  29.059  28.367  1.00  0.00     0.173 A 
ATOM     86  F   UNL A   1      40.242  27.801  31.484  1.00  0.00    -0.203 F 
ATOM     87  C   UNL A   1      38.079  28.594  30.989  1.00  0.00     0.198 A 
ATOM     88  C   UNL A   1      37.565  29.363  28.774  1.00  0.00     0.198 A 
ATOM     89  F   UNL A   1      39.211  29.293  27.095  1.00  0.00    -0.203 F 
ATOM     90  F   UNL A   1      37.698  28.341  32.247  1.00  0.00    -0.200 F 
ATOM     91  C   UNL A   1      37.173  29.126  30.083  1.00  0.00     0.200 A 
ATOM     92  F   UNL A   1      36.697  29.889  27.900  1.00  0.00    -0.200 F 
ATOM     93  F   UNL A   1      35.921  29.405  30.471  1.00  0.00    -0.200 F 
ENDBRANCH  59  83
BRANCH  71  94
ATOM     94  C   UNL A   1      45.527  32.480  28.714  1.00  0.00     0.064 A 
ATOM     95  C   UNL A   1      45.298  33.478  27.757  1.00  0.00     0.173 A 
ATOM     96  C   UNL A   1      45.964  32.875  29.988  1.00  0.00     0.173 A 
ATOM     97  F   UNL A   1      44.893  33.148  26.522  1.00  0.00    -0.203 F 
ATOM     98  C   UNL A   1      45.508  34.821  28.061  1.00  0.00     0.198 A 
ATOM     99  C   UNL A   1      46.149  34.219  30.295  1.00  0.00     0.198 A 
ATOM    100  F   UNL A   1      46.191  31.956  30.939  1.00  0.00    -0.203 F 
ATOM    101  F   UNL A   1      45.313  35.757  27.122  1.00  0.00    -0.200 F 
ATOM    102  C   UNL A   1      45.924  35.190  29.331  1.00  0.00     0.200 A 
ATOM    103  F   UNL A   1      46.539  34.576  31.527  1.00  0.00    -0.200 F 
ATOM    104  F   UNL A   1      46.112  36.484  29.626  1.00  0.00    -0.200 F 
ENDBRANCH  71  94
ENDBRANCH  45  46
ENDBRANCH  37  40
ENDBRANCH  35  36
ENDBRANCH  34  35
ENDBRANCH  33  34
ENDBRANCH   1  33
TORSDOF 16
ENDMDL
MODEL 3
REMARK VINA RESULT:     -12.7      5.247     10.101
REMARK SMILES CC(C)(C(=O)N1C[C@@H]2c3ccccc3OC[C@]2(C(=O)NCCCCCCNC(=O)c2ccc(-c3c4nc(c(-c5c(F)c(F)c(F)c(F)c5F)c5ccc([nH]5)c(-c5c(F)c(F)c(F)c(F)c5F)c5nc(c(-c6c(F)c(F)c(F)c(F)c6F)c6ccc3[nH]6)C=C5)C=C4)cc2)C1)[NH+]1CCOCC1
REMARK SMILES IDX 23 1 22 2 21 3 20 4 18 5 19 6 17 8 6 9 7 10 93 11 8 12 9 13
REMARK SMILES IDX 16 14 10 15 14 16 15 17 11 18 13 19 12 20 4 21 5 22 2 23
REMARK SMILES IDX 1 24 3 25 94 26 95 27 99 28 96 30 98 31 97 32 24 33 25 34
REMARK SMILES IDX 26 35 27 36 28 37 29 39 30 40 31 41 92 42 32 43 91 44 33 45
REMARK SMILES IDX 34 46 35 47 85 48 36 49 90 50 84 51 86 52 37 53 89 54 83 55
REMARK SMILES IDX 82 56 38 58 70 59 50 60 69 61 51 62 54 63 68 64 87 65 52 66
REMARK SMILES IDX 53 67 67 69 88 70 55 71 39 72 40 73 48 74 41 75 42 76 46 77
REMARK SMILES IDX 49 78 43 79 44 80 47 81 45 82 71 83 72 84 80 85 73 86 74 87
REMARK SMILES IDX 78 88 81 89 75 90 76 91 79 92 77 93 56 94 57 95 65 96 58 97
REMARK SMILES IDX 59 98 63 99 66 100 60 101 61 102 64 103 62 104
REMARK H PARENT 20 7 94 29 27 38 86 57 54 68
REMARK Flexibility Score: inf
ROOT
ATOM      1  C   UNL A   1      37.530  22.126  25.176  1.00  0.00     0.002 C 
ENDROOT
BRANCH   1   2
ATOM      2  C   UNL A   1      37.044  23.310  24.338  1.00  0.00     0.021 C 
BRANCH   2   3
ATOM      3  C   UNL A   1      35.655  23.856  24.623  1.00  0.00     0.116 C 
BRANCH   3   4
ATOM      4  N   UNL A   1      35.258  23.943  26.018  1.00  0.00    -0.355 N 
ATOM      5  C   UNL A   1      34.379  23.067  26.647  1.00  0.00     0.232 C 
ATOM      6  O   UNL A   1      34.465  22.900  27.865  1.00  0.00    -0.274 OA
ATOM      7  H   UNL A   1      35.639  24.673  26.557  1.00  0.00     0.163 HD
BRANCH   5   8
ATOM      8  C   UNL A   1      33.294  22.401  25.725  1.00  0.00     0.109 C 
ATOM      9  N   UNL A   1      32.000  24.031  24.423  1.00  0.00    -0.335 N 
ATOM     10  C   UNL A   1      31.777  22.743  23.820  1.00  0.00     0.129 C 
ATOM     11  C   UNL A   1      33.255  23.918  25.148  1.00  0.00     0.141 C 
ATOM     12  C   UNL A   1      33.019  21.923  24.216  1.00  0.00     0.063 C 
ATOM     13  C   UNL A   1      32.738  20.465  23.923  1.00  0.00     0.000 A 
ATOM     14  C   UNL A   1      34.083  21.078  26.132  1.00  0.00     0.249 C 
ATOM     15  C   UNL A   1      32.403  20.009  22.639  1.00  0.00     0.008 A 
ATOM     16  C   UNL A   1      32.856  19.535  24.945  1.00  0.00     0.122 A 
ATOM     17  O   UNL A   1      33.199  19.940  26.196  1.00  0.00    -0.492 OA
ATOM     18  C   UNL A   1      32.180  18.650  22.405  1.00  0.00     0.001 A 
ATOM     19  C   UNL A   1      32.629  18.178  24.726  1.00  0.00     0.047 A 
ATOM     20  C   UNL A   1      32.297  17.732  23.449  1.00  0.00     0.004 A 
BRANCH   9  21
ATOM     21  C   UNL A   1      30.927  24.720  24.997  1.00  0.00     0.283 C 
ATOM     22  O   UNL A   1      30.281  24.152  25.880  1.00  0.00    -0.268 OA
BRANCH  21  23
ATOM     23  C   UNL A   1      30.683  26.234  24.548  1.00  0.00     0.171 C 
ATOM     24  C   UNL A   1      29.193  26.408  24.187  1.00  0.00     0.090 C 
ATOM     25  C   UNL A   1      30.984  27.171  25.740  1.00  0.00     0.090 C 
BRANCH  23  26
ATOM     26  N   UNL A   1      31.356  26.631  23.259  1.00  0.00    -0.319 N 
ATOM     27  C   UNL A   1      32.762  27.071  23.256  1.00  0.00     0.291 C 
ATOM     28  C   UNL A   1      30.626  27.483  22.305  1.00  0.00     0.291 C 
ATOM     29  H   UNL A   1      31.336  25.663  22.936  1.00  0.00     0.349 HD
ATOM     30  C   UNL A   1      32.898  28.563  23.591  1.00  0.00     0.221 C 
ATOM     31  C   UNL A   1      30.800  28.986  22.576  1.00  0.00     0.221 C 
ATOM     32  O   UNL A   1      32.185  29.362  22.632  1.00  0.00    -0.370 OA
ENDBRANCH  23  26
ENDBRANCH  21  23
ENDBRANCH   9  21
ENDBRANCH   5   8
ENDBRANCH   3   4
ENDBRANCH   2   3
ENDBRANCH   1   2
BRANCH   1  33
ATOM     33  C   UNL A   1      37.299  20.709  24.645  1.00  0.00     0.002 C 
BRANCH  33  34
ATOM     34  C   UNL A   1      38.205  19.594  25.162  1.00  0.00     0.021 C 
BRANCH  34  35
ATOM     35  C   UNL A   1      39.518  20.022  25.803  1.00  0.00     0.116 C 
BRANCH  35  36
ATOM     36  N   UNL A   1      40.505  18.958  25.881  1.00  0.00    -0.352 N 
ATOM     37  C   UNL A   1      41.858  19.030  26.128  1.00  0.00     0.251 C 
ATOM     38  H   UNL A   1      40.154  18.050  25.735  1.00  0.00     0.163 HD
ATOM     39  O   UNL A   1      42.550  18.018  26.071  1.00  0.00    -0.269 OA
BRANCH  37  40
ATOM     40  C   UNL A   1      42.492  20.338  26.411  1.00  0.00     0.039 A 
ATOM     41  C   UNL A   1      42.460  20.896  27.690  1.00  0.00     0.014 A 
ATOM     42  C   UNL A   1      43.103  21.032  25.361  1.00  0.00     0.014 A 
ATOM     43  C   UNL A   1      42.864  22.214  27.877  1.00  0.00     0.010 A 
ATOM     44  C   UNL A   1      43.586  22.327  25.572  1.00  0.00     0.010 A 
ATOM     45  C   UNL A   1      43.418  22.951  26.817  1.00  0.00    -0.014 A 
BRANCH  45  46
ATOM     46  C   UNL A   1      43.782  24.377  27.024  1.00  0.00     0.031 A 
ATOM     47  C   UNL A   1      42.777  25.354  27.574  1.00  0.00     0.074 A 
ATOM     48  C   UNL A   1      45.043  24.782  26.773  1.00  0.00     0.049 A 
ATOM     49  N   UNL A   1      42.917  26.633  27.826  1.00  0.00    -0.248 NA
ATOM     50  C   UNL A   1      41.436  24.831  27.879  1.00  0.00     0.031 C 
ATOM     51  C   UNL A   1      46.113  23.928  26.258  1.00  0.00     0.029 A 
ATOM     52  N   UNL A   1      45.644  26.005  26.940  1.00  0.00    -0.354 N 
ATOM     53  C   UNL A   1      41.688  27.066  28.303  1.00  0.00     0.074 A 
ATOM     54  C   UNL A   1      40.799  25.925  28.278  1.00  0.00     0.031 C 
ATOM     55  C   UNL A   1      47.251  24.636  26.201  1.00  0.00     0.029 A 
ATOM     56  C   UNL A   1      46.978  26.009  26.617  1.00  0.00     0.049 A 
ATOM     57  H   UNL A   1      45.164  26.802  27.261  1.00  0.00     0.167 HD
ATOM     58  C   UNL A   1      41.336  28.300  28.737  1.00  0.00     0.037 A 
ATOM     59  C   UNL A   1      47.880  27.007  26.642  1.00  0.00     0.037 A 
ATOM     60  C   UNL A   1      42.227  29.430  28.788  1.00  0.00     0.049 A 
ATOM     61  C   UNL A   1      47.449  28.378  27.082  1.00  0.00     0.074 A 
ATOM     62  C   UNL A   1      41.963  30.716  29.227  1.00  0.00     0.029 A 
ATOM     63  N   UNL A   1      43.556  29.406  28.394  1.00  0.00    -0.354 N 
ATOM     64  N   UNL A   1      46.281  28.774  27.524  1.00  0.00    -0.248 NA
ATOM     65  C   UNL A   1      48.460  29.443  27.017  1.00  0.00     0.031 C 
ATOM     66  C   UNL A   1      43.122  31.481  29.064  1.00  0.00     0.029 A 
ATOM     67  C   UNL A   1      44.120  30.660  28.563  1.00  0.00     0.049 A 
ATOM     68  H   UNL A   1      44.029  28.615  28.046  1.00  0.00     0.167 HD
ATOM     69  C   UNL A   1      46.417  30.127  27.799  1.00  0.00     0.074 A 
ATOM     70  C   UNL A   1      47.788  30.482  27.493  1.00  0.00     0.031 C 
ATOM     71  C   UNL A   1      45.486  30.999  28.256  1.00  0.00     0.037 A 
BRANCH  58  72
ATOM     72  C   UNL A   1      39.922  28.508  29.196  1.00  0.00     0.064 A 
ATOM     73  C   UNL A   1      39.544  28.288  30.528  1.00  0.00     0.173 A 
ATOM     74  C   UNL A   1      38.954  29.008  28.313  1.00  0.00     0.173 A 
ATOM     75  F   UNL A   1      40.430  27.799  31.410  1.00  0.00    -0.203 F 
ATOM     76  C   UNL A   1      38.246  28.552  30.958  1.00  0.00     0.198 A 
ATOM     77  C   UNL A   1      37.663  29.295  28.751  1.00  0.00     0.198 A 
ATOM     78  F   UNL A   1      39.265  29.243  27.029  1.00  0.00    -0.203 F 
ATOM     79  F   UNL A   1      37.900  28.309  32.230  1.00  0.00    -0.200 F 
ATOM     80  C   UNL A   1      37.310  29.065  30.072  1.00  0.00     0.200 A 
ATOM     81  F   UNL A   1      36.763  29.803  27.897  1.00  0.00    -0.200 F 
ATOM     82  F   UNL A   1      36.066  29.335  30.491  1.00  0.00    -0.200 F 
ENDBRANCH  58  72
BRANCH  59  83
ATOM     83  C   UNL A   1      49.283  26.739  26.238  1.00  0.00     0.064 A 
ATOM     84  C   UNL A   1      50.222  26.271  27.167  1.00  0.00     0.173 A 
ATOM     85  C   UNL A   1      49.708  26.919  24.913  1.00  0.00     0.173 A 
ATOM     86  F   UNL A   1      49.868  26.105  28.450  1.00  0.00    -0.203 F 
ATOM     87  C   UNL A   1      51.534  25.997  26.788  1.00  0.00     0.198 A 
ATOM     88  C   UNL A   1      51.013  26.618  24.529  1.00  0.00     0.198 A 
ATOM     89  F   UNL A   1      48.848  27.364  23.986  1.00  0.00    -0.203 F 
ATOM     90  F   UNL A   1      52.420  25.579  27.702  1.00  0.00    -0.200 F 
ATOM     91  C   UNL A   1      51.926  26.161  25.467  1.00  0.00     0.200 A 
ATOM     92  F   UNL A   1      51.383  26.765  23.250  1.00  0.00    -0.200 F 
ATOM     93  F   UNL A   1      53.185  25.885  25.101  1.00  0.00    -0.200 F 
ENDBRANCH  59  83
BRANCH  71  94
ATOM     94  C   UNL A   1      45.913  32.420  28.468  1.00  0.00     0.064 A 
ATOM     95  C   UNL A   1      45.775  33.381  27.457  1.00  0.00     0.173 A 
ATOM     96  C   UNL A   1      46.405  32.838  29.713  1.00  0.00     0.173 A 
ATOM     97  F   UNL A   1      45.322  33.026  26.245  1.00  0.00    -0.203 F 
ATOM     98  C   UNL A   1      46.126  34.710  27.682  1.00  0.00     0.198 A 
ATOM     99  C   UNL A   1      46.731  34.171  29.942  1.00  0.00     0.198 A 
ATOM    100  F   UNL A   1      46.549  31.956  30.714  1.00  0.00    -0.203 F 
ATOM    101  F   UNL A   1      46.015  35.607  26.692  1.00  0.00    -0.200 F 
ATOM    102  C   UNL A   1      46.594  35.105  28.926  1.00  0.00     0.200 A 
ATOM    103  F   UNL A   1      47.172  34.555  31.148  1.00  0.00    -0.200 F 
ATOM    104  F   UNL A   1      46.918  36.387  29.144  1.00  0.00    -0.200 F 
ENDBRANCH  71  94
ENDBRANCH  45  46
ENDBRANCH  37  40
ENDBRANCH  35  36
ENDBRANCH  34  35
ENDBRANCH  33  34
ENDBRANCH   1  33
TORSDOF 16
ENDMDL
