MODEL 1
REMARK VINA RESULT:     -13.0      0.000      0.000
REMARK SMILES CC(C)c1cc2c(cc1Cl)C=C(C(=O)NCCCCCCNC(=O)c1ccc(-c3c4nc(c(-c5c(F)c(F)c(F)c(F)c5F)c5ccc([nH]5)c(-c5c(F)c(F)c(F)c(F)c5F)c5nc(c(-c6c(F)c(F)c(F)c(F)c6F)c6ccc3[nH]6)C=C5)C=C4)cc1)[C@@H](C(F)(F)F)O2
REMARK SMILES IDX 19 1 18 2 17 3 16 4 15 5 13 6 14 7 12 9 4 10 5 11 9 12 6 13
REMARK SMILES IDX 8 14 10 15 7 16 93 17 11 18 88 19 2 20 1 21 3 22 89 23 90 24
REMARK SMILES IDX 91 25 92 26 20 27 21 28 22 29 23 30 24 32 25 33 26 34 87 35
REMARK SMILES IDX 27 36 86 37 28 38 29 39 30 40 80 41 31 42 85 43 79 44 81 45
REMARK SMILES IDX 32 46 84 47 78 48 77 49 33 51 65 52 45 53 64 54 46 55 49 56
REMARK SMILES IDX 63 57 82 58 47 59 48 60 62 62 83 63 50 64 34 65 35 66 43 67
REMARK SMILES IDX 36 68 37 69 41 70 44 71 38 72 39 73 42 74 40 75 66 76 67 77
REMARK SMILES IDX 75 78 68 79 69 80 73 81 76 82 70 83 71 84 74 85 72 86 51 87
REMARK SMILES IDX 52 88 60 89 53 90 54 91 58 92 61 93 55 94 56 95 59 96 57 97
REMARK H PARENT 15 8 22 31 81 50 49 61
REMARK Flexibility Score: inf
ROOT
ATOM      1  C   UNL A   1      31.736  30.659  26.237  1.00  0.00     0.002 C 
ENDROOT
BRANCH   1   2
ATOM      2  C   UNL A   1      32.370  29.626  27.178  1.00  0.00     0.002 C 
BRANCH   2   3
ATOM      3  C   UNL A   1      31.445  28.495  27.640  1.00  0.00     0.021 C 
BRANCH   3   4
ATOM      4  C   UNL A   1      31.693  27.162  26.938  1.00  0.00     0.116 C 
BRANCH   4   5
ATOM      5  N   UNL A   1      32.657  27.286  25.860  1.00  0.00    -0.352 N 
ATOM      6  C   UNL A   1      33.254  26.471  24.959  1.00  0.00     0.251 C 
ATOM      7  O   UNL A   1      34.017  27.037  24.168  1.00  0.00    -0.270 OA
ATOM      8  H   UNL A   1      32.959  28.217  25.756  1.00  0.00     0.163 HD
BRANCH   6   9
ATOM      9  C   UNL A   1      33.062  24.992  24.864  1.00  0.00     0.067 C 
ATOM     10  C   UNL A   1      33.799  19.979  24.795  1.00  0.00    -0.023 A 
ATOM     11  C   UNL A   1      32.678  20.822  24.877  1.00  0.00     0.052 A 
ATOM     12  C   UNL A   1      35.070  20.584  24.774  1.00  0.00     0.045 A 
ATOM     13  C   UNL A   1      32.818  22.208  24.903  1.00  0.00     0.128 A 
ATOM     14  C   UNL A   1      35.205  21.981  24.815  1.00  0.00     0.032 A 
ATOM     15  Cl  UNL A   1      36.531  19.662  24.722  1.00  0.00    -0.084 Cl
ATOM     16  C   UNL A   1      34.076  22.799  24.878  1.00  0.00     0.019 A 
ATOM     17  O   UNL A   1      31.664  22.923  25.006  1.00  0.00    -0.475 OA
ATOM     18  C   UNL A   1      34.181  24.250  24.970  1.00  0.00     0.025 C 
ATOM     19  C   UNL A   1      31.735  24.324  24.634  1.00  0.00     0.314 C 
BRANCH  10  20
ATOM     20  C   UNL A   1      33.590  18.470  24.782  1.00  0.00     0.014 C 
ATOM     21  C   UNL A   1      32.685  18.049  25.943  1.00  0.00     0.012 C 
ATOM     22  C   UNL A   1      33.023  17.969  23.447  1.00  0.00     0.012 C 
ENDBRANCH  10  20
BRANCH  19  23
ATOM     23  C   UNL A   1      31.232  24.484  23.189  1.00  0.00     0.429 C 
ATOM     24  F   UNL A   1      30.717  25.725  23.001  1.00  0.00    -0.167 F 
ATOM     25  F   UNL A   1      32.220  24.341  22.275  1.00  0.00    -0.167 F 
ATOM     26  F   UNL A   1      30.268  23.591  22.872  1.00  0.00    -0.167 F 
ENDBRANCH  19  23
ENDBRANCH   6   9
ENDBRANCH   4   5
ENDBRANCH   3   4
ENDBRANCH   2   3
ENDBRANCH   1   2
BRANCH   1  27
ATOM     27  C   UNL A   1      31.470  32.039  26.847  1.00  0.00     0.021 C 
BRANCH  27  28
ATOM     28  C   UNL A   1      32.717  32.811  27.257  1.00  0.00     0.116 C 
BRANCH  28  29
ATOM     29  N   UNL A   1      32.426  34.182  27.643  1.00  0.00    -0.352 N 
ATOM     30  C   UNL A   1      33.016  34.954  28.614  1.00  0.00     0.251 C 
ATOM     31  H   UNL A   1      31.704  34.619  27.137  1.00  0.00     0.163 HD
ATOM     32  O   UNL A   1      32.545  36.048  28.910  1.00  0.00    -0.269 OA
BRANCH  30  33
ATOM     33  C   UNL A   1      34.204  34.444  29.330  1.00  0.00     0.039 A 
ATOM     34  C   UNL A   1      35.482  34.597  28.786  1.00  0.00     0.014 A 
ATOM     35  C   UNL A   1      34.032  33.786  30.551  1.00  0.00     0.014 A 
ATOM     36  C   UNL A   1      36.563  33.956  29.381  1.00  0.00     0.010 A 
ATOM     37  C   UNL A   1      35.133  33.210  31.188  1.00  0.00     0.010 A 
ATOM     38  C   UNL A   1      36.400  33.251  30.586  1.00  0.00    -0.014 A 
BRANCH  38  39
ATOM     39  C   UNL A   1      37.568  32.560  31.189  1.00  0.00     0.031 A 
ATOM     40  C   UNL A   1      38.029  32.904  32.579  1.00  0.00     0.074 A 
ATOM     41  C   UNL A   1      38.177  31.576  30.500  1.00  0.00     0.049 A 
ATOM     42  N   UNL A   1      39.014  32.387  33.272  1.00  0.00    -0.248 NA
ATOM     43  C   UNL A   1      37.293  33.964  33.284  1.00  0.00     0.031 C 
ATOM     44  C   UNL A   1      37.808  31.146  29.150  1.00  0.00     0.029 A 
ATOM     45  N   UNL A   1      39.210  30.743  30.845  1.00  0.00    -0.354 N 
ATOM     46  C   UNL A   1      39.024  33.068  34.482  1.00  0.00     0.074 A 
ATOM     47  C   UNL A   1      37.968  34.055  34.422  1.00  0.00     0.031 C 
ATOM     48  C   UNL A   1      38.563  30.093  28.804  1.00  0.00     0.029 A 
ATOM     49  C   UNL A   1      39.508  29.813  29.881  1.00  0.00     0.049 A 
ATOM     50  H   UNL A   1      39.690  30.805  31.703  1.00  0.00     0.167 HD
ATOM     51  C   UNL A   1      39.834  32.876  35.551  1.00  0.00     0.037 A 
ATOM     52  C   UNL A   1      40.445  28.847  29.860  1.00  0.00     0.037 A 
ATOM     53  C   UNL A   1      40.871  31.879  35.617  1.00  0.00     0.049 A 
ATOM     54  C   UNL A   1      41.357  28.685  31.042  1.00  0.00     0.074 A 
ATOM     55  C   UNL A   1      41.730  31.596  36.664  1.00  0.00     0.029 A 
ATOM     56  N   UNL A   1      41.185  30.997  34.594  1.00  0.00    -0.354 N 
ATOM     57  N   UNL A   1      41.357  29.335  32.179  1.00  0.00    -0.248 NA
ATOM     58  C   UNL A   1      42.409  27.664  30.932  1.00  0.00     0.031 C 
ATOM     59  C   UNL A   1      42.590  30.570  36.261  1.00  0.00     0.029 A 
ATOM     60  C   UNL A   1      42.238  30.183  34.979  1.00  0.00     0.049 A 
ATOM     61  H   UNL A   1      40.727  30.955  33.723  1.00  0.00     0.167 HD
ATOM     62  C   UNL A   1      42.399  28.801  32.924  1.00  0.00     0.074 A 
ATOM     63  C   UNL A   1      42.997  27.756  32.118  1.00  0.00     0.031 C 
ATOM     64  C   UNL A   1      42.825  29.150  34.162  1.00  0.00     0.037 A 
BRANCH  51  65
ATOM     65  C   UNL A   1      39.642  33.766  36.745  1.00  0.00     0.064 A 
ATOM     66  C   UNL A   1      40.210  35.047  36.803  1.00  0.00     0.173 A 
ATOM     67  C   UNL A   1      38.827  33.359  37.812  1.00  0.00     0.173 A 
ATOM     68  F   UNL A   1      41.007  35.478  35.814  1.00  0.00    -0.203 F 
ATOM     69  C   UNL A   1      39.982  35.882  37.894  1.00  0.00     0.198 A 
ATOM     70  C   UNL A   1      38.582  34.206  38.889  1.00  0.00     0.198 A 
ATOM     71  F   UNL A   1      38.255  32.145  37.801  1.00  0.00    -0.203 F 
ATOM     72  F   UNL A   1      40.561  37.090  37.944  1.00  0.00    -0.200 F 
ATOM     73  C   UNL A   1      39.161  35.465  38.932  1.00  0.00     0.200 A 
ATOM     74  F   UNL A   1      37.778  33.805  39.886  1.00  0.00    -0.200 F 
ATOM     75  F   UNL A   1      38.932  36.274  39.975  1.00  0.00    -0.200 F 
ENDBRANCH  51  65
BRANCH  52  76
ATOM     76  C   UNL A   1      40.551  27.956  28.677  1.00  0.00     0.064 A 
ATOM     77  C   UNL A   1      39.855  26.742  28.630  1.00  0.00     0.173 A 
ATOM     78  C   UNL A   1      41.312  28.320  27.557  1.00  0.00     0.173 A 
ATOM     79  F   UNL A   1      39.130  26.343  29.685  1.00  0.00    -0.203 F 
ATOM     80  C   UNL A   1      39.917  25.923  27.504  1.00  0.00     0.198 A 
ATOM     81  C   UNL A   1      41.351  27.514  26.422  1.00  0.00     0.198 A 
ATOM     82  F   UNL A   1      41.993  29.476  27.554  1.00  0.00    -0.203 F 
ATOM     83  F   UNL A   1      39.262  24.755  27.491  1.00  0.00    -0.200 F 
ATOM     84  C   UNL A   1      40.656  26.314  26.397  1.00  0.00     0.200 A 
ATOM     85  F   UNL A   1      42.053  27.904  25.349  1.00  0.00    -0.200 F 
ATOM     86  F   UNL A   1      40.700  25.536  25.308  1.00  0.00    -0.200 F 
ENDBRANCH  52  76
BRANCH  64  87
ATOM     87  C   UNL A   1      43.989  28.396  34.728  1.00  0.00     0.064 A 
ATOM     88  C   UNL A   1      45.300  28.883  34.611  1.00  0.00     0.173 A 
ATOM     89  C   UNL A   1      43.788  27.209  35.449  1.00  0.00     0.173 A 
ATOM     90  F   UNL A   1      45.542  30.006  33.919  1.00  0.00    -0.203 F 
ATOM     91  C   UNL A   1      46.368  28.201  35.186  1.00  0.00     0.198 A 
ATOM     92  C   UNL A   1      44.856  26.543  36.043  1.00  0.00     0.198 A 
ATOM     93  F   UNL A   1      42.552  26.708  35.594  1.00  0.00    -0.203 F 
ATOM     94  F   UNL A   1      47.615  28.666  35.035  1.00  0.00    -0.200 F 
ATOM     95  C   UNL A   1      46.145  27.038  35.908  1.00  0.00     0.200 A 
ATOM     96  F   UNL A   1      44.638  25.426  36.751  1.00  0.00    -0.200 F 
ATOM     97  F   UNL A   1      47.174  26.390  36.471  1.00  0.00    -0.200 F 
ENDBRANCH  64  87
ENDBRANCH  38  39
ENDBRANCH  30  33
ENDBRANCH  28  29
ENDBRANCH  27  28
ENDBRANCH   1  27
TORSDOF 15
ENDMDL
MODEL 2
REMARK VINA RESULT:     -12.8      0.368      7.239
REMARK SMILES CC(C)c1cc2c(cc1Cl)C=C(C(=O)NCCCCCCNC(=O)c1ccc(-c3c4nc(c(-c5c(F)c(F)c(F)c(F)c5F)c5ccc([nH]5)c(-c5c(F)c(F)c(F)c(F)c5F)c5nc(c(-c6c(F)c(F)c(F)c(F)c6F)c6ccc3[nH]6)C=C5)C=C4)cc1)[C@@H](C(F)(F)F)O2
REMARK SMILES IDX 19 1 18 2 17 3 16 4 15 5 13 6 14 7 12 9 4 10 5 11 9 12 6 13
REMARK SMILES IDX 8 14 10 15 7 16 93 17 11 18 88 19 2 20 1 21 3 22 89 23 90 24
REMARK SMILES IDX 91 25 92 26 20 27 21 28 22 29 23 30 24 32 25 33 26 34 87 35
REMARK SMILES IDX 27 36 86 37 28 38 29 39 30 40 80 41 31 42 85 43 79 44 81 45
REMARK SMILES IDX 32 46 84 47 78 48 77 49 33 51 65 52 45 53 64 54 46 55 49 56
REMARK SMILES IDX 63 57 82 58 47 59 48 60 62 62 83 63 50 64 34 65 35 66 43 67
REMARK SMILES IDX 36 68 37 69 41 70 44 71 38 72 39 73 42 74 40 75 66 76 67 77
REMARK SMILES IDX 75 78 68 79 69 80 73 81 76 82 70 83 71 84 74 85 72 86 51 87
REMARK SMILES IDX 52 88 60 89 53 90 54 91 58 92 61 93 55 94 56 95 59 96 57 97
REMARK H PARENT 15 8 22 31 81 50 49 61
REMARK Flexibility Score: inf
ROOT
ATOM      1  C   UNL A   1      31.691  30.700  26.192  1.00  0.00     0.002 C 
ENDROOT
BRANCH   1   2
ATOM      2  C   UNL A   1      32.366  29.642  27.075  1.00  0.00     0.002 C 
BRANCH   2   3
ATOM      3  C   UNL A   1      31.461  28.501  27.552  1.00  0.00     0.021 C 
BRANCH   3   4
ATOM      4  C   UNL A   1      31.784  27.146  26.928  1.00  0.00     0.116 C 
BRANCH   4   5
ATOM      5  N   UNL A   1      32.720  27.264  25.825  1.00  0.00    -0.352 N 
ATOM      6  C   UNL A   1      33.304  26.443  24.921  1.00  0.00     0.251 C 
ATOM      7  O   UNL A   1      34.041  27.006  24.104  1.00  0.00    -0.270 OA
ATOM      8  H   UNL A   1      33.010  28.198  25.701  1.00  0.00     0.163 HD
BRANCH   6   9
ATOM      9  C   UNL A   1      33.125  24.961  24.852  1.00  0.00     0.067 C 
ATOM     10  C   UNL A   1      33.910  19.955  24.858  1.00  0.00    -0.023 A 
ATOM     11  C   UNL A   1      32.782  20.788  24.934  1.00  0.00     0.052 A 
ATOM     12  C   UNL A   1      35.175  20.571  24.817  1.00  0.00     0.045 A 
ATOM     13  C   UNL A   1      32.909  22.176  24.937  1.00  0.00     0.128 A 
ATOM     14  C   UNL A   1      35.297  21.970  24.834  1.00  0.00     0.032 A 
ATOM     15  Cl  UNL A   1      36.644  19.663  24.769  1.00  0.00    -0.084 Cl
ATOM     16  C   UNL A   1      34.160  22.779  24.893  1.00  0.00     0.019 A 
ATOM     17  O   UNL A   1      31.748  22.881  25.037  1.00  0.00    -0.475 OA
ATOM     18  C   UNL A   1      34.252  24.232  24.961  1.00  0.00     0.025 C 
ATOM     19  C   UNL A   1      31.804  24.277  24.643  1.00  0.00     0.314 C 
BRANCH  10  20
ATOM     20  C   UNL A   1      33.716  18.445  24.870  1.00  0.00     0.014 C 
ATOM     21  C   UNL A   1      32.632  18.056  25.880  1.00  0.00     0.012 C 
ATOM     22  C   UNL A   1      33.382  17.886  23.480  1.00  0.00     0.012 C 
ENDBRANCH  10  20
BRANCH  19  23
ATOM     23  C   UNL A   1      31.288  24.408  23.198  1.00  0.00     0.429 C 
ATOM     24  F   UNL A   1      30.657  25.598  23.027  1.00  0.00    -0.167 F 
ATOM     25  F   UNL A   1      32.285  24.374  22.284  1.00  0.00    -0.167 F 
ATOM     26  F   UNL A   1      30.413  23.433  22.867  1.00  0.00    -0.167 F 
ENDBRANCH  19  23
ENDBRANCH   6   9
ENDBRANCH   4   5
ENDBRANCH   3   4
ENDBRANCH   2   3
ENDBRANCH   1   2
BRANCH   1  27
ATOM     27  C   UNL A   1      31.437  32.056  26.857  1.00  0.00     0.021 C 
BRANCH  27  28
ATOM     28  C   UNL A   1      32.689  32.780  27.337  1.00  0.00     0.116 C 
BRANCH  28  29
ATOM     29  N   UNL A   1      32.441  34.177  27.653  1.00  0.00    -0.352 N 
ATOM     30  C   UNL A   1      33.024  34.965  28.616  1.00  0.00     0.251 C 
ATOM     31  H   UNL A   1      31.761  34.621  27.099  1.00  0.00     0.163 HD
ATOM     32  O   UNL A   1      32.589  36.090  28.846  1.00  0.00    -0.269 OA
BRANCH  30  33
ATOM     33  C   UNL A   1      34.158  34.438  29.402  1.00  0.00     0.039 A 
ATOM     34  C   UNL A   1      35.462  34.507  28.905  1.00  0.00     0.014 A 
ATOM     35  C   UNL A   1      33.909  33.848  30.645  1.00  0.00     0.014 A 
ATOM     36  C   UNL A   1      36.489  33.848  29.573  1.00  0.00     0.010 A 
ATOM     37  C   UNL A   1      34.957  33.254  31.353  1.00  0.00     0.010 A 
ATOM     38  C   UNL A   1      36.247  33.210  30.801  1.00  0.00    -0.014 A 
BRANCH  38  39
ATOM     39  C   UNL A   1      37.357  32.497  31.483  1.00  0.00     0.031 A 
ATOM     40  C   UNL A   1      38.113  31.403  30.780  1.00  0.00     0.074 A 
ATOM     41  C   UNL A   1      37.720  32.881  32.721  1.00  0.00     0.049 A 
ATOM     42  N   UNL A   1      39.123  30.690  31.213  1.00  0.00    -0.248 NA
ATOM     43  C   UNL A   1      37.681  31.062  29.416  1.00  0.00     0.031 C 
ATOM     44  C   UNL A   1      37.070  33.938  33.496  1.00  0.00     0.029 A 
ATOM     45  N   UNL A   1      38.738  32.450  33.533  1.00  0.00    -0.354 N 
ATOM     46  C   UNL A   1      39.435  29.810  30.184  1.00  0.00     0.074 A 
ATOM     47  C   UNL A   1      38.492  30.056  29.115  1.00  0.00     0.031 C 
ATOM     48  C   UNL A   1      37.738  34.114  34.646  1.00  0.00     0.029 A 
ATOM     49  C   UNL A   1      38.825  33.142  34.716  1.00  0.00     0.049 A 
ATOM     50  H   UNL A   1      39.347  31.716  33.291  1.00  0.00     0.167 HD
ATOM     51  C   UNL A   1      40.428  28.890  30.133  1.00  0.00     0.037 A 
ATOM     52  C   UNL A   1      39.679  33.004  35.747  1.00  0.00     0.037 A 
ATOM     53  C   UNL A   1      41.380  28.662  31.189  1.00  0.00     0.049 A 
ATOM     54  C   UNL A   1      40.743  31.947  35.681  1.00  0.00     0.074 A 
ATOM     55  C   UNL A   1      42.434  27.766  31.222  1.00  0.00     0.029 A 
ATOM     56  N   UNL A   1      41.396  29.341  32.399  1.00  0.00    -0.354 N 
ATOM     57  N   UNL A   1      41.028  31.122  34.704  1.00  0.00    -0.248 NA
ATOM     58  C   UNL A   1      41.597  31.792  36.867  1.00  0.00     0.031 C 
ATOM     59  C   UNL A   1      43.063  27.873  32.466  1.00  0.00     0.029 A 
ATOM     60  C   UNL A   1      42.429  28.868  33.192  1.00  0.00     0.049 A 
ATOM     61  H   UNL A   1      40.766  30.053  32.656  1.00  0.00     0.167 HD
ATOM     62  C   UNL A   1      42.094  30.356  35.150  1.00  0.00     0.074 A 
ATOM     63  C   UNL A   1      42.423  30.830  36.479  1.00  0.00     0.031 C 
ATOM     64  C   UNL A   1      42.740  29.347  34.515  1.00  0.00     0.037 A 
BRANCH  51  65
ATOM     65  C   UNL A   1      40.542  28.050  28.895  1.00  0.00     0.064 A 
ATOM     66  C   UNL A   1      39.844  26.840  28.763  1.00  0.00     0.173 A 
ATOM     67  C   UNL A   1      41.304  28.491  27.803  1.00  0.00     0.173 A 
ATOM     68  F   UNL A   1      39.111  26.369  29.783  1.00  0.00    -0.203 F 
ATOM     69  C   UNL A   1      39.918  26.095  27.589  1.00  0.00     0.198 A 
ATOM     70  C   UNL A   1      41.356  27.755  26.622  1.00  0.00     0.198 A 
ATOM     71  F   UNL A   1      41.985  29.644  27.875  1.00  0.00    -0.203 F 
ATOM     72  F   UNL A   1      39.269  24.926  27.497  1.00  0.00    -0.200 F 
ATOM     73  C   UNL A   1      40.666  26.557  26.516  1.00  0.00     0.200 A 
ATOM     74  F   UNL A   1      42.070  28.210  25.581  1.00  0.00    -0.200 F 
ATOM     75  F   UNL A   1      40.726  25.845  25.382  1.00  0.00    -0.200 F 
ENDBRANCH  51  65
BRANCH  52  76
ATOM     76  C   UNL A   1      39.557  33.903  36.922  1.00  0.00     0.064 A 
ATOM     77  C   UNL A   1      40.142  35.176  36.913  1.00  0.00     0.173 A 
ATOM     78  C   UNL A   1      38.821  33.528  38.054  1.00  0.00     0.173 A 
ATOM     79  F   UNL A   1      40.871  35.571  35.860  1.00  0.00    -0.203 F 
ATOM     80  C   UNL A   1      39.994  36.041  37.996  1.00  0.00     0.198 A 
ATOM     81  C   UNL A   1      38.651  34.403  39.125  1.00  0.00     0.198 A 
ATOM     82  F   UNL A   1      38.239  32.320  38.107  1.00  0.00    -0.203 F 
ATOM     83  F   UNL A   1      40.583  37.244  37.974  1.00  0.00    -0.200 F 
ATOM     84  C   UNL A   1      39.241  35.658  39.096  1.00  0.00     0.200 A 
ATOM     85  F   UNL A   1      37.909  34.035  40.178  1.00  0.00    -0.200 F 
ATOM     86  F   UNL A   1      39.084  36.496  40.128  1.00  0.00    -0.200 F 
ENDBRANCH  52  76
BRANCH  64  87
ATOM     87  C   UNL A   1      43.870  28.686  35.245  1.00  0.00     0.064 A 
ATOM     88  C   UNL A   1      45.189  29.145  35.113  1.00  0.00     0.173 A 
ATOM     89  C   UNL A   1      43.625  27.628  36.131  1.00  0.00     0.173 A 
ATOM     90  F   UNL A   1      45.474  30.146  34.266  1.00  0.00    -0.203 F 
ATOM     91  C   UNL A   1      46.224  28.558  35.834  1.00  0.00     0.198 A 
ATOM     92  C   UNL A   1      44.659  27.060  36.870  1.00  0.00     0.198 A 
ATOM     93  F   UNL A   1      42.379  27.159  36.297  1.00  0.00    -0.203 F 
ATOM     94  F   UNL A   1      47.482  28.990  35.670  1.00  0.00    -0.200 F 
ATOM     95  C   UNL A   1      45.958  27.523  36.718  1.00  0.00     0.200 A 
ATOM     96  F   UNL A   1      44.398  26.068  37.733  1.00  0.00    -0.200 F 
ATOM     97  F   UNL A   1      46.954  26.968  37.422  1.00  0.00    -0.200 F 
ENDBRANCH  64  87
ENDBRANCH  38  39
ENDBRANCH  30  33
ENDBRANCH  28  29
ENDBRANCH  27  28
ENDBRANCH   1  27
TORSDOF 15
ENDMDL
MODEL 3
REMARK VINA RESULT:     -12.6      5.542     10.979
REMARK SMILES CC(C)c1cc2c(cc1Cl)C=C(C(=O)NCCCCCCNC(=O)c1ccc(-c3c4nc(c(-c5c(F)c(F)c(F)c(F)c5F)c5ccc([nH]5)c(-c5c(F)c(F)c(F)c(F)c5F)c5nc(c(-c6c(F)c(F)c(F)c(F)c6F)c6ccc3[nH]6)C=C5)C=C4)cc1)[C@@H](C(F)(F)F)O2
REMARK SMILES IDX 19 1 18 2 17 3 16 4 15 5 13 6 14 7 12 9 4 10 5 11 9 12 6 13
REMARK SMILES IDX 8 14 10 15 7 16 93 17 11 18 88 19 2 20 1 21 3 22 89 23 90 24
REMARK SMILES IDX 91 25 92 26 20 27 21 28 22 29 23 30 24 32 25 33 26 34 87 35
REMARK SMILES IDX 27 36 86 37 28 38 29 39 30 40 80 41 31 42 85 43 79 44 81 45
REMARK SMILES IDX 32 46 84 47 78 48 77 49 33 51 65 52 45 53 64 54 46 55 49 56
REMARK SMILES IDX 63 57 82 58 47 59 48 60 62 62 83 63 50 64 34 65 35 66 43 67
REMARK SMILES IDX 36 68 37 69 41 70 44 71 38 72 39 73 42 74 40 75 66 76 67 77
REMARK SMILES IDX 75 78 68 79 69 80 73 81 76 82 70 83 71 84 74 85 72 86 51 87
REMARK SMILES IDX 52 88 60 89 53 90 54 91 58 92 61 93 55 94 56 95 59 96 57 97
REMARK H PARENT 15 8 22 31 81 50 49 61
REMARK Flexibility Score: inf
ROOT
ATOM      1  C   UNL A   1      37.006  20.594  24.842  1.00  0.00     0.002 C 
ENDROOT
BRANCH   1   2
ATOM      2  C   UNL A   1      37.393  21.844  24.040  1.00  0.00     0.002 C 
BRANCH   2   3
ATOM      3  C   UNL A   1      36.516  23.079  24.274  1.00  0.00     0.021 C 
BRANCH   3   4
ATOM      4  C   UNL A   1      36.675  23.704  25.657  1.00  0.00     0.116 C 
BRANCH   4   5
ATOM      5  N   UNL A   1      35.726  23.162  26.612  1.00  0.00    -0.352 N 
ATOM      6  C   UNL A   1      34.399  23.254  26.859  1.00  0.00     0.251 C 
ATOM      7  O   UNL A   1      33.993  22.558  27.797  1.00  0.00    -0.270 OA
ATOM      8  H   UNL A   1      36.170  22.562  27.255  1.00  0.00     0.163 HD
BRANCH   6   9
ATOM      9  C   UNL A   1      33.433  24.110  26.108  1.00  0.00     0.067 C 
ATOM     10  C   UNL A   1      30.836  28.043  24.244  1.00  0.00    -0.023 A 
ATOM     11  C   UNL A   1      30.973  26.686  23.905  1.00  0.00     0.052 A 
ATOM     12  C   UNL A   1      31.607  28.528  25.316  1.00  0.00     0.045 A 
ATOM     13  C   UNL A   1      31.817  25.845  24.625  1.00  0.00     0.128 A 
ATOM     14  C   UNL A   1      32.467  27.678  26.030  1.00  0.00     0.032 A 
ATOM     15  Cl  UNL A   1      31.568  30.185  25.807  1.00  0.00    -0.084 Cl
ATOM     16  C   UNL A   1      32.574  26.329  25.686  1.00  0.00     0.019 A 
ATOM     17  O   UNL A   1      31.887  24.556  24.192  1.00  0.00    -0.475 OA
ATOM     18  C   UNL A   1      33.492  25.429  26.374  1.00  0.00     0.025 C 
ATOM     19  C   UNL A   1      32.418  23.585  25.131  1.00  0.00     0.314 C 
BRANCH  10  20
ATOM     20  C   UNL A   1      29.908  28.922  23.416  1.00  0.00     0.014 C 
ATOM     21  C   UNL A   1      30.595  29.341  22.113  1.00  0.00     0.012 C 
ATOM     22  C   UNL A   1      28.564  28.241  23.122  1.00  0.00     0.012 C 
ENDBRANCH  10  20
BRANCH  19  23
ATOM     23  C   UNL A   1      31.245  22.866  25.822  1.00  0.00     0.429 C 
ATOM     24  F   UNL A   1      31.441  21.523  25.811  1.00  0.00    -0.167 F 
ATOM     25  F   UNL A   1      31.111  23.218  27.122  1.00  0.00    -0.167 F 
ATOM     26  F   UNL A   1      30.059  23.108  25.222  1.00  0.00    -0.167 F 
ENDBRANCH  19  23
ENDBRANCH   6   9
ENDBRANCH   4   5
ENDBRANCH   3   4
ENDBRANCH   2   3
ENDBRANCH   1   2
BRANCH   1  27
ATOM     27  C   UNL A   1      38.098  19.529  24.981  1.00  0.00     0.021 C 
BRANCH  27  28
ATOM     28  C   UNL A   1      39.344  19.981  25.731  1.00  0.00     0.116 C 
BRANCH  28  29
ATOM     29  N   UNL A   1      40.347  18.933  25.834  1.00  0.00    -0.352 N 
ATOM     30  C   UNL A   1      41.694  19.043  26.078  1.00  0.00     0.251 C 
ATOM     31  H   UNL A   1      40.013  18.016  25.712  1.00  0.00     0.163 HD
ATOM     32  O   UNL A   1      42.425  18.061  25.985  1.00  0.00    -0.269 OA
BRANCH  30  33
ATOM     33  C   UNL A   1      42.269  20.360  26.421  1.00  0.00     0.039 A 
ATOM     34  C   UNL A   1      42.290  20.805  27.745  1.00  0.00     0.014 A 
ATOM     35  C   UNL A   1      42.774  21.168  25.398  1.00  0.00     0.014 A 
ATOM     36  C   UNL A   1      42.667  22.113  28.025  1.00  0.00     0.010 A 
ATOM     37  C   UNL A   1      43.227  22.456  25.693  1.00  0.00     0.010 A 
ATOM     38  C   UNL A   1      43.135  22.956  27.002  1.00  0.00    -0.014 A 
BRANCH  38  39
ATOM     39  C   UNL A   1      43.512  24.355  27.325  1.00  0.00     0.031 A 
ATOM     40  C   UNL A   1      44.901  24.860  27.043  1.00  0.00     0.074 A 
ATOM     41  C   UNL A   1      42.579  25.189  27.823  1.00  0.00     0.049 A 
ATOM     42  N   UNL A   1      45.398  26.056  27.238  1.00  0.00    -0.248 NA
ATOM     43  C   UNL A   1      45.856  23.902  26.466  1.00  0.00     0.031 C 
ATOM     44  C   UNL A   1      41.197  24.815  28.125  1.00  0.00     0.029 A 
ATOM     45  N   UNL A   1      42.640  26.523  28.134  1.00  0.00    -0.354 N 
ATOM     46  C   UNL A   1      46.723  25.988  26.826  1.00  0.00     0.074 A 
ATOM     47  C   UNL A   1      46.963  24.628  26.395  1.00  0.00     0.031 C 
ATOM     48  C   UNL A   1      40.525  25.905  28.523  1.00  0.00     0.029 A 
ATOM     49  C   UNL A   1      41.442  27.040  28.563  1.00  0.00     0.049 A 
ATOM     50  H   UNL A   1      43.462  27.058  28.057  1.00  0.00     0.167 HD
ATOM     51  C   UNL A   1      47.649  26.977  26.797  1.00  0.00     0.037 A 
ATOM     52  C   UNL A   1      41.120  28.287  28.953  1.00  0.00     0.037 A 
ATOM     53  C   UNL A   1      47.402  28.335  27.206  1.00  0.00     0.049 A 
ATOM     54  C   UNL A   1      42.178  29.352  28.952  1.00  0.00     0.074 A 
ATOM     55  C   UNL A   1      48.272  29.411  27.195  1.00  0.00     0.029 A 
ATOM     56  N   UNL A   1      46.192  28.805  27.695  1.00  0.00    -0.354 N 
ATOM     57  N   UNL A   1      43.426  29.275  28.560  1.00  0.00    -0.248 NA
ATOM     58  C   UNL A   1      41.787  30.675  29.460  1.00  0.00     0.031 C 
ATOM     59  C   UNL A   1      47.601  30.523  27.714  1.00  0.00     0.029 A 
ATOM     60  C   UNL A   1      46.299  30.151  28.007  1.00  0.00     0.049 A 
ATOM     61  H   UNL A   1      45.377  28.263  27.804  1.00  0.00     0.167 HD
ATOM     62  C   UNL A   1      43.968  30.535  28.766  1.00  0.00     0.074 A 
ATOM     63  C   UNL A   1      42.907  31.366  29.297  1.00  0.00     0.031 C 
ATOM     64  C   UNL A   1      45.234  30.963  28.540  1.00  0.00     0.037 A 
BRANCH  51  65
ATOM     65  C   UNL A   1      49.027  26.632  26.312  1.00  0.00     0.064 A 
ATOM     66  C   UNL A   1      49.414  26.858  24.983  1.00  0.00     0.173 A 
ATOM     67  C   UNL A   1      49.990  26.130  27.200  1.00  0.00     0.173 A 
ATOM     68  F   UNL A   1      48.527  27.324  24.092  1.00  0.00    -0.203 F 
ATOM     69  C   UNL A   1      50.711  26.581  24.558  1.00  0.00     0.198 A 
ATOM     70  C   UNL A   1      51.292  25.878  26.778  1.00  0.00     0.198 A 
ATOM     71  F   UNL A   1      49.672  25.902  28.484  1.00  0.00    -0.203 F 
ATOM     72  F   UNL A   1      51.050  26.775  23.275  1.00  0.00    -0.200 F 
ATOM     73  C   UNL A   1      51.651  26.100  25.457  1.00  0.00     0.200 A 
ATOM     74  F   UNL A   1      52.203  25.424  27.651  1.00  0.00    -0.200 F 
ATOM     75  F   UNL A   1      52.902  25.846  25.049  1.00  0.00    -0.200 F 
ENDBRANCH  51  65
BRANCH  52  76
ATOM     76  C   UNL A   1      39.725  28.585  29.367  1.00  0.00     0.064 A 
ATOM     77  C   UNL A   1      39.316  28.398  30.693  1.00  0.00     0.173 A 
ATOM     78  C   UNL A   1      38.790  29.100  28.459  1.00  0.00     0.173 A 
ATOM     79  F   UNL A   1      40.171  27.890  31.593  1.00  0.00    -0.203 F 
ATOM     80  C   UNL A   1      38.021  28.717  31.097  1.00  0.00     0.198 A 
ATOM     81  C   UNL A   1      37.504  29.443  28.868  1.00  0.00     0.198 A 
ATOM     82  F   UNL A   1      39.136  29.299  27.178  1.00  0.00    -0.203 F 
ATOM     83  F   UNL A   1      37.646  28.507  32.365  1.00  0.00    -0.200 F 
ATOM     84  C   UNL A   1      37.119  29.249  30.186  1.00  0.00     0.200 A 
ATOM     85  F   UNL A   1      36.641  29.972  27.989  1.00  0.00    -0.200 F 
ATOM     86  F   UNL A   1      35.880  29.572  30.578  1.00  0.00    -0.200 F 
ENDBRANCH  52  76
BRANCH  64  87
ATOM     87  C   UNL A   1      45.546  32.393  28.859  1.00  0.00     0.064 A 
ATOM     88  C   UNL A   1      45.317  33.415  27.926  1.00  0.00     0.173 A 
ATOM     89  C   UNL A   1      46.016  32.754  30.130  1.00  0.00     0.173 A 
ATOM     90  F   UNL A   1      44.881  33.116  26.693  1.00  0.00    -0.203 F 
ATOM     91  C   UNL A   1      45.561  34.746  28.251  1.00  0.00     0.198 A 
ATOM     92  C   UNL A   1      46.235  34.089  30.459  1.00  0.00     0.198 A 
ATOM     93  F   UNL A   1      46.243  31.813  31.059  1.00  0.00    -0.203 F 
ATOM     94  F   UNL A   1      45.366  35.703  27.334  1.00  0.00    -0.200 F 
ATOM     95  C   UNL A   1      46.010  35.083  29.518  1.00  0.00     0.200 A 
ATOM     96  F   UNL A   1      46.658  34.413  31.689  1.00  0.00    -0.200 F 
ATOM     97  F   UNL A   1      46.232  36.366  29.833  1.00  0.00    -0.200 F 
ENDBRANCH  64  87
ENDBRANCH  38  39
ENDBRANCH  30  33
ENDBRANCH  28  29
ENDBRANCH  27  28
ENDBRANCH   1  27
TORSDOF 15
ENDMDL
