MODEL 1
REMARK VINA RESULT:     -13.1      0.000      0.000
REMARK SMILES CCn1c(N2CCC(C(=O)NCCCCCCNC(=O)c3ccc(-c4c5nc(c(-c6c(F)c(F)c(F)c(F)c6F)c6ccc([nH]6)c(-c6c(F)c(F)c(F)c(F)c6F)c6nc(c(-c7c(F)c(F)c(F)c(F)c7F)c7ccc4[nH]7)C=C6)C=C5)cc3)CC2)nc2cc(C)ccc21
REMARK SMILES IDX 14 1 13 2 12 3 11 4 9 5 10 6 8 8 5 9 6 10 85 11 7 12 84 13
REMARK SMILES IDX 4 14 3 15 93 16 86 17 87 18 92 19 88 20 91 21 89 22 90 23
REMARK SMILES IDX 2 24 1 25 15 26 16 27 17 28 18 29 19 30 20 32 21 33 22 34
REMARK SMILES IDX 83 35 23 36 82 37 24 38 25 39 26 40 76 41 27 42 81 43 75 44
REMARK SMILES IDX 77 45 28 46 80 47 74 48 73 49 29 51 61 52 41 53 60 54 42 55
REMARK SMILES IDX 45 56 59 57 78 58 43 59 44 60 58 62 79 63 46 64 30 65 31 66
REMARK SMILES IDX 39 67 32 68 33 69 37 70 40 71 34 72 35 73 38 74 36 75 62 76
REMARK SMILES IDX 63 77 71 78 64 79 65 80 69 81 72 82 66 83 67 84 70 85 68 86
REMARK SMILES IDX 47 87 48 88 56 89 49 90 50 91 54 92 57 93 51 94 52 95 55 96
REMARK SMILES IDX 53 97
REMARK H PARENT 11 7 18 31 77 50 45 61
REMARK Flexibility Score: inf
ROOT
ATOM      1  C   UNL A   1      40.094  21.195  26.367  1.00  0.00     0.002 C 
ENDROOT
BRANCH   1   2
ATOM      2  C   UNL A   1      39.347  22.531  26.367  1.00  0.00     0.021 C 
BRANCH   2   3
ATOM      3  C   UNL A   1      37.874  22.408  25.995  1.00  0.00     0.116 C 
BRANCH   3   4
ATOM      4  N   UNL A   1      37.649  22.798  24.612  1.00  0.00    -0.356 N 
ATOM      5  C   UNL A   1      36.488  23.023  23.935  1.00  0.00     0.223 C 
ATOM      6  O   UNL A   1      36.555  23.301  22.736  1.00  0.00    -0.275 OA
ATOM      7  H   UNL A   1      38.466  22.918  24.078  1.00  0.00     0.163 HD
BRANCH   5   8
ATOM      8  C   UNL A   1      35.142  22.965  24.641  1.00  0.00     0.082 C 
ATOM      9  N   UNL A   1      32.568  24.168  24.792  1.00  0.00    -0.342 N 
ATOM     10  C   UNL A   1      33.460  24.401  25.915  1.00  0.00     0.120 C 
ATOM     11  C   UNL A   1      32.636  22.874  24.142  1.00  0.00     0.120 C 
ATOM     12  C   UNL A   1      34.909  24.212  25.505  1.00  0.00     0.035 C 
ATOM     13  C   UNL A   1      34.041  22.618  23.626  1.00  0.00     0.035 C 
BRANCH   9  14
ATOM     14  C   UNL A   1      31.721  25.148  24.397  1.00  0.00     0.206 A 
ATOM     15  N   UNL A   1      32.131  26.224  23.630  1.00  0.00    -0.310 N 
ATOM     16  C   UNL A   1      31.020  26.994  23.348  1.00  0.00     0.070 A 
ATOM     17  N   UNL A   1      30.418  25.173  24.577  1.00  0.00    -0.213 NA
ATOM     18  C   UNL A   1      29.974  26.322  23.969  1.00  0.00     0.091 A 
ATOM     19  C   UNL A   1      30.828  28.178  22.624  1.00  0.00     0.029 A 
ATOM     20  C   UNL A   1      28.675  26.857  23.900  1.00  0.00     0.034 A 
ATOM     21  C   UNL A   1      29.528  28.694  22.562  1.00  0.00     0.006 A 
ATOM     22  C   UNL A   1      28.454  28.056  23.194  1.00  0.00    -0.049 A 
ATOM     23  C   UNL A   1      27.075  28.646  23.132  1.00  0.00     0.044 C 
BRANCH  15  24
ATOM     24  C   UNL A   1      33.474  26.503  23.159  1.00  0.00     0.122 C 
ATOM     25  C   UNL A   1      34.113  27.741  23.769  1.00  0.00     0.028 C 
ENDBRANCH  15  24
ENDBRANCH   9  14
ENDBRANCH   5   8
ENDBRANCH   3   4
ENDBRANCH   2   3
ENDBRANCH   1   2
BRANCH   1  26
ATOM     26  C   UNL A   1      41.169  21.057  27.450  1.00  0.00     0.002 C 
BRANCH  26  27
ATOM     27  C   UNL A   1      42.246  19.998  27.174  1.00  0.00     0.021 C 
BRANCH  27  28
ATOM     28  C   UNL A   1      42.211  19.416  25.761  1.00  0.00     0.116 C 
BRANCH  28  29
ATOM     29  N   UNL A   1      43.454  19.590  25.039  1.00  0.00    -0.352 N 
ATOM     30  C   UNL A   1      44.384  20.579  24.930  1.00  0.00     0.251 C 
ATOM     31  H   UNL A   1      43.682  18.801  24.494  1.00  0.00     0.163 HD
ATOM     32  O   UNL A   1      45.370  20.318  24.231  1.00  0.00    -0.269 OA
BRANCH  30  33
ATOM     33  C   UNL A   1      44.277  21.936  25.526  1.00  0.00     0.039 A 
ATOM     34  C   UNL A   1      45.036  22.426  26.587  1.00  0.00     0.014 A 
ATOM     35  C   UNL A   1      43.273  22.761  24.978  1.00  0.00     0.014 A 
ATOM     36  C   UNL A   1      44.733  23.661  27.152  1.00  0.00     0.010 A 
ATOM     37  C   UNL A   1      42.978  24.001  25.525  1.00  0.00     0.010 A 
ATOM     38  C   UNL A   1      43.676  24.426  26.648  1.00  0.00    -0.014 A 
BRANCH  38  39
ATOM     39  C   UNL A   1      43.404  25.714  27.277  1.00  0.00     0.031 A 
ATOM     40  C   UNL A   1      44.371  26.782  26.917  1.00  0.00     0.074 A 
ATOM     41  C   UNL A   1      42.324  25.955  28.051  1.00  0.00     0.049 A 
ATOM     42  N   UNL A   1      45.186  27.405  27.704  1.00  0.00    -0.248 NA
ATOM     43  C   UNL A   1      44.531  27.129  25.496  1.00  0.00     0.031 C 
ATOM     44  C   UNL A   1      41.155  25.091  28.230  1.00  0.00     0.029 A 
ATOM     45  N   UNL A   1      41.995  27.071  28.771  1.00  0.00    -0.354 N 
ATOM     46  C   UNL A   1      45.818  28.363  26.915  1.00  0.00     0.074 A 
ATOM     47  C   UNL A   1      45.493  28.053  25.548  1.00  0.00     0.031 C 
ATOM     48  C   UNL A   1      40.155  25.801  28.801  1.00  0.00     0.029 A 
ATOM     49  C   UNL A   1      40.665  27.110  29.174  1.00  0.00     0.049 A 
ATOM     50  H   UNL A   1      42.641  27.782  28.986  1.00  0.00     0.167 HD
ATOM     51  C   UNL A   1      46.329  29.492  27.480  1.00  0.00     0.037 A 
ATOM     52  C   UNL A   1      40.016  28.155  29.740  1.00  0.00     0.037 A 
ATOM     53  C   UNL A   1      46.456  29.354  28.905  1.00  0.00     0.049 A 
ATOM     54  C   UNL A   1      41.024  29.035  30.373  1.00  0.00     0.074 A 
ATOM     55  C   UNL A   1      47.370  28.837  29.796  1.00  0.00     0.029 A 
ATOM     56  N   UNL A   1      45.277  29.511  29.578  1.00  0.00    -0.354 N 
ATOM     57  N   UNL A   1      41.739  28.687  31.406  1.00  0.00    -0.248 NA
ATOM     58  C   UNL A   1      41.473  30.235  29.674  1.00  0.00     0.031 C 
ATOM     59  C   UNL A   1      46.659  28.596  31.012  1.00  0.00     0.029 A 
ATOM     60  C   UNL A   1      45.339  29.000  30.845  1.00  0.00     0.049 A 
ATOM     61  H   UNL A   1      44.479  29.942  29.196  1.00  0.00     0.167 HD
ATOM     62  C   UNL A   1      42.933  29.348  31.222  1.00  0.00     0.074 A 
ATOM     63  C   UNL A   1      42.653  30.415  30.272  1.00  0.00     0.031 C 
ATOM     64  C   UNL A   1      44.114  28.765  31.570  1.00  0.00     0.037 A 
BRANCH  51  65
ATOM     65  C   UNL A   1      46.259  30.864  26.848  1.00  0.00     0.064 A 
ATOM     66  C   UNL A   1      47.409  31.680  26.825  1.00  0.00     0.173 A 
ATOM     67  C   UNL A   1      45.044  31.524  26.558  1.00  0.00     0.173 A 
ATOM     68  F   UNL A   1      48.614  31.170  27.125  1.00  0.00    -0.203 F 
ATOM     69  C   UNL A   1      47.338  33.054  26.570  1.00  0.00     0.198 A 
ATOM     70  C   UNL A   1      44.984  32.883  26.255  1.00  0.00     0.198 A 
ATOM     71  F   UNL A   1      43.860  30.908  26.674  1.00  0.00    -0.203 F 
ATOM     72  F   UNL A   1      48.443  33.808  26.661  1.00  0.00    -0.200 F 
ATOM     73  C   UNL A   1      46.126  33.654  26.283  1.00  0.00     0.200 A 
ATOM     74  F   UNL A   1      43.793  33.451  26.012  1.00  0.00    -0.200 F 
ATOM     75  F   UNL A   1      46.048  34.977  26.085  1.00  0.00    -0.200 F 
ENDBRANCH  51  65
BRANCH  52  76
ATOM     76  C   UNL A   1      38.618  28.606  29.528  1.00  0.00     0.064 A 
ATOM     77  C   UNL A   1      37.783  28.890  30.623  1.00  0.00     0.173 A 
ATOM     78  C   UNL A   1      38.190  29.077  28.273  1.00  0.00     0.173 A 
ATOM     79  F   UNL A   1      38.133  28.501  31.858  1.00  0.00    -0.203 F 
ATOM     80  C   UNL A   1      36.623  29.657  30.480  1.00  0.00     0.198 A 
ATOM     81  C   UNL A   1      37.028  29.836  28.131  1.00  0.00     0.198 A 
ATOM     82  F   UNL A   1      38.946  28.902  27.179  1.00  0.00    -0.203 F 
ATOM     83  F   UNL A   1      35.899  29.981  31.560  1.00  0.00    -0.200 F 
ATOM     84  C   UNL A   1      36.257  30.145  29.237  1.00  0.00     0.200 A 
ATOM     85  F   UNL A   1      36.701  30.331  26.929  1.00  0.00    -0.200 F 
ATOM     86  F   UNL A   1      35.193  30.950  29.112  1.00  0.00    -0.200 F 
ENDBRANCH  52  76
BRANCH  64  87
ATOM     87  C   UNL A   1      44.082  27.718  32.634  1.00  0.00     0.064 A 
ATOM     88  C   UNL A   1      43.981  27.981  34.009  1.00  0.00     0.173 A 
ATOM     89  C   UNL A   1      44.114  26.376  32.229  1.00  0.00     0.173 A 
ATOM     90  F   UNL A   1      43.873  29.235  34.465  1.00  0.00    -0.203 F 
ATOM     91  C   UNL A   1      43.957  26.941  34.939  1.00  0.00     0.198 A 
ATOM     92  C   UNL A   1      44.053  25.341  33.156  1.00  0.00     0.198 A 
ATOM     93  F   UNL A   1      44.176  26.069  30.924  1.00  0.00    -0.203 F 
ATOM     94  F   UNL A   1      43.884  27.213  36.250  1.00  0.00    -0.200 F 
ATOM     95  C   UNL A   1      43.986  25.623  34.510  1.00  0.00     0.200 A 
ATOM     96  F   UNL A   1      44.043  24.070  32.732  1.00  0.00    -0.200 F 
ATOM     97  F   UNL A   1      43.932  24.623  35.401  1.00  0.00    -0.200 F 
ENDBRANCH  64  87
ENDBRANCH  38  39
ENDBRANCH  30  33
ENDBRANCH  28  29
ENDBRANCH  27  28
ENDBRANCH  26  27
ENDBRANCH   1  26
TORSDOF 15
ENDMDL
MODEL 2
REMARK VINA RESULT:     -12.4      3.178      8.944
REMARK SMILES CCn1c(N2CCC(C(=O)NCCCCCCNC(=O)c3ccc(-c4c5nc(c(-c6c(F)c(F)c(F)c(F)c6F)c6ccc([nH]6)c(-c6c(F)c(F)c(F)c(F)c6F)c6nc(c(-c7c(F)c(F)c(F)c(F)c7F)c7ccc4[nH]7)C=C6)C=C5)cc3)CC2)nc2cc(C)ccc21
REMARK SMILES IDX 14 1 13 2 12 3 11 4 9 5 10 6 8 8 5 9 6 10 85 11 7 12 84 13
REMARK SMILES IDX 4 14 3 15 93 16 86 17 87 18 92 19 88 20 91 21 89 22 90 23
REMARK SMILES IDX 2 24 1 25 15 26 16 27 17 28 18 29 19 30 20 32 21 33 22 34
REMARK SMILES IDX 83 35 23 36 82 37 24 38 25 39 26 40 76 41 27 42 81 43 75 44
REMARK SMILES IDX 77 45 28 46 80 47 74 48 73 49 29 51 61 52 41 53 60 54 42 55
REMARK SMILES IDX 45 56 59 57 78 58 43 59 44 60 58 62 79 63 46 64 30 65 31 66
REMARK SMILES IDX 39 67 32 68 33 69 37 70 40 71 34 72 35 73 38 74 36 75 62 76
REMARK SMILES IDX 63 77 71 78 64 79 65 80 69 81 72 82 66 83 67 84 70 85 68 86
REMARK SMILES IDX 47 87 48 88 56 89 49 90 50 91 54 92 57 93 51 94 52 95 55 96
REMARK SMILES IDX 53 97
REMARK H PARENT 11 7 18 31 77 50 45 61
REMARK Flexibility Score: inf
ROOT
ATOM      1  C   UNL A   1      34.694  28.707  26.912  1.00  0.00     0.002 C 
ENDROOT
BRANCH   1   2
ATOM      2  C   UNL A   1      33.303  28.557  26.291  1.00  0.00     0.021 C 
BRANCH   2   3
ATOM      3  C   UNL A   1      33.259  28.883  24.802  1.00  0.00     0.116 C 
BRANCH   3   4
ATOM      4  N   UNL A   1      31.995  29.503  24.439  1.00  0.00    -0.356 N 
ATOM      5  C   UNL A   1      30.867  28.960  23.900  1.00  0.00     0.223 C 
ATOM      6  O   UNL A   1      29.927  29.711  23.634  1.00  0.00    -0.275 OA
ATOM      7  H   UNL A   1      31.945  30.471  24.609  1.00  0.00     0.163 HD
BRANCH   5   8
ATOM      8  C   UNL A   1      30.752  27.463  23.659  1.00  0.00     0.082 C 
ATOM      9  N   UNL A   1      32.081  24.969  23.988  1.00  0.00    -0.342 N 
ATOM     10  C   UNL A   1      31.981  25.476  22.631  1.00  0.00     0.120 C 
ATOM     11  C   UNL A   1      30.970  25.229  24.882  1.00  0.00     0.120 C 
ATOM     12  C   UNL A   1      31.782  26.981  22.627  1.00  0.00     0.035 C 
ATOM     13  C   UNL A   1      30.732  26.723  25.006  1.00  0.00     0.035 C 
BRANCH   9  14
ATOM     14  C   UNL A   1      33.187  24.286  24.367  1.00  0.00     0.206 A 
ATOM     15  N   UNL A   1      33.256  22.905  24.342  1.00  0.00    -0.310 N 
ATOM     16  C   UNL A   1      34.531  22.534  24.719  1.00  0.00     0.070 A 
ATOM     17  N   UNL A   1      34.350  24.805  24.695  1.00  0.00    -0.213 NA
ATOM     18  C   UNL A   1      35.181  23.741  24.951  1.00  0.00     0.091 A 
ATOM     19  C   UNL A   1      35.169  21.296  24.872  1.00  0.00     0.029 A 
ATOM     20  C   UNL A   1      36.520  23.729  25.383  1.00  0.00     0.034 A 
ATOM     21  C   UNL A   1      36.502  21.303  25.298  1.00  0.00     0.006 A 
ATOM     22  C   UNL A   1      37.181  22.499  25.562  1.00  0.00    -0.049 A 
ATOM     23  C   UNL A   1      38.603  22.476  26.043  1.00  0.00     0.044 C 
BRANCH  15  24
ATOM     24  C   UNL A   1      32.205  21.982  23.957  1.00  0.00     0.122 C 
ATOM     25  C   UNL A   1      32.163  21.655  22.472  1.00  0.00     0.028 C 
ENDBRANCH  15  24
ENDBRANCH   9  14
ENDBRANCH   5   8
ENDBRANCH   3   4
ENDBRANCH   2   3
ENDBRANCH   1   2
BRANCH   1  26
ATOM     26  C   UNL A   1      35.115  30.151  27.206  1.00  0.00     0.002 C 
BRANCH  26  27
ATOM     27  C   UNL A   1      33.979  31.091  27.635  1.00  0.00     0.021 C 
BRANCH  27  28
ATOM     28  C   UNL A   1      34.449  32.432  28.198  1.00  0.00     0.116 C 
BRANCH  28  29
ATOM     29  N   UNL A   1      34.447  32.477  29.646  1.00  0.00    -0.352 N 
ATOM     30  C   UNL A   1      35.260  32.012  30.633  1.00  0.00     0.251 C 
ATOM     31  H   UNL A   1      33.667  32.961  30.002  1.00  0.00     0.163 HD
ATOM     32  O   UNL A   1      34.935  32.311  31.789  1.00  0.00    -0.269 OA
BRANCH  30  33
ATOM     33  C   UNL A   1      36.450  31.143  30.436  1.00  0.00     0.039 A 
ATOM     34  C   UNL A   1      36.477  29.753  30.547  1.00  0.00     0.014 A 
ATOM     35  C   UNL A   1      37.656  31.819  30.163  1.00  0.00     0.014 A 
ATOM     36  C   UNL A   1      37.687  29.070  30.490  1.00  0.00     0.010 A 
ATOM     37  C   UNL A   1      38.864  31.141  30.086  1.00  0.00     0.010 A 
ATOM     38  C   UNL A   1      38.883  29.771  30.304  1.00  0.00    -0.014 A 
BRANCH  38  39
ATOM     39  C   UNL A   1      40.122  29.003  30.249  1.00  0.00     0.031 A 
ATOM     40  C   UNL A   1      40.788  28.829  31.566  1.00  0.00     0.074 A 
ATOM     41  C   UNL A   1      40.593  28.420  29.126  1.00  0.00     0.049 A 
ATOM     42  N   UNL A   1      41.947  29.273  31.928  1.00  0.00    -0.248 NA
ATOM     43  C   UNL A   1      40.034  28.176  32.648  1.00  0.00     0.031 C 
ATOM     44  C   UNL A   1      39.887  28.259  27.852  1.00  0.00     0.029 A 
ATOM     45  N   UNL A   1      41.771  27.758  28.910  1.00  0.00    -0.354 N 
ATOM     46  C   UNL A   1      42.156  28.783  33.215  1.00  0.00     0.074 A 
ATOM     47  C   UNL A   1      40.899  28.247  33.663  1.00  0.00     0.031 C 
ATOM     48  C   UNL A   1      40.539  27.352  27.090  1.00  0.00     0.029 A 
ATOM     49  C   UNL A   1      41.785  26.997  27.747  1.00  0.00     0.049 A 
ATOM     50  H   UNL A   1      42.540  27.816  29.522  1.00  0.00     0.167 HD
ATOM     51  C   UNL A   1      43.421  28.616  33.690  1.00  0.00     0.037 A 
ATOM     52  C   UNL A   1      42.733  26.108  27.368  1.00  0.00     0.037 A 
ATOM     53  C   UNL A   1      44.380  29.329  32.891  1.00  0.00     0.049 A 
ATOM     54  C   UNL A   1      43.995  26.458  28.057  1.00  0.00     0.074 A 
ATOM     55  C   UNL A   1      44.884  30.608  32.815  1.00  0.00     0.029 A 
ATOM     56  N   UNL A   1      44.700  28.696  31.724  1.00  0.00    -0.354 N 
ATOM     57  N   UNL A   1      44.667  27.550  27.822  1.00  0.00    -0.248 NA
ATOM     58  C   UNL A   1      44.387  25.726  29.257  1.00  0.00     0.031 C 
ATOM     59  C   UNL A   1      45.436  30.748  31.504  1.00  0.00     0.029 A 
ATOM     60  C   UNL A   1      45.285  29.544  30.825  1.00  0.00     0.049 A 
ATOM     61  H   UNL A   1      44.531  27.742  31.552  1.00  0.00     0.167 HD
ATOM     62  C   UNL A   1      45.241  27.856  29.036  1.00  0.00     0.074 A 
ATOM     63  C   UNL A   1      45.201  26.626  29.814  1.00  0.00     0.031 C 
ATOM     64  C   UNL A   1      45.373  29.149  29.440  1.00  0.00     0.037 A 
BRANCH  51  65
ATOM     65  C   UNL A   1      43.858  27.452  34.551  1.00  0.00     0.064 A 
ATOM     66  C   UNL A   1      43.855  26.148  34.013  1.00  0.00     0.173 A 
ATOM     67  C   UNL A   1      43.968  27.525  35.957  1.00  0.00     0.173 A 
ATOM     68  F   UNL A   1      43.713  25.955  32.693  1.00  0.00    -0.203 F 
ATOM     69  C   UNL A   1      43.918  25.011  34.826  1.00  0.00     0.198 A 
ATOM     70  C   UNL A   1      44.082  26.391  36.760  1.00  0.00     0.198 A 
ATOM     71  F   UNL A   1      43.850  28.685  36.616  1.00  0.00    -0.203 F 
ATOM     72  F   UNL A   1      43.807  23.792  34.279  1.00  0.00    -0.200 F 
ATOM     73  C   UNL A   1      44.034  25.133  36.198  1.00  0.00     0.200 A 
ATOM     74  F   UNL A   1      44.160  26.532  38.091  1.00  0.00    -0.200 F 
ATOM     75  F   UNL A   1      44.047  24.047  36.982  1.00  0.00    -0.200 F 
ENDBRANCH  51  65
BRANCH  52  76
ATOM     76  C   UNL A   1      42.564  24.805  26.678  1.00  0.00     0.064 A 
ATOM     77  C   UNL A   1      43.193  24.559  25.445  1.00  0.00     0.173 A 
ATOM     78  C   UNL A   1      42.063  23.682  27.363  1.00  0.00     0.173 A 
ATOM     79  F   UNL A   1      43.722  25.571  24.743  1.00  0.00    -0.203 F 
ATOM     80  C   UNL A   1      43.369  23.260  24.959  1.00  0.00     0.198 A 
ATOM     81  C   UNL A   1      42.233  22.387  26.873  1.00  0.00     0.198 A 
ATOM     82  F   UNL A   1      41.495  23.811  28.570  1.00  0.00    -0.203 F 
ATOM     83  F   UNL A   1      44.051  23.059  23.823  1.00  0.00    -0.200 F 
ATOM     84  C   UNL A   1      42.907  22.174  25.683  1.00  0.00     0.200 A 
ATOM     85  F   UNL A   1      41.810  21.342  27.597  1.00  0.00    -0.200 F 
ATOM     86  F   UNL A   1      43.148  20.926  25.261  1.00  0.00    -0.200 F 
ENDBRANCH  52  76
BRANCH  64  87
ATOM     87  C   UNL A   1      45.438  30.202  28.382  1.00  0.00     0.064 A 
ATOM     88  C   UNL A   1      44.319  30.836  27.819  1.00  0.00     0.173 A 
ATOM     89  C   UNL A   1      46.706  30.616  27.950  1.00  0.00     0.173 A 
ATOM     90  F   UNL A   1      43.080  30.545  28.234  1.00  0.00    -0.203 F 
ATOM     91  C   UNL A   1      44.468  31.813  26.834  1.00  0.00     0.198 A 
ATOM     92  C   UNL A   1      46.852  31.616  26.995  1.00  0.00     0.198 A 
ATOM     93  F   UNL A   1      47.809  30.066  28.481  1.00  0.00    -0.203 F 
ATOM     94  F   UNL A   1      43.386  32.391  26.291  1.00  0.00    -0.200 F 
ATOM     95  C   UNL A   1      45.734  32.205  26.429  1.00  0.00     0.200 A 
ATOM     96  F   UNL A   1      48.079  32.017  26.636  1.00  0.00    -0.200 F 
ATOM     97  F   UNL A   1      45.879  33.165  25.505  1.00  0.00    -0.200 F 
ENDBRANCH  64  87
ENDBRANCH  38  39
ENDBRANCH  30  33
ENDBRANCH  28  29
ENDBRANCH  27  28
ENDBRANCH  26  27
ENDBRANCH   1  26
TORSDOF 15
ENDMDL
MODEL 3
REMARK VINA RESULT:     -12.4      1.260      2.104
REMARK SMILES CCn1c(N2CCC(C(=O)NCCCCCCNC(=O)c3ccc(-c4c5nc(c(-c6c(F)c(F)c(F)c(F)c6F)c6ccc([nH]6)c(-c6c(F)c(F)c(F)c(F)c6F)c6nc(c(-c7c(F)c(F)c(F)c(F)c7F)c7ccc4[nH]7)C=C6)C=C5)cc3)CC2)nc2cc(C)ccc21
REMARK SMILES IDX 14 1 13 2 12 3 11 4 9 5 10 6 8 8 5 9 6 10 85 11 7 12 84 13
REMARK SMILES IDX 4 14 3 15 93 16 86 17 87 18 92 19 88 20 91 21 89 22 90 23
REMARK SMILES IDX 2 24 1 25 15 26 16 27 17 28 18 29 19 30 20 32 21 33 22 34
REMARK SMILES IDX 83 35 23 36 82 37 24 38 25 39 26 40 76 41 27 42 81 43 75 44
REMARK SMILES IDX 77 45 28 46 80 47 74 48 73 49 29 51 61 52 41 53 60 54 42 55
REMARK SMILES IDX 45 56 59 57 78 58 43 59 44 60 58 62 79 63 46 64 30 65 31 66
REMARK SMILES IDX 39 67 32 68 33 69 37 70 40 71 34 72 35 73 38 74 36 75 62 76
REMARK SMILES IDX 63 77 71 78 64 79 65 80 69 81 72 82 66 83 67 84 70 85 68 86
REMARK SMILES IDX 47 87 48 88 56 89 49 90 50 91 54 92 57 93 51 94 52 95 55 96
REMARK SMILES IDX 53 97
REMARK H PARENT 11 7 18 31 77 50 45 61
REMARK Flexibility Score: inf
ROOT
ATOM      1  C   UNL A   1      41.560  19.980  26.163  1.00  0.00     0.002 C 
ENDROOT
BRANCH   1   2
ATOM      2  C   UNL A   1      40.396  20.688  26.860  1.00  0.00     0.021 C 
BRANCH   2   3
ATOM      3  C   UNL A   1      39.381  21.291  25.895  1.00  0.00     0.116 C 
BRANCH   3   4
ATOM      4  N   UNL A   1      39.189  22.710  26.156  1.00  0.00    -0.356 N 
ATOM      5  C   UNL A   1      38.092  23.498  25.985  1.00  0.00     0.223 C 
ATOM      6  O   UNL A   1      38.192  24.701  26.238  1.00  0.00    -0.275 OA
ATOM      7  H   UNL A   1      39.979  23.175  26.513  1.00  0.00     0.163 HD
BRANCH   5   8
ATOM      8  C   UNL A   1      36.766  22.913  25.526  1.00  0.00     0.082 C 
ATOM      9  N   UNL A   1      34.147  23.569  24.628  1.00  0.00    -0.342 N 
ATOM     10  C   UNL A   1      34.252  23.002  25.961  1.00  0.00     0.120 C 
ATOM     11  C   UNL A   1      35.070  23.083  23.621  1.00  0.00     0.120 C 
ATOM     12  C   UNL A   1      35.644  23.210  26.531  1.00  0.00     0.035 C 
ATOM     13  C   UNL A   1      36.502  23.313  24.065  1.00  0.00     0.035 C 
BRANCH   9  14
ATOM     14  C   UNL A   1      33.211  24.514  24.376  1.00  0.00     0.206 A 
ATOM     15  N   UNL A   1      31.861  24.224  24.291  1.00  0.00    -0.310 N 
ATOM     16  C   UNL A   1      31.181  25.409  24.095  1.00  0.00     0.070 A 
ATOM     17  N   UNL A   1      33.415  25.811  24.287  1.00  0.00    -0.213 NA
ATOM     18  C   UNL A   1      32.180  26.375  24.077  1.00  0.00     0.091 A 
ATOM     19  C   UNL A   1      29.825  25.727  23.940  1.00  0.00     0.029 A 
ATOM     20  C   UNL A   1      31.831  27.722  23.868  1.00  0.00     0.034 A 
ATOM     21  C   UNL A   1      29.496  27.073  23.737  1.00  0.00     0.006 A 
ATOM     22  C   UNL A   1      30.478  28.069  23.692  1.00  0.00    -0.049 A 
ATOM     23  C   UNL A   1      30.098  29.501  23.448  1.00  0.00     0.044 C 
BRANCH  15  24
ATOM     24  C   UNL A   1      31.236  22.921  24.418  1.00  0.00     0.122 C 
ATOM     25  C   UNL A   1      30.680  22.620  25.802  1.00  0.00     0.028 C 
ENDBRANCH  15  24
ENDBRANCH   9  14
ENDBRANCH   5   8
ENDBRANCH   3   4
ENDBRANCH   2   3
ENDBRANCH   1   2
BRANCH   1  26
ATOM     26  C   UNL A   1      42.471  19.171  27.093  1.00  0.00     0.002 C 
BRANCH  26  27
ATOM     27  C   UNL A   1      43.241  18.025  26.421  1.00  0.00     0.021 C 
BRANCH  27  28
ATOM     28  C   UNL A   1      44.644  18.402  25.943  1.00  0.00     0.116 C 
BRANCH  28  29
ATOM     29  N   UNL A   1      44.668  18.905  24.584  1.00  0.00    -0.352 N 
ATOM     30  C   UNL A   1      44.735  20.135  24.005  1.00  0.00     0.251 C 
ATOM     31  H   UNL A   1      44.625  18.181  23.919  1.00  0.00     0.163 HD
ATOM     32  O   UNL A   1      44.789  20.149  22.770  1.00  0.00    -0.269 OA
BRANCH  30  33
ATOM     33  C   UNL A   1      44.691  21.434  24.726  1.00  0.00     0.039 A 
ATOM     34  C   UNL A   1      45.501  21.804  25.799  1.00  0.00     0.014 A 
ATOM     35  C   UNL A   1      43.694  22.333  24.295  1.00  0.00     0.014 A 
ATOM     36  C   UNL A   1      45.256  22.989  26.485  1.00  0.00     0.010 A 
ATOM     37  C   UNL A   1      43.457  23.525  24.963  1.00  0.00     0.010 A 
ATOM     38  C   UNL A   1      44.206  23.826  26.093  1.00  0.00    -0.014 A 
BRANCH  38  39
ATOM     39  C   UNL A   1      43.996  25.056  26.847  1.00  0.00     0.031 A 
ATOM     40  C   UNL A   1      45.020  26.103  26.599  1.00  0.00     0.074 A 
ATOM     41  C   UNL A   1      42.923  25.276  27.637  1.00  0.00     0.049 A 
ATOM     42  N   UNL A   1      45.859  26.601  27.447  1.00  0.00    -0.248 NA
ATOM     43  C   UNL A   1      45.210  26.582  25.221  1.00  0.00     0.031 C 
ATOM     44  C   UNL A   1      41.709  24.461  27.725  1.00  0.00     0.029 A 
ATOM     45  N   UNL A   1      42.645  26.330  28.464  1.00  0.00    -0.354 N 
ATOM     46  C   UNL A   1      46.547  27.598  26.761  1.00  0.00     0.074 A 
ATOM     47  C   UNL A   1      46.218  27.444  25.369  1.00  0.00     0.031 C 
ATOM     48  C   UNL A   1      40.743  25.162  28.360  1.00  0.00     0.029 A 
ATOM     49  C   UNL A   1      41.316  26.398  28.864  1.00  0.00     0.049 A 
ATOM     50  H   UNL A   1      43.326  26.982  28.752  1.00  0.00     0.167 HD
ATOM     51  C   UNL A   1      47.111  28.636  27.438  1.00  0.00     0.037 A 
ATOM     52  C   UNL A   1      40.718  27.415  29.529  1.00  0.00     0.037 A 
ATOM     53  C   UNL A   1      47.218  28.351  28.843  1.00  0.00     0.049 A 
ATOM     54  C   UNL A   1      41.764  28.173  30.250  1.00  0.00     0.074 A 
ATOM     55  C   UNL A   1      48.096  27.701  29.680  1.00  0.00     0.029 A 
ATOM     56  N   UNL A   1      46.043  28.502  29.523  1.00  0.00    -0.354 N 
ATOM     57  N   UNL A   1      42.451  27.686  31.246  1.00  0.00    -0.248 NA
ATOM     58  C   UNL A   1      42.281  29.411  29.677  1.00  0.00     0.031 C 
ATOM     59  C   UNL A   1      47.363  27.377  30.863  1.00  0.00     0.029 A 
ATOM     60  C   UNL A   1      46.067  27.864  30.733  1.00  0.00     0.049 A 
ATOM     61  H   UNL A   1      45.272  29.010  29.184  1.00  0.00     0.167 HD
ATOM     62  C   UNL A   1      43.679  28.299  31.134  1.00  0.00     0.074 A 
ATOM     63  C   UNL A   1      43.463  29.468  30.294  1.00  0.00     0.031 C 
ATOM     64  C   UNL A   1      44.825  27.623  31.426  1.00  0.00     0.037 A 
BRANCH  51  65
ATOM     65  C   UNL A   1      47.118  30.067  26.946  1.00  0.00     0.064 A 
ATOM     66  C   UNL A   1      48.299  30.832  27.045  1.00  0.00     0.173 A 
ATOM     67  C   UNL A   1      45.941  30.803  26.683  1.00  0.00     0.173 A 
ATOM     68  F   UNL A   1      49.470  30.244  27.334  1.00  0.00    -0.203 F 
ATOM     69  C   UNL A   1      48.290  32.226  26.928  1.00  0.00     0.198 A 
ATOM     70  C   UNL A   1      45.945  32.187  26.517  1.00  0.00     0.198 A 
ATOM     71  F   UNL A   1      44.731  30.229  26.695  1.00  0.00    -0.203 F 
ATOM     72  F   UNL A   1      49.419  32.920  27.134  1.00  0.00    -0.200 F 
ATOM     73  C   UNL A   1      47.114  32.902  26.663  1.00  0.00     0.200 A 
ATOM     74  F   UNL A   1      44.787  32.826  26.292  1.00  0.00    -0.200 F 
ATOM     75  F   UNL A   1      47.094  34.240  26.597  1.00  0.00    -0.200 F 
ENDBRANCH  51  65
BRANCH  52  76
ATOM     76  C   UNL A   1      39.347  27.957  29.359  1.00  0.00     0.064 A 
ATOM     77  C   UNL A   1      38.506  28.144  30.470  1.00  0.00     0.173 A 
ATOM     78  C   UNL A   1      38.965  28.601  28.167  1.00  0.00     0.173 A 
ATOM     79  F   UNL A   1      38.814  27.588  31.651  1.00  0.00    -0.203 F 
ATOM     80  C   UNL A   1      37.387  28.979  30.410  1.00  0.00     0.198 A 
ATOM     81  C   UNL A   1      37.843  29.429  28.107  1.00  0.00     0.198 A 
ATOM     82  F   UNL A   1      39.731  28.526  27.069  1.00  0.00    -0.203 F 
ATOM     83  F   UNL A   1      36.660  29.202  31.513  1.00  0.00    -0.200 F 
ATOM     84  C   UNL A   1      37.068  29.637  29.234  1.00  0.00     0.200 A 
ATOM     85  F   UNL A   1      37.562  30.085  26.972  1.00  0.00    -0.200 F 
ATOM     86  F   UNL A   1      36.045  30.502  29.197  1.00  0.00    -0.200 F 
ENDBRANCH  52  76
BRANCH  64  87
ATOM     87  C   UNL A   1      44.729  26.478  32.380  1.00  0.00     0.064 A 
ATOM     88  C   UNL A   1      44.516  25.143  32.004  1.00  0.00     0.173 A 
ATOM     89  C   UNL A   1      44.908  26.749  33.744  1.00  0.00     0.173 A 
ATOM     90  F   UNL A   1      44.409  24.798  30.714  1.00  0.00    -0.203 F 
ATOM     91  C   UNL A   1      44.441  24.131  32.961  1.00  0.00     0.198 A 
ATOM     92  C   UNL A   1      44.869  25.732  34.692  1.00  0.00     0.198 A 
ATOM     93  F   UNL A   1      45.149  28.003  34.154  1.00  0.00    -0.203 F 
ATOM     94  F   UNL A   1      44.212  22.864  32.584  1.00  0.00    -0.200 F 
ATOM     95  C   UNL A   1      44.624  24.426  34.303  1.00  0.00     0.200 A 
ATOM     96  F   UNL A   1      45.086  26.020  35.983  1.00  0.00    -0.200 F 
ATOM     97  F   UNL A   1      44.583  23.450  35.220  1.00  0.00    -0.200 F 
ENDBRANCH  64  87
ENDBRANCH  38  39
ENDBRANCH  30  33
ENDBRANCH  28  29
ENDBRANCH  27  28
ENDBRANCH  26  27
ENDBRANCH   1  26
TORSDOF 15
ENDMDL
