MODEL 1
REMARK VINA RESULT:     -13.4      0.000      0.000
REMARK SMILES O=C(NCCCCCCNC(=O)[C@H]1CC2=c3ccccc3=N[C@H]2[C@H](c2ccccc2F)[NH2+]1)c1ccc(-c2c3nc(c(-c4c(F)c(F)c(F)c(F)c4F)c4ccc([nH]4)c(-c4c(F)c(F)c(F)c(F)c4F)c4nc(c(-c5c(F)c(F)c(F)c(F)c5F)c5ccc2[nH]5)C=C4)C=C3)cc1
REMARK SMILES IDX 6 1 5 2 4 3 3 4 1 5 2 6 33 8 34 9 95 10 35 11 94 12 36 13
REMARK SMILES IDX 37 14 38 15 88 16 39 17 93 18 87 19 89 20 40 21 92 22 86 23
REMARK SMILES IDX 85 24 41 26 73 27 53 28 72 29 54 30 57 31 71 32 90 33 55 34
REMARK SMILES IDX 56 35 70 37 91 38 58 39 42 40 43 41 51 42 44 43 45 44 49 45
REMARK SMILES IDX 52 46 46 47 47 48 50 49 48 50 74 51 75 52 83 53 76 54 77 55
REMARK SMILES IDX 81 56 84 57 78 58 79 59 82 60 80 61 59 62 60 63 68 64 61 65
REMARK SMILES IDX 62 66 66 67 69 68 63 69 64 70 67 71 65 72 7 73 8 74 9 75
REMARK SMILES IDX 10 76 11 77 12 79 13 80 14 81 32 82 15 83 24 84 16 87 23 88
REMARK SMILES IDX 17 89 21 90 22 91 18 92 20 93 19 94 25 95 26 96 30 97 27 98
REMARK SMILES IDX 29 99 31 100 28 101
REMARK H PARENT 3 7 89 25 57 36 10 78 32 85 32 86
REMARK Flexibility Score: inf
ROOT
ATOM      1  C   UNL A   1      31.524  30.251  25.881  1.00  0.00     0.002 C 
ENDROOT
BRANCH   1   2
ATOM      2  C   UNL A   1      31.391  31.640  26.511  1.00  0.00     0.021 C 
BRANCH   2   3
ATOM      3  C   UNL A   1      32.699  32.267  26.984  1.00  0.00     0.116 C 
BRANCH   3   4
ATOM      4  N   UNL A   1      32.526  33.640  27.420  1.00  0.00    -0.352 N 
ATOM      5  O   UNL A   1      32.746  35.441  28.750  1.00  0.00    -0.269 OA
ATOM      6  C   UNL A   1      33.160  34.327  28.418  1.00  0.00     0.251 C 
ATOM      7  H   UNL A   1      31.848  34.153  26.924  1.00  0.00     0.163 HD
BRANCH   6   8
ATOM      8  C   UNL A   1      34.332  33.753  29.113  1.00  0.00     0.039 A 
ATOM      9  C   UNL A   1      35.603  34.218  28.767  1.00  0.00     0.014 A 
ATOM     10  C   UNL A   1      34.197  32.716  30.043  1.00  0.00     0.014 A 
ATOM     11  C   UNL A   1      36.735  33.658  29.361  1.00  0.00     0.010 A 
ATOM     12  C   UNL A   1      35.324  32.202  30.685  1.00  0.00     0.010 A 
ATOM     13  C   UNL A   1      36.605  32.650  30.330  1.00  0.00    -0.014 A 
BRANCH  13  14
ATOM     14  C   UNL A   1      37.810  32.018  30.923  1.00  0.00     0.031 A 
ATOM     15  C   UNL A   1      38.246  32.390  32.313  1.00  0.00     0.074 A 
ATOM     16  C   UNL A   1      38.507  31.107  30.216  1.00  0.00     0.049 A 
ATOM     17  N   UNL A   1      39.262  31.943  33.008  1.00  0.00    -0.248 NA
ATOM     18  C   UNL A   1      37.449  33.411  33.012  1.00  0.00     0.031 C 
ATOM     19  C   UNL A   1      38.201  30.685  28.849  1.00  0.00     0.029 A 
ATOM     20  N   UNL A   1      39.611  30.364  30.555  1.00  0.00    -0.354 N 
ATOM     21  C   UNL A   1      39.227  32.632  34.214  1.00  0.00     0.074 A 
ATOM     22  C   UNL A   1      38.126  33.564  34.141  1.00  0.00     0.031 C 
ATOM     23  C   UNL A   1      39.070  29.732  28.479  1.00  0.00     0.029 A 
ATOM     24  C   UNL A   1      40.011  29.492  29.570  1.00  0.00     0.049 A 
ATOM     25  H   UNL A   1      40.072  30.447  31.420  1.00  0.00     0.167 HD
ATOM     26  C   UNL A   1      40.023  32.477  35.297  1.00  0.00     0.037 A 
ATOM     27  C   UNL A   1      41.017  28.595  29.556  1.00  0.00     0.037 A 
ATOM     28  C   UNL A   1      41.089  31.515  35.388  1.00  0.00     0.049 A 
ATOM     29  C   UNL A   1      41.883  28.440  30.777  1.00  0.00     0.074 A 
ATOM     30  C   UNL A   1      41.920  31.252  36.463  1.00  0.00     0.029 A 
ATOM     31  N   UNL A   1      41.459  30.651  34.370  1.00  0.00    -0.354 N 
ATOM     32  N   UNL A   1      41.808  29.065  31.926  1.00  0.00    -0.248 NA
ATOM     33  C   UNL A   1      42.971  27.453  30.702  1.00  0.00     0.031 C 
ATOM     34  C   UNL A   1      42.815  30.248  36.084  1.00  0.00     0.029 A 
ATOM     35  C   UNL A   1      42.515  29.861  34.788  1.00  0.00     0.049 A 
ATOM     36  H   UNL A   1      41.035  30.606  33.483  1.00  0.00     0.167 HD
ATOM     37  C   UNL A   1      42.814  28.529  32.718  1.00  0.00     0.074 A 
ATOM     38  C   UNL A   1      43.483  27.522  31.923  1.00  0.00     0.031 C 
ATOM     39  C   UNL A   1      43.152  28.845  33.991  1.00  0.00     0.037 A 
BRANCH  26  40
ATOM     40  C   UNL A   1      39.762  33.341  36.493  1.00  0.00     0.064 A 
ATOM     41  C   UNL A   1      40.381  34.591  36.637  1.00  0.00     0.173 A 
ATOM     42  C   UNL A   1      38.818  32.958  37.458  1.00  0.00     0.173 A 
ATOM     43  F   UNL A   1      41.298  34.996  35.746  1.00  0.00    -0.203 F 
ATOM     44  C   UNL A   1      40.072  35.424  37.709  1.00  0.00     0.198 A 
ATOM     45  C   UNL A   1      38.493  33.804  38.515  1.00  0.00     0.198 A 
ATOM     46  F   UNL A   1      38.195  31.774  37.362  1.00  0.00    -0.203 F 
ATOM     47  F   UNL A   1      40.694  36.603  37.840  1.00  0.00    -0.200 F 
ATOM     48  C   UNL A   1      39.120  35.034  38.641  1.00  0.00     0.200 A 
ATOM     49  F   UNL A   1      37.565  33.433  39.408  1.00  0.00    -0.200 F 
ATOM     50  F   UNL A   1      38.809  35.846  39.660  1.00  0.00    -0.200 F 
ENDBRANCH  26  40
BRANCH  27  51
ATOM     51  C   UNL A   1      41.226  27.739  28.360  1.00  0.00     0.064 A 
ATOM     52  C   UNL A   1      42.089  28.143  27.332  1.00  0.00     0.173 A 
ATOM     53  C   UNL A   1      40.579  26.503  28.223  1.00  0.00     0.173 A 
ATOM     54  F   UNL A   1      42.714  29.327  27.410  1.00  0.00    -0.203 F 
ATOM     55  C   UNL A   1      42.286  27.349  26.205  1.00  0.00     0.198 A 
ATOM     56  C   UNL A   1      40.797  25.698  27.106  1.00  0.00     0.198 A 
ATOM     57  F   UNL A   1      39.747  26.070  29.181  1.00  0.00    -0.203 F 
ATOM     58  F   UNL A   1      43.088  27.775  25.219  1.00  0.00    -0.200 F 
ATOM     59  C   UNL A   1      41.645  26.124  26.095  1.00  0.00     0.200 A 
ATOM     60  F   UNL A   1      40.185  24.510  27.010  1.00  0.00    -0.200 F 
ATOM     61  F   UNL A   1      41.840  25.357  25.014  1.00  0.00    -0.200 F 
ENDBRANCH  27  51
BRANCH  39  62
ATOM     62  C   UNL A   1      44.275  28.085  34.629  1.00  0.00     0.064 A 
ATOM     63  C   UNL A   1      45.588  28.573  34.609  1.00  0.00     0.173 A 
ATOM     64  C   UNL A   1      44.012  26.917  35.361  1.00  0.00     0.173 A 
ATOM     65  F   UNL A   1      45.886  29.681  33.915  1.00  0.00    -0.203 F 
ATOM     66  C   UNL A   1      46.602  27.917  35.302  1.00  0.00     0.198 A 
ATOM     67  C   UNL A   1      45.024  26.277  36.070  1.00  0.00     0.198 A 
ATOM     68  F   UNL A   1      42.768  26.419  35.416  1.00  0.00    -0.203 F 
ATOM     69  F   UNL A   1      47.854  28.391  35.259  1.00  0.00    -0.200 F 
ATOM     70  C   UNL A   1      46.317  26.777  36.039  1.00  0.00     0.200 A 
ATOM     71  F   UNL A   1      44.745  25.185  36.795  1.00  0.00    -0.200 F 
ATOM     72  F   UNL A   1      47.290  26.161  36.725  1.00  0.00    -0.200 F 
ENDBRANCH  39  62
ENDBRANCH  13  14
ENDBRANCH   6   8
ENDBRANCH   3   4
ENDBRANCH   2   3
ENDBRANCH   1   2
BRANCH   1  73
ATOM     73  C   UNL A   1      32.269  29.212  26.725  1.00  0.00     0.002 C 
BRANCH  73  74
ATOM     74  C   UNL A   1      31.422  28.022  27.184  1.00  0.00     0.021 C 
BRANCH  74  75
ATOM     75  C   UNL A   1      31.716  26.720  26.444  1.00  0.00     0.116 C 
BRANCH  75  76
ATOM     76  N   UNL A   1      30.985  25.622  27.036  1.00  0.00    -0.351 N 
ATOM     77  C   UNL A   1      30.651  24.399  26.541  1.00  0.00     0.278 C 
ATOM     78  H   UNL A   1      30.675  25.789  27.955  1.00  0.00     0.163 HD
ATOM     79  O   UNL A   1      29.853  23.732  27.208  1.00  0.00    -0.268 OA
BRANCH  77  80
ATOM     80  C   UNL A   1      31.214  23.860  25.208  1.00  0.00     0.277 C 
ATOM     81  C   UNL A   1      30.624  24.562  23.961  1.00  0.00     0.109 C 
ATOM     82  N   UNL A   1      32.703  23.754  25.286  1.00  0.00    -0.327 N 
ATOM     83  C   UNL A   1      31.710  25.193  23.161  1.00  0.00    -0.024 C 
ATOM     84  C   UNL A   1      33.314  23.341  23.995  1.00  0.00     0.246 C 
ATOM     85  H   UNL A   1      32.946  23.065  25.997  1.00  0.00     0.347 HD
ATOM     86  H   UNL A   1      33.067  24.678  25.518  1.00  0.00     0.347 HD
ATOM     87  C   UNL A   1      31.871  26.459  22.794  1.00  0.00     0.002 A 
ATOM     88  C   UNL A   1      32.939  24.379  22.866  1.00  0.00     0.196 C 
ATOM     89  C   UNL A   1      31.057  27.629  22.821  1.00  0.00     0.010 A 
ATOM     90  C   UNL A   1      33.322  26.515  22.540  1.00  0.00     0.066 A 
ATOM     91  N   UNL A   1      34.003  25.410  22.640  1.00  0.00    -0.270 NA
ATOM     92  C   UNL A   1      31.630  28.816  22.569  1.00  0.00     0.001 A 
ATOM     93  C   UNL A   1      33.880  27.864  22.288  1.00  0.00     0.028 A 
ATOM     94  C   UNL A   1      33.056  28.927  22.309  1.00  0.00     0.002 A 
BRANCH  84  95
ATOM     95  C   UNL A   1      33.016  21.879  23.611  1.00  0.00     0.048 A 
ATOM     96  C   UNL A   1      32.332  21.581  22.415  1.00  0.00     0.013 A 
ATOM     97  C   UNL A   1      33.431  20.777  24.379  1.00  0.00     0.132 A 
ATOM     98  C   UNL A   1      31.946  20.274  22.096  1.00  0.00     0.001 A 
ATOM     99  C   UNL A   1      33.040  19.473  24.073  1.00  0.00     0.040 A 
ATOM    100  F   UNL A   1      34.215  20.929  25.454  1.00  0.00    -0.206 F 
ATOM    101  C   UNL A   1      32.273  19.222  22.943  1.00  0.00     0.003 A 
ENDBRANCH  84  95
ENDBRANCH  77  80
ENDBRANCH  75  76
ENDBRANCH  74  75
ENDBRANCH  73  74
ENDBRANCH   1  73
TORSDOF 14
ENDMDL
MODEL 2
REMARK VINA RESULT:     -13.3      1.154      2.093
REMARK SMILES O=C(NCCCCCCNC(=O)[C@H]1CC2=c3ccccc3=N[C@H]2[C@H](c2ccccc2F)[NH2+]1)c1ccc(-c2c3nc(c(-c4c(F)c(F)c(F)c(F)c4F)c4ccc([nH]4)c(-c4c(F)c(F)c(F)c(F)c4F)c4nc(c(-c5c(F)c(F)c(F)c(F)c5F)c5ccc2[nH]5)C=C4)C=C3)cc1
REMARK SMILES IDX 6 1 5 2 4 3 3 4 1 5 2 6 33 8 34 9 95 10 35 11 94 12 36 13
REMARK SMILES IDX 37 14 38 15 88 16 39 17 93 18 87 19 89 20 40 21 92 22 86 23
REMARK SMILES IDX 85 24 41 26 73 27 53 28 72 29 54 30 57 31 71 32 90 33 55 34
REMARK SMILES IDX 56 35 70 37 91 38 58 39 42 40 43 41 51 42 44 43 45 44 49 45
REMARK SMILES IDX 52 46 46 47 47 48 50 49 48 50 74 51 75 52 83 53 76 54 77 55
REMARK SMILES IDX 81 56 84 57 78 58 79 59 82 60 80 61 59 62 60 63 68 64 61 65
REMARK SMILES IDX 62 66 66 67 69 68 63 69 64 70 67 71 65 72 7 73 8 74 9 75
REMARK SMILES IDX 10 76 11 77 12 79 13 80 14 81 32 82 15 83 24 84 16 87 23 88
REMARK SMILES IDX 17 89 21 90 22 91 18 92 20 93 19 94 25 95 26 96 30 97 27 98
REMARK SMILES IDX 29 99 31 100 28 101
REMARK H PARENT 3 7 89 25 57 36 10 78 32 85 32 86
REMARK Flexibility Score: inf
ROOT
ATOM      1  C   UNL A   1      33.352  28.676  25.403  1.00  0.00     0.002 C 
ENDROOT
BRANCH   1   2
ATOM      2  C   UNL A   1      32.658  30.041  25.431  1.00  0.00     0.021 C 
BRANCH   2   3
ATOM      3  C   UNL A   1      32.295  30.558  26.820  1.00  0.00     0.116 C 
BRANCH   3   4
ATOM      4  N   UNL A   1      32.318  32.006  26.892  1.00  0.00    -0.352 N 
ATOM      5  O   UNL A   1      32.948  34.041  27.616  1.00  0.00    -0.269 OA
ATOM      6  C   UNL A   1      33.200  32.837  27.527  1.00  0.00     0.251 C 
ATOM      7  H   UNL A   1      31.586  32.460  26.414  1.00  0.00     0.163 HD
BRANCH   6   8
ATOM      8  C   UNL A   1      34.451  32.312  28.114  1.00  0.00     0.039 A 
ATOM      9  C   UNL A   1      34.447  31.018  28.640  1.00  0.00     0.014 A 
ATOM     10  C   UNL A   1      35.601  33.104  28.216  1.00  0.00     0.014 A 
ATOM     11  C   UNL A   1      35.593  30.511  29.253  1.00  0.00     0.010 A 
ATOM     12  C   UNL A   1      36.767  32.573  28.769  1.00  0.00     0.010 A 
ATOM     13  C   UNL A   1      36.766  31.282  29.317  1.00  0.00    -0.014 A 
BRANCH  13  14
ATOM     14  C   UNL A   1      37.968  30.764  30.016  1.00  0.00     0.031 A 
ATOM     15  C   UNL A   1      38.228  31.149  31.447  1.00  0.00     0.074 A 
ATOM     16  C   UNL A   1      38.820  29.944  29.371  1.00  0.00     0.049 A 
ATOM     17  N   UNL A   1      39.214  30.794  32.232  1.00  0.00    -0.248 NA
ATOM     18  C   UNL A   1      37.266  32.068  32.076  1.00  0.00     0.031 C 
ATOM     19  C   UNL A   1      38.691  29.523  27.975  1.00  0.00     0.029 A 
ATOM     20  N   UNL A   1      39.958  29.311  29.806  1.00  0.00    -0.354 N 
ATOM     21  C   UNL A   1      38.993  31.449  33.437  1.00  0.00     0.074 A 
ATOM     22  C   UNL A   1      37.813  32.265  33.268  1.00  0.00     0.031 C 
ATOM     23  C   UNL A   1      39.686  28.671  27.680  1.00  0.00     0.029 A 
ATOM     24  C   UNL A   1      40.538  28.506  28.855  1.00  0.00     0.049 A 
ATOM     25  H   UNL A   1      40.323  29.422  30.713  1.00  0.00     0.167 HD
ATOM     26  C   UNL A   1      39.694  31.353  34.590  1.00  0.00     0.037 A 
ATOM     27  C   UNL A   1      41.628  27.717  28.929  1.00  0.00     0.037 A 
ATOM     28  C   UNL A   1      40.840  30.503  34.773  1.00  0.00     0.049 A 
ATOM     29  C   UNL A   1      42.385  27.625  30.227  1.00  0.00     0.074 A 
ATOM     30  C   UNL A   1      41.588  30.304  35.920  1.00  0.00     0.029 A 
ATOM     31  N   UNL A   1      41.393  29.704  33.786  1.00  0.00    -0.354 N 
ATOM     32  N   UNL A   1      42.137  28.214  31.370  1.00  0.00    -0.248 NA
ATOM     33  C   UNL A   1      43.572  26.756  30.246  1.00  0.00     0.031 C 
ATOM     34  C   UNL A   1      42.614  29.405  35.619  1.00  0.00     0.029 A 
ATOM     35  C   UNL A   1      42.481  29.017  34.296  1.00  0.00     0.049 A 
ATOM     36  H   UNL A   1      41.063  29.634  32.861  1.00  0.00     0.167 HD
ATOM     37  C   UNL A   1      43.112  27.767  32.250  1.00  0.00     0.074 A 
ATOM     38  C   UNL A   1      43.955  26.851  31.512  1.00  0.00     0.031 C 
ATOM     39  C   UNL A   1      43.293  28.089  33.553  1.00  0.00     0.037 A 
BRANCH  26  40
ATOM     40  C   UNL A   1      39.231  32.160  35.765  1.00  0.00     0.064 A 
ATOM     41  C   UNL A   1      38.359  31.620  36.721  1.00  0.00     0.173 A 
ATOM     42  C   UNL A   1      39.733  33.452  35.986  1.00  0.00     0.173 A 
ATOM     43  F   UNL A   1      37.844  30.393  36.548  1.00  0.00    -0.203 F 
ATOM     44  C   UNL A   1      37.998  32.347  37.852  1.00  0.00     0.198 A 
ATOM     45  C   UNL A   1      39.389  34.166  37.130  1.00  0.00     0.198 A 
ATOM     46  F   UNL A   1      40.574  34.010  35.103  1.00  0.00    -0.203 F 
ATOM     47  F   UNL A   1      37.144  31.820  38.740  1.00  0.00    -0.200 F 
ATOM     48  C   UNL A   1      38.522  33.614  38.061  1.00  0.00     0.200 A 
ATOM     49  F   UNL A   1      39.905  35.385  37.338  1.00  0.00    -0.200 F 
ATOM     50  F   UNL A   1      38.190  34.304  39.161  1.00  0.00    -0.200 F 
ENDBRANCH  26  40
BRANCH  27  51
ATOM     51  C   UNL A   1      42.039  26.912  27.749  1.00  0.00     0.064 A 
ATOM     52  C   UNL A   1      42.987  27.403  26.842  1.00  0.00     0.173 A 
ATOM     53  C   UNL A   1      41.501  25.640  27.508  1.00  0.00     0.173 A 
ATOM     54  F   UNL A   1      43.514  28.624  27.020  1.00  0.00    -0.203 F 
ATOM     55  C   UNL A   1      43.373  26.658  25.730  1.00  0.00     0.198 A 
ATOM     56  C   UNL A   1      41.907  24.885  26.410  1.00  0.00     0.198 A 
ATOM     57  F   UNL A   1      40.593  25.124  28.349  1.00  0.00    -0.203 F 
ATOM     58  F   UNL A   1      44.255  27.166  24.859  1.00  0.00    -0.200 F 
ATOM     59  C   UNL A   1      42.837  25.397  25.518  1.00  0.00     0.200 A 
ATOM     60  F   UNL A   1      41.396  23.662  26.215  1.00  0.00    -0.200 F 
ATOM     61  F   UNL A   1      43.214  24.676  24.453  1.00  0.00    -0.200 F 
ENDBRANCH  27  51
BRANCH  39  62
ATOM     62  C   UNL A   1      44.422  27.434  34.288  1.00  0.00     0.064 A 
ATOM     63  C   UNL A   1      44.264  26.185  34.902  1.00  0.00     0.173 A 
ATOM     64  C   UNL A   1      45.700  28.012  34.282  1.00  0.00     0.173 A 
ATOM     65  F   UNL A   1      43.057  25.599  34.940  1.00  0.00    -0.203 F 
ATOM     66  C   UNL A   1      45.348  25.534  35.485  1.00  0.00     0.198 A 
ATOM     67  C   UNL A   1      46.787  27.349  34.845  1.00  0.00     0.198 A 
ATOM     68  F   UNL A   1      45.901  29.202  33.697  1.00  0.00    -0.203 F 
ATOM     69  F   UNL A   1      45.174  24.347  36.079  1.00  0.00    -0.200 F 
ATOM     70  C   UNL A   1      46.609  26.112  35.446  1.00  0.00     0.200 A 
ATOM     71  F   UNL A   1      48.007  27.900  34.794  1.00  0.00    -0.200 F 
ATOM     72  F   UNL A   1      47.656  25.472  35.985  1.00  0.00    -0.200 F 
ENDBRANCH  39  62
ENDBRANCH  13  14
ENDBRANCH   6   8
ENDBRANCH   3   4
ENDBRANCH   2   3
ENDBRANCH   1   2
BRANCH   1  73
ATOM     73  C   UNL A   1      33.085  27.776  26.613  1.00  0.00     0.002 C 
BRANCH  73  74
ATOM     74  C   UNL A   1      32.684  26.338  26.275  1.00  0.00     0.021 C 
BRANCH  74  75
ATOM     75  C   UNL A   1      31.180  26.123  26.128  1.00  0.00     0.116 C 
BRANCH  75  76
ATOM     76  N   UNL A   1      30.746  25.001  26.927  1.00  0.00    -0.351 N 
ATOM     77  C   UNL A   1      30.686  23.670  26.646  1.00  0.00     0.278 C 
ATOM     78  H   UNL A   1      30.439  25.240  27.832  1.00  0.00     0.163 HD
ATOM     79  O   UNL A   1      30.088  22.959  27.460  1.00  0.00    -0.268 OA
BRANCH  77  80
ATOM     80  C   UNL A   1      31.309  23.062  25.370  1.00  0.00     0.277 C 
ATOM     81  C   UNL A   1      30.693  23.612  24.061  1.00  0.00     0.109 C 
ATOM     82  N   UNL A   1      32.801  23.071  25.475  1.00  0.00    -0.327 N 
ATOM     83  C   UNL A   1      31.746  24.249  23.223  1.00  0.00    -0.024 C 
ATOM     84  C   UNL A   1      33.463  22.595  24.232  1.00  0.00     0.246 C 
ATOM     85  H   UNL A   1      33.079  22.463  26.245  1.00  0.00     0.347 HD
ATOM     86  H   UNL A   1      33.094  24.035  25.631  1.00  0.00     0.347 HD
ATOM     87  C   UNL A   1      31.824  25.488  22.751  1.00  0.00     0.002 A 
ATOM     88  C   UNL A   1      33.035  23.504  23.014  1.00  0.00     0.196 C 
ATOM     89  C   UNL A   1      30.929  26.595  22.668  1.00  0.00     0.010 A 
ATOM     90  C   UNL A   1      33.273  25.627  22.510  1.00  0.00     0.066 A 
ATOM     91  N   UNL A   1      34.027  24.586  22.713  1.00  0.00    -0.270 NA
ATOM     92  C   UNL A   1      31.421  27.794  22.322  1.00  0.00     0.001 A 
ATOM     93  C   UNL A   1      33.738  26.986  22.150  1.00  0.00     0.028 A 
ATOM     94  C   UNL A   1      32.841  27.985  22.069  1.00  0.00     0.002 A 
BRANCH  84  95
ATOM     95  C   UNL A   1      33.275  21.088  23.971  1.00  0.00     0.048 A 
ATOM     96  C   UNL A   1      32.428  20.644  22.936  1.00  0.00     0.013 A 
ATOM     97  C   UNL A   1      33.948  20.088  24.694  1.00  0.00     0.132 A 
ATOM     98  C   UNL A   1      32.149  19.284  22.749  1.00  0.00     0.001 A 
ATOM     99  C   UNL A   1      33.666  18.733  24.520  1.00  0.00     0.040 A 
ATOM    100  F   UNL A   1      34.889  20.391  25.598  1.00  0.00    -0.206 F 
ATOM    101  C   UNL A   1      32.744  18.329  23.563  1.00  0.00     0.003 A 
ENDBRANCH  84  95
ENDBRANCH  77  80
ENDBRANCH  75  76
ENDBRANCH  74  75
ENDBRANCH  73  74
ENDBRANCH   1  73
TORSDOF 14
ENDMDL
MODEL 3
REMARK VINA RESULT:     -13.0      1.931      3.582
REMARK SMILES O=C(NCCCCCCNC(=O)[C@H]1CC2=c3ccccc3=N[C@H]2[C@H](c2ccccc2F)[NH2+]1)c1ccc(-c2c3nc(c(-c4c(F)c(F)c(F)c(F)c4F)c4ccc([nH]4)c(-c4c(F)c(F)c(F)c(F)c4F)c4nc(c(-c5c(F)c(F)c(F)c(F)c5F)c5ccc2[nH]5)C=C4)C=C3)cc1
REMARK SMILES IDX 6 1 5 2 4 3 3 4 1 5 2 6 33 8 34 9 95 10 35 11 94 12 36 13
REMARK SMILES IDX 37 14 38 15 88 16 39 17 93 18 87 19 89 20 40 21 92 22 86 23
REMARK SMILES IDX 85 24 41 26 73 27 53 28 72 29 54 30 57 31 71 32 90 33 55 34
REMARK SMILES IDX 56 35 70 37 91 38 58 39 42 40 43 41 51 42 44 43 45 44 49 45
REMARK SMILES IDX 52 46 46 47 47 48 50 49 48 50 74 51 75 52 83 53 76 54 77 55
REMARK SMILES IDX 81 56 84 57 78 58 79 59 82 60 80 61 59 62 60 63 68 64 61 65
REMARK SMILES IDX 62 66 66 67 69 68 63 69 64 70 67 71 65 72 7 73 8 74 9 75
REMARK SMILES IDX 10 76 11 77 12 79 13 80 14 81 32 82 15 83 24 84 16 87 23 88
REMARK SMILES IDX 17 89 21 90 22 91 18 92 20 93 19 94 25 95 26 96 30 97 27 98
REMARK SMILES IDX 29 99 31 100 28 101
REMARK H PARENT 3 7 89 25 57 36 10 78 32 85 32 86
REMARK Flexibility Score: inf
ROOT
ATOM      1  C   UNL A   1      34.380  33.394  28.012  1.00  0.00     0.002 C 
ENDROOT
BRANCH   1   2
ATOM      2  C   UNL A   1      33.086  34.187  28.215  1.00  0.00     0.021 C 
BRANCH   2   3
ATOM      3  C   UNL A   1      33.270  35.611  28.731  1.00  0.00     0.116 C 
BRANCH   3   4
ATOM      4  N   UNL A   1      32.595  35.831  29.996  1.00  0.00    -0.352 N 
ATOM      5  O   UNL A   1      32.080  35.501  32.161  1.00  0.00    -0.269 OA
ATOM      6  C   UNL A   1      32.881  35.334  31.237  1.00  0.00     0.251 C 
ATOM      7  H   UNL A   1      31.812  36.427  29.953  1.00  0.00     0.163 HD
BRANCH   6   8
ATOM      8  C   UNL A   1      34.134  34.592  31.490  1.00  0.00     0.039 A 
ATOM      9  C   UNL A   1      34.053  33.341  32.106  1.00  0.00     0.014 A 
ATOM     10  C   UNL A   1      35.386  35.145  31.194  1.00  0.00     0.014 A 
ATOM     11  C   UNL A   1      35.218  32.637  32.411  1.00  0.00     0.010 A 
ATOM     12  C   UNL A   1      36.548  34.413  31.439  1.00  0.00     0.010 A 
ATOM     13  C   UNL A   1      36.476  33.164  32.074  1.00  0.00    -0.014 A 
BRANCH  13  14
ATOM     14  C   UNL A   1      37.718  32.441  32.447  1.00  0.00     0.031 A 
ATOM     15  C   UNL A   1      38.391  32.734  33.760  1.00  0.00     0.074 A 
ATOM     16  C   UNL A   1      38.235  31.518  31.613  1.00  0.00     0.049 A 
ATOM     17  N   UNL A   1      39.475  32.204  34.270  1.00  0.00    -0.248 NA
ATOM     18  C   UNL A   1      37.781  33.773  34.606  1.00  0.00     0.031 C 
ATOM     19  C   UNL A   1      37.690  31.167  30.301  1.00  0.00     0.029 A 
ATOM     20  N   UNL A   1      39.330  30.700  31.749  1.00  0.00    -0.354 N 
ATOM     21  C   UNL A   1      39.675  32.847  35.485  1.00  0.00     0.074 A 
ATOM     22  C   UNL A   1      38.637  33.844  35.616  1.00  0.00     0.031 C 
ATOM     23  C   UNL A   1      38.427  30.180  29.770  1.00  0.00     0.029 A 
ATOM     24  C   UNL A   1      39.512  29.845  30.688  1.00  0.00     0.049 A 
ATOM     25  H   UNL A   1      39.926  30.724  32.531  1.00  0.00     0.167 HD
ATOM     26  C   UNL A   1      40.621  32.605  36.421  1.00  0.00     0.037 A 
ATOM     27  C   UNL A   1      40.444  28.892  30.488  1.00  0.00     0.037 A 
ATOM     28  C   UNL A   1      41.625  31.580  36.312  1.00  0.00     0.049 A 
ATOM     29  C   UNL A   1      41.481  28.641  31.550  1.00  0.00     0.074 A 
ATOM     30  C   UNL A   1      42.598  31.229  37.232  1.00  0.00     0.029 A 
ATOM     31  N   UNL A   1      41.773  30.735  35.224  1.00  0.00    -0.354 N 
ATOM     32  N   UNL A   1      41.630  29.225  32.713  1.00  0.00    -0.248 NA
ATOM     33  C   UNL A   1      42.479  27.596  31.273  1.00  0.00     0.031 C 
ATOM     34  C   UNL A   1      43.356  30.190  36.687  1.00  0.00     0.029 A 
ATOM     35  C   UNL A   1      42.831  29.870  35.445  1.00  0.00     0.049 A 
ATOM     36  H   UNL A   1      41.212  30.749  34.416  1.00  0.00     0.167 HD
ATOM     37  C   UNL A   1      42.712  28.603  33.318  1.00  0.00     0.074 A 
ATOM     38  C   UNL A   1      43.182  27.589  32.397  1.00  0.00     0.031 C 
ATOM     39  C   UNL A   1      43.268  28.850  34.528  1.00  0.00     0.037 A 
BRANCH  26  40
ATOM     40  C   UNL A   1      40.608  33.437  37.667  1.00  0.00     0.064 A 
ATOM     41  C   UNL A   1      41.484  34.521  37.828  1.00  0.00     0.173 A 
ATOM     42  C   UNL A   1      39.654  33.207  38.670  1.00  0.00     0.173 A 
ATOM     43  F   UNL A   1      42.420  34.775  36.901  1.00  0.00    -0.203 F 
ATOM     44  C   UNL A   1      41.411  35.339  38.952  1.00  0.00     0.198 A 
ATOM     45  C   UNL A   1      39.568  34.041  39.780  1.00  0.00     0.198 A 
ATOM     46  F   UNL A   1      38.791  32.186  38.559  1.00  0.00    -0.203 F 
ATOM     47  F   UNL A   1      42.273  36.354  39.096  1.00  0.00    -0.200 F 
ATOM     48  C   UNL A   1      40.446  35.106  39.921  1.00  0.00     0.200 A 
ATOM     49  F   UNL A   1      38.628  33.823  40.710  1.00  0.00    -0.200 F 
ATOM     50  F   UNL A   1      40.364  35.907  40.992  1.00  0.00    -0.200 F 
ENDBRANCH  26  40
BRANCH  27  51
ATOM     51  C   UNL A   1      40.407  28.072  29.250  1.00  0.00     0.064 A 
ATOM     52  C   UNL A   1      41.152  28.440  28.123  1.00  0.00     0.173 A 
ATOM     53  C   UNL A   1      39.636  26.903  29.171  1.00  0.00     0.173 A 
ATOM     54  F   UNL A   1      41.888  29.562  28.145  1.00  0.00    -0.203 F 
ATOM     55  C   UNL A   1      41.118  27.680  26.956  1.00  0.00     0.198 A 
ATOM     56  C   UNL A   1      39.623  26.129  28.012  1.00  0.00     0.198 A 
ATOM     57  F   UNL A   1      38.909  26.504  30.224  1.00  0.00    -0.203 F 
ATOM     58  F   UNL A   1      41.812  28.075  25.880  1.00  0.00    -0.200 F 
ATOM     59  C   UNL A   1      40.358  26.521  26.904  1.00  0.00     0.200 A 
ATOM     60  F   UNL A   1      38.897  25.003  27.969  1.00  0.00    -0.200 F 
ATOM     61  F   UNL A   1      40.331  25.785  25.784  1.00  0.00    -0.200 F 
ENDBRANCH  27  51
BRANCH  39  62
ATOM     62  C   UNL A   1      44.426  28.003  34.956  1.00  0.00     0.064 A 
ATOM     63  C   UNL A   1      45.748  28.417  34.746  1.00  0.00     0.173 A 
ATOM     64  C   UNL A   1      44.210  26.822  35.681  1.00  0.00     0.173 A 
ATOM     65  F   UNL A   1      46.002  29.536  34.050  1.00  0.00    -0.203 F 
ATOM     66  C   UNL A   1      46.816  27.678  35.248  1.00  0.00     0.198 A 
ATOM     67  C   UNL A   1      45.278  26.097  36.200  1.00  0.00     0.198 A 
ATOM     68  F   UNL A   1      42.961  26.392  35.915  1.00  0.00    -0.203 F 
ATOM     69  F   UNL A   1      48.073  28.082  35.024  1.00  0.00    -0.200 F 
ATOM     70  C   UNL A   1      46.579  26.525  35.983  1.00  0.00     0.200 A 
ATOM     71  F   UNL A   1      45.049  24.992  36.923  1.00  0.00    -0.200 F 
ATOM     72  F   UNL A   1      47.607  25.828  36.486  1.00  0.00    -0.200 F 
ENDBRANCH  39  62
ENDBRANCH  13  14
ENDBRANCH   6   8
ENDBRANCH   3   4
ENDBRANCH   2   3
ENDBRANCH   1   2
BRANCH   1  73
ATOM     73  C   UNL A   1      34.401  31.994  28.631  1.00  0.00     0.002 C 
BRANCH  73  74
ATOM     74  C   UNL A   1      34.479  30.842  27.626  1.00  0.00     0.021 C 
BRANCH  74  75
ATOM     75  C   UNL A   1      33.138  30.454  27.009  1.00  0.00     0.116 C 
BRANCH  75  76
ATOM     76  N   UNL A   1      32.602  29.277  27.654  1.00  0.00    -0.351 N 
ATOM     77  C   UNL A   1      31.859  28.246  27.164  1.00  0.00     0.278 C 
ATOM     78  H   UNL A   1      32.809  29.209  28.614  1.00  0.00     0.163 HD
ATOM     79  O   UNL A   1      31.378  27.468  27.994  1.00  0.00    -0.268 OA
BRANCH  77  80
ATOM     80  C   UNL A   1      31.603  28.053  25.653  1.00  0.00     0.277 C 
ATOM     81  C   UNL A   1      32.887  27.743  24.845  1.00  0.00     0.109 C 
ATOM     82  N   UNL A   1      30.434  27.144  25.445  1.00  0.00    -0.327 N 
ATOM     83  C   UNL A   1      32.755  26.433  24.149  1.00  0.00    -0.024 C 
ATOM     84  C   UNL A   1      30.202  26.833  24.010  1.00  0.00     0.246 C 
ATOM     85  H   UNL A   1      29.599  27.593  25.820  1.00  0.00     0.347 HD
ATOM     86  H   UNL A   1      30.636  26.265  25.922  1.00  0.00     0.347 HD
ATOM     87  C   UNL A   1      33.518  25.349  24.227  1.00  0.00     0.002 A 
ATOM     88  C   UNL A   1      31.487  26.154  23.393  1.00  0.00     0.196 C 
ATOM     89  C   UNL A   1      34.791  25.049  24.794  1.00  0.00     0.010 A 
ATOM     90  C   UNL A   1      32.590  24.296  23.775  1.00  0.00     0.066 A 
ATOM     91  N   UNL A   1      31.407  24.658  23.370  1.00  0.00    -0.270 NA
ATOM     92  C   UNL A   1      35.169  23.764  24.882  1.00  0.00     0.001 A 
ATOM     93  C   UNL A   1      33.074  22.904  23.922  1.00  0.00     0.028 A 
ATOM     94  C   UNL A   1      34.294  22.687  24.448  1.00  0.00     0.002 A 
BRANCH  84  95
ATOM     95  C   UNL A   1      29.688  28.034  23.194  1.00  0.00     0.048 A 
ATOM     96  C   UNL A   1      30.577  28.797  22.410  1.00  0.00     0.013 A 
ATOM     97  C   UNL A   1      28.335  28.412  23.141  1.00  0.00     0.132 A 
ATOM     98  C   UNL A   1      30.161  29.960  21.749  1.00  0.00     0.001 A 
ATOM     99  C   UNL A   1      27.916  29.575  22.496  1.00  0.00     0.040 A 
ATOM    100  F   UNL A   1      27.379  27.675  23.724  1.00  0.00    -0.206 F 
ATOM    101  C   UNL A   1      28.835  30.367  21.819  1.00  0.00     0.003 A 
ENDBRANCH  84  95
ENDBRANCH  77  80
ENDBRANCH  75  76
ENDBRANCH  74  75
ENDBRANCH  73  74
ENDBRANCH   1  73
TORSDOF 14
ENDMDL
