MODEL 1
REMARK VINA RESULT:     -13.7      0.000      0.000
REMARK SMILES Cc1cnn(C2(C(=O)NCCCCCCNC(=O)c3ccc(-c4c5nc(c(-c6c(F)c(F)c(F)c(F)c6F)c6ccc([nH]6)c(-c6c(F)c(F)c(F)c(F)c6F)c6nc(c(-c7c(F)c(F)c(F)c(F)c7F)c7ccc4[nH]7)C=C6)C=C5)cc3)CCN(C(=O)c3cc4ccccc4[nH]3)CC2)c1
REMARK SMILES IDX 13 1 12 2 11 3 10 4 9 5 7 6 8 7 6 9 82 10 97 11 83 12 96 13
REMARK SMILES IDX 84 14 85 15 86 16 5 17 1 18 2 19 3 20 98 21 4 22 87 23 88 24
REMARK SMILES IDX 95 25 89 26 94 27 90 29 93 30 91 31 92 32 14 33 15 34 16 35
REMARK SMILES IDX 17 36 18 38 19 39 20 40 81 41 21 42 80 43 22 44 23 45 24 46
REMARK SMILES IDX 74 47 25 48 79 49 73 50 75 51 26 52 78 53 72 54 71 55 27 57
REMARK SMILES IDX 59 58 39 59 58 60 40 61 43 62 57 63 76 64 41 65 42 66 56 68
REMARK SMILES IDX 77 69 44 70 28 71 29 72 37 73 30 74 31 75 35 76 38 77 32 78
REMARK SMILES IDX 33 79 36 80 34 81 60 82 61 83 69 84 62 85 63 86 67 87 70 88
REMARK SMILES IDX 64 89 65 90 68 91 66 92 45 93 46 94 54 95 47 96 48 97 52 98
REMARK SMILES IDX 55 99 49 100 50 101 53 102 51 103
REMARK H PARENT 9 8 95 28 16 37 75 56 43 67
REMARK Flexibility Score: inf
ROOT
ATOM      1  C   UNL A   1      40.569  21.027  26.583  1.00  0.00     0.002 C 
ENDROOT
BRANCH   1   2
ATOM      2  C   UNL A   1      39.274  21.397  25.844  1.00  0.00     0.002 C 
BRANCH   2   3
ATOM      3  C   UNL A   1      38.639  22.739  26.232  1.00  0.00     0.021 C 
BRANCH   3   4
ATOM      4  C   UNL A   1      37.156  22.862  25.883  1.00  0.00     0.116 C 
BRANCH   4   5
ATOM      5  N   UNL A   1      36.968  22.992  24.449  1.00  0.00    -0.354 N 
ATOM      6  C   UNL A   1      35.862  23.027  23.639  1.00  0.00     0.248 C 
ATOM      7  O   UNL A   1      36.159  23.052  22.443  1.00  0.00    -0.272 OA
ATOM      8  H   UNL A   1      37.815  23.072  23.954  1.00  0.00     0.163 HD
BRANCH   6   9
ATOM      9  C   UNL A   1      34.406  23.057  24.229  1.00  0.00     0.144 C 
ATOM     10  C   UNL A   1      34.507  23.608  25.681  1.00  0.00     0.062 C 
ATOM     11  C   UNL A   1      33.562  23.916  23.246  1.00  0.00     0.062 C 
ATOM     12  C   UNL A   1      33.310  24.425  26.152  1.00  0.00     0.123 C 
ATOM     13  C   UNL A   1      32.382  24.644  23.870  1.00  0.00     0.123 C 
ATOM     14  N   UNL A   1      32.769  25.292  25.117  1.00  0.00    -0.337 N 
ATOM     15  C   UNL A   1      32.647  26.659  25.368  1.00  0.00     0.270 C 
ATOM     16  O   UNL A   1      33.282  27.208  26.266  1.00  0.00    -0.267 OA
BRANCH   9  17
ATOM     17  N   UNL A   1      33.749  21.711  24.311  1.00  0.00    -0.257 N 
ATOM     18  C   UNL A   1      32.968  18.437  25.764  1.00  0.00     0.048 C 
ATOM     19  C   UNL A   1      33.132  19.690  24.997  1.00  0.00    -0.013 A 
ATOM     20  C   UNL A   1      32.559  20.037  23.762  1.00  0.00     0.138 A 
ATOM     21  C   UNL A   1      33.883  20.793  25.330  1.00  0.00     0.113 A 
ATOM     22  N   UNL A   1      32.916  21.254  23.362  1.00  0.00    -0.180 NA
ENDBRANCH   9  17
BRANCH  15  23
ATOM     23  C   UNL A   1      31.787  27.419  24.494  1.00  0.00     0.105 A 
ATOM     24  C   UNL A   1      32.088  28.405  23.568  1.00  0.00     0.042 A 
ATOM     25  N   UNL A   1      30.433  27.202  24.413  1.00  0.00    -0.351 N 
ATOM     26  C   UNL A   1      30.871  28.849  22.982  1.00  0.00     0.000 A 
ATOM     27  C   UNL A   1      29.843  28.115  23.572  1.00  0.00     0.046 A 
ATOM     28  H   UNL A   1      29.951  26.490  24.893  1.00  0.00     0.167 HD
ATOM     29  C   UNL A   1      30.543  29.814  22.011  1.00  0.00     0.010 A 
ATOM     30  C   UNL A   1      28.493  28.331  23.278  1.00  0.00     0.026 A 
ATOM     31  C   UNL A   1      29.197  30.029  21.688  1.00  0.00     0.001 A 
ATOM     32  C   UNL A   1      28.190  29.308  22.325  1.00  0.00     0.002 A 
ENDBRANCH  15  23
ENDBRANCH   6   9
ENDBRANCH   4   5
ENDBRANCH   3   4
ENDBRANCH   2   3
ENDBRANCH   1   2
BRANCH   1  33
ATOM     33  C   UNL A   1      41.250  19.720  26.158  1.00  0.00     0.021 C 
BRANCH  33  34
ATOM     34  C   UNL A   1      42.643  19.530  26.736  1.00  0.00     0.116 C 
BRANCH  34  35
ATOM     35  N   UNL A   1      43.654  19.269  25.716  1.00  0.00    -0.352 N 
ATOM     36  C   UNL A   1      44.254  20.183  24.868  1.00  0.00     0.251 C 
ATOM     37  H   UNL A   1      43.945  18.333  25.620  1.00  0.00     0.163 HD
ATOM     38  O   UNL A   1      44.792  19.832  23.833  1.00  0.00    -0.269 OA
BRANCH  36  39
ATOM     39  C   UNL A   1      44.217  21.609  25.247  1.00  0.00     0.039 A 
ATOM     40  C   UNL A   1      43.313  22.490  24.654  1.00  0.00     0.014 A 
ATOM     41  C   UNL A   1      45.076  22.041  26.255  1.00  0.00     0.014 A 
ATOM     42  C   UNL A   1      43.218  23.786  25.155  1.00  0.00     0.010 A 
ATOM     43  C   UNL A   1      44.866  23.259  26.853  1.00  0.00     0.010 A 
ATOM     44  C   UNL A   1      43.971  24.158  26.285  1.00  0.00    -0.014 A 
BRANCH  44  45
ATOM     45  C   UNL A   1      43.739  25.446  26.940  1.00  0.00     0.031 A 
ATOM     46  C   UNL A   1      44.746  26.488  26.609  1.00  0.00     0.074 A 
ATOM     47  C   UNL A   1      42.646  25.741  27.680  1.00  0.00     0.049 A 
ATOM     48  N   UNL A   1      45.647  26.964  27.402  1.00  0.00    -0.248 NA
ATOM     49  C   UNL A   1      44.869  26.960  25.222  1.00  0.00     0.031 C 
ATOM     50  C   UNL A   1      41.449  24.917  27.896  1.00  0.00     0.029 A 
ATOM     51  N   UNL A   1      42.340  26.891  28.352  1.00  0.00    -0.354 N 
ATOM     52  C   UNL A   1      46.327  27.940  26.681  1.00  0.00     0.074 A 
ATOM     53  C   UNL A   1      45.916  27.788  25.309  1.00  0.00     0.031 C 
ATOM     54  C   UNL A   1      40.467  25.666  28.446  1.00  0.00     0.029 A 
ATOM     55  C   UNL A   1      41.026  26.955  28.803  1.00  0.00     0.049 A 
ATOM     56  H   UNL A   1      42.993  27.612  28.504  1.00  0.00     0.167 HD
ATOM     57  C   UNL A   1      46.967  28.948  27.337  1.00  0.00     0.037 A 
ATOM     58  C   UNL A   1      40.433  27.970  29.473  1.00  0.00     0.037 A 
ATOM     59  C   UNL A   1      47.069  28.652  28.744  1.00  0.00     0.049 A 
ATOM     60  C   UNL A   1      41.499  28.722  30.162  1.00  0.00     0.074 A 
ATOM     61  C   UNL A   1      47.858  27.863  29.549  1.00  0.00     0.029 A 
ATOM     62  N   UNL A   1      45.940  28.964  29.453  1.00  0.00    -0.354 N 
ATOM     63  N   UNL A   1      42.201  28.224  31.141  1.00  0.00    -0.248 NA
ATOM     64  C   UNL A   1      42.047  29.925  29.545  1.00  0.00     0.031 C 
ATOM     65  C   UNL A   1      47.074  27.567  30.706  1.00  0.00     0.029 A 
ATOM     66  C   UNL A   1      45.845  28.213  30.592  1.00  0.00     0.049 A 
ATOM     67  H   UNL A   1      45.282  29.643  29.179  1.00  0.00     0.167 HD
ATOM     68  C   UNL A   1      43.457  28.767  30.964  1.00  0.00     0.074 A 
ATOM     69  C   UNL A   1      43.259  29.930  30.108  1.00  0.00     0.031 C 
ATOM     70  C   UNL A   1      44.573  28.041  31.253  1.00  0.00     0.037 A 
BRANCH  57  71
ATOM     71  C   UNL A   1      47.066  30.380  26.860  1.00  0.00     0.064 A 
ATOM     72  C   UNL A   1      48.302  31.054  26.976  1.00  0.00     0.173 A 
ATOM     73  C   UNL A   1      45.944  31.204  26.634  1.00  0.00     0.173 A 
ATOM     74  F   UNL A   1      49.434  30.371  27.206  1.00  0.00    -0.203 F 
ATOM     75  C   UNL A   1      48.390  32.450  26.950  1.00  0.00     0.198 A 
ATOM     76  C   UNL A   1      46.044  32.594  26.562  1.00  0.00     0.198 A 
ATOM     77  F   UNL A   1      44.700  30.714  26.593  1.00  0.00    -0.203 F 
ATOM     78  F   UNL A   1      49.564  33.049  27.187  1.00  0.00    -0.200 F 
ATOM     79  C   UNL A   1      47.258  33.218  26.751  1.00  0.00     0.200 A 
ATOM     80  F   UNL A   1      44.932  33.324  26.392  1.00  0.00    -0.200 F 
ATOM     81  F   UNL A   1      47.326  34.555  26.790  1.00  0.00    -0.200 F 
ENDBRANCH  57  71
BRANCH  58  82
ATOM     82  C   UNL A   1      39.027  28.421  29.445  1.00  0.00     0.064 A 
ATOM     83  C   UNL A   1      38.269  28.549  30.619  1.00  0.00     0.173 A 
ATOM     84  C   UNL A   1      38.500  29.019  28.285  1.00  0.00     0.173 A 
ATOM     85  F   UNL A   1      38.719  28.037  31.773  1.00  0.00    -0.203 F 
ATOM     86  C   UNL A   1      37.069  29.268  30.640  1.00  0.00     0.198 A 
ATOM     87  C   UNL A   1      37.305  29.738  28.307  1.00  0.00     0.198 A 
ATOM     88  F   UNL A   1      39.190  28.998  27.135  1.00  0.00    -0.203 F 
ATOM     89  F   UNL A   1      36.403  29.425  31.792  1.00  0.00    -0.200 F 
ATOM     90  C   UNL A   1      36.597  29.876  29.488  1.00  0.00     0.200 A 
ATOM     91  F   UNL A   1      36.878  30.354  27.195  1.00  0.00    -0.200 F 
ATOM     92  F   UNL A   1      35.487  30.626  29.523  1.00  0.00    -0.200 F 
ENDBRANCH  58  82
BRANCH  70  93
ATOM     93  C   UNL A   1      44.409  26.890  32.194  1.00  0.00     0.064 A 
ATOM     94  C   UNL A   1      44.302  25.549  31.796  1.00  0.00     0.173 A 
ATOM     95  C   UNL A   1      44.424  27.160  33.568  1.00  0.00     0.173 A 
ATOM     96  F   UNL A   1      44.354  25.207  30.503  1.00  0.00    -0.203 F 
ATOM     97  C   UNL A   1      44.175  24.527  32.734  1.00  0.00     0.198 A 
ATOM     98  C   UNL A   1      44.330  26.136  34.503  1.00  0.00     0.198 A 
ATOM     99  F   UNL A   1      44.565  28.422  34.001  1.00  0.00    -0.203 F 
ATOM    100  F   UNL A   1      44.055  23.252  32.331  1.00  0.00    -0.200 F 
ATOM    101  C   UNL A   1      44.195  24.821  34.088  1.00  0.00     0.200 A 
ATOM    102  F   UNL A   1      44.389  26.424  35.811  1.00  0.00    -0.200 F 
ATOM    103  F   UNL A   1      44.102  23.837  34.993  1.00  0.00    -0.200 F 
ENDBRANCH  70  93
ENDBRANCH  44  45
ENDBRANCH  36  39
ENDBRANCH  34  35
ENDBRANCH  33  34
ENDBRANCH   1  33
TORSDOF 15
ENDMDL
MODEL 2
REMARK VINA RESULT:     -13.6      2.902      9.113
REMARK SMILES Cc1cnn(C2(C(=O)NCCCCCCNC(=O)c3ccc(-c4c5nc(c(-c6c(F)c(F)c(F)c(F)c6F)c6ccc([nH]6)c(-c6c(F)c(F)c(F)c(F)c6F)c6nc(c(-c7c(F)c(F)c(F)c(F)c7F)c7ccc4[nH]7)C=C6)C=C5)cc3)CCN(C(=O)c3cc4ccccc4[nH]3)CC2)c1
REMARK SMILES IDX 13 1 12 2 11 3 10 4 9 5 7 6 8 7 6 9 82 10 97 11 83 12 96 13
REMARK SMILES IDX 84 14 85 15 86 16 5 17 1 18 2 19 3 20 98 21 4 22 87 23 88 24
REMARK SMILES IDX 95 25 89 26 94 27 90 29 93 30 91 31 92 32 14 33 15 34 16 35
REMARK SMILES IDX 17 36 18 38 19 39 20 40 81 41 21 42 80 43 22 44 23 45 24 46
REMARK SMILES IDX 74 47 25 48 79 49 73 50 75 51 26 52 78 53 72 54 71 55 27 57
REMARK SMILES IDX 59 58 39 59 58 60 40 61 43 62 57 63 76 64 41 65 42 66 56 68
REMARK SMILES IDX 77 69 44 70 28 71 29 72 37 73 30 74 31 75 35 76 38 77 32 78
REMARK SMILES IDX 33 79 36 80 34 81 60 82 61 83 69 84 62 85 63 86 67 87 70 88
REMARK SMILES IDX 64 89 65 90 68 91 66 92 45 93 46 94 54 95 47 96 48 97 52 98
REMARK SMILES IDX 55 99 49 100 50 101 53 102 51 103
REMARK H PARENT 9 8 95 28 16 37 75 56 43 67
REMARK Flexibility Score: inf
ROOT
ATOM      1  C   UNL A   1      34.429  29.870  27.421  1.00  0.00     0.002 C 
ENDROOT
BRANCH   1   2
ATOM      2  C   UNL A   1      33.558  29.014  26.487  1.00  0.00     0.002 C 
BRANCH   2   3
ATOM      3  C   UNL A   1      32.398  28.262  27.154  1.00  0.00     0.021 C 
BRANCH   3   4
ATOM      4  C   UNL A   1      31.232  27.941  26.219  1.00  0.00     0.116 C 
BRANCH   4   5
ATOM      5  N   UNL A   1      30.609  26.679  26.577  1.00  0.00    -0.354 N 
ATOM      6  C   UNL A   1      30.832  25.376  26.212  1.00  0.00     0.248 C 
ATOM      7  O   UNL A   1      29.995  24.607  26.689  1.00  0.00    -0.272 OA
ATOM      8  H   UNL A   1      29.871  26.781  27.220  1.00  0.00     0.163 HD
BRANCH   6   9
ATOM      9  C   UNL A   1      32.051  24.968  25.309  1.00  0.00     0.144 C 
ATOM     10  C   UNL A   1      33.335  25.097  26.177  1.00  0.00     0.062 C 
ATOM     11  C   UNL A   1      31.738  23.537  24.787  1.00  0.00     0.062 C 
ATOM     12  C   UNL A   1      34.441  24.100  25.857  1.00  0.00     0.123 C 
ATOM     13  C   UNL A   1      32.955  22.678  24.484  1.00  0.00     0.123 C 
ATOM     14  N   UNL A   1      33.939  22.768  25.556  1.00  0.00    -0.337 N 
ATOM     15  C   UNL A   1      34.416  21.679  26.284  1.00  0.00     0.270 C 
ATOM     16  O   UNL A   1      34.963  21.822  27.375  1.00  0.00    -0.267 OA
BRANCH   9  17
ATOM     17  N   UNL A   1      32.242  25.842  24.105  1.00  0.00    -0.257 N 
ATOM     18  C   UNL A   1      33.996  28.188  21.901  1.00  0.00     0.048 C 
ATOM     19  C   UNL A   1      33.107  27.255  22.624  1.00  0.00    -0.013 A 
ATOM     20  C   UNL A   1      31.812  26.839  22.276  1.00  0.00     0.138 A 
ATOM     21  C   UNL A   1      33.360  26.586  23.800  1.00  0.00     0.113 A 
ATOM     22  N   UNL A   1      31.303  25.979  23.154  1.00  0.00    -0.180 NA
ENDBRANCH   9  17
BRANCH  15  23
ATOM     23  C   UNL A   1      34.191  20.364  25.735  1.00  0.00     0.105 A 
ATOM     24  C   UNL A   1      34.806  19.711  24.679  1.00  0.00     0.042 A 
ATOM     25  N   UNL A   1      33.293  19.477  26.276  1.00  0.00    -0.351 N 
ATOM     26  C   UNL A   1      34.199  18.434  24.532  1.00  0.00     0.000 A 
ATOM     27  C   UNL A   1      33.214  18.337  25.513  1.00  0.00     0.046 A 
ATOM     28  H   UNL A   1      32.776  19.637  27.099  1.00  0.00     0.167 HD
ATOM     29  C   UNL A   1      34.386  17.352  23.650  1.00  0.00     0.010 A 
ATOM     30  C   UNL A   1      32.367  17.230  25.629  1.00  0.00     0.026 A 
ATOM     31  C   UNL A   1      33.560  16.227  23.764  1.00  0.00     0.001 A 
ATOM     32  C   UNL A   1      32.557  16.176  24.730  1.00  0.00     0.002 A 
ENDBRANCH  15  23
ENDBRANCH   6   9
ENDBRANCH   4   5
ENDBRANCH   3   4
ENDBRANCH   2   3
ENDBRANCH   1   2
BRANCH   1  33
ATOM     33  C   UNL A   1      33.957  31.308  27.669  1.00  0.00     0.021 C 
BRANCH  33  34
ATOM     34  C   UNL A   1      35.048  32.241  28.168  1.00  0.00     0.116 C 
BRANCH  34  35
ATOM     35  N   UNL A   1      34.936  32.541  29.592  1.00  0.00    -0.352 N 
ATOM     36  C   UNL A   1      35.577  31.908  30.642  1.00  0.00     0.251 C 
ATOM     37  H   UNL A   1      34.335  33.283  29.834  1.00  0.00     0.163 HD
ATOM     38  O   UNL A   1      35.151  31.978  31.781  1.00  0.00    -0.269 OA
BRANCH  36  39
ATOM     39  C   UNL A   1      36.794  31.130  30.344  1.00  0.00     0.039 A 
ATOM     40  C   UNL A   1      38.030  31.756  30.179  1.00  0.00     0.014 A 
ATOM     41  C   UNL A   1      36.686  29.742  30.285  1.00  0.00     0.014 A 
ATOM     42  C   UNL A   1      39.168  30.964  30.052  1.00  0.00     0.010 A 
ATOM     43  C   UNL A   1      37.819  28.968  30.325  1.00  0.00     0.010 A 
ATOM     44  C   UNL A   1      39.064  29.564  30.164  1.00  0.00    -0.014 A 
BRANCH  44  45
ATOM     45  C   UNL A   1      40.267  28.734  30.228  1.00  0.00     0.031 A 
ATOM     46  C   UNL A   1      40.840  28.594  31.593  1.00  0.00     0.074 A 
ATOM     47  C   UNL A   1      40.768  28.032  29.186  1.00  0.00     0.049 A 
ATOM     48  N   UNL A   1      41.942  29.114  32.020  1.00  0.00    -0.248 NA
ATOM     49  C   UNL A   1      40.054  27.930  32.643  1.00  0.00     0.031 C 
ATOM     50  C   UNL A   1      40.189  27.861  27.847  1.00  0.00     0.029 A 
ATOM     51  N   UNL A   1      41.889  27.252  29.126  1.00  0.00    -0.354 N 
ATOM     52  C   UNL A   1      42.095  28.682  33.333  1.00  0.00     0.074 A 
ATOM     53  C   UNL A   1      40.839  28.091  33.713  1.00  0.00     0.031 C 
ATOM     54  C   UNL A   1      40.827  26.867  27.191  1.00  0.00     0.029 A 
ATOM     55  C   UNL A   1      41.979  26.472  27.978  1.00  0.00     0.049 A 
ATOM     56  H   UNL A   1      42.574  27.244  29.833  1.00  0.00     0.167 HD
ATOM     57  C   UNL A   1      43.338  28.624  33.889  1.00  0.00     0.037 A 
ATOM     58  C   UNL A   1      42.954  25.592  27.654  1.00  0.00     0.037 A 
ATOM     59  C   UNL A   1      44.293  29.324  33.068  1.00  0.00     0.049 A 
ATOM     60  C   UNL A   1      44.173  26.002  28.380  1.00  0.00     0.074 A 
ATOM     61  C   UNL A   1      44.649  30.633  32.837  1.00  0.00     0.029 A 
ATOM     62  N   UNL A   1      44.772  28.577  32.025  1.00  0.00    -0.354 N 
ATOM     63  N   UNL A   1      44.813  27.108  28.124  1.00  0.00    -0.248 NA
ATOM     64  C   UNL A   1      44.509  25.360  29.645  1.00  0.00     0.031 C 
ATOM     65  C   UNL A   1      45.206  30.667  31.522  1.00  0.00     0.029 A 
ATOM     66  C   UNL A   1      45.209  29.374  31.003  1.00  0.00     0.049 A 
ATOM     67  H   UNL A   1      44.799  27.594  32.013  1.00  0.00     0.167 HD
ATOM     68  C   UNL A   1      45.275  27.521  29.357  1.00  0.00     0.074 A 
ATOM     69  C   UNL A   1      45.230  26.335  30.204  1.00  0.00     0.031 C 
ATOM     70  C   UNL A   1      45.337  28.846  29.666  1.00  0.00     0.037 A 
BRANCH  57  71
ATOM     71  C   UNL A   1      43.813  27.570  34.864  1.00  0.00     0.064 A 
ATOM     72  C   UNL A   1      43.711  26.209  34.501  1.00  0.00     0.173 A 
ATOM     73  C   UNL A   1      44.025  27.818  36.237  1.00  0.00     0.173 A 
ATOM     74  F   UNL A   1      43.495  25.856  33.224  1.00  0.00    -0.203 F 
ATOM     75  C   UNL A   1      43.735  25.184  35.454  1.00  0.00     0.198 A 
ATOM     76  C   UNL A   1      44.096  26.790  37.177  1.00  0.00     0.198 A 
ATOM     77  F   UNL A   1      44.052  29.057  36.738  1.00  0.00    -0.203 F 
ATOM     78  F   UNL A   1      43.511  23.918  35.078  1.00  0.00    -0.200 F 
ATOM     79  C   UNL A   1      43.919  25.477  36.792  1.00  0.00     0.200 A 
ATOM     80  F   UNL A   1      44.252  27.094  38.473  1.00  0.00    -0.200 F 
ATOM     81  F   UNL A   1      43.879  24.507  37.715  1.00  0.00    -0.200 F 
ENDBRANCH  57  71
BRANCH  58  82
ATOM     82  C   UNL A   1      42.872  24.340  26.875  1.00  0.00     0.064 A 
ATOM     83  C   UNL A   1      43.429  24.231  25.591  1.00  0.00     0.173 A 
ATOM     84  C   UNL A   1      42.501  23.138  27.506  1.00  0.00     0.173 A 
ATOM     85  F   UNL A   1      43.840  25.327  24.938  1.00  0.00    -0.203 F 
ATOM     86  C   UNL A   1      43.638  22.987  24.989  1.00  0.00     0.198 A 
ATOM     87  C   UNL A   1      42.712  21.897  26.906  1.00  0.00     0.198 A 
ATOM     88  F   UNL A   1      42.020  23.148  28.759  1.00  0.00    -0.203 F 
ATOM     89  F   UNL A   1      44.232  22.915  23.790  1.00  0.00    -0.200 F 
ATOM     90  C   UNL A   1      43.295  21.820  25.654  1.00  0.00     0.200 A 
ATOM     91  F   UNL A   1      42.412  20.775  27.575  1.00  0.00    -0.200 F 
ATOM     92  F   UNL A   1      43.563  20.626  25.109  1.00  0.00    -0.200 F 
ENDBRANCH  58  82
BRANCH  70  93
ATOM     93  C   UNL A   1      45.374  29.808  28.521  1.00  0.00     0.064 A 
ATOM     94  C   UNL A   1      44.236  30.371  27.921  1.00  0.00     0.173 A 
ATOM     95  C   UNL A   1      46.626  30.224  28.054  1.00  0.00     0.173 A 
ATOM     96  F   UNL A   1      43.007  30.076  28.362  1.00  0.00    -0.203 F 
ATOM     97  C   UNL A   1      44.351  31.280  26.872  1.00  0.00     0.198 A 
ATOM     98  C   UNL A   1      46.739  31.157  27.029  1.00  0.00     0.198 A 
ATOM     99  F   UNL A   1      47.745  29.747  28.621  1.00  0.00    -0.203 F 
ATOM    100  F   UNL A   1      43.249  31.791  26.300  1.00  0.00    -0.200 F 
ATOM    101  C   UNL A   1      45.603  31.677  26.430  1.00  0.00     0.200 A 
ATOM    102  F   UNL A   1      47.953  31.565  26.633  1.00  0.00    -0.200 F 
ATOM    103  F   UNL A   1      45.716  32.573  25.440  1.00  0.00    -0.200 F 
ENDBRANCH  70  93
ENDBRANCH  44  45
ENDBRANCH  36  39
ENDBRANCH  34  35
ENDBRANCH  33  34
ENDBRANCH   1  33
TORSDOF 15
ENDMDL
MODEL 3
REMARK VINA RESULT:     -13.3      2.735      3.730
REMARK SMILES Cc1cnn(C2(C(=O)NCCCCCCNC(=O)c3ccc(-c4c5nc(c(-c6c(F)c(F)c(F)c(F)c6F)c6ccc([nH]6)c(-c6c(F)c(F)c(F)c(F)c6F)c6nc(c(-c7c(F)c(F)c(F)c(F)c7F)c7ccc4[nH]7)C=C6)C=C5)cc3)CCN(C(=O)c3cc4ccccc4[nH]3)CC2)c1
REMARK SMILES IDX 13 1 12 2 11 3 10 4 9 5 7 6 8 7 6 9 82 10 97 11 83 12 96 13
REMARK SMILES IDX 84 14 85 15 86 16 5 17 1 18 2 19 3 20 98 21 4 22 87 23 88 24
REMARK SMILES IDX 95 25 89 26 94 27 90 29 93 30 91 31 92 32 14 33 15 34 16 35
REMARK SMILES IDX 17 36 18 38 19 39 20 40 81 41 21 42 80 43 22 44 23 45 24 46
REMARK SMILES IDX 74 47 25 48 79 49 73 50 75 51 26 52 78 53 72 54 71 55 27 57
REMARK SMILES IDX 59 58 39 59 58 60 40 61 43 62 57 63 76 64 41 65 42 66 56 68
REMARK SMILES IDX 77 69 44 70 28 71 29 72 37 73 30 74 31 75 35 76 38 77 32 78
REMARK SMILES IDX 33 79 36 80 34 81 60 82 61 83 69 84 62 85 63 86 67 87 70 88
REMARK SMILES IDX 64 89 65 90 68 91 66 92 45 93 46 94 54 95 47 96 48 97 52 98
REMARK SMILES IDX 55 99 49 100 50 101 53 102 51 103
REMARK H PARENT 9 8 95 28 16 37 75 56 43 67
REMARK Flexibility Score: inf
ROOT
ATOM      1  C   UNL A   1      38.414  23.479  26.318  1.00  0.00     0.002 C 
ENDROOT
BRANCH   1   2
ATOM      2  C   UNL A   1      37.218  23.649  25.369  1.00  0.00     0.002 C 
BRANCH   2   3
ATOM      3  C   UNL A   1      37.028  22.541  24.323  1.00  0.00     0.021 C 
BRANCH   3   4
ATOM      4  C   UNL A   1      35.875  21.583  24.619  1.00  0.00     0.116 C 
BRANCH   4   5
ATOM      5  N   UNL A   1      35.382  21.763  25.973  1.00  0.00    -0.354 N 
ATOM      6  C   UNL A   1      34.136  21.969  26.508  1.00  0.00     0.248 C 
ATOM      7  O   UNL A   1      34.177  22.169  27.724  1.00  0.00    -0.272 OA
ATOM      8  H   UNL A   1      36.095  21.728  26.651  1.00  0.00     0.163 HD
BRANCH   6   9
ATOM      9  C   UNL A   1      32.839  21.917  25.624  1.00  0.00     0.144 C 
ATOM     10  C   UNL A   1      31.622  21.866  26.591  1.00  0.00     0.062 C 
ATOM     11  C   UNL A   1      32.903  23.162  24.695  1.00  0.00     0.062 C 
ATOM     12  C   UNL A   1      30.361  22.559  26.088  1.00  0.00     0.123 C 
ATOM     13  C   UNL A   1      31.555  23.714  24.257  1.00  0.00     0.123 C 
ATOM     14  N   UNL A   1      30.635  23.801  25.384  1.00  0.00    -0.337 N 
ATOM     15  C   UNL A   1      30.016  24.977  25.808  1.00  0.00     0.270 C 
ATOM     16  O   UNL A   1      29.535  25.082  26.935  1.00  0.00    -0.267 OA
BRANCH   9  17
ATOM     17  N   UNL A   1      32.749  20.711  24.736  1.00  0.00    -0.257 N 
ATOM     18  C   UNL A   1      32.984  17.159  23.860  1.00  0.00     0.048 C 
ATOM     19  C   UNL A   1      32.820  18.624  23.979  1.00  0.00    -0.013 A 
ATOM     20  C   UNL A   1      32.447  19.543  22.985  1.00  0.00     0.138 A 
ATOM     21  C   UNL A   1      32.995  19.405  25.098  1.00  0.00     0.113 A 
ATOM     22  N   UNL A   1      32.388  20.790  23.445  1.00  0.00    -0.180 NA
ENDBRANCH   9  17
BRANCH  15  23
ATOM     23  C   UNL A   1      30.011  26.092  24.893  1.00  0.00     0.105 A 
ATOM     24  C   UNL A   1      31.045  26.902  24.454  1.00  0.00     0.042 A 
ATOM     25  N   UNL A   1      28.882  26.497  24.223  1.00  0.00    -0.351 N 
ATOM     26  C   UNL A   1      30.504  27.871  23.566  1.00  0.00     0.000 A 
ATOM     27  C   UNL A   1      29.134  27.628  23.484  1.00  0.00     0.046 A 
ATOM     28  H   UNL A   1      28.011  26.039  24.268  1.00  0.00     0.167 HD
ATOM     29  C   UNL A   1      31.046  28.942  22.830  1.00  0.00     0.010 A 
ATOM     30  C   UNL A   1      28.264  28.432  22.740  1.00  0.00     0.026 A 
ATOM     31  C   UNL A   1      30.193  29.746  22.064  1.00  0.00     0.001 A 
ATOM     32  C   UNL A   1      28.822  29.502  22.034  1.00  0.00     0.002 A 
ENDBRANCH  15  23
ENDBRANCH   6   9
ENDBRANCH   4   5
ENDBRANCH   3   4
ENDBRANCH   2   3
ENDBRANCH   1   2
BRANCH   1  33
ATOM     33  C   UNL A   1      39.178  22.152  26.224  1.00  0.00     0.021 C 
BRANCH  33  34
ATOM     34  C   UNL A   1      40.371  22.056  27.163  1.00  0.00     0.116 C 
BRANCH  34  35
ATOM     35  N   UNL A   1      41.651  22.210  26.479  1.00  0.00    -0.352 N 
ATOM     36  C   UNL A   1      42.285  23.389  26.129  1.00  0.00     0.251 C 
ATOM     37  H   UNL A   1      42.118  21.377  26.239  1.00  0.00     0.163 HD
ATOM     38  O   UNL A   1      43.138  23.418  25.259  1.00  0.00    -0.269 OA
BRANCH  36  39
ATOM     39  C   UNL A   1      41.893  24.624  26.834  1.00  0.00     0.039 A 
ATOM     40  C   UNL A   1      42.302  24.868  28.146  1.00  0.00     0.014 A 
ATOM     41  C   UNL A   1      41.145  25.568  26.135  1.00  0.00     0.014 A 
ATOM     42  C   UNL A   1      42.032  26.113  28.708  1.00  0.00     0.010 A 
ATOM     43  C   UNL A   1      41.025  26.844  26.628  1.00  0.00     0.010 A 
ATOM     44  C   UNL A   1      41.425  27.117  27.930  1.00  0.00    -0.014 A 
BRANCH  44  45
ATOM     45  C   UNL A   1      41.312  28.484  28.440  1.00  0.00     0.031 A 
ATOM     46  C   UNL A   1      42.420  29.384  28.023  1.00  0.00     0.074 A 
ATOM     47  C   UNL A   1      40.245  28.960  29.122  1.00  0.00     0.049 A 
ATOM     48  N   UNL A   1      43.355  29.853  28.780  1.00  0.00    -0.248 NA
ATOM     49  C   UNL A   1      42.604  29.691  26.597  1.00  0.00     0.031 C 
ATOM     50  C   UNL A   1      38.971  28.283  29.398  1.00  0.00     0.029 A 
ATOM     51  N   UNL A   1      40.046  30.200  29.662  1.00  0.00    -0.354 N 
ATOM     52  C   UNL A   1      44.134  30.677  27.975  1.00  0.00     0.074 A 
ATOM     53  C   UNL A   1      43.725  30.419  26.619  1.00  0.00     0.031 C 
ATOM     54  C   UNL A   1      38.061  29.177  29.845  1.00  0.00     0.029 A 
ATOM     55  C   UNL A   1      38.740  30.437  30.076  1.00  0.00     0.049 A 
ATOM     56  H   UNL A   1      40.764  30.867  29.752  1.00  0.00     0.167 HD
ATOM     57  C   UNL A   1      44.863  31.682  28.535  1.00  0.00     0.037 A 
ATOM     58  C   UNL A   1      38.241  31.570  30.622  1.00  0.00     0.037 A 
ATOM     59  C   UNL A   1      44.920  31.530  29.967  1.00  0.00     0.049 A 
ATOM     60  C   UNL A   1      39.369  32.286  31.251  1.00  0.00     0.074 A 
ATOM     61  C   UNL A   1      45.619  30.760  30.867  1.00  0.00     0.029 A 
ATOM     62  N   UNL A   1      43.819  32.024  30.615  1.00  0.00    -0.354 N 
ATOM     63  N   UNL A   1      40.008  31.830  32.292  1.00  0.00    -0.248 NA
ATOM     64  C   UNL A   1      40.038  33.358  30.523  1.00  0.00     0.031 C 
ATOM     65  C   UNL A   1      44.798  30.666  32.032  1.00  0.00     0.029 A 
ATOM     66  C   UNL A   1      43.639  31.411  31.824  1.00  0.00     0.049 A 
ATOM     67  H   UNL A   1      43.234  32.730  30.257  1.00  0.00     0.167 HD
ATOM     68  C   UNL A   1      41.312  32.228  32.085  1.00  0.00     0.074 A 
ATOM     69  C   UNL A   1      41.238  33.307  31.108  1.00  0.00     0.031 C 
ATOM     70  C   UNL A   1      42.349  31.434  32.472  1.00  0.00     0.037 A 
BRANCH  57  71
ATOM     71  C   UNL A   1      45.106  33.039  27.912  1.00  0.00     0.064 A 
ATOM     72  C   UNL A   1      46.432  33.425  27.613  1.00  0.00     0.173 A 
ATOM     73  C   UNL A   1      44.159  34.084  27.927  1.00  0.00     0.173 A 
ATOM     74  F   UNL A   1      47.418  32.516  27.585  1.00  0.00    -0.203 F 
ATOM     75  C   UNL A   1      46.789  34.765  27.428  1.00  0.00     0.198 A 
ATOM     76  C   UNL A   1      44.513  35.413  27.695  1.00  0.00     0.198 A 
ATOM     77  F   UNL A   1      42.885  33.882  28.281  1.00  0.00    -0.203 F 
ATOM     78  F   UNL A   1      48.078  35.096  27.270  1.00  0.00    -0.200 F 
ATOM     79  C   UNL A   1      45.830  35.759  27.477  1.00  0.00     0.200 A 
ATOM     80  F   UNL A   1      43.572  36.366  27.770  1.00  0.00    -0.200 F 
ATOM     81  F   UNL A   1      46.176  37.047  27.365  1.00  0.00    -0.200 F 
ENDBRANCH  57  71
BRANCH  58  82
ATOM     82  C   UNL A   1      36.886  32.149  30.518  1.00  0.00     0.064 A 
ATOM     83  C   UNL A   1      35.971  32.082  31.579  1.00  0.00     0.173 A 
ATOM     84  C   UNL A   1      36.578  33.039  29.472  1.00  0.00     0.173 A 
ATOM     85  F   UNL A   1      36.210  31.284  32.629  1.00  0.00    -0.203 F 
ATOM     86  C   UNL A   1      34.829  32.890  31.611  1.00  0.00     0.198 A 
ATOM     87  C   UNL A   1      35.441  33.846  29.506  1.00  0.00     0.198 A 
ATOM     88  F   UNL A   1      37.430  33.211  28.450  1.00  0.00    -0.203 F 
ATOM     89  F   UNL A   1      34.010  32.848  32.670  1.00  0.00    -0.200 F 
ATOM     90  C   UNL A   1      34.574  33.783  30.583  1.00  0.00     0.200 A 
ATOM     91  F   UNL A   1      35.225  34.734  28.525  1.00  0.00    -0.200 F 
ATOM     92  F   UNL A   1      33.521  34.609  30.648  1.00  0.00    -0.200 F 
ENDBRANCH  58  82
BRANCH  70  93
ATOM     93  C   UNL A   1      42.063  30.411  33.526  1.00  0.00     0.064 A 
ATOM     94  C   UNL A   1      41.685  29.085  33.263  1.00  0.00     0.173 A 
ATOM     95  C   UNL A   1      42.243  30.781  34.864  1.00  0.00     0.173 A 
ATOM     96  F   UNL A   1      41.564  28.639  32.007  1.00  0.00    -0.203 F 
ATOM     97  C   UNL A   1      41.458  28.182  34.299  1.00  0.00     0.198 A 
ATOM     98  C   UNL A   1      42.048  29.870  35.895  1.00  0.00     0.198 A 
ATOM     99  F   UNL A   1      42.644  32.026  35.167  1.00  0.00    -0.203 F 
ATOM    100  F   UNL A   1      41.078  26.924  34.025  1.00  0.00    -0.200 F 
ATOM    101  C   UNL A   1      41.646  28.574  35.615  1.00  0.00     0.200 A 
ATOM    102  F   UNL A   1      42.269  30.244  37.164  1.00  0.00    -0.200 F 
ATOM    103  F   UNL A   1      41.456  27.698  36.612  1.00  0.00    -0.200 F 
ENDBRANCH  70  93
ENDBRANCH  44  45
ENDBRANCH  36  39
ENDBRANCH  34  35
ENDBRANCH  33  34
ENDBRANCH   1  33
TORSDOF 15
ENDMDL
