MODEL 1
REMARK VINA RESULT:     -12.2      0.000      0.000
REMARK SMILES O=C(NCCCCCCNC(=O)c1cccn1CC(=O)N1CCc2ccccc2C1)c1ccc(-c2c3nc(c(-c4c(F)c(F)c(F)c(F)c4F)c4ccc([nH]4)c(-c4c(F)c(F)c(F)c(F)c4F)c4nc(c(-c5c(F)c(F)c(F)c(F)c5F)c5ccc2[nH]5)C=C4)C=C3)cc1
REMARK SMILES IDX 7 1 6 2 5 3 4 4 3 5 1 6 2 7 31 9 32 10 93 11 33 12 92 13
REMARK SMILES IDX 34 14 35 15 36 16 86 17 37 18 91 19 85 20 87 21 38 22 90 23
REMARK SMILES IDX 84 24 83 25 39 27 71 28 51 29 70 30 52 31 55 32 69 33 88 34
REMARK SMILES IDX 53 35 54 36 68 38 89 39 56 40 40 41 41 42 49 43 42 44 43 45
REMARK SMILES IDX 47 46 50 47 44 48 45 49 48 50 46 51 72 52 73 53 81 54 74 55
REMARK SMILES IDX 75 56 79 57 82 58 76 59 77 60 80 61 78 62 57 63 58 64 66 65
REMARK SMILES IDX 59 66 60 67 64 68 67 69 61 70 62 71 65 72 63 73 8 74 9 75
REMARK SMILES IDX 10 76 11 77 12 79 13 80 14 81 17 82 15 83 16 84 18 85 19 86
REMARK SMILES IDX 20 87 21 88 22 89 30 90 23 91 29 92 24 93 28 94 25 95 27 96
REMARK SMILES IDX 26 97
REMARK H PARENT 3 8 87 26 55 37 10 78
REMARK Flexibility Score: inf
ROOT
ATOM      1  C   UNL A   1      32.207  28.357  27.422  1.00  0.00     0.002 C 
ENDROOT
BRANCH   1   2
ATOM      2  C   UNL A   1      32.620  29.033  26.118  1.00  0.00     0.002 C 
BRANCH   2   3
ATOM      3  C   UNL A   1      33.923  28.522  25.505  1.00  0.00     0.021 C 
BRANCH   3   4
ATOM      4  C   UNL A   1      35.158  28.637  26.404  1.00  0.00     0.116 C 
BRANCH   4   5
ATOM      5  N   UNL A   1      35.281  29.866  27.167  1.00  0.00    -0.352 N 
ATOM      6  O   UNL A   1      36.183  31.607  28.247  1.00  0.00    -0.269 OA
ATOM      7  C   UNL A   1      36.336  30.471  27.800  1.00  0.00     0.251 C 
ATOM      8  H   UNL A   1      34.436  30.367  27.246  1.00  0.00     0.163 HD
BRANCH   7   9
ATOM      9  C   UNL A   1      37.614  29.766  28.052  1.00  0.00     0.039 A 
ATOM     10  C   UNL A   1      38.679  29.765  27.152  1.00  0.00     0.014 A 
ATOM     11  C   UNL A   1      37.723  29.047  29.255  1.00  0.00     0.014 A 
ATOM     12  C   UNL A   1      39.765  28.932  27.361  1.00  0.00     0.010 A 
ATOM     13  C   UNL A   1      38.842  28.257  29.506  1.00  0.00     0.010 A 
ATOM     14  C   UNL A   1      39.850  28.184  28.541  1.00  0.00    -0.014 A 
BRANCH  14  15
ATOM     15  C   UNL A   1      41.154  27.546  28.809  1.00  0.00     0.031 A 
ATOM     16  C   UNL A   1      41.158  26.096  28.281  1.00  0.00     0.074 A 
ATOM     17  C   UNL A   1      42.059  28.268  29.537  1.00  0.00     0.049 A 
ATOM     18  N   UNL A   1      41.795  25.052  28.713  1.00  0.00    -0.248 NA
ATOM     19  C   UNL A   1      40.249  25.734  27.155  1.00  0.00     0.031 C 
ATOM     20  C   UNL A   1      41.879  29.678  29.945  1.00  0.00     0.029 A 
ATOM     21  N   UNL A   1      43.291  27.982  30.098  1.00  0.00    -0.354 N 
ATOM     22  C   UNL A   1      41.545  23.996  27.805  1.00  0.00     0.074 A 
ATOM     23  C   UNL A   1      40.484  24.435  26.956  1.00  0.00     0.031 C 
ATOM     24  C   UNL A   1      42.893  30.089  30.736  1.00  0.00     0.029 A 
ATOM     25  C   UNL A   1      43.844  29.009  30.916  1.00  0.00     0.049 A 
ATOM     26  H   UNL A   1      43.754  27.127  29.942  1.00  0.00     0.167 HD
ATOM     27  C   UNL A   1      42.344  22.890  27.715  1.00  0.00     0.037 A 
ATOM     28  C   UNL A   1      44.961  28.971  31.713  1.00  0.00     0.037 A 
ATOM     29  C   UNL A   1      43.361  22.957  28.708  1.00  0.00     0.049 A 
ATOM     30  C   UNL A   1      45.605  27.690  31.398  1.00  0.00     0.074 A 
ATOM     31  C   UNL A   1      43.334  22.806  30.067  1.00  0.00     0.029 A 
ATOM     32  N   UNL A   1      44.537  23.560  28.340  1.00  0.00    -0.354 N 
ATOM     33  N   UNL A   1      46.241  27.439  30.294  1.00  0.00    -0.248 NA
ATOM     34  C   UNL A   1      45.476  26.580  32.352  1.00  0.00     0.031 C 
ATOM     35  C   UNL A   1      44.280  23.747  30.515  1.00  0.00     0.029 A 
ATOM     36  C   UNL A   1      44.987  24.267  29.423  1.00  0.00     0.049 A 
ATOM     37  H   UNL A   1      44.976  23.497  27.461  1.00  0.00     0.167 HD
ATOM     38  C   UNL A   1      46.275  26.066  30.292  1.00  0.00     0.074 A 
ATOM     39  C   UNL A   1      46.119  25.641  31.664  1.00  0.00     0.031 C 
ATOM     40  C   UNL A   1      45.846  25.403  29.187  1.00  0.00     0.037 A 
BRANCH  27  41
ATOM     41  C   UNL A   1      42.516  21.836  26.653  1.00  0.00     0.064 A 
ATOM     42  C   UNL A   1      42.037  20.530  26.937  1.00  0.00     0.173 A 
ATOM     43  C   UNL A   1      43.436  21.939  25.603  1.00  0.00     0.173 A 
ATOM     44  F   UNL A   1      41.102  20.329  27.879  1.00  0.00    -0.203 F 
ATOM     45  C   UNL A   1      42.582  19.396  26.340  1.00  0.00     0.198 A 
ATOM     46  C   UNL A   1      43.939  20.800  24.966  1.00  0.00     0.198 A 
ATOM     47  F   UNL A   1      43.949  23.120  25.240  1.00  0.00    -0.203 F 
ATOM     48  F   UNL A   1      42.223  18.177  26.766  1.00  0.00    -0.200 F 
ATOM     49  C   UNL A   1      43.553  19.531  25.370  1.00  0.00     0.200 A 
ATOM     50  F   UNL A   1      44.869  20.934  24.011  1.00  0.00    -0.200 F 
ATOM     51  F   UNL A   1      44.143  18.447  24.850  1.00  0.00    -0.200 F 
ENDBRANCH  27  41
BRANCH  28  52
ATOM     52  C   UNL A   1      45.639  29.794  32.796  1.00  0.00     0.064 A 
ATOM     53  C   UNL A   1      45.147  30.038  34.084  1.00  0.00     0.173 A 
ATOM     54  C   UNL A   1      46.950  30.319  32.576  1.00  0.00     0.173 A 
ATOM     55  F   UNL A   1      43.890  29.724  34.414  1.00  0.00    -0.203 F 
ATOM     56  C   UNL A   1      45.938  30.633  35.088  1.00  0.00     0.198 A 
ATOM     57  C   UNL A   1      47.755  30.853  33.583  1.00  0.00     0.198 A 
ATOM     58  F   UNL A   1      47.513  30.331  31.361  1.00  0.00    -0.203 F 
ATOM     59  F   UNL A   1      45.420  30.837  36.307  1.00  0.00    -0.200 F 
ATOM     60  C   UNL A   1      47.254  30.995  34.850  1.00  0.00     0.200 A 
ATOM     61  F   UNL A   1      49.020  31.202  33.306  1.00  0.00    -0.200 F 
ATOM     62  F   UNL A   1      48.025  31.486  35.829  1.00  0.00    -0.200 F 
ENDBRANCH  28  52
BRANCH  40  63
ATOM     63  C   UNL A   1      45.975  26.201  27.900  1.00  0.00     0.064 A 
ATOM     64  C   UNL A   1      47.242  26.599  27.446  1.00  0.00     0.173 A 
ATOM     65  C   UNL A   1      44.883  26.693  27.166  1.00  0.00     0.173 A 
ATOM     66  F   UNL A   1      48.344  26.153  28.069  1.00  0.00    -0.203 F 
ATOM     67  C   UNL A   1      47.399  27.455  26.351  1.00  0.00     0.198 A 
ATOM     68  C   UNL A   1      45.033  27.548  26.070  1.00  0.00     0.198 A 
ATOM     69  F   UNL A   1      43.641  26.351  27.489  1.00  0.00    -0.203 F 
ATOM     70  F   UNL A   1      48.628  27.812  25.955  1.00  0.00    -0.200 F 
ATOM     71  C   UNL A   1      46.295  27.935  25.667  1.00  0.00     0.200 A 
ATOM     72  F   UNL A   1      43.952  27.986  25.408  1.00  0.00    -0.200 F 
ATOM     73  F   UNL A   1      46.446  28.749  24.612  1.00  0.00    -0.200 F 
ENDBRANCH  40  63
ENDBRANCH  14  15
ENDBRANCH   7   9
ENDBRANCH   4   5
ENDBRANCH   3   4
ENDBRANCH   2   3
ENDBRANCH   1   2
BRANCH   1  74
ATOM     74  C   UNL A   1      31.022  27.394  27.315  1.00  0.00     0.021 C 
BRANCH  74  75
ATOM     75  C   UNL A   1      31.163  26.278  26.279  1.00  0.00     0.116 C 
BRANCH  75  76
ATOM     76  N   UNL A   1      29.955  26.152  25.481  1.00  0.00    -0.351 N 
ATOM     77  C   UNL A   1      29.812  26.122  24.125  1.00  0.00     0.267 C 
ATOM     78  H   UNL A   1      29.117  26.079  25.994  1.00  0.00     0.163 HD
ATOM     79  O   UNL A   1      28.663  26.271  23.663  1.00  0.00    -0.268 OA
BRANCH  77  80
ATOM     80  C   UNL A   1      30.970  25.962  23.278  1.00  0.00     0.107 A 
ATOM     81  C   UNL A   1      31.758  26.954  22.704  1.00  0.00     0.033 A 
ATOM     82  N   UNL A   1      31.546  24.750  22.919  1.00  0.00    -0.334 N 
ATOM     83  C   UNL A   1      32.814  26.334  22.000  1.00  0.00     0.020 A 
ATOM     84  C   UNL A   1      32.669  24.976  22.162  1.00  0.00     0.087 A 
BRANCH  82  85
ATOM     85  C   UNL A   1      31.073  23.432  23.328  1.00  0.00     0.222 C 
BRANCH  85  86
ATOM     86  C   UNL A   1      31.455  22.928  24.715  1.00  0.00     0.242 C 
ATOM     87  O   UNL A   1      30.581  22.925  25.593  1.00  0.00    -0.273 OA
BRANCH  86  88
ATOM     88  N   UNL A   1      32.684  22.312  24.940  1.00  0.00    -0.336 N 
ATOM     89  C   UNL A   1      33.081  21.043  24.337  1.00  0.00     0.124 C 
ATOM     90  C   UNL A   1      33.670  23.036  25.753  1.00  0.00     0.155 C 
ATOM     91  C   UNL A   1      34.332  20.388  24.914  1.00  0.00     0.057 C 
ATOM     92  C   UNL A   1      35.111  22.671  25.496  1.00  0.00    -0.025 A 
ATOM     93  C   UNL A   1      35.442  21.376  25.072  1.00  0.00    -0.041 A 
ATOM     94  C   UNL A   1      36.140  23.579  25.771  1.00  0.00     0.006 A 
ATOM     95  C   UNL A   1      36.780  21.007  24.894  1.00  0.00     0.004 A 
ATOM     96  C   UNL A   1      37.473  23.209  25.592  1.00  0.00     0.000 A 
ATOM     97  C   UNL A   1      37.793  21.927  25.146  1.00  0.00     0.000 A 
ENDBRANCH  86  88
ENDBRANCH  85  86
ENDBRANCH  82  85
ENDBRANCH  77  80
ENDBRANCH  75  76
ENDBRANCH  74  75
ENDBRANCH   1  74
TORSDOF 16
ENDMDL
MODEL 2
REMARK VINA RESULT:     -12.2      3.020      7.938
REMARK SMILES O=C(NCCCCCCNC(=O)c1cccn1CC(=O)N1CCc2ccccc2C1)c1ccc(-c2c3nc(c(-c4c(F)c(F)c(F)c(F)c4F)c4ccc([nH]4)c(-c4c(F)c(F)c(F)c(F)c4F)c4nc(c(-c5c(F)c(F)c(F)c(F)c5F)c5ccc2[nH]5)C=C4)C=C3)cc1
REMARK SMILES IDX 7 1 6 2 5 3 4 4 3 5 1 6 2 7 31 9 32 10 93 11 33 12 92 13
REMARK SMILES IDX 34 14 35 15 36 16 86 17 37 18 91 19 85 20 87 21 38 22 90 23
REMARK SMILES IDX 84 24 83 25 39 27 71 28 51 29 70 30 52 31 55 32 69 33 88 34
REMARK SMILES IDX 53 35 54 36 68 38 89 39 56 40 40 41 41 42 49 43 42 44 43 45
REMARK SMILES IDX 47 46 50 47 44 48 45 49 48 50 46 51 72 52 73 53 81 54 74 55
REMARK SMILES IDX 75 56 79 57 82 58 76 59 77 60 80 61 78 62 57 63 58 64 66 65
REMARK SMILES IDX 59 66 60 67 64 68 67 69 61 70 62 71 65 72 63 73 8 74 9 75
REMARK SMILES IDX 10 76 11 77 12 79 13 80 14 81 17 82 15 83 16 84 18 85 19 86
REMARK SMILES IDX 20 87 21 88 22 89 30 90 23 91 29 92 24 93 28 94 25 95 27 96
REMARK SMILES IDX 26 97
REMARK H PARENT 3 8 87 26 55 37 10 78
REMARK Flexibility Score: inf
ROOT
ATOM      1  C   UNL A   1      38.164  22.081  25.771  1.00  0.00     0.002 C 
ENDROOT
BRANCH   1   2
ATOM      2  C   UNL A   1      37.604  21.083  24.763  1.00  0.00     0.002 C 
BRANCH   2   3
ATOM      3  C   UNL A   1      38.241  19.695  24.799  1.00  0.00     0.021 C 
BRANCH   3   4
ATOM      4  C   UNL A   1      39.128  19.414  26.017  1.00  0.00     0.116 C 
BRANCH   4   5
ATOM      5  N   UNL A   1      40.418  18.809  25.743  1.00  0.00    -0.352 N 
ATOM      6  O   UNL A   1      42.622  18.420  25.767  1.00  0.00    -0.269 OA
ATOM      7  C   UNL A   1      41.708  19.219  25.966  1.00  0.00     0.251 C 
ATOM      8  H   UNL A   1      40.356  17.927  25.309  1.00  0.00     0.163 HD
BRANCH   7   9
ATOM      9  C   UNL A   1      42.040  20.613  26.338  1.00  0.00     0.039 A 
ATOM     10  C   UNL A   1      42.297  21.615  25.404  1.00  0.00     0.014 A 
ATOM     11  C   UNL A   1      42.121  20.908  27.710  1.00  0.00     0.014 A 
ATOM     12  C   UNL A   1      42.789  22.841  25.817  1.00  0.00     0.010 A 
ATOM     13  C   UNL A   1      42.552  22.161  28.138  1.00  0.00     0.010 A 
ATOM     14  C   UNL A   1      42.909  23.117  27.183  1.00  0.00    -0.014 A 
BRANCH  14  15
ATOM     15  C   UNL A   1      43.172  24.526  27.538  1.00  0.00     0.031 A 
ATOM     16  C   UNL A   1      41.843  25.282  27.745  1.00  0.00     0.074 A 
ATOM     17  C   UNL A   1      44.476  24.935  27.522  1.00  0.00     0.049 A 
ATOM     18  N   UNL A   1      41.553  26.531  27.546  1.00  0.00    -0.248 NA
ATOM     19  C   UNL A   1      40.629  24.515  28.150  1.00  0.00     0.031 C 
ATOM     20  C   UNL A   1      45.637  24.043  27.317  1.00  0.00     0.029 A 
ATOM     21  N   UNL A   1      45.102  26.163  27.651  1.00  0.00    -0.354 N 
ATOM     22  C   UNL A   1      40.229  26.738  28.001  1.00  0.00     0.074 A 
ATOM     23  C   UNL A   1      39.672  25.442  28.227  1.00  0.00     0.031 C 
ATOM     24  C   UNL A   1      46.788  24.748  27.254  1.00  0.00     0.029 A 
ATOM     25  C   UNL A   1      46.508  26.160  27.425  1.00  0.00     0.049 A 
ATOM     26  H   UNL A   1      44.608  26.982  27.885  1.00  0.00     0.167 HD
ATOM     27  C   UNL A   1      39.736  27.973  28.314  1.00  0.00     0.037 A 
ATOM     28  C   UNL A   1      47.372  27.224  27.339  1.00  0.00     0.037 A 
ATOM     29  C   UNL A   1      40.718  28.962  28.029  1.00  0.00     0.049 A 
ATOM     30  C   UNL A   1      46.571  28.391  27.729  1.00  0.00     0.074 A 
ATOM     31  C   UNL A   1      41.200  29.471  26.853  1.00  0.00     0.029 A 
ATOM     32  N   UNL A   1      41.572  29.291  29.051  1.00  0.00    -0.354 N 
ATOM     33  N   UNL A   1      46.192  28.648  28.945  1.00  0.00    -0.248 NA
ATOM     34  C   UNL A   1      46.099  29.307  26.683  1.00  0.00     0.031 C 
ATOM     35  C   UNL A   1      42.565  29.681  27.129  1.00  0.00     0.029 A 
ATOM     36  C   UNL A   1      42.807  29.502  28.497  1.00  0.00     0.049 A 
ATOM     37  H   UNL A   1      41.341  29.362  30.006  1.00  0.00     0.167 HD
ATOM     38  C   UNL A   1      45.171  29.543  28.740  1.00  0.00     0.074 A 
ATOM     39  C   UNL A   1      45.390  30.139  27.442  1.00  0.00     0.031 C 
ATOM     40  C   UNL A   1      43.970  29.311  29.330  1.00  0.00     0.037 A 
BRANCH  27  41
ATOM     41  C   UNL A   1      38.547  28.427  29.120  1.00  0.00     0.064 A 
ATOM     42  C   UNL A   1      37.769  29.496  28.603  1.00  0.00     0.173 A 
ATOM     43  C   UNL A   1      38.388  28.155  30.484  1.00  0.00     0.173 A 
ATOM     44  F   UNL A   1      37.797  29.797  27.294  1.00  0.00    -0.203 F 
ATOM     45  C   UNL A   1      37.035  30.344  29.428  1.00  0.00     0.198 A 
ATOM     46  C   UNL A   1      37.602  28.975  31.300  1.00  0.00     0.198 A 
ATOM     47  F   UNL A   1      39.063  27.165  31.080  1.00  0.00    -0.203 F 
ATOM     48  F   UNL A   1      36.460  31.441  28.917  1.00  0.00    -0.200 F 
ATOM     49  C   UNL A   1      36.971  30.096  30.784  1.00  0.00     0.200 A 
ATOM     50  F   UNL A   1      37.527  28.723  32.614  1.00  0.00    -0.200 F 
ATOM     51  F   UNL A   1      36.337  30.951  31.596  1.00  0.00    -0.200 F 
ENDBRANCH  27  41
BRANCH  28  52
ATOM     52  C   UNL A   1      48.802  27.522  26.923  1.00  0.00     0.064 A 
ATOM     53  C   UNL A   1      49.857  27.880  27.771  1.00  0.00     0.173 A 
ATOM     54  C   UNL A   1      49.198  27.350  25.560  1.00  0.00     0.173 A 
ATOM     55  F   UNL A   1      49.637  28.202  29.049  1.00  0.00    -0.203 F 
ATOM     56  C   UNL A   1      51.194  27.932  27.324  1.00  0.00     0.198 A 
ATOM     57  C   UNL A   1      50.525  27.341  25.129  1.00  0.00     0.198 A 
ATOM     58  F   UNL A   1      48.303  27.173  24.580  1.00  0.00    -0.203 F 
ATOM     59  F   UNL A   1      52.167  28.273  28.180  1.00  0.00    -0.200 F 
ATOM     60  C   UNL A   1      51.531  27.616  26.018  1.00  0.00     0.200 A 
ATOM     61  F   UNL A   1      50.806  27.041  23.852  1.00  0.00    -0.200 F 
ATOM     62  F   UNL A   1      52.810  27.589  25.619  1.00  0.00    -0.200 F 
ENDBRANCH  28  52
BRANCH  40  63
ATOM     63  C   UNL A   1      44.057  28.487  30.603  1.00  0.00     0.064 A 
ATOM     64  C   UNL A   1      44.589  29.056  31.772  1.00  0.00     0.173 A 
ATOM     65  C   UNL A   1      43.751  27.119  30.679  1.00  0.00     0.173 A 
ATOM     66  F   UNL A   1      44.885  30.365  31.801  1.00  0.00    -0.203 F 
ATOM     67  C   UNL A   1      44.825  28.297  32.923  1.00  0.00     0.198 A 
ATOM     68  C   UNL A   1      43.983  26.354  31.826  1.00  0.00     0.198 A 
ATOM     69  F   UNL A   1      43.212  26.488  29.642  1.00  0.00    -0.203 F 
ATOM     70  F   UNL A   1      45.338  28.881  34.014  1.00  0.00    -0.200 F 
ATOM     71  C   UNL A   1      44.527  26.944  32.948  1.00  0.00     0.200 A 
ATOM     72  F   UNL A   1      43.669  25.050  31.837  1.00  0.00    -0.200 F 
ATOM     73  F   UNL A   1      44.745  26.219  34.054  1.00  0.00    -0.200 F 
ENDBRANCH  40  63
ENDBRANCH  14  15
ENDBRANCH   7   9
ENDBRANCH   4   5
ENDBRANCH   3   4
ENDBRANCH   2   3
ENDBRANCH   1   2
BRANCH   1  74
ATOM     74  C   UNL A   1      37.528  23.473  25.739  1.00  0.00     0.021 C 
BRANCH  74  75
ATOM     75  C   UNL A   1      35.999  23.506  25.757  1.00  0.00     0.116 C 
BRANCH  75  76
ATOM     76  N   UNL A   1      35.470  23.879  24.456  1.00  0.00    -0.351 N 
ATOM     77  C   UNL A   1      34.572  23.224  23.665  1.00  0.00     0.267 C 
ATOM     78  H   UNL A   1      35.811  24.728  24.091  1.00  0.00     0.163 HD
ATOM     79  O   UNL A   1      34.466  23.599  22.480  1.00  0.00    -0.268 OA
BRANCH  77  80
ATOM     80  C   UNL A   1      33.814  22.116  24.195  1.00  0.00     0.107 A 
ATOM     81  C   UNL A   1      34.221  20.796  24.357  1.00  0.00     0.033 A 
ATOM     82  N   UNL A   1      32.521  22.190  24.699  1.00  0.00    -0.334 N 
ATOM     83  C   UNL A   1      33.168  20.075  24.963  1.00  0.00     0.020 A 
ATOM     84  C   UNL A   1      32.139  20.962  25.178  1.00  0.00     0.087 A 
BRANCH  82  85
ATOM     85  C   UNL A   1      31.706  23.398  24.769  1.00  0.00     0.222 C 
BRANCH  85  86
ATOM     86  C   UNL A   1      31.951  24.369  25.919  1.00  0.00     0.242 C 
ATOM     87  O   UNL A   1      32.284  23.898  27.014  1.00  0.00    -0.273 OA
BRANCH  86  88
ATOM     88  N   UNL A   1      31.989  25.744  25.699  1.00  0.00    -0.336 N 
ATOM     89  C   UNL A   1      30.824  26.539  25.319  1.00  0.00     0.124 C 
ATOM     90  C   UNL A   1      33.253  26.442  25.964  1.00  0.00     0.155 C 
ATOM     91  C   UNL A   1      31.109  27.962  24.849  1.00  0.00     0.057 C 
ATOM     92  C   UNL A   1      33.124  27.908  26.296  1.00  0.00    -0.025 A 
ATOM     93  C   UNL A   1      32.067  28.658  25.762  1.00  0.00    -0.041 A 
ATOM     94  C   UNL A   1      34.104  28.560  27.053  1.00  0.00     0.006 A 
ATOM     95  C   UNL A   1      31.973  30.032  26.009  1.00  0.00     0.004 A 
ATOM     96  C   UNL A   1      34.009  29.930  27.299  1.00  0.00     0.000 A 
ATOM     97  C   UNL A   1      32.941  30.664  26.785  1.00  0.00     0.000 A 
ENDBRANCH  86  88
ENDBRANCH  85  86
ENDBRANCH  82  85
ENDBRANCH  77  80
ENDBRANCH  75  76
ENDBRANCH  74  75
ENDBRANCH   1  74
TORSDOF 16
ENDMDL
MODEL 3
REMARK VINA RESULT:     -12.1      2.693      8.511
REMARK SMILES O=C(NCCCCCCNC(=O)c1cccn1CC(=O)N1CCc2ccccc2C1)c1ccc(-c2c3nc(c(-c4c(F)c(F)c(F)c(F)c4F)c4ccc([nH]4)c(-c4c(F)c(F)c(F)c(F)c4F)c4nc(c(-c5c(F)c(F)c(F)c(F)c5F)c5ccc2[nH]5)C=C4)C=C3)cc1
REMARK SMILES IDX 7 1 6 2 5 3 4 4 3 5 1 6 2 7 31 9 32 10 93 11 33 12 92 13
REMARK SMILES IDX 34 14 35 15 36 16 86 17 37 18 91 19 85 20 87 21 38 22 90 23
REMARK SMILES IDX 84 24 83 25 39 27 71 28 51 29 70 30 52 31 55 32 69 33 88 34
REMARK SMILES IDX 53 35 54 36 68 38 89 39 56 40 40 41 41 42 49 43 42 44 43 45
REMARK SMILES IDX 47 46 50 47 44 48 45 49 48 50 46 51 72 52 73 53 81 54 74 55
REMARK SMILES IDX 75 56 79 57 82 58 76 59 77 60 80 61 78 62 57 63 58 64 66 65
REMARK SMILES IDX 59 66 60 67 64 68 67 69 61 70 62 71 65 72 63 73 8 74 9 75
REMARK SMILES IDX 10 76 11 77 12 79 13 80 14 81 17 82 15 83 16 84 18 85 19 86
REMARK SMILES IDX 20 87 21 88 22 89 30 90 23 91 29 92 24 93 28 94 25 95 27 96
REMARK SMILES IDX 26 97
REMARK H PARENT 3 8 87 26 55 37 10 78
REMARK Flexibility Score: inf
ROOT
ATOM      1  C   UNL A   1      34.154  28.831  26.284  1.00  0.00     0.002 C 
ENDROOT
BRANCH   1   2
ATOM      2  C   UNL A   1      34.496  29.696  27.493  1.00  0.00     0.002 C 
BRANCH   2   3
ATOM      3  C   UNL A   1      33.681  30.981  27.626  1.00  0.00     0.021 C 
BRANCH   3   4
ATOM      4  C   UNL A   1      34.423  32.164  28.257  1.00  0.00     0.116 C 
BRANCH   4   5
ATOM      5  N   UNL A   1      34.374  32.250  29.705  1.00  0.00    -0.352 N 
ATOM      6  O   UNL A   1      35.025  32.317  31.845  1.00  0.00    -0.269 OA
ATOM      7  C   UNL A   1      35.301  32.008  30.686  1.00  0.00     0.251 C 
ATOM      8  H   UNL A   1      33.499  32.540  30.053  1.00  0.00     0.163 HD
BRANCH   7   9
ATOM      9  C   UNL A   1      36.572  31.299  30.415  1.00  0.00     0.039 A 
ATOM     10  C   UNL A   1      37.237  30.527  31.366  1.00  0.00     0.014 A 
ATOM     11  C   UNL A   1      37.130  31.452  29.134  1.00  0.00     0.014 A 
ATOM     12  C   UNL A   1      38.511  30.052  31.108  1.00  0.00     0.010 A 
ATOM     13  C   UNL A   1      38.383  30.921  28.843  1.00  0.00     0.010 A 
ATOM     14  C   UNL A   1      39.081  30.243  29.845  1.00  0.00    -0.014 A 
BRANCH  14  15
ATOM     15  C   UNL A   1      40.310  29.474  29.568  1.00  0.00     0.031 A 
ATOM     16  C   UNL A   1      41.523  30.423  29.467  1.00  0.00     0.074 A 
ATOM     17  C   UNL A   1      40.166  28.131  29.352  1.00  0.00     0.049 A 
ATOM     18  N   UNL A   1      42.611  30.316  28.768  1.00  0.00    -0.248 NA
ATOM     19  C   UNL A   1      41.481  31.730  30.184  1.00  0.00     0.031 C 
ATOM     20  C   UNL A   1      38.902  27.382  29.517  1.00  0.00     0.029 A 
ATOM     21  N   UNL A   1      41.022  27.125  28.940  1.00  0.00    -0.354 N 
ATOM     22  C   UNL A   1      43.452  31.397  29.122  1.00  0.00     0.074 A 
ATOM     23  C   UNL A   1      42.650  32.300  29.885  1.00  0.00     0.031 C 
ATOM     24  C   UNL A   1      39.046  26.094  29.138  1.00  0.00     0.029 A 
ATOM     25  C   UNL A   1      40.410  25.860  28.705  1.00  0.00     0.049 A 
ATOM     26  H   UNL A   1      41.988  27.273  28.817  1.00  0.00     0.167 HD
ATOM     27  C   UNL A   1      44.800  31.394  28.897  1.00  0.00     0.037 A 
ATOM     28  C   UNL A   1      40.955  24.724  28.160  1.00  0.00     0.037 A 
ATOM     29  C   UNL A   1      45.162  30.208  28.200  1.00  0.00     0.049 A 
ATOM     30  C   UNL A   1      42.389  25.015  28.040  1.00  0.00     0.074 A 
ATOM     31  C   UNL A   1      44.962  29.799  26.910  1.00  0.00     0.029 A 
ATOM     32  N   UNL A   1      45.514  29.128  28.970  1.00  0.00    -0.354 N 
ATOM     33  N   UNL A   1      43.214  25.070  29.043  1.00  0.00    -0.248 NA
ATOM     34  C   UNL A   1      42.938  25.335  26.717  1.00  0.00     0.031 C 
ATOM     35  C   UNL A   1      44.739  28.415  27.041  1.00  0.00     0.029 A 
ATOM     36  C   UNL A   1      45.022  28.009  28.351  1.00  0.00     0.049 A 
ATOM     37  H   UNL A   1      46.026  29.152  29.811  1.00  0.00     0.167 HD
ATOM     38  C   UNL A   1      44.271  25.760  28.503  1.00  0.00     0.074 A 
ATOM     39  C   UNL A   1      44.196  25.587  27.070  1.00  0.00     0.031 C 
ATOM     40  C   UNL A   1      44.748  26.847  29.162  1.00  0.00     0.037 A 
BRANCH  27  41
ATOM     41  C   UNL A   1      45.934  32.207  29.463  1.00  0.00     0.064 A 
ATOM     42  C   UNL A   1      46.157  32.143  30.864  1.00  0.00     0.173 A 
ATOM     43  C   UNL A   1      46.513  33.295  28.799  1.00  0.00     0.173 A 
ATOM     44  F   UNL A   1      45.702  31.106  31.586  1.00  0.00    -0.203 F 
ATOM     45  C   UNL A   1      46.752  33.187  31.568  1.00  0.00     0.198 A 
ATOM     46  C   UNL A   1      47.161  34.314  29.504  1.00  0.00     0.198 A 
ATOM     47  F   UNL A   1      46.378  33.455  27.477  1.00  0.00    -0.203 F 
ATOM     48  F   UNL A   1      46.781  33.159  32.908  1.00  0.00    -0.200 F 
ATOM     49  C   UNL A   1      47.233  34.286  30.888  1.00  0.00     0.200 A 
ATOM     50  F   UNL A   1      47.645  35.373  28.840  1.00  0.00    -0.200 F 
ATOM     51  F   UNL A   1      47.731  35.331  31.561  1.00  0.00    -0.200 F 
ENDBRANCH  27  41
BRANCH  28  52
ATOM     52  C   UNL A   1      40.517  23.371  27.626  1.00  0.00     0.064 A 
ATOM     53  C   UNL A   1      39.472  23.132  26.724  1.00  0.00     0.173 A 
ATOM     54  C   UNL A   1      41.259  22.197  27.963  1.00  0.00     0.173 A 
ATOM     55  F   UNL A   1      38.604  24.096  26.402  1.00  0.00    -0.203 F 
ATOM     56  C   UNL A   1      39.274  21.872  26.123  1.00  0.00     0.198 A 
ATOM     57  C   UNL A   1      41.104  20.966  27.326  1.00  0.00     0.198 A 
ATOM     58  F   UNL A   1      42.183  22.198  28.933  1.00  0.00    -0.203 F 
ATOM     59  F   UNL A   1      38.263  21.699  25.261  1.00  0.00    -0.200 F 
ATOM     60  C   UNL A   1      40.118  20.806  26.388  1.00  0.00     0.200 A 
ATOM     61  F   UNL A   1      41.936  19.955  27.621  1.00  0.00    -0.200 F 
ATOM     62  F   UNL A   1      39.974  19.634  25.754  1.00  0.00    -0.200 F 
ENDBRANCH  28  52
BRANCH  40  63
ATOM     63  C   UNL A   1      44.507  26.814  30.662  1.00  0.00     0.064 A 
ATOM     64  C   UNL A   1      45.107  25.817  31.447  1.00  0.00     0.173 A 
ATOM     65  C   UNL A   1      43.605  27.655  31.334  1.00  0.00     0.173 A 
ATOM     66  F   UNL A   1      46.004  24.984  30.896  1.00  0.00    -0.203 F 
ATOM     67  C   UNL A   1      44.800  25.657  32.802  1.00  0.00     0.198 A 
ATOM     68  C   UNL A   1      43.294  27.502  32.688  1.00  0.00     0.198 A 
ATOM     69  F   UNL A   1      43.006  28.653  30.694  1.00  0.00    -0.203 F 
ATOM     70  F   UNL A   1      45.395  24.689  33.511  1.00  0.00    -0.200 F 
ATOM     71  C   UNL A   1      43.888  26.496  33.421  1.00  0.00     0.200 A 
ATOM     72  F   UNL A   1      42.423  28.338  33.275  1.00  0.00    -0.200 F 
ATOM     73  F   UNL A   1      43.601  26.349  34.723  1.00  0.00    -0.200 F 
ENDBRANCH  40  63
ENDBRANCH  14  15
ENDBRANCH   7   9
ENDBRANCH   4   5
ENDBRANCH   3   4
ENDBRANCH   2   3
ENDBRANCH   1   2
BRANCH   1  74
ATOM     74  C   UNL A   1      33.030  27.814  26.502  1.00  0.00     0.021 C 
BRANCH  74  75
ATOM     75  C   UNL A   1      33.317  26.392  26.019  1.00  0.00     0.116 C 
BRANCH  75  76
ATOM     76  N   UNL A   1      32.205  25.506  26.319  1.00  0.00    -0.351 N 
ATOM     77  C   UNL A   1      31.905  24.285  25.791  1.00  0.00     0.267 C 
ATOM     78  H   UNL A   1      31.576  25.835  27.001  1.00  0.00     0.163 HD
ATOM     79  O   UNL A   1      30.765  23.828  26.008  1.00  0.00    -0.268 OA
BRANCH  77  80
ATOM     80  C   UNL A   1      32.876  23.586  24.983  1.00  0.00     0.107 A 
ATOM     81  C   UNL A   1      33.853  22.688  25.400  1.00  0.00     0.033 A 
ATOM     82  N   UNL A   1      32.972  23.653  23.599  1.00  0.00    -0.334 N 
ATOM     83  C   UNL A   1      34.537  22.212  24.258  1.00  0.00     0.020 A 
ATOM     84  C   UNL A   1      33.964  22.810  23.161  1.00  0.00     0.087 A 
BRANCH  82  85
ATOM     85  C   UNL A   1      32.115  24.450  22.727  1.00  0.00     0.222 C 
BRANCH  85  86
ATOM     86  C   UNL A   1      32.561  25.864  22.373  1.00  0.00     0.242 C 
ATOM     87  O   UNL A   1      33.455  25.997  21.527  1.00  0.00    -0.273 OA
BRANCH  86  88
ATOM     88  N   UNL A   1      31.858  26.974  22.839  1.00  0.00    -0.336 N 
ATOM     89  C   UNL A   1      32.375  28.339  22.801  1.00  0.00     0.124 C 
ATOM     90  C   UNL A   1      30.481  26.762  23.303  1.00  0.00     0.155 C 
ATOM     91  C   UNL A   1      31.595  29.374  23.605  1.00  0.00     0.057 C 
ATOM     92  C   UNL A   1      29.582  27.972  23.229  1.00  0.00    -0.025 A 
ATOM     93  C   UNL A   1      30.124  29.258  23.365  1.00  0.00    -0.041 A 
ATOM     94  C   UNL A   1      28.194  27.827  23.127  1.00  0.00     0.006 A 
ATOM     95  C   UNL A   1      29.293  30.383  23.364  1.00  0.00     0.004 A 
ATOM     96  C   UNL A   1      27.367  28.951  23.126  1.00  0.00     0.000 A 
ATOM     97  C   UNL A   1      27.916  30.228  23.236  1.00  0.00     0.000 A 
ENDBRANCH  86  88
ENDBRANCH  85  86
ENDBRANCH  82  85
ENDBRANCH  77  80
ENDBRANCH  75  76
ENDBRANCH  74  75
ENDBRANCH   1  74
TORSDOF 16
ENDMDL
