MODEL 1
REMARK VINA RESULT:     -12.2      0.000      0.000
REMARK SMILES C[C@H]1[C@H](C(=O)NCCCCCCNC(=O)c2ccc(-c3c4nc(c(-c5c(F)c(F)c(F)c(F)c5F)c5ccc([nH]5)c(-c5c(F)c(F)c(F)c(F)c5F)c5nc(c(-c6c(F)c(F)c(F)c(F)c6F)c6ccc3[nH]6)C=C5)C=C4)cc2)CCN1C(=O)[C@H]1CC=CCC1
REMARK SMILES IDX 9 1 8 2 7 3 6 4 4 5 5 6 3 8 1 9 2 10 81 11 79 12 80 13 82 14
REMARK SMILES IDX 83 15 84 16 85 17 89 18 86 19 88 20 87 21 10 22 11 23 12 24
REMARK SMILES IDX 13 25 14 26 15 28 16 29 17 30 78 31 18 32 77 33 19 34 20 35
REMARK SMILES IDX 21 36 71 37 22 38 76 39 70 40 72 41 23 42 75 43 69 44 68 45
REMARK SMILES IDX 24 47 56 48 36 49 55 50 37 51 40 52 54 53 73 54 38 55 39 56
REMARK SMILES IDX 53 58 74 59 41 60 25 61 26 62 34 63 27 64 28 65 32 66 35 67
REMARK SMILES IDX 29 68 30 69 33 70 31 71 57 72 58 73 66 74 59 75 60 76 64 77
REMARK SMILES IDX 67 78 61 79 62 80 65 81 63 82 42 83 43 84 51 85 44 86 45 87
REMARK SMILES IDX 49 88 52 89 46 90 47 91 50 92 48 93
REMARK H PARENT 6 7 13 27 72 46 40 57
REMARK Flexibility Score: inf
ROOT
ATOM      1  C   UNL A   1      32.240  29.895  27.233  1.00  0.00     0.002 C 
ENDROOT
BRANCH   1   2
ATOM      2  C   UNL A   1      33.760  29.804  27.112  1.00  0.00     0.021 C 
BRANCH   2   3
ATOM      3  C   UNL A   1      34.299  28.617  26.317  1.00  0.00     0.116 C 
BRANCH   3   4
ATOM      4  N   UNL A   1      34.277  28.882  24.893  1.00  0.00    -0.356 N 
ATOM      5  C   UNL A   1      33.660  28.247  23.865  1.00  0.00     0.225 C 
ATOM      6  O   UNL A   1      33.862  28.700  22.734  1.00  0.00    -0.275 OA
ATOM      7  H   UNL A   1      34.806  29.666  24.620  1.00  0.00     0.163 HD
BRANCH   5   8
ATOM      8  C   UNL A   1      32.770  27.021  24.031  1.00  0.00     0.102 C 
ATOM      9  C   UNL A   1      31.274  26.457  25.954  1.00  0.00     0.032 C 
ATOM     10  C   UNL A   1      31.410  27.321  24.694  1.00  0.00     0.094 C 
ATOM     11  N   UNL A   1      30.411  26.969  23.685  1.00  0.00    -0.339 N 
ATOM     12  C   UNL A   1      32.474  26.241  22.753  1.00  0.00     0.037 C 
ATOM     13  C   UNL A   1      30.975  25.990  22.769  1.00  0.00     0.120 C 
BRANCH  11  14
ATOM     14  C   UNL A   1      29.107  27.373  23.501  1.00  0.00     0.226 C 
ATOM     15  O   UNL A   1      28.200  26.716  24.037  1.00  0.00    -0.275 OA
BRANCH  14  16
ATOM     16  C   UNL A   1      28.664  28.556  22.618  1.00  0.00     0.083 C 
ATOM     17  C   UNL A   1      27.281  29.155  22.873  1.00  0.00     0.040 C 
ATOM     18  C   UNL A   1      29.752  29.592  22.319  1.00  0.00     0.018 C 
ATOM     19  C   UNL A   1      27.277  30.515  23.502  1.00  0.00    -0.030 C 
ATOM     20  C   UNL A   1      29.732  30.834  23.205  1.00  0.00     0.028 C 
ATOM     21  C   UNL A   1      28.374  31.269  23.646  1.00  0.00    -0.031 C 
ENDBRANCH  14  16
ENDBRANCH  11  14
ENDBRANCH   5   8
ENDBRANCH   3   4
ENDBRANCH   2   3
ENDBRANCH   1   2
BRANCH   1  22
ATOM     22  C   UNL A   1      31.546  30.764  26.187  1.00  0.00     0.002 C 
BRANCH  22  23
ATOM     23  C   UNL A   1      31.403  32.245  26.547  1.00  0.00     0.021 C 
BRANCH  23  24
ATOM     24  C   UNL A   1      32.610  32.871  27.242  1.00  0.00     0.116 C 
BRANCH  24  25
ATOM     25  N   UNL A   1      32.379  34.250  27.632  1.00  0.00    -0.352 N 
ATOM     26  C   UNL A   1      32.968  34.989  28.625  1.00  0.00     0.251 C 
ATOM     27  H   UNL A   1      31.697  34.727  27.104  1.00  0.00     0.163 HD
ATOM     28  O   UNL A   1      32.521  36.096  28.921  1.00  0.00    -0.269 OA
BRANCH  26  29
ATOM     29  C   UNL A   1      34.127  34.448  29.361  1.00  0.00     0.039 A 
ATOM     30  C   UNL A   1      33.909  33.804  30.582  1.00  0.00     0.014 A 
ATOM     31  C   UNL A   1      35.425  34.577  28.857  1.00  0.00     0.014 A 
ATOM     32  C   UNL A   1      34.985  33.234  31.266  1.00  0.00     0.010 A 
ATOM     33  C   UNL A   1      36.485  33.944  29.502  1.00  0.00     0.010 A 
ATOM     34  C   UNL A   1      36.276  33.269  30.715  1.00  0.00    -0.014 A 
BRANCH  34  35
ATOM     35  C   UNL A   1      37.416  32.602  31.393  1.00  0.00     0.031 A 
ATOM     36  C   UNL A   1      38.122  31.450  30.736  1.00  0.00     0.074 A 
ATOM     37  C   UNL A   1      37.780  33.000  32.628  1.00  0.00     0.049 A 
ATOM     38  N   UNL A   1      39.102  30.710  31.191  1.00  0.00    -0.248 NA
ATOM     39  C   UNL A   1      37.648  31.061  29.399  1.00  0.00     0.031 C 
ATOM     40  C   UNL A   1      37.145  34.076  33.390  1.00  0.00     0.029 A 
ATOM     41  N   UNL A   1      38.768  32.541  33.463  1.00  0.00    -0.354 N 
ATOM     42  C   UNL A   1      39.353  29.766  30.203  1.00  0.00     0.074 A 
ATOM     43  C   UNL A   1      38.386  29.989  29.151  1.00  0.00     0.031 C 
ATOM     44  C   UNL A   1      37.772  34.210  34.569  1.00  0.00     0.029 A 
ATOM     45  C   UNL A   1      38.827  33.205  34.664  1.00  0.00     0.049 A 
ATOM     46  H   UNL A   1      39.376  31.805  33.224  1.00  0.00     0.167 HD
ATOM     47  C   UNL A   1      40.318  28.815  30.167  1.00  0.00     0.037 A 
ATOM     48  C   UNL A   1      39.636  33.019  35.725  1.00  0.00     0.037 A 
ATOM     49  C   UNL A   1      41.288  28.608  31.210  1.00  0.00     0.049 A 
ATOM     50  C   UNL A   1      40.685  31.941  35.668  1.00  0.00     0.074 A 
ATOM     51  C   UNL A   1      42.342  27.710  31.243  1.00  0.00     0.029 A 
ATOM     52  N   UNL A   1      41.319  29.303  32.410  1.00  0.00    -0.354 N 
ATOM     53  N   UNL A   1      40.961  31.104  34.698  1.00  0.00    -0.248 NA
ATOM     54  C   UNL A   1      41.540  31.788  36.853  1.00  0.00     0.031 C 
ATOM     55  C   UNL A   1      42.975  27.824  32.484  1.00  0.00     0.029 A 
ATOM     56  C   UNL A   1      42.356  28.834  33.202  1.00  0.00     0.049 A 
ATOM     57  H   UNL A   1      40.697  30.023  32.662  1.00  0.00     0.167 HD
ATOM     58  C   UNL A   1      42.035  30.345  35.143  1.00  0.00     0.074 A 
ATOM     59  C   UNL A   1      42.373  30.833  36.464  1.00  0.00     0.031 C 
ATOM     60  C   UNL A   1      42.682  29.333  34.514  1.00  0.00     0.037 A 
BRANCH  47  61
ATOM     61  C   UNL A   1      40.370  27.925  28.958  1.00  0.00     0.064 A 
ATOM     62  C   UNL A   1      39.644  26.725  28.894  1.00  0.00     0.173 A 
ATOM     63  C   UNL A   1      41.128  28.290  27.836  1.00  0.00     0.173 A 
ATOM     64  F   UNL A   1      38.911  26.323  29.944  1.00  0.00    -0.203 F 
ATOM     65  C   UNL A   1      39.702  25.910  27.766  1.00  0.00     0.198 A 
ATOM     66  C   UNL A   1      41.157  27.489  26.697  1.00  0.00     0.198 A 
ATOM     67  F   UNL A   1      41.836  29.430  27.838  1.00  0.00    -0.203 F 
ATOM     68  F   UNL A   1      39.043  24.743  27.752  1.00  0.00    -0.200 F 
ATOM     69  C   UNL A   1      40.452  26.296  26.667  1.00  0.00     0.200 A 
ATOM     70  F   UNL A   1      41.871  27.872  25.628  1.00  0.00    -0.200 F 
ATOM     71  F   UNL A   1      40.502  25.514  25.579  1.00  0.00    -0.200 F 
ENDBRANCH  47  61
BRANCH  48  72
ATOM     72  C   UNL A   1      39.500  33.887  36.924  1.00  0.00     0.064 A 
ATOM     73  C   UNL A   1      40.133  35.137  36.985  1.00  0.00     0.173 A 
ATOM     74  C   UNL A   1      38.741  33.487  38.034  1.00  0.00     0.173 A 
ATOM     75  F   UNL A   1      40.885  35.556  35.957  1.00  0.00    -0.203 F 
ATOM     76  C   UNL A   1      40.031  35.943  38.117  1.00  0.00     0.198 A 
ATOM     77  C   UNL A   1      38.616  34.308  39.154  1.00  0.00     0.198 A 
ATOM     78  F   UNL A   1      38.111  32.304  38.027  1.00  0.00    -0.203 F 
ATOM     79  F   UNL A   1      40.687  37.111  38.165  1.00  0.00    -0.200 F 
ATOM     80  C   UNL A   1      39.267  35.530  39.197  1.00  0.00     0.200 A 
ATOM     81  F   UNL A   1      37.864  33.912  40.190  1.00  0.00    -0.200 F 
ATOM     82  F   UNL A   1      39.166  36.308  40.284  1.00  0.00    -0.200 F 
ENDBRANCH  48  72
BRANCH  60  83
ATOM     83  C   UNL A   1      43.843  28.707  35.232  1.00  0.00     0.064 A 
ATOM     84  C   UNL A   1      43.681  27.582  36.055  1.00  0.00     0.173 A 
ATOM     85  C   UNL A   1      45.141  29.216  35.065  1.00  0.00     0.173 A 
ATOM     86  F   UNL A   1      42.461  27.065  36.260  1.00  0.00    -0.203 F 
ATOM     87  C   UNL A   1      44.771  27.006  36.704  1.00  0.00     0.198 A 
ATOM     88  C   UNL A   1      46.232  28.618  35.689  1.00  0.00     0.198 A 
ATOM     89  F   UNL A   1      45.352  30.285  34.284  1.00  0.00    -0.203 F 
ATOM     90  F   UNL A   1      44.585  25.964  37.525  1.00  0.00    -0.200 F 
ATOM     91  C   UNL A   1      46.046  27.520  36.514  1.00  0.00     0.200 A 
ATOM     92  F   UNL A   1      47.465  29.106  35.492  1.00  0.00    -0.200 F 
ATOM     93  F   UNL A   1      47.094  26.960  37.133  1.00  0.00    -0.200 F 
ENDBRANCH  60  83
ENDBRANCH  34  35
ENDBRANCH  26  29
ENDBRANCH  24  25
ENDBRANCH  23  24
ENDBRANCH  22  23
ENDBRANCH   1  22
TORSDOF 15
ENDMDL
MODEL 2
REMARK VINA RESULT:     -12.2      0.881      2.022
REMARK SMILES C[C@H]1[C@H](C(=O)NCCCCCCNC(=O)c2ccc(-c3c4nc(c(-c5c(F)c(F)c(F)c(F)c5F)c5ccc([nH]5)c(-c5c(F)c(F)c(F)c(F)c5F)c5nc(c(-c6c(F)c(F)c(F)c(F)c6F)c6ccc3[nH]6)C=C5)C=C4)cc2)CCN1C(=O)[C@H]1CC=CCC1
REMARK SMILES IDX 9 1 8 2 7 3 6 4 4 5 5 6 3 8 1 9 2 10 81 11 79 12 80 13 82 14
REMARK SMILES IDX 83 15 84 16 85 17 89 18 86 19 88 20 87 21 10 22 11 23 12 24
REMARK SMILES IDX 13 25 14 26 15 28 16 29 17 30 78 31 18 32 77 33 19 34 20 35
REMARK SMILES IDX 21 36 71 37 22 38 76 39 70 40 72 41 23 42 75 43 69 44 68 45
REMARK SMILES IDX 24 47 56 48 36 49 55 50 37 51 40 52 54 53 73 54 38 55 39 56
REMARK SMILES IDX 53 58 74 59 41 60 25 61 26 62 34 63 27 64 28 65 32 66 35 67
REMARK SMILES IDX 29 68 30 69 33 70 31 71 57 72 58 73 66 74 59 75 60 76 64 77
REMARK SMILES IDX 67 78 61 79 62 80 65 81 63 82 42 83 43 84 51 85 44 86 45 87
REMARK SMILES IDX 49 88 52 89 46 90 47 91 50 92 48 93
REMARK H PARENT 6 7 13 27 72 46 40 57
REMARK Flexibility Score: inf
ROOT
ATOM      1  C   UNL A   1      32.722  29.964  26.492  1.00  0.00     0.002 C 
ENDROOT
BRANCH   1   2
ATOM      2  C   UNL A   1      33.046  29.317  25.147  1.00  0.00     0.021 C 
BRANCH   2   3
ATOM      3  C   UNL A   1      33.654  27.917  25.206  1.00  0.00     0.116 C 
BRANCH   3   4
ATOM      4  N   UNL A   1      32.905  27.054  26.097  1.00  0.00    -0.356 N 
ATOM      5  C   UNL A   1      31.824  26.261  25.888  1.00  0.00     0.225 C 
ATOM      6  O   UNL A   1      31.383  25.658  26.872  1.00  0.00    -0.275 OA
ATOM      7  H   UNL A   1      33.240  27.040  27.022  1.00  0.00     0.163 HD
BRANCH   5   8
ATOM      8  C   UNL A   1      31.134  26.097  24.540  1.00  0.00     0.102 C 
ATOM      9  C   UNL A   1      28.713  26.419  24.003  1.00  0.00     0.032 C 
ATOM     10  C   UNL A   1      30.038  27.146  24.266  1.00  0.00     0.094 C 
ATOM     11  N   UNL A   1      30.499  27.878  23.086  1.00  0.00    -0.339 N 
ATOM     12  C   UNL A   1      32.055  26.094  23.321  1.00  0.00     0.037 C 
ATOM     13  C   UNL A   1      31.404  27.035  22.320  1.00  0.00     0.120 C 
BRANCH  11  14
ATOM     14  C   UNL A   1      30.206  29.137  22.611  1.00  0.00     0.226 C 
ATOM     15  O   UNL A   1      31.064  29.733  21.941  1.00  0.00    -0.275 OA
BRANCH  14  16
ATOM     16  C   UNL A   1      28.905  29.910  22.900  1.00  0.00     0.083 C 
ATOM     17  C   UNL A   1      28.994  31.140  23.803  1.00  0.00     0.040 C 
ATOM     18  C   UNL A   1      27.964  30.076  21.703  1.00  0.00     0.018 C 
ATOM     19  C   UNL A   1      28.813  32.458  23.113  1.00  0.00    -0.030 C 
ATOM     20  C   UNL A   1      28.063  31.414  20.976  1.00  0.00     0.028 C 
ATOM     21  C   UNL A   1      28.391  32.580  21.848  1.00  0.00    -0.031 C 
ENDBRANCH  14  16
ENDBRANCH  11  14
ENDBRANCH   5   8
ENDBRANCH   3   4
ENDBRANCH   2   3
ENDBRANCH   1   2
BRANCH   1  22
ATOM     22  C   UNL A   1      31.365  30.660  26.581  1.00  0.00     0.002 C 
BRANCH  22  23
ATOM     23  C   UNL A   1      31.405  32.189  26.565  1.00  0.00     0.021 C 
BRANCH  23  24
ATOM     24  C   UNL A   1      32.614  32.823  27.251  1.00  0.00     0.116 C 
BRANCH  24  25
ATOM     25  N   UNL A   1      32.383  34.207  27.626  1.00  0.00    -0.352 N 
ATOM     26  C   UNL A   1      32.973  34.955  28.611  1.00  0.00     0.251 C 
ATOM     27  H   UNL A   1      31.702  34.678  27.093  1.00  0.00     0.163 HD
ATOM     28  O   UNL A   1      32.528  36.067  28.895  1.00  0.00    -0.269 OA
BRANCH  26  29
ATOM     29  C   UNL A   1      34.132  34.421  29.353  1.00  0.00     0.039 A 
ATOM     30  C   UNL A   1      33.912  33.784  30.577  1.00  0.00     0.014 A 
ATOM     31  C   UNL A   1      35.431  34.549  28.851  1.00  0.00     0.014 A 
ATOM     32  C   UNL A   1      34.988  33.221  31.267  1.00  0.00     0.010 A 
ATOM     33  C   UNL A   1      36.491  33.923  29.502  1.00  0.00     0.010 A 
ATOM     34  C   UNL A   1      36.280  33.255  30.719  1.00  0.00    -0.014 A 
BRANCH  34  35
ATOM     35  C   UNL A   1      37.420  32.594  31.404  1.00  0.00     0.031 A 
ATOM     36  C   UNL A   1      38.126  31.436  30.758  1.00  0.00     0.074 A 
ATOM     37  C   UNL A   1      37.784  33.004  32.634  1.00  0.00     0.049 A 
ATOM     38  N   UNL A   1      39.105  30.700  31.220  1.00  0.00    -0.248 NA
ATOM     39  C   UNL A   1      37.651  31.033  29.425  1.00  0.00     0.031 C 
ATOM     40  C   UNL A   1      37.149  34.088  33.386  1.00  0.00     0.029 A 
ATOM     41  N   UNL A   1      38.772  32.553  33.474  1.00  0.00    -0.354 N 
ATOM     42  C   UNL A   1      39.356  29.746  30.242  1.00  0.00     0.074 A 
ATOM     43  C   UNL A   1      38.389  29.959  29.187  1.00  0.00     0.031 C 
ATOM     44  C   UNL A   1      37.777  34.234  34.563  1.00  0.00     0.029 A 
ATOM     45  C   UNL A   1      38.831  33.229  34.669  1.00  0.00     0.049 A 
ATOM     46  H   UNL A   1      39.380  31.814  33.242  1.00  0.00     0.167 HD
ATOM     47  C   UNL A   1      40.320  28.794  30.215  1.00  0.00     0.037 A 
ATOM     48  C   UNL A   1      39.640  33.054  35.731  1.00  0.00     0.037 A 
ATOM     49  C   UNL A   1      41.291  28.597  31.261  1.00  0.00     0.049 A 
ATOM     50  C   UNL A   1      40.689  31.975  35.685  1.00  0.00     0.074 A 
ATOM     51  C   UNL A   1      42.344  27.699  31.302  1.00  0.00     0.029 A 
ATOM     52  N   UNL A   1      41.322  29.304  32.454  1.00  0.00    -0.354 N 
ATOM     53  N   UNL A   1      40.965  31.128  34.723  1.00  0.00    -0.248 NA
ATOM     54  C   UNL A   1      41.543  31.833  36.872  1.00  0.00     0.031 C 
ATOM     55  C   UNL A   1      42.978  27.826  32.542  1.00  0.00     0.029 A 
ATOM     56  C   UNL A   1      42.358  28.842  33.250  1.00  0.00     0.049 A 
ATOM     57  H   UNL A   1      40.700  30.027  32.698  1.00  0.00     0.167 HD
ATOM     58  C   UNL A   1      42.038  30.373  35.175  1.00  0.00     0.074 A 
ATOM     59  C   UNL A   1      42.376  30.874  36.492  1.00  0.00     0.031 C 
ATOM     60  C   UNL A   1      42.685  29.355  34.557  1.00  0.00     0.037 A 
BRANCH  47  61
ATOM     61  C   UNL A   1      40.372  27.892  29.015  1.00  0.00     0.064 A 
ATOM     62  C   UNL A   1      41.152  28.206  27.890  1.00  0.00     0.173 A 
ATOM     63  C   UNL A   1      39.661  26.683  29.000  1.00  0.00     0.173 A 
ATOM     64  F   UNL A   1      41.844  29.355  27.848  1.00  0.00    -0.203 F 
ATOM     65  C   UNL A   1      41.190  27.360  26.785  1.00  0.00     0.198 A 
ATOM     66  C   UNL A   1      39.729  25.824  27.906  1.00  0.00     0.198 A 
ATOM     67  F   UNL A   1      38.905  26.329  30.051  1.00  0.00    -0.203 F 
ATOM     68  F   UNL A   1      41.899  27.708  25.702  1.00  0.00    -0.200 F 
ATOM     69  C   UNL A   1      40.485  26.167  26.796  1.00  0.00     0.200 A 
ATOM     70  F   UNL A   1      39.058  24.663  27.926  1.00  0.00    -0.200 F 
ATOM     71  F   UNL A   1      40.529  25.350  25.735  1.00  0.00    -0.200 F 
ENDBRANCH  47  61
BRANCH  48  72
ATOM     72  C   UNL A   1      39.504  33.933  36.922  1.00  0.00     0.064 A 
ATOM     73  C   UNL A   1      40.103  35.201  36.953  1.00  0.00     0.173 A 
ATOM     74  C   UNL A   1      38.779  33.528  38.052  1.00  0.00     0.173 A 
ATOM     75  F   UNL A   1      40.823  35.626  35.905  1.00  0.00    -0.203 F 
ATOM     76  C   UNL A   1      40.002  36.019  38.077  1.00  0.00     0.198 A 
ATOM     77  C   UNL A   1      38.654  34.360  39.163  1.00  0.00     0.198 A 
ATOM     78  F   UNL A   1      38.182  32.328  38.072  1.00  0.00    -0.203 F 
ATOM     79  F   UNL A   1      40.626  37.204  38.097  1.00  0.00    -0.200 F 
ATOM     80  C   UNL A   1      39.272  35.600  39.178  1.00  0.00     0.200 A 
ATOM     81  F   UNL A   1      37.934  33.957  40.220  1.00  0.00    -0.200 F 
ATOM     82  F   UNL A   1      39.171  36.389  40.256  1.00  0.00    -0.200 F 
ENDBRANCH  48  72
BRANCH  60  83
ATOM     83  C   UNL A   1      43.846  28.735  35.282  1.00  0.00     0.064 A 
ATOM     84  C   UNL A   1      45.152  29.228  35.140  1.00  0.00     0.173 A 
ATOM     85  C   UNL A   1      43.643  27.656  36.157  1.00  0.00     0.173 A 
ATOM     86  F   UNL A   1      45.401  30.247  34.305  1.00  0.00    -0.203 F 
ATOM     87  C   UNL A   1      46.214  28.648  35.829  1.00  0.00     0.198 A 
ATOM     88  C   UNL A   1      44.703  27.100  36.868  1.00  0.00     0.198 A 
ATOM     89  F   UNL A   1      42.414  27.150  36.333  1.00  0.00    -0.203 F 
ATOM     90  F   UNL A   1      47.460  29.104  35.639  1.00  0.00    -0.200 F 
ATOM     91  C   UNL A   1      45.988  27.590  36.697  1.00  0.00     0.200 A 
ATOM     92  F   UNL A   1      44.479  26.089  37.719  1.00  0.00    -0.200 F 
ATOM     93  F   UNL A   1      47.011  27.040  37.364  1.00  0.00    -0.200 F 
ENDBRANCH  60  83
ENDBRANCH  34  35
ENDBRANCH  26  29
ENDBRANCH  24  25
ENDBRANCH  23  24
ENDBRANCH  22  23
ENDBRANCH   1  22
TORSDOF 15
ENDMDL
MODEL 3
REMARK VINA RESULT:     -12.1      1.611      3.578
REMARK SMILES C[C@H]1[C@H](C(=O)NCCCCCCNC(=O)c2ccc(-c3c4nc(c(-c5c(F)c(F)c(F)c(F)c5F)c5ccc([nH]5)c(-c5c(F)c(F)c(F)c(F)c5F)c5nc(c(-c6c(F)c(F)c(F)c(F)c6F)c6ccc3[nH]6)C=C5)C=C4)cc2)CCN1C(=O)[C@H]1CC=CCC1
REMARK SMILES IDX 9 1 8 2 7 3 6 4 4 5 5 6 3 8 1 9 2 10 81 11 79 12 80 13 82 14
REMARK SMILES IDX 83 15 84 16 85 17 89 18 86 19 88 20 87 21 10 22 11 23 12 24
REMARK SMILES IDX 13 25 14 26 15 28 16 29 17 30 78 31 18 32 77 33 19 34 20 35
REMARK SMILES IDX 21 36 71 37 22 38 76 39 70 40 72 41 23 42 75 43 69 44 68 45
REMARK SMILES IDX 24 47 56 48 36 49 55 50 37 51 40 52 54 53 73 54 38 55 39 56
REMARK SMILES IDX 53 58 74 59 41 60 25 61 26 62 34 63 27 64 28 65 32 66 35 67
REMARK SMILES IDX 29 68 30 69 33 70 31 71 57 72 58 73 66 74 59 75 60 76 64 77
REMARK SMILES IDX 67 78 61 79 62 80 65 81 63 82 42 83 43 84 51 85 44 86 45 87
REMARK SMILES IDX 49 88 52 89 46 90 47 91 50 92 48 93
REMARK H PARENT 6 7 13 27 72 46 40 57
REMARK Flexibility Score: inf
ROOT
ATOM      1  C   UNL A   1      32.966  30.193  26.673  1.00  0.00     0.002 C 
ENDROOT
BRANCH   1   2
ATOM      2  C   UNL A   1      32.865  28.724  27.076  1.00  0.00     0.021 C 
BRANCH   2   3
ATOM      3  C   UNL A   1      31.452  28.163  27.215  1.00  0.00     0.116 C 
BRANCH   3   4
ATOM      4  N   UNL A   1      31.463  26.716  27.294  1.00  0.00    -0.356 N 
ATOM      5  C   UNL A   1      31.541  25.760  26.335  1.00  0.00     0.225 C 
ATOM      6  O   UNL A   1      31.494  24.586  26.719  1.00  0.00    -0.275 OA
ATOM      7  H   UNL A   1      31.404  26.362  28.211  1.00  0.00     0.163 HD
BRANCH   5   8
ATOM      8  C   UNL A   1      31.661  26.054  24.845  1.00  0.00     0.102 C 
ATOM      9  C   UNL A   1      33.621  27.007  23.619  1.00  0.00     0.032 C 
ATOM     10  C   UNL A   1      33.048  25.733  24.253  1.00  0.00     0.094 C 
ATOM     11  N   UNL A   1      32.803  24.693  23.254  1.00  0.00    -0.339 N 
ATOM     12  C   UNL A   1      30.631  25.367  23.951  1.00  0.00     0.037 C 
ATOM     13  C   UNL A   1      31.426  24.781  22.795  1.00  0.00     0.120 C 
BRANCH  11  14
ATOM     14  C   UNL A   1      33.624  23.733  22.705  1.00  0.00     0.226 C 
ATOM     15  O   UNL A   1      33.525  23.490  21.491  1.00  0.00    -0.275 OA
BRANCH  14  16
ATOM     16  C   UNL A   1      34.631  22.874  23.493  1.00  0.00     0.083 C 
ATOM     17  C   UNL A   1      36.004  23.478  23.787  1.00  0.00     0.040 C 
ATOM     18  C   UNL A   1      34.037  22.070  24.654  1.00  0.00     0.018 C 
ATOM     19  C   UNL A   1      36.249  23.849  25.218  1.00  0.00    -0.030 C 
ATOM     20  C   UNL A   1      34.189  22.704  26.033  1.00  0.00     0.028 C 
ATOM     21  C   UNL A   1      35.438  23.499  26.224  1.00  0.00    -0.031 C 
ENDBRANCH  14  16
ENDBRANCH  11  14
ENDBRANCH   5   8
ENDBRANCH   3   4
ENDBRANCH   2   3
ENDBRANCH   1   2
BRANCH   1  22
ATOM     22  C   UNL A   1      31.660  30.846  26.227  1.00  0.00     0.002 C 
BRANCH  22  23
ATOM     23  C   UNL A   1      31.460  32.297  26.673  1.00  0.00     0.021 C 
BRANCH  23  24
ATOM     24  C   UNL A   1      32.698  32.986  27.243  1.00  0.00     0.116 C 
BRANCH  24  25
ATOM     25  N   UNL A   1      32.431  34.344  27.681  1.00  0.00    -0.352 N 
ATOM     26  C   UNL A   1      32.996  35.059  28.705  1.00  0.00     0.251 C 
ATOM     27  H   UNL A   1      31.742  34.824  27.165  1.00  0.00     0.163 HD
ATOM     28  O   UNL A   1      32.521  36.144  29.038  1.00  0.00    -0.269 OA
BRANCH  26  29
ATOM     29  C   UNL A   1      34.162  34.518  29.429  1.00  0.00     0.039 A 
ATOM     30  C   UNL A   1      33.957  33.878  30.654  1.00  0.00     0.014 A 
ATOM     31  C   UNL A   1      35.455  34.645  28.911  1.00  0.00     0.014 A 
ATOM     32  C   UNL A   1      35.039  33.309  31.328  1.00  0.00     0.010 A 
ATOM     33  C   UNL A   1      36.521  34.012  29.546  1.00  0.00     0.010 A 
ATOM     34  C   UNL A   1      36.325  33.341  30.763  1.00  0.00    -0.014 A 
BRANCH  34  35
ATOM     35  C   UNL A   1      37.471  32.675  31.431  1.00  0.00     0.031 A 
ATOM     36  C   UNL A   1      38.161  31.512  30.774  1.00  0.00     0.074 A 
ATOM     37  C   UNL A   1      37.856  33.082  32.656  1.00  0.00     0.049 A 
ATOM     38  N   UNL A   1      39.144  30.771  31.221  1.00  0.00    -0.248 NA
ATOM     39  C   UNL A   1      37.665  31.113  29.448  1.00  0.00     0.031 C 
ATOM     40  C   UNL A   1      37.238  34.169  33.417  1.00  0.00     0.029 A 
ATOM     41  N   UNL A   1      38.854  32.626  33.480  1.00  0.00    -0.354 N 
ATOM     42  C   UNL A   1      39.374  29.816  30.240  1.00  0.00     0.074 A 
ATOM     43  C   UNL A   1      38.393  30.035  29.199  1.00  0.00     0.031 C 
ATOM     44  C   UNL A   1      37.884  34.311  34.585  1.00  0.00     0.029 A 
ATOM     45  C   UNL A   1      38.935  33.301  34.674  1.00  0.00     0.049 A 
ATOM     46  H   UNL A   1      39.455  31.884  33.239  1.00  0.00     0.167 HD
ATOM     47  C   UNL A   1      40.334  28.860  30.198  1.00  0.00     0.037 A 
ATOM     48  C   UNL A   1      39.758  33.121  35.724  1.00  0.00     0.037 A 
ATOM     49  C   UNL A   1      41.319  28.657  31.229  1.00  0.00     0.049 A 
ATOM     50  C   UNL A   1      40.801  32.037  35.662  1.00  0.00     0.074 A 
ATOM     51  C   UNL A   1      42.368  27.754  31.254  1.00  0.00     0.029 A 
ATOM     52  N   UNL A   1      41.372  29.364  32.421  1.00  0.00    -0.354 N 
ATOM     53  N   UNL A   1      41.058  31.189  34.696  1.00  0.00    -0.248 NA
ATOM     54  C   UNL A   1      41.672  31.891  36.836  1.00  0.00     0.031 C 
ATOM     55  C   UNL A   1      43.021  27.877  32.484  1.00  0.00     0.029 A 
ATOM     56  C   UNL A   1      42.417  28.897  33.202  1.00  0.00     0.049 A 
ATOM     57  H   UNL A   1      40.757  30.090  32.675  1.00  0.00     0.167 HD
ATOM     58  C   UNL A   1      42.134  30.429  35.132  1.00  0.00     0.074 A 
ATOM     59  C   UNL A   1      42.494  30.928  36.443  1.00  0.00     0.031 C 
ATOM     60  C   UNL A   1      42.766  29.407  34.504  1.00  0.00     0.037 A 
BRANCH  47  61
ATOM     61  C   UNL A   1      40.363  27.958  28.997  1.00  0.00     0.064 A 
ATOM     62  C   UNL A   1      41.137  28.262  27.866  1.00  0.00     0.173 A 
ATOM     63  C   UNL A   1      39.635  26.759  28.988  1.00  0.00     0.173 A 
ATOM     64  F   UNL A   1      41.844  29.401  27.818  1.00  0.00    -0.203 F 
ATOM     65  C   UNL A   1      41.154  27.415  26.760  1.00  0.00     0.198 A 
ATOM     66  C   UNL A   1      39.682  25.899  27.893  1.00  0.00     0.198 A 
ATOM     67  F   UNL A   1      38.884  26.414  30.045  1.00  0.00    -0.203 F 
ATOM     68  F   UNL A   1      41.858  27.755  25.671  1.00  0.00    -0.200 F 
ATOM     69  C   UNL A   1      40.433  26.232  26.777  1.00  0.00     0.200 A 
ATOM     70  F   UNL A   1      38.996  24.747  27.918  1.00  0.00    -0.200 F 
ATOM     71  F   UNL A   1      40.456  25.416  25.714  1.00  0.00    -0.200 F 
ENDBRANCH  47  61
BRANCH  48  72
ATOM     72  C   UNL A   1      39.645  34.001  36.917  1.00  0.00     0.064 A 
ATOM     73  C   UNL A   1      38.858  33.627  38.016  1.00  0.00     0.173 A 
ATOM     74  C   UNL A   1      40.312  35.233  36.984  1.00  0.00     0.173 A 
ATOM     75  F   UNL A   1      38.185  32.467  37.992  1.00  0.00    -0.203 F 
ATOM     76  C   UNL A   1      38.726  34.459  39.125  1.00  0.00     0.198 A 
ATOM     77  C   UNL A   1      40.203  36.051  38.107  1.00  0.00     0.198 A 
ATOM     78  F   UNL A   1      41.081  35.637  35.962  1.00  0.00    -0.203 F 
ATOM     79  F   UNL A   1      37.929  34.097  40.140  1.00  0.00    -0.200 F 
ATOM     80  C   UNL A   1      39.404  35.667  39.172  1.00  0.00     0.200 A 
ATOM     81  F   UNL A   1      40.872  37.212  38.155  1.00  0.00    -0.200 F 
ATOM     82  F   UNL A   1      39.280  36.466  40.241  1.00  0.00    -0.200 F 
ENDBRANCH  48  72
BRANCH  60  83
ATOM     83  C   UNL A   1      43.935  28.781  35.211  1.00  0.00     0.064 A 
ATOM     84  C   UNL A   1      45.237  29.285  35.071  1.00  0.00     0.173 A 
ATOM     85  C   UNL A   1      43.743  27.685  36.067  1.00  0.00     0.173 A 
ATOM     86  F   UNL A   1      45.476  30.320  34.253  1.00  0.00    -0.203 F 
ATOM     87  C   UNL A   1      46.307  28.699  35.743  1.00  0.00     0.198 A 
ATOM     88  C   UNL A   1      44.810  27.123  36.762  1.00  0.00     0.198 A 
ATOM     89  F   UNL A   1      42.518  27.169  36.241  1.00  0.00    -0.203 F 
ATOM     90  F   UNL A   1      47.549  29.165  35.555  1.00  0.00    -0.200 F 
ATOM     91  C   UNL A   1      46.091  27.624  36.593  1.00  0.00     0.200 A 
ATOM     92  F   UNL A   1      44.597  26.095  37.596  1.00  0.00    -0.200 F 
ATOM     93  F   UNL A   1      47.121  27.067  37.245  1.00  0.00    -0.200 F 
ENDBRANCH  60  83
ENDBRANCH  34  35
ENDBRANCH  26  29
ENDBRANCH  24  25
ENDBRANCH  23  24
ENDBRANCH  22  23
ENDBRANCH   1  22
TORSDOF 15
ENDMDL
