MODEL 1
REMARK VINA RESULT:     -12.8      0.000      0.000
REMARK SMILES C[C@H]1CCC[C@]1(C(=O)NCCCCCCNC(=O)c1ccc(-c2c3nc(c(-c4c(F)c(F)c(F)c(F)c4F)c4ccc([nH]4)c(-c4c(F)c(F)c(F)c(F)c4F)c4nc(c(-c5c(F)c(F)c(F)c(F)c5F)c5ccc2[nH]5)C=C4)C=C3)cc1)c1ccc2c(c1)OCO2
REMARK SMILES IDX 13 1 12 2 11 3 10 4 9 5 7 6 8 7 6 9 1 10 2 11 3 12 4 13 5 14
REMARK SMILES IDX 82 15 83 16 87 17 84 18 86 19 85 20 88 21 90 22 89 23 14 24
REMARK SMILES IDX 15 25 16 26 17 27 18 29 19 30 20 31 81 32 21 33 80 34 22 35
REMARK SMILES IDX 23 36 24 37 74 38 25 39 79 40 73 41 75 42 26 43 78 44 72 45
REMARK SMILES IDX 71 46 27 48 59 49 39 50 58 51 40 52 43 53 57 54 76 55 41 56
REMARK SMILES IDX 42 57 56 59 77 60 44 61 28 62 29 63 37 64 30 65 31 66 35 67
REMARK SMILES IDX 38 68 32 69 33 70 36 71 34 72 60 73 61 74 69 75 62 76 63 77
REMARK SMILES IDX 67 78 70 79 64 80 65 81 68 82 66 83 45 84 46 85 54 86 47 87
REMARK SMILES IDX 48 88 52 89 55 90 49 91 50 92 53 93 51 94
REMARK H PARENT 9 8 16 28 75 47 43 58
REMARK Flexibility Score: inf
ROOT
ATOM      1  C   UNL A   1      31.563  30.510  26.104  1.00  0.00     0.002 C 
ENDROOT
BRANCH   1   2
ATOM      2  C   UNL A   1      32.402  29.659  27.065  1.00  0.00     0.002 C 
BRANCH   2   3
ATOM      3  C   UNL A   1      31.719  28.376  27.532  1.00  0.00     0.021 C 
BRANCH   3   4
ATOM      4  C   UNL A   1      31.321  27.456  26.388  1.00  0.00     0.116 C 
BRANCH   4   5
ATOM      5  N   UNL A   1      31.121  26.097  26.833  1.00  0.00    -0.355 N 
ATOM      6  C   UNL A   1      31.774  24.927  26.588  1.00  0.00     0.230 C 
ATOM      7  O   UNL A   1      31.383  24.002  27.309  1.00  0.00    -0.274 OA
ATOM      8  H   UNL A   1      30.353  25.996  27.440  1.00  0.00     0.163 HD
BRANCH   6   9
ATOM      9  C   UNL A   1      32.905  24.762  25.511  1.00  0.00     0.077 C 
ATOM     10  C   UNL A   1      30.978  24.179  23.800  1.00  0.00     0.009 C 
ATOM     11  C   UNL A   1      32.396  24.689  24.023  1.00  0.00     0.006 C 
ATOM     12  C   UNL A   1      32.689  26.038  23.374  1.00  0.00     0.005 C 
ATOM     13  C   UNL A   1      33.893  26.583  24.133  1.00  0.00     0.002 C 
ATOM     14  C   UNL A   1      33.826  26.020  25.557  1.00  0.00     0.022 C 
BRANCH   9  15
ATOM     15  C   UNL A   1      33.756  23.450  25.650  1.00  0.00    -0.028 A 
ATOM     16  C   UNL A   1      33.295  22.189  25.183  1.00  0.00     0.009 A 
ATOM     17  C   UNL A   1      35.127  23.555  25.987  1.00  0.00     0.055 A 
ATOM     18  C   UNL A   1      34.155  21.093  25.024  1.00  0.00     0.051 A 
ATOM     19  C   UNL A   1      35.959  22.487  25.750  1.00  0.00     0.166 A 
ATOM     20  C   UNL A   1      35.491  21.291  25.271  1.00  0.00     0.165 A 
ATOM     21  O   UNL A   1      37.318  22.518  25.837  1.00  0.00    -0.454 OA
ATOM     22  O   UNL A   1      36.501  20.420  24.999  1.00  0.00    -0.454 OA
ATOM     23  C   UNL A   1      37.631  21.311  25.116  1.00  0.00     0.468 C 
ENDBRANCH   9  15
ENDBRANCH   6   9
ENDBRANCH   4   5
ENDBRANCH   3   4
ENDBRANCH   2   3
ENDBRANCH   1   2
BRANCH   1  24
ATOM     24  C   UNL A   1      31.402  31.975  26.523  1.00  0.00     0.021 C 
BRANCH  24  25
ATOM     25  C   UNL A   1      32.612  32.544  27.253  1.00  0.00     0.116 C 
BRANCH  25  26
ATOM     26  N   UNL A   1      32.440  33.961  27.536  1.00  0.00    -0.352 N 
ATOM     27  C   UNL A   1      33.015  34.714  28.522  1.00  0.00     0.251 C 
ATOM     28  H   UNL A   1      31.826  34.443  26.936  1.00  0.00     0.163 HD
ATOM     29  O   UNL A   1      32.570  35.826  28.802  1.00  0.00    -0.269 OA
BRANCH  27  30
ATOM     30  C   UNL A   1      34.178  34.178  29.249  1.00  0.00     0.039 A 
ATOM     31  C   UNL A   1      33.972  33.409  30.394  1.00  0.00     0.014 A 
ATOM     32  C   UNL A   1      35.473  34.438  28.787  1.00  0.00     0.014 A 
ATOM     33  C   UNL A   1      35.070  32.858  31.055  1.00  0.00     0.010 A 
ATOM     34  C   UNL A   1      36.557  33.821  29.398  1.00  0.00     0.010 A 
ATOM     35  C   UNL A   1      36.367  33.036  30.545  1.00  0.00    -0.014 A 
BRANCH  35  36
ATOM     36  C   UNL A   1      37.544  32.422  31.202  1.00  0.00     0.031 A 
ATOM     37  C   UNL A   1      38.280  31.301  30.525  1.00  0.00     0.074 A 
ATOM     38  C   UNL A   1      37.905  32.828  32.434  1.00  0.00     0.049 A 
ATOM     39  N   UNL A   1      39.282  30.582  30.965  1.00  0.00    -0.248 NA
ATOM     40  C   UNL A   1      37.806  30.916  29.186  1.00  0.00     0.031 C 
ATOM     41  C   UNL A   1      37.240  33.879  33.206  1.00  0.00     0.029 A 
ATOM     42  N   UNL A   1      38.916  32.399  33.256  1.00  0.00    -0.354 N 
ATOM     43  C   UNL A   1      39.548  29.657  29.964  1.00  0.00     0.074 A 
ATOM     44  C   UNL A   1      38.562  29.861  28.926  1.00  0.00     0.031 C 
ATOM     45  C   UNL A   1      37.878  34.033  34.377  1.00  0.00     0.029 A 
ATOM     46  C   UNL A   1      38.965  33.063  34.458  1.00  0.00     0.049 A 
ATOM     47  H   UNL A   1      39.545  31.683  33.009  1.00  0.00     0.167 HD
ATOM     48  C   UNL A   1      40.544  28.741  29.904  1.00  0.00     0.037 A 
ATOM     49  C   UNL A   1      39.791  32.899  35.507  1.00  0.00     0.037 A 
ATOM     50  C   UNL A   1      41.528  28.554  30.938  1.00  0.00     0.049 A 
ATOM     51  C   UNL A   1      40.869  31.851  35.431  1.00  0.00     0.074 A 
ATOM     52  C   UNL A   1      42.605  27.686  30.959  1.00  0.00     0.029 A 
ATOM     53  N   UNL A   1      41.548  29.247  32.141  1.00  0.00    -0.354 N 
ATOM     54  N   UNL A   1      41.155  31.025  34.453  1.00  0.00    -0.248 NA
ATOM     55  C   UNL A   1      41.743  31.717  36.604  1.00  0.00     0.031 C 
ATOM     56  C   UNL A   1      43.242  27.812  32.198  1.00  0.00     0.029 A 
ATOM     57  C   UNL A   1      42.603  28.805  32.924  1.00  0.00     0.049 A 
ATOM     58  H   UNL A   1      40.907  29.947  32.401  1.00  0.00     0.167 HD
ATOM     59  C   UNL A   1      42.260  30.299  34.877  1.00  0.00     0.074 A 
ATOM     60  C   UNL A   1      42.599  30.791  36.196  1.00  0.00     0.031 C 
ATOM     61  C   UNL A   1      42.933  29.314  34.232  1.00  0.00     0.037 A 
BRANCH  48  62
ATOM     62  C   UNL A   1      40.609  27.869  28.682  1.00  0.00     0.064 A 
ATOM     63  C   UNL A   1      41.380  28.225  27.562  1.00  0.00     0.173 A 
ATOM     64  C   UNL A   1      39.907  26.656  28.631  1.00  0.00     0.173 A 
ATOM     65  F   UNL A   1      42.063  29.379  27.551  1.00  0.00    -0.203 F 
ATOM     66  C   UNL A   1      41.410  27.420  26.425  1.00  0.00     0.198 A 
ATOM     67  C   UNL A   1      39.968  25.836  27.507  1.00  0.00     0.198 A 
ATOM     68  F   UNL A   1      39.158  26.263  29.673  1.00  0.00    -0.203 F 
ATOM     69  F   UNL A   1      42.100  27.814  25.347  1.00  0.00    -0.200 F 
ATOM     70  C   UNL A   1      40.710  26.224  26.402  1.00  0.00     0.200 A 
ATOM     71  F   UNL A   1      39.304  24.672  27.492  1.00  0.00    -0.200 F 
ATOM     72  F   UNL A   1      40.742  25.449  25.308  1.00  0.00    -0.200 F 
ENDBRANCH  48  62
BRANCH  49  73
ATOM     73  C   UNL A   1      39.651  33.768  36.705  1.00  0.00     0.064 A 
ATOM     74  C   UNL A   1      38.881  33.357  37.802  1.00  0.00     0.173 A 
ATOM     75  C   UNL A   1      40.282  35.018  36.782  1.00  0.00     0.173 A 
ATOM     76  F   UNL A   1      38.244  32.178  37.769  1.00  0.00    -0.203 F 
ATOM     77  C   UNL A   1      38.728  34.174  38.921  1.00  0.00     0.198 A 
ATOM     78  C   UNL A   1      40.153  35.820  37.914  1.00  0.00     0.198 A 
ATOM     79  F   UNL A   1      41.037  35.454  35.762  1.00  0.00    -0.203 F 
ATOM     80  F   UNL A   1      37.947  33.778  39.935  1.00  0.00    -0.200 F 
ATOM     81  C   UNL A   1      39.370  35.402  38.979  1.00  0.00     0.200 A 
ATOM     82  F   UNL A   1      40.789  36.998  37.973  1.00  0.00    -0.200 F 
ATOM     83  F   UNL A   1      39.227  36.185  40.057  1.00  0.00    -0.200 F 
ENDBRANCH  49  73
BRANCH  61  84
ATOM     84  C   UNL A   1      44.135  28.734  34.922  1.00  0.00     0.064 A 
ATOM     85  C   UNL A   1      45.413  29.295  34.779  1.00  0.00     0.173 A 
ATOM     86  C   UNL A   1      43.996  27.625  35.770  1.00  0.00     0.173 A 
ATOM     87  F   UNL A   1      45.603  30.347  33.969  1.00  0.00    -0.203 F 
ATOM     88  C   UNL A   1      46.512  28.747  35.437  1.00  0.00     0.198 A 
ATOM     89  C   UNL A   1      45.090  27.102  36.455  1.00  0.00     0.198 A 
ATOM     90  F   UNL A   1      42.794  27.055  35.948  1.00  0.00    -0.203 F 
ATOM     91  F   UNL A   1      47.733  29.266  35.245  1.00  0.00    -0.200 F 
ATOM     92  C   UNL A   1      46.347  27.658  36.281  1.00  0.00     0.200 A 
ATOM     93  F   UNL A   1      44.926  26.061  37.282  1.00  0.00    -0.200 F 
ATOM     94  F   UNL A   1      47.405  27.140  36.921  1.00  0.00    -0.200 F 
ENDBRANCH  61  84
ENDBRANCH  35  36
ENDBRANCH  27  30
ENDBRANCH  25  26
ENDBRANCH  24  25
ENDBRANCH   1  24
TORSDOF 14
ENDMDL
MODEL 2
REMARK VINA RESULT:     -12.8      0.147      1.129
REMARK SMILES C[C@H]1CCC[C@]1(C(=O)NCCCCCCNC(=O)c1ccc(-c2c3nc(c(-c4c(F)c(F)c(F)c(F)c4F)c4ccc([nH]4)c(-c4c(F)c(F)c(F)c(F)c4F)c4nc(c(-c5c(F)c(F)c(F)c(F)c5F)c5ccc2[nH]5)C=C4)C=C3)cc1)c1ccc2c(c1)OCO2
REMARK SMILES IDX 13 1 12 2 11 3 10 4 9 5 7 6 8 7 6 9 1 10 2 11 3 12 4 13 5 14
REMARK SMILES IDX 82 15 83 16 87 17 84 18 86 19 85 20 88 21 90 22 89 23 14 24
REMARK SMILES IDX 15 25 16 26 17 27 18 29 19 30 20 31 81 32 21 33 80 34 22 35
REMARK SMILES IDX 23 36 24 37 74 38 25 39 79 40 73 41 75 42 26 43 78 44 72 45
REMARK SMILES IDX 71 46 27 48 59 49 39 50 58 51 40 52 43 53 57 54 76 55 41 56
REMARK SMILES IDX 42 57 56 59 77 60 44 61 28 62 29 63 37 64 30 65 31 66 35 67
REMARK SMILES IDX 38 68 32 69 33 70 36 71 34 72 60 73 61 74 69 75 62 76 63 77
REMARK SMILES IDX 67 78 70 79 64 80 65 81 68 82 66 83 45 84 46 85 54 86 47 87
REMARK SMILES IDX 48 88 52 89 55 90 49 91 50 92 53 93 51 94
REMARK H PARENT 9 8 16 28 75 47 43 58
REMARK Flexibility Score: inf
ROOT
ATOM      1  C   UNL A   1      31.612  30.586  25.973  1.00  0.00     0.002 C 
ENDROOT
BRANCH   1   2
ATOM      2  C   UNL A   1      32.449  29.625  26.826  1.00  0.00     0.002 C 
BRANCH   2   3
ATOM      3  C   UNL A   1      31.686  28.405  27.336  1.00  0.00     0.021 C 
BRANCH   3   4
ATOM      4  C   UNL A   1      31.278  27.445  26.228  1.00  0.00     0.116 C 
BRANCH   4   5
ATOM      5  N   UNL A   1      31.105  26.098  26.717  1.00  0.00    -0.355 N 
ATOM      6  C   UNL A   1      31.771  24.930  26.499  1.00  0.00     0.230 C 
ATOM      7  O   UNL A   1      31.405  24.023  27.254  1.00  0.00    -0.274 OA
ATOM      8  H   UNL A   1      30.348  26.005  27.339  1.00  0.00     0.163 HD
BRANCH   6   9
ATOM      9  C   UNL A   1      32.888  24.748  25.409  1.00  0.00     0.077 C 
ATOM     10  C   UNL A   1      30.942  24.091  23.746  1.00  0.00     0.009 C 
ATOM     11  C   UNL A   1      32.357  24.625  23.932  1.00  0.00     0.006 C 
ATOM     12  C   UNL A   1      32.623  25.958  23.240  1.00  0.00     0.005 C 
ATOM     13  C   UNL A   1      33.831  26.540  23.964  1.00  0.00     0.002 C 
ATOM     14  C   UNL A   1      33.793  26.018  25.404  1.00  0.00     0.022 C 
BRANCH   9  15
ATOM     15  C   UNL A   1      33.758  23.451  25.574  1.00  0.00    -0.028 A 
ATOM     16  C   UNL A   1      33.332  22.183  25.096  1.00  0.00     0.009 A 
ATOM     17  C   UNL A   1      35.117  23.581  25.946  1.00  0.00     0.055 A 
ATOM     18  C   UNL A   1      34.215  21.102  24.962  1.00  0.00     0.051 A 
ATOM     19  C   UNL A   1      35.974  22.528  25.734  1.00  0.00     0.166 A 
ATOM     20  C   UNL A   1      35.540  21.323  25.244  1.00  0.00     0.165 A 
ATOM     21  O   UNL A   1      37.329  22.583  25.857  1.00  0.00    -0.454 OA
ATOM     22  O   UNL A   1      36.572  20.470  25.001  1.00  0.00    -0.454 OA
ATOM     23  C   UNL A   1      37.683  21.380  25.147  1.00  0.00     0.468 C 
ENDBRANCH   9  15
ENDBRANCH   6   9
ENDBRANCH   4   5
ENDBRANCH   3   4
ENDBRANCH   2   3
ENDBRANCH   1   2
BRANCH   1  24
ATOM     24  C   UNL A   1      31.388  31.966  26.598  1.00  0.00     0.021 C 
BRANCH  24  25
ATOM     25  C   UNL A   1      32.639  32.571  27.221  1.00  0.00     0.116 C 
BRANCH  25  26
ATOM     26  N   UNL A   1      32.459  33.988  27.499  1.00  0.00    -0.352 N 
ATOM     27  C   UNL A   1      33.018  34.745  28.490  1.00  0.00     0.251 C 
ATOM     28  H   UNL A   1      31.852  34.467  26.889  1.00  0.00     0.163 HD
ATOM     29  O   UNL A   1      32.565  35.857  28.762  1.00  0.00    -0.269 OA
BRANCH  27  30
ATOM     30  C   UNL A   1      34.173  34.214  29.235  1.00  0.00     0.039 A 
ATOM     31  C   UNL A   1      33.955  33.486  30.404  1.00  0.00     0.014 A 
ATOM     32  C   UNL A   1      35.472  34.440  28.766  1.00  0.00     0.014 A 
ATOM     33  C   UNL A   1      35.044  32.938  31.082  1.00  0.00     0.010 A 
ATOM     34  C   UNL A   1      36.546  33.826  29.396  1.00  0.00     0.010 A 
ATOM     35  C   UNL A   1      36.344  33.081  30.567  1.00  0.00    -0.014 A 
BRANCH  35  36
ATOM     36  C   UNL A   1      37.511  32.470  31.244  1.00  0.00     0.031 A 
ATOM     37  C   UNL A   1      38.267  31.357  30.575  1.00  0.00     0.074 A 
ATOM     38  C   UNL A   1      37.846  32.870  32.484  1.00  0.00     0.049 A 
ATOM     39  N   UNL A   1      39.264  30.641  31.030  1.00  0.00    -0.248 NA
ATOM     40  C   UNL A   1      37.821  30.976  29.225  1.00  0.00     0.031 C 
ATOM     41  C   UNL A   1      37.160  33.913  33.249  1.00  0.00     0.029 A 
ATOM     42  N   UNL A   1      38.842  32.442  33.324  1.00  0.00    -0.354 N 
ATOM     43  C   UNL A   1      39.555  29.723  30.029  1.00  0.00     0.074 A 
ATOM     44  C   UNL A   1      38.589  29.927  28.973  1.00  0.00     0.031 C 
ATOM     45  C   UNL A   1      37.773  34.064  34.433  1.00  0.00     0.029 A 
ATOM     46  C   UNL A   1      38.865  33.100  34.530  1.00  0.00     0.049 A 
ATOM     47  H   UNL A   1      39.480  31.732  33.085  1.00  0.00     0.167 HD
ATOM     48  C   UNL A   1      40.557  28.813  29.984  1.00  0.00     0.037 A 
ATOM     49  C   UNL A   1      39.671  32.934  35.594  1.00  0.00     0.037 A 
ATOM     50  C   UNL A   1      41.522  28.625  31.036  1.00  0.00     0.049 A 
ATOM     51  C   UNL A   1      40.756  31.893  35.534  1.00  0.00     0.074 A 
ATOM     52  C   UNL A   1      42.603  27.764  31.074  1.00  0.00     0.029 A 
ATOM     53  N   UNL A   1      41.514  29.311  32.243  1.00  0.00    -0.354 N 
ATOM     54  N   UNL A   1      41.066  31.074  34.557  1.00  0.00    -0.248 NA
ATOM     55  C   UNL A   1      41.608  31.758  36.722  1.00  0.00     0.031 C 
ATOM     56  C   UNL A   1      43.215  27.886  32.325  1.00  0.00     0.029 A 
ATOM     57  C   UNL A   1      42.556  28.871  33.044  1.00  0.00     0.049 A 
ATOM     58  H   UNL A   1      40.865  30.007  32.494  1.00  0.00     0.167 HD
ATOM     59  C   UNL A   1      42.166  30.352  34.998  1.00  0.00     0.074 A 
ATOM     60  C   UNL A   1      42.477  30.839  36.326  1.00  0.00     0.031 C 
ATOM     61  C   UNL A   1      42.858  29.375  34.361  1.00  0.00     0.037 A 
BRANCH  48  62
ATOM     62  C   UNL A   1      40.651  27.949  28.758  1.00  0.00     0.064 A 
ATOM     63  C   UNL A   1      41.426  28.324  27.648  1.00  0.00     0.173 A 
ATOM     64  C   UNL A   1      39.974  26.722  28.695  1.00  0.00     0.173 A 
ATOM     65  F   UNL A   1      42.086  29.492  27.649  1.00  0.00    -0.203 F 
ATOM     66  C   UNL A   1      41.482  27.526  26.508  1.00  0.00     0.198 A 
ATOM     67  C   UNL A   1      40.063  25.909  27.568  1.00  0.00     0.198 A 
ATOM     68  F   UNL A   1      39.223  26.309  29.728  1.00  0.00    -0.203 F 
ATOM     69  F   UNL A   1      42.175  27.938  25.438  1.00  0.00    -0.200 F 
ATOM     70  C   UNL A   1      40.807  26.317  26.472  1.00  0.00     0.200 A 
ATOM     71  F   UNL A   1      39.422  24.732  27.541  1.00  0.00    -0.200 F 
ATOM     72  F   UNL A   1      40.865  25.547  25.375  1.00  0.00    -0.200 F 
ENDBRANCH  48  62
BRANCH  49  73
ATOM     73  C   UNL A   1      39.503  33.796  36.794  1.00  0.00     0.064 A 
ATOM     74  C   UNL A   1      40.129  35.047  36.872  1.00  0.00     0.173 A 
ATOM     75  C   UNL A   1      38.715  33.392  37.882  1.00  0.00     0.173 A 
ATOM     76  F   UNL A   1      40.907  35.470  35.865  1.00  0.00    -0.203 F 
ATOM     77  C   UNL A   1      39.993  35.852  38.002  1.00  0.00     0.198 A 
ATOM     78  C   UNL A   1      38.555  34.210  38.998  1.00  0.00     0.198 A 
ATOM     79  F   UNL A   1      38.088  32.206  37.855  1.00  0.00    -0.203 F 
ATOM     80  F   UNL A   1      40.641  37.022  38.070  1.00  0.00    -0.200 F 
ATOM     81  C   UNL A   1      39.200  35.436  39.060  1.00  0.00     0.200 A 
ATOM     82  F   UNL A   1      37.773  33.813  40.011  1.00  0.00    -0.200 F 
ATOM     83  F   UNL A   1      39.065  36.213  40.144  1.00  0.00    -0.200 F 
ENDBRANCH  49  73
BRANCH  61  84
ATOM     84  C   UNL A   1      44.050  28.798  35.071  1.00  0.00     0.064 A 
ATOM     85  C   UNL A   1      45.340  29.318  34.896  1.00  0.00     0.173 A 
ATOM     86  C   UNL A   1      43.888  27.734  35.971  1.00  0.00     0.173 A 
ATOM     87  F   UNL A   1      45.551  30.326  34.036  1.00  0.00    -0.203 F 
ATOM     88  C   UNL A   1      46.429  28.775  35.573  1.00  0.00     0.198 A 
ATOM     89  C   UNL A   1      44.973  27.216  36.674  1.00  0.00     0.198 A 
ATOM     90  F   UNL A   1      42.674  27.203  36.182  1.00  0.00    -0.203 F 
ATOM     91  F   UNL A   1      47.661  29.253  35.350  1.00  0.00    -0.200 F 
ATOM     92  C   UNL A   1      46.243  27.731  36.468  1.00  0.00     0.200 A 
ATOM     93  F   UNL A   1      44.788  26.220  37.551  1.00  0.00    -0.200 F 
ATOM     94  F   UNL A   1      47.291  27.218  37.126  1.00  0.00    -0.200 F 
ENDBRANCH  61  84
ENDBRANCH  35  36
ENDBRANCH  27  30
ENDBRANCH  25  26
ENDBRANCH  24  25
ENDBRANCH   1  24
TORSDOF 14
ENDMDL
MODEL 3
REMARK VINA RESULT:     -12.7      1.602      3.329
REMARK SMILES C[C@H]1CCC[C@]1(C(=O)NCCCCCCNC(=O)c1ccc(-c2c3nc(c(-c4c(F)c(F)c(F)c(F)c4F)c4ccc([nH]4)c(-c4c(F)c(F)c(F)c(F)c4F)c4nc(c(-c5c(F)c(F)c(F)c(F)c5F)c5ccc2[nH]5)C=C4)C=C3)cc1)c1ccc2c(c1)OCO2
REMARK SMILES IDX 13 1 12 2 11 3 10 4 9 5 7 6 8 7 6 9 1 10 2 11 3 12 4 13 5 14
REMARK SMILES IDX 82 15 83 16 87 17 84 18 86 19 85 20 88 21 90 22 89 23 14 24
REMARK SMILES IDX 15 25 16 26 17 27 18 29 19 30 20 31 81 32 21 33 80 34 22 35
REMARK SMILES IDX 23 36 24 37 74 38 25 39 79 40 73 41 75 42 26 43 78 44 72 45
REMARK SMILES IDX 71 46 27 48 59 49 39 50 58 51 40 52 43 53 57 54 76 55 41 56
REMARK SMILES IDX 42 57 56 59 77 60 44 61 28 62 29 63 37 64 30 65 31 66 35 67
REMARK SMILES IDX 38 68 32 69 33 70 36 71 34 72 60 73 61 74 69 75 62 76 63 77
REMARK SMILES IDX 67 78 70 79 64 80 65 81 68 82 66 83 45 84 46 85 54 86 47 87
REMARK SMILES IDX 48 88 52 89 55 90 49 91 50 92 53 93 51 94
REMARK H PARENT 9 8 16 28 75 47 43 58
REMARK Flexibility Score: inf
ROOT
ATOM      1  C   UNL A   1      31.689  30.765  26.126  1.00  0.00     0.002 C 
ENDROOT
BRANCH   1   2
ATOM      2  C   UNL A   1      32.966  30.086  26.634  1.00  0.00     0.002 C 
BRANCH   2   3
ATOM      3  C   UNL A   1      32.768  28.651  27.117  1.00  0.00     0.021 C 
BRANCH   3   4
ATOM      4  C   UNL A   1      31.346  28.144  26.929  1.00  0.00     0.116 C 
BRANCH   4   5
ATOM      5  N   UNL A   1      31.254  26.715  27.117  1.00  0.00    -0.355 N 
ATOM      6  C   UNL A   1      31.387  25.650  26.278  1.00  0.00     0.230 C 
ATOM      7  O   UNL A   1      31.403  24.569  26.876  1.00  0.00    -0.274 OA
ATOM      8  H   UNL A   1      31.053  26.457  28.045  1.00  0.00     0.163 HD
BRANCH   6   9
ATOM      9  C   UNL A   1      31.513  25.774  24.716  1.00  0.00     0.077 C 
ATOM     10  C   UNL A   1      34.128  25.853  25.088  1.00  0.00     0.009 C 
ATOM     11  C   UNL A   1      32.966  25.553  24.151  1.00  0.00     0.006 C 
ATOM     12  C   UNL A   1      33.005  24.162  23.526  1.00  0.00     0.005 C 
ATOM     13  C   UNL A   1      31.568  23.886  23.097  1.00  0.00     0.002 C 
ATOM     14  C   UNL A   1      30.652  24.654  24.056  1.00  0.00     0.022 C 
BRANCH   9  15
ATOM     15  C   UNL A   1      31.127  27.182  24.138  1.00  0.00    -0.028 A 
ATOM     16  C   UNL A   1      32.069  28.022  23.486  1.00  0.00     0.009 A 
ATOM     17  C   UNL A   1      29.758  27.513  24.001  1.00  0.00     0.055 A 
ATOM     18  C   UNL A   1      31.675  29.120  22.708  1.00  0.00     0.051 A 
ATOM     19  C   UNL A   1      29.398  28.549  23.172  1.00  0.00     0.166 A 
ATOM     20  C   UNL A   1      30.329  29.326  22.532  1.00  0.00     0.165 A 
ATOM     21  O   UNL A   1      28.124  28.845  22.795  1.00  0.00    -0.454 OA
ATOM     22  O   UNL A   1      29.751  30.210  21.674  1.00  0.00    -0.454 OA
ATOM     23  C   UNL A   1      28.400  29.702  21.671  1.00  0.00     0.468 C 
ENDBRANCH   9  15
ENDBRANCH   6   9
ENDBRANCH   4   5
ENDBRANCH   3   4
ENDBRANCH   2   3
ENDBRANCH   1   2
BRANCH   1  24
ATOM     24  C   UNL A   1      31.487  32.199  26.625  1.00  0.00     0.021 C 
BRANCH  24  25
ATOM     25  C   UNL A   1      32.732  32.815  27.253  1.00  0.00     0.116 C 
BRANCH  25  26
ATOM     26  N   UNL A   1      32.505  34.203  27.625  1.00  0.00    -0.352 N 
ATOM     27  C   UNL A   1      33.022  34.904  28.679  1.00  0.00     0.251 C 
ATOM     28  H   UNL A   1      31.895  34.706  27.038  1.00  0.00     0.163 HD
ATOM     29  O   UNL A   1      32.532  35.980  29.018  1.00  0.00    -0.269 OA
BRANCH  27  30
ATOM     30  C   UNL A   1      34.178  34.354  29.408  1.00  0.00     0.039 A 
ATOM     31  C   UNL A   1      33.974  33.721  30.633  1.00  0.00     0.014 A 
ATOM     32  C   UNL A   1      35.464  34.467  28.868  1.00  0.00     0.014 A 
ATOM     33  C   UNL A   1      35.060  33.155  31.301  1.00  0.00     0.010 A 
ATOM     34  C   UNL A   1      36.530  33.832  29.493  1.00  0.00     0.010 A 
ATOM     35  C   UNL A   1      36.340  33.182  30.721  1.00  0.00    -0.014 A 
BRANCH  35  36
ATOM     36  C   UNL A   1      37.501  32.547  31.388  1.00  0.00     0.031 A 
ATOM     37  C   UNL A   1      38.230  31.421  30.712  1.00  0.00     0.074 A 
ATOM     38  C   UNL A   1      37.852  32.940  32.627  1.00  0.00     0.049 A 
ATOM     39  N   UNL A   1      39.216  30.685  31.159  1.00  0.00    -0.248 NA
ATOM     40  C   UNL A   1      37.766  31.051  29.365  1.00  0.00     0.031 C 
ATOM     41  C   UNL A   1      37.192  33.994  33.398  1.00  0.00     0.029 A 
ATOM     42  N   UNL A   1      38.847  32.491  33.458  1.00  0.00    -0.354 N 
ATOM     43  C   UNL A   1      39.482  29.764  30.154  1.00  0.00     0.074 A 
ATOM     44  C   UNL A   1      38.511  29.988  29.106  1.00  0.00     0.031 C 
ATOM     45  C   UNL A   1      37.818  34.131  34.578  1.00  0.00     0.029 A 
ATOM     46  C   UNL A   1      38.891  33.146  34.665  1.00  0.00     0.049 A 
ATOM     47  H   UNL A   1      39.469  31.769  33.213  1.00  0.00     0.167 HD
ATOM     48  C   UNL A   1      40.465  28.835  30.100  1.00  0.00     0.037 A 
ATOM     49  C   UNL A   1      39.702  32.963  35.723  1.00  0.00     0.037 A 
ATOM     50  C   UNL A   1      41.434  28.627  31.144  1.00  0.00     0.049 A 
ATOM     51  C   UNL A   1      40.766  31.901  35.652  1.00  0.00     0.074 A 
ATOM     52  C   UNL A   1      42.499  27.744  31.172  1.00  0.00     0.029 A 
ATOM     53  N   UNL A   1      41.449  29.311  32.353  1.00  0.00    -0.354 N 
ATOM     54  N   UNL A   1      41.053  31.078  34.672  1.00  0.00    -0.248 NA
ATOM     55  C   UNL A   1      41.624  31.748  36.834  1.00  0.00     0.031 C 
ATOM     56  C   UNL A   1      43.123  27.853  32.419  1.00  0.00     0.029 A 
ATOM     57  C   UNL A   1      42.489  28.849  33.145  1.00  0.00     0.049 A 
ATOM     58  H   UNL A   1      40.815  30.018  32.609  1.00  0.00     0.167 HD
ATOM     59  C   UNL A   1      42.142  30.334  35.104  1.00  0.00     0.074 A 
ATOM     60  C   UNL A   1      42.473  30.813  36.431  1.00  0.00     0.031 C 
ATOM     61  C   UNL A   1      42.810  29.345  34.460  1.00  0.00     0.037 A 
BRANCH  48  62
ATOM     62  C   UNL A   1      40.534  27.970  28.872  1.00  0.00     0.064 A 
ATOM     63  C   UNL A   1      39.828  26.759  28.782  1.00  0.00     0.173 A 
ATOM     64  C   UNL A   1      41.300  28.362  27.765  1.00  0.00     0.173 A 
ATOM     65  F   UNL A   1      39.088  26.330  29.815  1.00  0.00    -0.203 F 
ATOM     66  C   UNL A   1      39.922  25.955  27.648  1.00  0.00     0.198 A 
ATOM     67  C   UNL A   1      41.363  27.574  26.618  1.00  0.00     0.198 A 
ATOM     68  F   UNL A   1      41.991  29.513  27.792  1.00  0.00    -0.203 F 
ATOM     69  F   UNL A   1      39.292  24.774  27.613  1.00  0.00    -0.200 F 
ATOM     70  C   UNL A   1      40.683  26.367  26.566  1.00  0.00     0.200 A 
ATOM     71  F   UNL A   1      42.086  27.981  25.566  1.00  0.00    -0.200 F 
ATOM     72  F   UNL A   1      40.770  25.594  25.474  1.00  0.00    -0.200 F 
ENDBRANCH  48  62
BRANCH  49  73
ATOM     73  C   UNL A   1      39.559  33.826  36.926  1.00  0.00     0.064 A 
ATOM     74  C   UNL A   1      38.774  33.416  38.013  1.00  0.00     0.173 A 
ATOM     75  C   UNL A   1      40.202  35.069  37.017  1.00  0.00     0.173 A 
ATOM     76  F   UNL A   1      38.126  32.243  37.966  1.00  0.00    -0.203 F 
ATOM     77  C   UNL A   1      38.619  34.227  39.135  1.00  0.00     0.198 A 
ATOM     78  C   UNL A   1      40.071  35.865  38.152  1.00  0.00     0.198 A 
ATOM     79  F   UNL A   1      40.971  35.504  36.007  1.00  0.00    -0.203 F 
ATOM     80  F   UNL A   1      37.825  33.833  40.139  1.00  0.00    -0.200 F 
ATOM     81  C   UNL A   1      39.273  35.448  39.207  1.00  0.00     0.200 A 
ATOM     82  F   UNL A   1      40.718  37.036  38.225  1.00  0.00    -0.200 F 
ATOM     83  F   UNL A   1      39.127  36.225  40.289  1.00  0.00    -0.200 F 
ENDBRANCH  49  73
BRANCH  61  84
ATOM     84  C   UNL A   1      43.996  28.744  35.160  1.00  0.00     0.064 A 
ATOM     85  C   UNL A   1      45.286  29.273  35.018  1.00  0.00     0.173 A 
ATOM     86  C   UNL A   1      43.827  27.646  36.018  1.00  0.00     0.173 A 
ATOM     87  F   UNL A   1      45.504  30.314  34.200  1.00  0.00    -0.203 F 
ATOM     88  C   UNL A   1      46.370  28.707  35.686  1.00  0.00     0.198 A 
ATOM     89  C   UNL A   1      44.906  27.104  36.712  1.00  0.00     0.198 A 
ATOM     90  F   UNL A   1      42.613  27.105  36.195  1.00  0.00    -0.203 F 
ATOM     91  F   UNL A   1      47.603  29.196  35.494  1.00  0.00    -0.200 F 
ATOM     92  C   UNL A   1      46.177  27.630  36.539  1.00  0.00     0.200 A 
ATOM     93  F   UNL A   1      44.715  26.075  37.548  1.00  0.00    -0.200 F 
ATOM     94  F   UNL A   1      47.220  27.093  37.188  1.00  0.00    -0.200 F 
ENDBRANCH  61  84
ENDBRANCH  35  36
ENDBRANCH  27  30
ENDBRANCH  25  26
ENDBRANCH  24  25
ENDBRANCH   1  24
TORSDOF 14
ENDMDL
