MODEL 1
REMARK VINA RESULT:     -12.6      0.000      0.000
REMARK SMILES COc1ccc(C(=O)NCCCCCCNC(=O)c2ccc(-c3c4nc(c(-c5c(F)c(F)c(F)c(F)c5F)c5ccc([nH]5)c(-c5c(F)c(F)c(F)c(F)c5F)c5nc(c(-c6c(F)c(F)c(F)c(F)c6F)c6ccc3[nH]6)C=C5)C=C4)cc2)cc1CN1CC(=O)N(C)CC1=O
REMARK SMILES IDX 12 1 11 2 10 3 9 4 7 5 8 6 6 8 3 9 4 10 83 11 5 12 82 13
REMARK SMILES IDX 2 14 1 15 84 16 85 17 86 18 92 19 87 20 91 21 93 22 88 23
REMARK SMILES IDX 89 24 90 25 13 26 14 27 15 28 16 29 17 30 18 32 19 33 20 34
REMARK SMILES IDX 81 35 21 36 80 37 22 38 23 39 24 40 74 41 25 42 79 43 73 44
REMARK SMILES IDX 75 45 26 46 78 47 72 48 71 49 27 51 59 52 39 53 58 54 40 55
REMARK SMILES IDX 43 56 57 57 76 58 41 59 42 60 56 62 77 63 44 64 28 65 29 66
REMARK SMILES IDX 37 67 30 68 31 69 35 70 38 71 32 72 33 73 36 74 34 75 60 76
REMARK SMILES IDX 61 77 69 78 62 79 63 80 67 81 70 82 64 83 65 84 68 85 66 86
REMARK SMILES IDX 45 87 46 88 54 89 47 90 48 91 52 92 55 93 49 94 50 95 53 96
REMARK SMILES IDX 51 97
REMARK H PARENT 9 7 16 31 75 50 43 61
REMARK Flexibility Score: inf
ROOT
ATOM      1  C   UNL A   1      31.832  29.999  25.306  1.00  0.00     0.002 C 
ENDROOT
BRANCH   1   2
ATOM      2  C   UNL A   1      33.169  29.267  25.130  1.00  0.00     0.021 C 
BRANCH   2   3
ATOM      3  C   UNL A   1      33.494  28.967  23.664  1.00  0.00     0.116 C 
BRANCH   3   4
ATOM      4  N   UNL A   1      32.282  28.617  22.942  1.00  0.00    -0.352 N 
ATOM      5  C   UNL A   1      31.330  27.640  23.079  1.00  0.00     0.251 C 
ATOM      6  O   UNL A   1      30.413  27.644  22.255  1.00  0.00    -0.269 OA
ATOM      7  H   UNL A   1      32.103  29.220  22.184  1.00  0.00     0.163 HD
BRANCH   5   8
ATOM      8  C   UNL A   1      31.315  26.610  24.160  1.00  0.00     0.040 A 
ATOM      9  C   UNL A   1      31.178  24.694  26.264  1.00  0.00     0.123 A 
ATOM     10  C   UNL A   1      30.178  25.666  26.082  1.00  0.00     0.047 A 
ATOM     11  C   UNL A   1      32.268  24.672  25.388  1.00  0.00     0.014 A 
ATOM     12  C   UNL A   1      30.256  26.625  25.066  1.00  0.00     0.017 A 
ATOM     13  C   UNL A   1      32.265  25.604  24.315  1.00  0.00     0.023 A 
BRANCH   9  14
ATOM     14  O   UNL A   1      30.856  23.802  27.246  1.00  0.00    -0.496 OA
ATOM     15  C   UNL A   1      29.911  22.784  26.970  1.00  0.00     0.278 C 
ENDBRANCH   9  14
BRANCH  11  16
ATOM     16  C   UNL A   1      33.461  23.738  25.422  1.00  0.00     0.159 C 
BRANCH  16  17
ATOM     17  N   UNL A   1      33.083  22.383  25.058  1.00  0.00    -0.327 N 
ATOM     18  C   UNL A   1      32.253  22.187  23.882  1.00  0.00     0.220 C 
ATOM     19  C   UNL A   1      33.209  21.343  25.967  1.00  0.00     0.242 C 
ATOM     20  C   UNL A   1      32.342  20.810  23.223  1.00  0.00     0.242 C 
ATOM     21  C   UNL A   1      33.455  20.003  25.283  1.00  0.00     0.219 C 
ATOM     22  O   UNL A   1      33.432  21.508  27.164  1.00  0.00    -0.273 OA
ATOM     23  O   UNL A   1      31.909  20.628  22.085  1.00  0.00    -0.273 OA
ATOM     24  N   UNL A   1      32.692  19.765  24.068  1.00  0.00    -0.335 N 
ATOM     25  C   UNL A   1      32.620  18.405  23.574  1.00  0.00     0.147 C 
ENDBRANCH  16  17
ENDBRANCH  11  16
ENDBRANCH   5   8
ENDBRANCH   3   4
ENDBRANCH   2   3
ENDBRANCH   1   2
BRANCH   1  26
ATOM     26  C   UNL A   1      31.616  30.599  26.704  1.00  0.00     0.002 C 
BRANCH  26  27
ATOM     27  C   UNL A   1      31.498  32.125  26.742  1.00  0.00     0.021 C 
BRANCH  27  28
ATOM     28  C   UNL A   1      32.754  32.829  27.241  1.00  0.00     0.116 C 
BRANCH  28  29
ATOM     29  N   UNL A   1      32.482  34.216  27.593  1.00  0.00    -0.352 N 
ATOM     30  C   UNL A   1      32.996  34.965  28.622  1.00  0.00     0.251 C 
ATOM     31  H   UNL A   1      31.839  34.681  27.010  1.00  0.00     0.163 HD
ATOM     32  O   UNL A   1      32.489  36.033  28.935  1.00  0.00    -0.269 OA
BRANCH  30  33
ATOM     33  C   UNL A   1      34.177  34.464  29.353  1.00  0.00     0.039 A 
ATOM     34  C   UNL A   1      34.003  33.831  30.587  1.00  0.00     0.014 A 
ATOM     35  C   UNL A   1      35.453  34.621  28.810  1.00  0.00     0.014 A 
ATOM     36  C   UNL A   1      35.111  33.301  31.252  1.00  0.00     0.010 A 
ATOM     37  C   UNL A   1      36.544  34.032  29.436  1.00  0.00     0.010 A 
ATOM     38  C   UNL A   1      36.383  33.372  30.665  1.00  0.00    -0.014 A 
BRANCH  38  39
ATOM     39  C   UNL A   1      37.581  32.783  31.312  1.00  0.00     0.031 A 
ATOM     40  C   UNL A   1      38.283  31.629  30.657  1.00  0.00     0.074 A 
ATOM     41  C   UNL A   1      37.960  33.206  32.533  1.00  0.00     0.049 A 
ATOM     42  N   UNL A   1      39.231  30.859  31.126  1.00  0.00    -0.248 NA
ATOM     43  C   UNL A   1      37.829  31.270  29.304  1.00  0.00     0.031 C 
ATOM     44  C   UNL A   1      37.331  34.292  33.284  1.00  0.00     0.029 A 
ATOM     45  N   UNL A   1      38.947  32.749  33.369  1.00  0.00    -0.354 N 
ATOM     46  C   UNL A   1      39.461  29.907  30.142  1.00  0.00     0.074 A 
ATOM     47  C   UNL A   1      38.526  30.168  29.071  1.00  0.00     0.031 C 
ATOM     48  C   UNL A   1      37.946  34.419  34.470  1.00  0.00     0.029 A 
ATOM     49  C   UNL A   1      38.979  33.393  34.582  1.00  0.00     0.049 A 
ATOM     50  H   UNL A   1      39.572  32.029  33.124  1.00  0.00     0.167 HD
ATOM     51  C   UNL A   1      40.382  28.914  30.131  1.00  0.00     0.037 A 
ATOM     52  C   UNL A   1      39.738  33.164  35.672  1.00  0.00     0.037 A 
ATOM     53  C   UNL A   1      41.328  28.684  31.191  1.00  0.00     0.049 A 
ATOM     54  C   UNL A   1      40.755  32.055  35.639  1.00  0.00     0.074 A 
ATOM     55  C   UNL A   1      42.352  27.757  31.244  1.00  0.00     0.029 A 
ATOM     56  N   UNL A   1      41.358  29.386  32.388  1.00  0.00    -0.354 N 
ATOM     57  N   UNL A   1      41.013  31.200  34.678  1.00  0.00    -0.248 NA
ATOM     58  C   UNL A   1      41.589  31.880  36.836  1.00  0.00     0.031 C 
ATOM     59  C   UNL A   1      42.966  27.857  32.497  1.00  0.00     0.029 A 
ATOM     60  C   UNL A   1      42.366  28.891  33.199  1.00  0.00     0.049 A 
ATOM     61  H   UNL A   1      40.753  30.125  32.624  1.00  0.00     0.167 HD
ATOM     62  C   UNL A   1      42.057  30.410  35.139  1.00  0.00     0.074 A 
ATOM     63  C   UNL A   1      42.385  30.886  36.467  1.00  0.00     0.031 C 
ATOM     64  C   UNL A   1      42.690  29.388  34.513  1.00  0.00     0.037 A 
BRANCH  51  65
ATOM     65  C   UNL A   1      40.395  27.993  28.944  1.00  0.00     0.064 A 
ATOM     66  C   UNL A   1      41.155  28.268  27.798  1.00  0.00     0.173 A 
ATOM     67  C   UNL A   1      39.645  26.807  28.961  1.00  0.00     0.173 A 
ATOM     68  F   UNL A   1      41.884  29.393  27.724  1.00  0.00    -0.203 F 
ATOM     69  C   UNL A   1      41.129  27.416  26.697  1.00  0.00     0.198 A 
ATOM     70  C   UNL A   1      39.650  25.938  27.873  1.00  0.00     0.198 A 
ATOM     71  F   UNL A   1      38.905  26.488  30.035  1.00  0.00    -0.203 F 
ATOM     72  F   UNL A   1      41.812  27.735  25.589  1.00  0.00    -0.200 F 
ATOM     73  C   UNL A   1      40.382  26.249  26.738  1.00  0.00     0.200 A 
ATOM     74  F   UNL A   1      38.939  24.802  27.921  1.00  0.00    -0.200 F 
ATOM     75  F   UNL A   1      40.359  25.429  25.679  1.00  0.00    -0.200 F 
ENDBRANCH  51  65
BRANCH  52  76
ATOM     76  C   UNL A   1      39.563  34.014  36.876  1.00  0.00     0.064 A 
ATOM     77  C   UNL A   1      38.779  33.582  37.955  1.00  0.00     0.173 A 
ATOM     78  C   UNL A   1      40.199  35.259  36.989  1.00  0.00     0.173 A 
ATOM     79  F   UNL A   1      38.137  32.407  37.886  1.00  0.00    -0.203 F 
ATOM     80  C   UNL A   1      38.633  34.366  39.097  1.00  0.00     0.198 A 
ATOM     81  C   UNL A   1      40.073  36.031  38.143  1.00  0.00     0.198 A 
ATOM     82  F   UNL A   1      40.964  35.717  35.987  1.00  0.00    -0.203 F 
ATOM     83  F   UNL A   1      37.853  33.943  40.102  1.00  0.00    -0.200 F 
ATOM     84  C   UNL A   1      39.286  35.585  39.195  1.00  0.00     0.200 A 
ATOM     85  F   UNL A   1      40.720  37.200  38.239  1.00  0.00    -0.200 F 
ATOM     86  F   UNL A   1      39.156  36.333  40.299  1.00  0.00    -0.200 F 
ENDBRANCH  52  76
BRANCH  64  87
ATOM     87  C   UNL A   1      43.839  28.736  35.226  1.00  0.00     0.064 A 
ATOM     88  C   UNL A   1      45.158  29.179  35.063  1.00  0.00     0.173 A 
ATOM     89  C   UNL A   1      43.597  27.713  36.157  1.00  0.00     0.173 A 
ATOM     90  F   UNL A   1      45.442  30.143  34.175  1.00  0.00    -0.203 F 
ATOM     91  C   UNL A   1      46.196  28.616  35.802  1.00  0.00     0.198 A 
ATOM     92  C   UNL A   1      44.632  27.175  36.915  1.00  0.00     0.198 A 
ATOM     93  F   UNL A   1      42.350  27.259  36.354  1.00  0.00    -0.203 F 
ATOM     94  F   UNL A   1      47.455  29.036  35.613  1.00  0.00    -0.200 F 
ATOM     95  C   UNL A   1      45.930  27.625  36.736  1.00  0.00     0.200 A 
ATOM     96  F   UNL A   1      44.370  26.229  37.828  1.00  0.00    -0.200 F 
ATOM     97  F   UNL A   1      46.928  27.103  37.464  1.00  0.00    -0.200 F 
ENDBRANCH  64  87
ENDBRANCH  38  39
ENDBRANCH  30  33
ENDBRANCH  28  29
ENDBRANCH  27  28
ENDBRANCH  26  27
ENDBRANCH   1  26
TORSDOF 16
ENDMDL
MODEL 2
REMARK VINA RESULT:     -12.6      5.433     11.226
REMARK SMILES COc1ccc(C(=O)NCCCCCCNC(=O)c2ccc(-c3c4nc(c(-c5c(F)c(F)c(F)c(F)c5F)c5ccc([nH]5)c(-c5c(F)c(F)c(F)c(F)c5F)c5nc(c(-c6c(F)c(F)c(F)c(F)c6F)c6ccc3[nH]6)C=C5)C=C4)cc2)cc1CN1CC(=O)N(C)CC1=O
REMARK SMILES IDX 12 1 11 2 10 3 9 4 7 5 8 6 6 8 3 9 4 10 83 11 5 12 82 13
REMARK SMILES IDX 2 14 1 15 84 16 85 17 86 18 92 19 87 20 91 21 93 22 88 23
REMARK SMILES IDX 89 24 90 25 13 26 14 27 15 28 16 29 17 30 18 32 19 33 20 34
REMARK SMILES IDX 81 35 21 36 80 37 22 38 23 39 24 40 74 41 25 42 79 43 73 44
REMARK SMILES IDX 75 45 26 46 78 47 72 48 71 49 27 51 59 52 39 53 58 54 40 55
REMARK SMILES IDX 43 56 57 57 76 58 41 59 42 60 56 62 77 63 44 64 28 65 29 66
REMARK SMILES IDX 37 67 30 68 31 69 35 70 38 71 32 72 33 73 36 74 34 75 60 76
REMARK SMILES IDX 61 77 69 78 62 79 63 80 67 81 70 82 64 83 65 84 68 85 66 86
REMARK SMILES IDX 45 87 46 88 54 89 47 90 48 91 52 92 55 93 49 94 50 95 53 96
REMARK SMILES IDX 51 97
REMARK H PARENT 9 7 16 31 75 50 43 61
REMARK Flexibility Score: inf
ROOT
ATOM      1  C   UNL A   1      35.681  20.811  25.365  1.00  0.00     0.002 C 
ENDROOT
BRANCH   1   2
ATOM      2  C   UNL A   1      35.386  21.923  26.379  1.00  0.00     0.021 C 
BRANCH   2   3
ATOM      3  C   UNL A   1      33.979  21.825  26.977  1.00  0.00     0.116 C 
BRANCH   3   4
ATOM      4  N   UNL A   1      33.163  20.913  26.192  1.00  0.00    -0.352 N 
ATOM      5  C   UNL A   1      32.423  21.030  25.044  1.00  0.00     0.251 C 
ATOM      6  O   UNL A   1      31.839  20.016  24.659  1.00  0.00    -0.269 OA
ATOM      7  H   UNL A   1      33.138  20.004  26.571  1.00  0.00     0.163 HD
BRANCH   5   8
ATOM      8  C   UNL A   1      32.307  22.276  24.229  1.00  0.00     0.040 A 
ATOM      9  C   UNL A   1      32.197  24.623  22.618  1.00  0.00     0.123 A 
ATOM     10  C   UNL A   1      33.263  23.712  22.525  1.00  0.00     0.047 A 
ATOM     11  C   UNL A   1      31.166  24.369  23.529  1.00  0.00     0.014 A 
ATOM     12  C   UNL A   1      33.334  22.571  23.333  1.00  0.00     0.017 A 
ATOM     13  C   UNL A   1      31.229  23.156  24.267  1.00  0.00     0.023 A 
BRANCH   9  14
ATOM     14  O   UNL A   1      32.276  25.607  21.675  1.00  0.00    -0.496 OA
ATOM     15  C   UNL A   1      33.278  26.601  21.797  1.00  0.00     0.278 C 
ENDBRANCH   9  14
BRANCH  11  16
ATOM     16  C   UNL A   1      29.950  25.228  23.810  1.00  0.00     0.159 C 
BRANCH  16  17
ATOM     17  N   UNL A   1      30.321  26.472  24.463  1.00  0.00    -0.327 N 
ATOM     18  C   UNL A   1      30.400  26.498  25.913  1.00  0.00     0.220 C 
ATOM     19  C   UNL A   1      30.270  27.676  23.776  1.00  0.00     0.242 C 
ATOM     20  C   UNL A   1      31.297  27.581  26.514  1.00  0.00     0.242 C 
ATOM     21  C   UNL A   1      31.289  28.684  24.298  1.00  0.00     0.219 C 
ATOM     22  O   UNL A   1      29.726  27.813  22.682  1.00  0.00    -0.273 OA
ATOM     23  O   UNL A   1      31.653  27.520  27.691  1.00  0.00    -0.273 OA
ATOM     24  N   UNL A   1      31.454  28.723  25.742  1.00  0.00    -0.335 N 
ATOM     25  C   UNL A   1      32.131  29.871  26.310  1.00  0.00     0.147 C 
ENDBRANCH  16  17
ENDBRANCH  11  16
ENDBRANCH   5   8
ENDBRANCH   3   4
ENDBRANCH   2   3
ENDBRANCH   1   2
BRANCH   1  26
ATOM     26  C   UNL A   1      37.037  20.943  24.654  1.00  0.00     0.002 C 
BRANCH  26  27
ATOM     27  C   UNL A   1      38.038  19.826  24.960  1.00  0.00     0.021 C 
BRANCH  27  28
ATOM     28  C   UNL A   1      39.208  20.266  25.831  1.00  0.00     0.116 C 
BRANCH  28  29
ATOM     29  N   UNL A   1      40.196  19.204  25.971  1.00  0.00    -0.352 N 
ATOM     30  C   UNL A   1      41.560  19.301  26.093  1.00  0.00     0.251 C 
ATOM     31  H   UNL A   1      39.834  18.288  25.980  1.00  0.00     0.163 HD
ATOM     32  O   UNL A   1      42.274  18.318  25.954  1.00  0.00    -0.269 OA
BRANCH  30  33
ATOM     33  C   UNL A   1      42.161  20.616  26.395  1.00  0.00     0.039 A 
ATOM     34  C   UNL A   1      42.567  21.442  25.344  1.00  0.00     0.014 A 
ATOM     35  C   UNL A   1      42.316  21.026  27.720  1.00  0.00     0.014 A 
ATOM     36  C   UNL A   1      43.079  22.711  25.624  1.00  0.00     0.010 A 
ATOM     37  C   UNL A   1      42.757  22.313  27.995  1.00  0.00     0.010 A 
ATOM     38  C   UNL A   1      43.148  23.166  26.950  1.00  0.00    -0.014 A 
BRANCH  38  39
ATOM     39  C   UNL A   1      43.641  24.522  27.291  1.00  0.00     0.031 A 
ATOM     40  C   UNL A   1      42.677  25.550  27.808  1.00  0.00     0.074 A 
ATOM     41  C   UNL A   1      44.917  24.858  27.027  1.00  0.00     0.049 A 
ATOM     42  N   UNL A   1      42.854  26.832  28.002  1.00  0.00    -0.248 NA
ATOM     43  C   UNL A   1      41.317  25.078  28.111  1.00  0.00     0.031 C 
ATOM     44  C   UNL A   1      45.935  23.955  26.489  1.00  0.00     0.029 A 
ATOM     45  N   UNL A   1      45.567  26.061  27.147  1.00  0.00    -0.354 N 
ATOM     46  C   UNL A   1      41.623  27.322  28.415  1.00  0.00     0.074 A 
ATOM     47  C   UNL A   1      40.697  26.212  28.402  1.00  0.00     0.031 C 
ATOM     48  C   UNL A   1      47.081  24.634  26.324  1.00  0.00     0.029 A 
ATOM     49  C   UNL A   1      46.865  26.029  26.699  1.00  0.00     0.049 A 
ATOM     50  H   UNL A   1      45.144  26.868  27.518  1.00  0.00     0.167 HD
ATOM     51  C   UNL A   1      41.301  28.584  28.786  1.00  0.00     0.037 A 
ATOM     52  C   UNL A   1      47.771  27.020  26.579  1.00  0.00     0.037 A 
ATOM     53  C   UNL A   1      42.240  29.674  28.824  1.00  0.00     0.049 A 
ATOM     54  C   UNL A   1      47.393  28.415  26.996  1.00  0.00     0.074 A 
ATOM     55  C   UNL A   1      42.037  30.971  29.258  1.00  0.00     0.029 A 
ATOM     56  N   UNL A   1      43.560  29.594  28.403  1.00  0.00    -0.354 N 
ATOM     57  N   UNL A   1      46.245  28.859  27.450  1.00  0.00    -0.248 NA
ATOM     58  C   UNL A   1      48.434  29.447  26.890  1.00  0.00     0.031 C 
ATOM     59  C   UNL A   1      43.216  31.692  29.046  1.00  0.00     0.029 A 
ATOM     60  C   UNL A   1      44.175  30.828  28.540  1.00  0.00     0.049 A 
ATOM     61  H   UNL A   1      43.994  28.780  28.059  1.00  0.00     0.167 HD
ATOM     62  C   UNL A   1      46.433  30.209  27.715  1.00  0.00     0.074 A 
ATOM     63  C   UNL A   1      47.806  30.513  27.369  1.00  0.00     0.031 C 
ATOM     64  C   UNL A   1      45.549  31.109  28.206  1.00  0.00     0.037 A 
BRANCH  51  65
ATOM     65  C   UNL A   1      39.872  28.855  29.161  1.00  0.00     0.064 A 
ATOM     66  C   UNL A   1      39.410  28.716  30.479  1.00  0.00     0.173 A 
ATOM     67  C   UNL A   1      38.952  29.273  28.187  1.00  0.00     0.173 A 
ATOM     68  F   UNL A   1      40.244  28.308  31.448  1.00  0.00    -0.203 F 
ATOM     69  C   UNL A   1      38.074  28.942  30.799  1.00  0.00     0.198 A 
ATOM     70  C   UNL A   1      37.625  29.535  28.517  1.00  0.00     0.198 A 
ATOM     71  F   UNL A   1      39.340  29.431  26.912  1.00  0.00    -0.203 F 
ATOM     72  F   UNL A   1      37.643  28.738  32.051  1.00  0.00    -0.200 F 
ATOM     73  C   UNL A   1      37.184  29.357  29.820  1.00  0.00     0.200 A 
ATOM     74  F   UNL A   1      36.771  29.951  27.572  1.00  0.00    -0.200 F 
ATOM     75  F   UNL A   1      35.899  29.576  30.129  1.00  0.00    -0.200 F 
ENDBRANCH  51  65
BRANCH  52  76
ATOM     76  C   UNL A   1      49.123  26.712  26.048  1.00  0.00     0.064 A 
ATOM     77  C   UNL A   1      49.450  26.981  24.712  1.00  0.00     0.173 A 
ATOM     78  C   UNL A   1      50.125  26.176  26.870  1.00  0.00     0.173 A 
ATOM     79  F   UNL A   1      48.521  27.477  23.883  1.00  0.00    -0.203 F 
ATOM     80  C   UNL A   1      50.726  26.719  24.217  1.00  0.00     0.198 A 
ATOM     81  C   UNL A   1      51.409  25.939  26.381  1.00  0.00     0.198 A 
ATOM     82  F   UNL A   1      49.866  25.906  28.158  1.00  0.00    -0.203 F 
ATOM     83  F   UNL A   1      51.003  26.956  22.928  1.00  0.00    -0.200 F 
ATOM     84  C   UNL A   1      51.706  26.205  25.053  1.00  0.00     0.200 A 
ATOM     85  F   UNL A   1      52.357  25.459  27.197  1.00  0.00    -0.200 F 
ATOM     86  F   UNL A   1      52.936  25.965  24.579  1.00  0.00    -0.200 F 
ENDBRANCH  52  76
BRANCH  64  87
ATOM     87  C   UNL A   1      46.038  32.507  28.453  1.00  0.00     0.064 A 
ATOM     88  C   UNL A   1      45.923  33.512  27.484  1.00  0.00     0.173 A 
ATOM     89  C   UNL A   1      46.544  32.861  29.714  1.00  0.00     0.173 A 
ATOM     90  F   UNL A   1      45.459  33.221  26.259  1.00  0.00    -0.203 F 
ATOM     91  C   UNL A   1      46.302  34.822  27.767  1.00  0.00     0.198 A 
ATOM     92  C   UNL A   1      46.894  34.177  30.001  1.00  0.00     0.198 A 
ATOM     93  F   UNL A   1      46.668  31.936  30.678  1.00  0.00    -0.203 F 
ATOM     94  F   UNL A   1      46.209  35.765  26.818  1.00  0.00    -0.200 F 
ATOM     95  C   UNL A   1      46.774  35.155  29.028  1.00  0.00     0.200 A 
ATOM     96  F   UNL A   1      47.334  34.499  31.226  1.00  0.00    -0.200 F 
ATOM     97  F   UNL A   1      47.116  36.422  29.304  1.00  0.00    -0.200 F 
ENDBRANCH  64  87
ENDBRANCH  38  39
ENDBRANCH  30  33
ENDBRANCH  28  29
ENDBRANCH  27  28
ENDBRANCH  26  27
ENDBRANCH   1  26
TORSDOF 16
ENDMDL
MODEL 3
REMARK VINA RESULT:     -12.6      1.027      1.650
REMARK SMILES COc1ccc(C(=O)NCCCCCCNC(=O)c2ccc(-c3c4nc(c(-c5c(F)c(F)c(F)c(F)c5F)c5ccc([nH]5)c(-c5c(F)c(F)c(F)c(F)c5F)c5nc(c(-c6c(F)c(F)c(F)c(F)c6F)c6ccc3[nH]6)C=C5)C=C4)cc2)cc1CN1CC(=O)N(C)CC1=O
REMARK SMILES IDX 12 1 11 2 10 3 9 4 7 5 8 6 6 8 3 9 4 10 83 11 5 12 82 13
REMARK SMILES IDX 2 14 1 15 84 16 85 17 86 18 92 19 87 20 91 21 93 22 88 23
REMARK SMILES IDX 89 24 90 25 13 26 14 27 15 28 16 29 17 30 18 32 19 33 20 34
REMARK SMILES IDX 81 35 21 36 80 37 22 38 23 39 24 40 74 41 25 42 79 43 73 44
REMARK SMILES IDX 75 45 26 46 78 47 72 48 71 49 27 51 59 52 39 53 58 54 40 55
REMARK SMILES IDX 43 56 57 57 76 58 41 59 42 60 56 62 77 63 44 64 28 65 29 66
REMARK SMILES IDX 37 67 30 68 31 69 35 70 38 71 32 72 33 73 36 74 34 75 60 76
REMARK SMILES IDX 61 77 69 78 62 79 63 80 67 81 70 82 64 83 65 84 68 85 66 86
REMARK SMILES IDX 45 87 46 88 54 89 47 90 48 91 52 92 55 93 49 94 50 95 53 96
REMARK SMILES IDX 51 97
REMARK H PARENT 9 7 16 31 75 50 43 61
REMARK Flexibility Score: inf
ROOT
ATOM      1  C   UNL A   1      31.587  30.104  25.203  1.00  0.00     0.002 C 
ENDROOT
BRANCH   1   2
ATOM      2  C   UNL A   1      32.752  29.272  24.652  1.00  0.00     0.021 C 
BRANCH   2   3
ATOM      3  C   UNL A   1      32.503  28.772  23.225  1.00  0.00     0.116 C 
BRANCH   3   4
ATOM      4  N   UNL A   1      31.078  28.617  22.990  1.00  0.00    -0.352 N 
ATOM      5  C   UNL A   1      30.159  27.638  23.266  1.00  0.00     0.251 C 
ATOM      6  O   UNL A   1      29.000  27.851  22.903  1.00  0.00    -0.269 OA
ATOM      7  H   UNL A   1      30.682  29.392  22.528  1.00  0.00     0.163 HD
BRANCH   5   8
ATOM      8  C   UNL A   1      30.459  26.368  23.993  1.00  0.00     0.040 A 
ATOM      9  C   UNL A   1      31.013  24.009  25.489  1.00  0.00     0.123 A 
ATOM     10  C   UNL A   1      30.685  25.223  26.118  1.00  0.00     0.047 A 
ATOM     11  C   UNL A   1      31.070  23.962  24.093  1.00  0.00     0.014 A 
ATOM     12  C   UNL A   1      30.437  26.390  25.387  1.00  0.00     0.017 A 
ATOM     13  C   UNL A   1      30.725  25.146  23.384  1.00  0.00     0.023 A 
BRANCH   9  14
ATOM     14  O   UNL A   1      31.116  22.980  26.380  1.00  0.00    -0.496 OA
ATOM     15  C   UNL A   1      32.225  22.938  27.260  1.00  0.00     0.278 C 
ENDBRANCH   9  14
BRANCH  11  16
ATOM     16  C   UNL A   1      31.432  22.777  23.222  1.00  0.00     0.159 C 
BRANCH  16  17
ATOM     17  N   UNL A   1      32.787  22.322  23.484  1.00  0.00    -0.327 N 
ATOM     18  C   UNL A   1      33.882  22.957  22.772  1.00  0.00     0.220 C 
ATOM     19  C   UNL A   1      33.018  21.111  24.120  1.00  0.00     0.242 C 
ATOM     20  C   UNL A   1      35.253  22.873  23.442  1.00  0.00     0.242 C 
ATOM     21  C   UNL A   1      34.321  21.113  24.912  1.00  0.00     0.219 C 
ATOM     22  O   UNL A   1      32.147  20.264  24.309  1.00  0.00    -0.273 OA
ATOM     23  O   UNL A   1      36.177  23.601  23.077  1.00  0.00    -0.273 OA
ATOM     24  N   UNL A   1      35.445  21.780  24.276  1.00  0.00    -0.335 N 
ATOM     25  C   UNL A   1      36.768  21.521  24.805  1.00  0.00     0.147 C 
ENDBRANCH  16  17
ENDBRANCH  11  16
ENDBRANCH   5   8
ENDBRANCH   3   4
ENDBRANCH   2   3
ENDBRANCH   1   2
BRANCH   1  26
ATOM     26  C   UNL A   1      31.779  30.585  26.650  1.00  0.00     0.002 C 
BRANCH  26  27
ATOM     27  C   UNL A   1      31.573  32.087  26.864  1.00  0.00     0.021 C 
BRANCH  27  28
ATOM     28  C   UNL A   1      32.847  32.838  27.235  1.00  0.00     0.116 C 
BRANCH  28  29
ATOM     29  N   UNL A   1      32.558  34.207  27.639  1.00  0.00    -0.352 N 
ATOM     30  C   UNL A   1      33.052  34.918  28.704  1.00  0.00     0.251 C 
ATOM     31  H   UNL A   1      31.918  34.691  27.068  1.00  0.00     0.163 HD
ATOM     32  O   UNL A   1      32.532  35.967  29.055  1.00  0.00    -0.269 OA
BRANCH  30  33
ATOM     33  C   UNL A   1      34.228  34.396  29.430  1.00  0.00     0.039 A 
ATOM     34  C   UNL A   1      34.041  33.667  30.607  1.00  0.00     0.014 A 
ATOM     35  C   UNL A   1      35.514  34.630  28.937  1.00  0.00     0.014 A 
ATOM     36  C   UNL A   1      35.147  33.121  31.262  1.00  0.00     0.010 A 
ATOM     37  C   UNL A   1      36.604  34.026  29.548  1.00  0.00     0.010 A 
ATOM     38  C   UNL A   1      36.432  33.271  30.719  1.00  0.00    -0.014 A 
BRANCH  38  39
ATOM     39  C   UNL A   1      37.629  32.669  31.355  1.00  0.00     0.031 A 
ATOM     40  C   UNL A   1      38.329  31.526  30.679  1.00  0.00     0.074 A 
ATOM     41  C   UNL A   1      38.010  33.070  32.582  1.00  0.00     0.049 A 
ATOM     42  N   UNL A   1      39.277  30.747  31.133  1.00  0.00    -0.248 NA
ATOM     43  C   UNL A   1      37.873  31.191  29.320  1.00  0.00     0.031 C 
ATOM     44  C   UNL A   1      37.384  34.145  33.352  1.00  0.00     0.029 A 
ATOM     45  N   UNL A   1      38.998  32.598  33.409  1.00  0.00    -0.354 N 
ATOM     46  C   UNL A   1      39.504  29.811  30.132  1.00  0.00     0.074 A 
ATOM     47  C   UNL A   1      38.568  30.093  29.066  1.00  0.00     0.031 C 
ATOM     48  C   UNL A   1      38.001  34.249  34.540  1.00  0.00     0.029 A 
ATOM     49  C   UNL A   1      39.032  33.220  34.633  1.00  0.00     0.049 A 
ATOM     50  H   UNL A   1      39.622  31.881  33.150  1.00  0.00     0.167 HD
ATOM     51  C   UNL A   1      40.423  28.817  30.102  1.00  0.00     0.037 A 
ATOM     52  C   UNL A   1      39.792  32.971  35.717  1.00  0.00     0.037 A 
ATOM     53  C   UNL A   1      41.370  28.568  31.157  1.00  0.00     0.049 A 
ATOM     54  C   UNL A   1      40.808  31.861  35.664  1.00  0.00     0.074 A 
ATOM     55  C   UNL A   1      42.393  27.638  31.193  1.00  0.00     0.029 A 
ATOM     56  N   UNL A   1      41.403  29.249  32.366  1.00  0.00    -0.354 N 
ATOM     57  N   UNL A   1      41.063  31.023  34.688  1.00  0.00    -0.248 NA
ATOM     58  C   UNL A   1      41.643  31.664  36.856  1.00  0.00     0.031 C 
ATOM     59  C   UNL A   1      43.009  27.716  32.446  1.00  0.00     0.029 A 
ATOM     60  C   UNL A   1      42.411  28.738  33.167  1.00  0.00     0.049 A 
ATOM     61  H   UNL A   1      40.799  29.984  32.616  1.00  0.00     0.167 HD
ATOM     62  C   UNL A   1      42.107  30.223  35.134  1.00  0.00     0.074 A 
ATOM     63  C   UNL A   1      42.437  30.676  36.469  1.00  0.00     0.031 C 
ATOM     64  C   UNL A   1      42.738  29.212  34.489  1.00  0.00     0.037 A 
BRANCH  51  65
ATOM     65  C   UNL A   1      40.434  27.917  28.900  1.00  0.00     0.064 A 
ATOM     66  C   UNL A   1      41.192  28.212  27.757  1.00  0.00     0.173 A 
ATOM     67  C   UNL A   1      39.682  26.732  28.897  1.00  0.00     0.173 A 
ATOM     68  F   UNL A   1      41.921  29.337  27.702  1.00  0.00    -0.203 F 
ATOM     69  C   UNL A   1      41.163  27.379  26.641  1.00  0.00     0.198 A 
ATOM     70  C   UNL A   1      39.685  25.882  27.795  1.00  0.00     0.198 A 
ATOM     71  F   UNL A   1      38.944  26.395  29.967  1.00  0.00    -0.203 F 
ATOM     72  F   UNL A   1      41.845  27.717  25.538  1.00  0.00    -0.200 F 
ATOM     73  C   UNL A   1      40.415  26.212  26.663  1.00  0.00     0.200 A 
ATOM     74  F   UNL A   1      38.973  24.746  27.824  1.00  0.00    -0.200 F 
ATOM     75  F   UNL A   1      40.390  25.411  25.590  1.00  0.00    -0.200 F 
ENDBRANCH  51  65
BRANCH  52  76
ATOM     76  C   UNL A   1      39.620  33.801  36.936  1.00  0.00     0.064 A 
ATOM     77  C   UNL A   1      40.278  35.030  37.070  1.00  0.00     0.173 A 
ATOM     78  C   UNL A   1      38.769  33.400  37.977  1.00  0.00     0.173 A 
ATOM     79  F   UNL A   1      41.115  35.448  36.109  1.00  0.00    -0.203 F 
ATOM     80  C   UNL A   1      40.099  35.824  38.201  1.00  0.00     0.198 A 
ATOM     81  C   UNL A   1      38.570  34.207  39.096  1.00  0.00     0.198 A 
ATOM     82  F   UNL A   1      38.111  32.234  37.897  1.00  0.00    -0.203 F 
ATOM     83  F   UNL A   1      40.765  36.981  38.317  1.00  0.00    -0.200 F 
ATOM     84  C   UNL A   1      39.239  35.416  39.209  1.00  0.00     0.200 A 
ATOM     85  F   UNL A   1      37.725  33.816  40.060  1.00  0.00    -0.200 F 
ATOM     86  F   UNL A   1      39.056  36.186  40.291  1.00  0.00    -0.200 F 
ENDBRANCH  52  76
BRANCH  64  87
ATOM     87  C   UNL A   1      43.886  28.545  35.189  1.00  0.00     0.064 A 
ATOM     88  C   UNL A   1      45.198  29.024  35.078  1.00  0.00     0.173 A 
ATOM     89  C   UNL A   1      43.648  27.468  36.058  1.00  0.00     0.173 A 
ATOM     90  F   UNL A   1      45.478  30.041  34.249  1.00  0.00    -0.203 F 
ATOM     91  C   UNL A   1      46.233  28.444  35.807  1.00  0.00     0.198 A 
ATOM     92  C   UNL A   1      44.680  26.911  36.807  1.00  0.00     0.198 A 
ATOM     93  F   UNL A   1      42.408  26.979  36.205  1.00  0.00    -0.203 F 
ATOM     94  F   UNL A   1      47.487  28.898  35.667  1.00  0.00    -0.200 F 
ATOM     95  C   UNL A   1      45.971  27.398  36.680  1.00  0.00     0.200 A 
ATOM     96  F   UNL A   1      44.421  25.912  37.662  1.00  0.00    -0.200 F 
ATOM     97  F   UNL A   1      46.966  26.857  37.398  1.00  0.00    -0.200 F 
ENDBRANCH  64  87
ENDBRANCH  38  39
ENDBRANCH  30  33
ENDBRANCH  28  29
ENDBRANCH  27  28
ENDBRANCH  26  27
ENDBRANCH   1  26
TORSDOF 16
ENDMDL
