MODEL 1
REMARK VINA RESULT:     -12.9      0.000      0.000
REMARK SMILES COc1cc([C@@H]2CC(NCCCCCCNC(=O)c3ccc(-c4c5nc(c(-c6c(F)c(F)c(F)c(F)c6F)c6ccc([nH]6)c(-c6c(F)c(F)c(F)c(F)c6F)c6nc(c(-c7c(F)c(F)c(F)c(F)c7F)c7ccc4[nH]7)C=C6)C=C5)cc3)=[NH+]c3c(C(=O)[O-])cn(-c4ccc(Cl)cc4)c32)cc(OC)c1O
REMARK SMILES IDX 13 1 12 2 11 3 10 4 9 5 6 6 7 7 97 8 8 9 83 10 89 11 82 12
REMARK SMILES IDX 84 13 88 14 5 17 3 18 4 19 102 20 99 21 98 22 2 23 1 24
REMARK SMILES IDX 103 25 100 27 101 28 90 29 91 30 96 31 92 32 95 33 93 34
REMARK SMILES IDX 94 35 85 36 86 37 87 38 14 39 15 40 16 41 17 42 18 44 19 45
REMARK SMILES IDX 20 46 81 47 21 48 80 49 22 50 23 51 24 52 74 53 25 54 79 55
REMARK SMILES IDX 73 56 75 57 26 58 78 59 72 60 71 61 27 63 59 64 39 65 58 66
REMARK SMILES IDX 40 67 43 68 57 69 76 70 41 71 42 72 56 74 77 75 44 76 28 77
REMARK SMILES IDX 29 78 37 79 30 80 31 81 35 82 38 83 32 84 33 85 36 86 34 87
REMARK SMILES IDX 60 88 61 89 69 90 62 91 63 92 67 93 70 94 64 95 65 96 68 97
REMARK SMILES IDX 66 98 45 99 46 100 54 101 47 102 48 103 52 104 55 105 49 106
REMARK SMILES IDX 50 107 53 108 51 109
REMARK H PARENT 9 15 82 16 103 26 16 43 75 62 43 73
REMARK Flexibility Score: inf
ROOT
ATOM      1  C   UNL A   1      34.964  29.529  27.629  1.00  0.00     0.002 C 
ENDROOT
BRANCH   1   2
ATOM      2  C   UNL A   1      34.219  28.538  26.721  1.00  0.00     0.004 C 
BRANCH   2   3
ATOM      3  C   UNL A   1      33.674  29.103  25.406  1.00  0.00     0.046 C 
BRANCH   3   4
ATOM      4  C   UNL A   1      32.724  28.171  24.659  1.00  0.00     0.233 C 
BRANCH   4   5
ATOM      5  N   UNL A   1      33.464  27.110  24.002  1.00  0.00    -0.278 N 
ATOM      6  C   UNL A   1      33.980  23.313  23.780  1.00  0.00     0.083 C 
ATOM      7  C   UNL A   1      34.022  24.795  23.352  1.00  0.00     0.142 C 
ATOM      8  C   UNL A   1      32.826  23.079  24.701  1.00  0.00     0.078 A 
ATOM      9  C   UNL A   1      33.232  25.771  24.229  1.00  0.00     0.248 C 
ATOM     10  C   UNL A   1      32.070  24.081  25.250  1.00  0.00     0.155 A 
ATOM     11  N   UNL A   1      32.206  21.886  25.028  1.00  0.00    -0.315 N 
ATOM     12  N   UNL A   1      32.338  25.430  25.108  1.00  0.00    -0.243 N 
ATOM     13  C   UNL A   1      30.959  23.549  25.930  1.00  0.00     0.062 A 
ATOM     14  C   UNL A   1      31.048  22.181  25.725  1.00  0.00     0.106 A 
ATOM     15  H   UNL A   1      34.169  27.360  23.360  1.00  0.00     0.304 HD
ATOM     16  H   UNL A   1      31.869  26.105  25.652  1.00  0.00     0.312 HD
BRANCH   6  17
ATOM     17  C   UNL A   1      35.329  22.880  24.330  1.00  0.00    -0.031 A 
ATOM     18  C   UNL A   1      37.392  23.457  25.513  1.00  0.00     0.164 A 
ATOM     19  C   UNL A   1      36.110  23.791  25.060  1.00  0.00     0.055 A 
ATOM     20  C   UNL A   1      37.886  22.164  25.279  1.00  0.00     0.200 A 
ATOM     21  C   UNL A   1      37.115  21.230  24.567  1.00  0.00     0.164 A 
ATOM     22  C   UNL A   1      35.841  21.597  24.108  1.00  0.00     0.055 A 
BRANCH  18  23
ATOM     23  O   UNL A   1      38.003  24.476  26.196  1.00  0.00    -0.493 OA
ATOM     24  C   UNL A   1      38.585  24.198  27.463  1.00  0.00     0.278 C 
ENDBRANCH  18  23
BRANCH  20  25
ATOM     25  O   UNL A   1      39.093  21.791  25.803  1.00  0.00    -0.502 OA
ATOM     26  H   UNL A   1      39.127  21.181  26.513  1.00  0.00     0.293 HD
ENDBRANCH  20  25
BRANCH  21  27
ATOM     27  O   UNL A   1      37.419  19.929  24.262  1.00  0.00    -0.493 OA
ATOM     28  C   UNL A   1      36.723  18.890  24.930  1.00  0.00     0.278 C 
ENDBRANCH  21  27
ENDBRANCH   6  17
BRANCH  11  29
ATOM     29  C   UNL A   1      32.613  20.566  24.722  1.00  0.00     0.046 A 
ATOM     30  C   UNL A   1      33.081  19.727  25.735  1.00  0.00     0.028 A 
ATOM     31  C   UNL A   1      32.473  20.084  23.417  1.00  0.00     0.028 A 
ATOM     32  C   UNL A   1      33.493  18.430  25.432  1.00  0.00     0.022 A 
ATOM     33  C   UNL A   1      32.886  18.783  23.117  1.00  0.00     0.022 A 
ATOM     34  C   UNL A   1      33.406  17.967  24.123  1.00  0.00     0.041 A 
ATOM     35  Cl  UNL A   1      33.927  16.371  23.748  1.00  0.00    -0.084 Cl
ENDBRANCH  11  29
BRANCH  13  36
ATOM     36  C   UNL A   1      29.899  24.199  26.681  1.00  0.00     0.077 C 
ATOM     37  O   UNL A   1      29.549  25.355  26.539  1.00  0.00    -0.545 OA
ATOM     38  O   UNL A   1      29.273  23.426  27.600  1.00  0.00    -0.545 OA
ENDBRANCH  13  36
ENDBRANCH   4   5
ENDBRANCH   3   4
ENDBRANCH   2   3
ENDBRANCH   1   2
BRANCH   1  39
ATOM     39  C   UNL A   1      34.631  31.018  27.460  1.00  0.00     0.021 C 
BRANCH  39  40
ATOM     40  C   UNL A   1      35.669  31.967  28.036  1.00  0.00     0.116 C 
BRANCH  40  41
ATOM     41  N   UNL A   1      35.305  32.502  29.354  1.00  0.00    -0.352 N 
ATOM     42  C   UNL A   1      35.593  31.973  30.604  1.00  0.00     0.251 C 
ATOM     43  H   UNL A   1      34.792  33.343  29.351  1.00  0.00     0.163 HD
ATOM     44  O   UNL A   1      34.926  32.260  31.590  1.00  0.00    -0.269 OA
BRANCH  42  45
ATOM     45  C   UNL A   1      36.747  31.065  30.724  1.00  0.00     0.039 A 
ATOM     46  C   UNL A   1      36.636  29.673  30.748  1.00  0.00     0.014 A 
ATOM     47  C   UNL A   1      37.993  31.674  30.758  1.00  0.00     0.014 A 
ATOM     48  C   UNL A   1      37.809  28.919  30.751  1.00  0.00     0.010 A 
ATOM     49  C   UNL A   1      39.099  30.948  30.445  1.00  0.00     0.010 A 
ATOM     50  C   UNL A   1      39.040  29.577  30.589  1.00  0.00    -0.014 A 
BRANCH  50  51
ATOM     51  C   UNL A   1      40.308  28.875  30.480  1.00  0.00     0.031 A 
ATOM     52  C   UNL A   1      40.987  28.677  31.779  1.00  0.00     0.074 A 
ATOM     53  C   UNL A   1      40.709  28.261  29.342  1.00  0.00     0.049 A 
ATOM     54  N   UNL A   1      42.066  29.255  32.184  1.00  0.00    -0.248 NA
ATOM     55  C   UNL A   1      40.306  27.887  32.816  1.00  0.00     0.031 C 
ATOM     56  C   UNL A   1      39.989  28.099  28.070  1.00  0.00     0.029 A 
ATOM     57  N   UNL A   1      41.850  27.556  29.116  1.00  0.00    -0.354 N 
ATOM     58  C   UNL A   1      42.324  28.737  33.446  1.00  0.00     0.074 A 
ATOM     59  C   UNL A   1      41.116  28.072  33.860  1.00  0.00     0.031 C 
ATOM     60  C   UNL A   1      40.602  27.164  27.309  1.00  0.00     0.029 A 
ATOM     61  C   UNL A   1      41.844  26.787  27.954  1.00  0.00     0.049 A 
ATOM     62  H   UNL A   1      42.621  27.585  29.728  1.00  0.00     0.167 HD
ATOM     63  C   UNL A   1      43.601  28.675  33.912  1.00  0.00     0.037 A 
ATOM     64  C   UNL A   1      42.792  25.889  27.581  1.00  0.00     0.037 A 
ATOM     65  C   UNL A   1      44.470  29.530  33.136  1.00  0.00     0.049 A 
ATOM     66  C   UNL A   1      44.026  26.227  28.340  1.00  0.00     0.074 A 
ATOM     67  C   UNL A   1      44.487  30.882  32.850  1.00  0.00     0.029 A 
ATOM     68  N   UNL A   1      45.259  28.943  32.175  1.00  0.00    -0.354 N 
ATOM     69  N   UNL A   1      44.705  27.327  28.152  1.00  0.00    -0.248 NA
ATOM     70  C   UNL A   1      44.196  25.600  29.643  1.00  0.00     0.031 C 
ATOM     71  C   UNL A   1      44.843  30.963  31.471  1.00  0.00     0.029 A 
ATOM     72  C   UNL A   1      45.117  29.671  31.021  1.00  0.00     0.049 A 
ATOM     73  H   UNL A   1      45.824  28.145  32.294  1.00  0.00     0.167 HD
ATOM     74  C   UNL A   1      45.023  27.764  29.429  1.00  0.00     0.074 A 
ATOM     75  C   UNL A   1      44.731  26.630  30.306  1.00  0.00     0.031 C 
ATOM     76  C   UNL A   1      45.199  29.091  29.701  1.00  0.00     0.037 A 
BRANCH  63  77
ATOM     77  C   UNL A   1      44.138  27.563  34.779  1.00  0.00     0.064 A 
ATOM     78  C   UNL A   1      43.994  26.233  34.334  1.00  0.00     0.173 A 
ATOM     79  C   UNL A   1      44.494  27.714  36.137  1.00  0.00     0.173 A 
ATOM     80  F   UNL A   1      43.652  25.970  33.064  1.00  0.00    -0.203 F 
ATOM     81  C   UNL A   1      44.097  25.147  35.208  1.00  0.00     0.198 A 
ATOM     82  C   UNL A   1      44.648  26.624  36.992  1.00  0.00     0.198 A 
ATOM     83  F   UNL A   1      44.596  28.909  36.726  1.00  0.00    -0.203 F 
ATOM     84  F   UNL A   1      43.813  23.914  34.769  1.00  0.00    -0.200 F 
ATOM     85  C   UNL A   1      44.414  25.346  36.538  1.00  0.00     0.200 A 
ATOM     86  F   UNL A   1      44.941  26.840  38.282  1.00  0.00    -0.200 F 
ATOM     87  F   UNL A   1      44.445  24.315  37.392  1.00  0.00    -0.200 F 
ENDBRANCH  63  77
BRANCH  64  88
ATOM     88  C   UNL A   1      42.605  24.579  26.905  1.00  0.00     0.064 A 
ATOM     89  C   UNL A   1      43.096  24.350  25.607  1.00  0.00     0.173 A 
ATOM     90  C   UNL A   1      42.198  23.438  27.624  1.00  0.00     0.173 A 
ATOM     91  F   UNL A   1      43.550  25.373  24.869  1.00  0.00    -0.203 F 
ATOM     92  C   UNL A   1      43.198  23.058  25.075  1.00  0.00     0.198 A 
ATOM     93  C   UNL A   1      42.297  22.150  27.092  1.00  0.00     0.198 A 
ATOM     94  F   UNL A   1      41.788  23.538  28.897  1.00  0.00    -0.203 F 
ATOM     95  F   UNL A   1      43.728  22.876  23.858  1.00  0.00    -0.200 F 
ATOM     96  C   UNL A   1      42.809  21.959  25.822  1.00  0.00     0.200 A 
ATOM     97  F   UNL A   1      41.956  21.093  27.841  1.00  0.00    -0.200 F 
ATOM     98  F   UNL A   1      42.966  20.719  25.339  1.00  0.00    -0.200 F 
ENDBRANCH  64  88
BRANCH  76  99
ATOM     99  C   UNL A   1      45.268  30.052  28.543  1.00  0.00     0.064 A 
ATOM    100  C   UNL A   1      44.156  30.720  27.997  1.00  0.00     0.173 A 
ATOM    101  C   UNL A   1      46.533  30.430  28.075  1.00  0.00     0.173 A 
ATOM    102  F   UNL A   1      42.920  30.492  28.455  1.00  0.00    -0.203 F 
ATOM    103  C   UNL A   1      44.307  31.689  27.005  1.00  0.00     0.198 A 
ATOM    104  C   UNL A   1      46.684  31.423  27.111  1.00  0.00     0.198 A 
ATOM    105  F   UNL A   1      47.635  29.867  28.596  1.00  0.00    -0.203 F 
ATOM    106  F   UNL A   1      43.229  32.306  26.496  1.00  0.00    -0.200 F 
ATOM    107  C   UNL A   1      45.572  32.044  26.569  1.00  0.00     0.200 A 
ATOM    108  F   UNL A   1      47.913  31.798  26.731  1.00  0.00    -0.200 F 
ATOM    109  F   UNL A   1      45.722  33.006  25.646  1.00  0.00    -0.200 F 
ENDBRANCH  76  99
ENDBRANCH  50  51
ENDBRANCH  42  45
ENDBRANCH  40  41
ENDBRANCH  39  40
ENDBRANCH   1  39
TORSDOF 18
ENDMDL
MODEL 2
REMARK VINA RESULT:     -12.7      3.668      9.168
REMARK SMILES COc1cc([C@@H]2CC(NCCCCCCNC(=O)c3ccc(-c4c5nc(c(-c6c(F)c(F)c(F)c(F)c6F)c6ccc([nH]6)c(-c6c(F)c(F)c(F)c(F)c6F)c6nc(c(-c7c(F)c(F)c(F)c(F)c7F)c7ccc4[nH]7)C=C6)C=C5)cc3)=[NH+]c3c(C(=O)[O-])cn(-c4ccc(Cl)cc4)c32)cc(OC)c1O
REMARK SMILES IDX 13 1 12 2 11 3 10 4 9 5 6 6 7 7 97 8 8 9 83 10 89 11 82 12
REMARK SMILES IDX 84 13 88 14 5 17 3 18 4 19 102 20 99 21 98 22 2 23 1 24
REMARK SMILES IDX 103 25 100 27 101 28 90 29 91 30 96 31 92 32 95 33 93 34
REMARK SMILES IDX 94 35 85 36 86 37 87 38 14 39 15 40 16 41 17 42 18 44 19 45
REMARK SMILES IDX 20 46 81 47 21 48 80 49 22 50 23 51 24 52 74 53 25 54 79 55
REMARK SMILES IDX 73 56 75 57 26 58 78 59 72 60 71 61 27 63 59 64 39 65 58 66
REMARK SMILES IDX 40 67 43 68 57 69 76 70 41 71 42 72 56 74 77 75 44 76 28 77
REMARK SMILES IDX 29 78 37 79 30 80 31 81 35 82 38 83 32 84 33 85 36 86 34 87
REMARK SMILES IDX 60 88 61 89 69 90 62 91 63 92 67 93 70 94 64 95 65 96 68 97
REMARK SMILES IDX 66 98 45 99 46 100 54 101 47 102 48 103 52 104 55 105 49 106
REMARK SMILES IDX 50 107 53 108 51 109
REMARK H PARENT 9 15 82 16 103 26 16 43 75 62 43 73
REMARK Flexibility Score: inf
ROOT
ATOM      1  C   UNL A   1      38.170  23.718  25.775  1.00  0.00     0.002 C 
ENDROOT
BRANCH   1   2
ATOM      2  C   UNL A   1      36.676  23.576  25.447  1.00  0.00     0.004 C 
BRANCH   2   3
ATOM      3  C   UNL A   1      35.803  22.934  26.529  1.00  0.00     0.046 C 
BRANCH   3   4
ATOM      4  C   UNL A   1      34.369  22.640  26.097  1.00  0.00     0.233 C 
BRANCH   4   5
ATOM      5  N   UNL A   1      33.477  23.693  26.545  1.00  0.00    -0.278 N 
ATOM      6  C   UNL A   1      31.405  26.732  25.447  1.00  0.00     0.083 C 
ATOM      7  C   UNL A   1      31.869  25.553  26.328  1.00  0.00     0.142 C 
ATOM      8  C   UNL A   1      31.702  26.443  24.010  1.00  0.00     0.078 A 
ATOM      9  C   UNL A   1      32.878  24.592  25.691  1.00  0.00     0.248 C 
ATOM     10  C   UNL A   1      32.471  25.393  23.583  1.00  0.00     0.155 A 
ATOM     11  N   UNL A   1      31.155  27.024  22.879  1.00  0.00    -0.315 N 
ATOM     12  N   UNL A   1      33.154  24.533  24.422  1.00  0.00    -0.243 N 
ATOM     13  C   UNL A   1      32.428  25.284  22.181  1.00  0.00     0.062 A 
ATOM     14  C   UNL A   1      31.555  26.284  21.781  1.00  0.00     0.106 A 
ATOM     15  H   UNL A   1      33.290  23.767  27.509  1.00  0.00     0.304 HD
ATOM     16  H   UNL A   1      33.822  23.899  24.072  1.00  0.00     0.312 HD
BRANCH   6  17
ATOM     17  C   UNL A   1      31.980  28.039  25.964  1.00  0.00    -0.031 A 
ATOM     18  C   UNL A   1      33.717  29.210  27.230  1.00  0.00     0.164 A 
ATOM     19  C   UNL A   1      33.195  28.038  26.668  1.00  0.00     0.055 A 
ATOM     20  C   UNL A   1      33.036  30.422  27.039  1.00  0.00     0.200 A 
ATOM     21  C   UNL A   1      31.828  30.452  26.322  1.00  0.00     0.164 A 
ATOM     22  C   UNL A   1      31.318  29.260  25.786  1.00  0.00     0.055 A 
BRANCH  18  23
ATOM     23  O   UNL A   1      34.902  29.009  27.887  1.00  0.00    -0.493 OA
ATOM     24  C   UNL A   1      36.066  29.677  27.417  1.00  0.00     0.278 C 
ENDBRANCH  18  23
BRANCH  20  25
ATOM     25  O   UNL A   1      33.585  31.590  27.495  1.00  0.00    -0.502 OA
ATOM     26  H   UNL A   1      33.041  32.339  27.639  1.00  0.00     0.293 HD
ENDBRANCH  20  25
BRANCH  21  27
ATOM     27  O   UNL A   1      31.041  31.532  26.021  1.00  0.00    -0.493 OA
ATOM     28  C   UNL A   1      31.451  32.818  26.453  1.00  0.00     0.278 C 
ENDBRANCH  21  27
ENDBRANCH   6  17
BRANCH  11  29
ATOM     29  C   UNL A   1      30.314  28.157  22.786  1.00  0.00     0.046 A 
ATOM     30  C   UNL A   1      30.807  29.350  22.255  1.00  0.00     0.028 A 
ATOM     31  C   UNL A   1      28.970  28.054  23.159  1.00  0.00     0.028 A 
ATOM     32  C   UNL A   1      29.981  30.472  22.174  1.00  0.00     0.022 A 
ATOM     33  C   UNL A   1      28.145  29.179  23.075  1.00  0.00     0.022 A 
ATOM     34  C   UNL A   1      28.658  30.386  22.596  1.00  0.00     0.041 A 
ATOM     35  Cl  UNL A   1      27.644  31.773  22.508  1.00  0.00    -0.084 Cl
ENDBRANCH  11  29
BRANCH  13  36
ATOM     36  C   UNL A   1      33.087  24.359  21.275  1.00  0.00     0.077 C 
ATOM     37  O   UNL A   1      33.573  23.291  21.597  1.00  0.00    -0.545 OA
ATOM     38  O   UNL A   1      33.146  24.749  19.979  1.00  0.00    -0.545 OA
ENDBRANCH  13  36
ENDBRANCH   4   5
ENDBRANCH   3   4
ENDBRANCH   2   3
ENDBRANCH   1   2
BRANCH   1  39
ATOM     39  C   UNL A   1      38.894  22.467  26.293  1.00  0.00     0.021 C 
BRANCH  39  40
ATOM     40  C   UNL A   1      40.039  22.751  27.251  1.00  0.00     0.116 C 
BRANCH  40  41
ATOM     41  N   UNL A   1      41.366  22.525  26.661  1.00  0.00    -0.352 N 
ATOM     42  C   UNL A   1      42.239  23.463  26.130  1.00  0.00     0.251 C 
ATOM     43  H   UNL A   1      41.673  21.590  26.640  1.00  0.00     0.163 HD
ATOM     44  O   UNL A   1      43.107  23.146  25.326  1.00  0.00    -0.269 OA
BRANCH  42  45
ATOM     45  C   UNL A   1      42.113  24.860  26.578  1.00  0.00     0.039 A 
ATOM     46  C   UNL A   1      41.250  25.786  25.987  1.00  0.00     0.014 A 
ATOM     47  C   UNL A   1      42.874  25.211  27.683  1.00  0.00     0.014 A 
ATOM     48  C   UNL A   1      41.136  27.047  26.572  1.00  0.00     0.010 A 
ATOM     49  C   UNL A   1      42.525  26.303  28.414  1.00  0.00     0.010 A 
ATOM     50  C   UNL A   1      41.778  27.287  27.799  1.00  0.00    -0.014 A 
BRANCH  50  51
ATOM     51  C   UNL A   1      41.642  28.532  28.537  1.00  0.00     0.031 A 
ATOM     52  C   UNL A   1      42.697  29.521  28.227  1.00  0.00     0.074 A 
ATOM     53  C   UNL A   1      40.535  28.840  29.254  1.00  0.00     0.049 A 
ATOM     54  N   UNL A   1      43.652  29.902  29.003  1.00  0.00    -0.248 NA
ATOM     55  C   UNL A   1      42.815  30.014  26.845  1.00  0.00     0.031 C 
ATOM     56  C   UNL A   1      39.276  28.092  29.387  1.00  0.00     0.029 A 
ATOM     57  N   UNL A   1      40.273  29.970  29.963  1.00  0.00    -0.354 N 
ATOM     58  C   UNL A   1      44.369  30.852  28.285  1.00  0.00     0.074 A 
ATOM     59  C   UNL A   1      43.941  30.725  26.917  1.00  0.00     0.031 C 
ATOM     60  C   UNL A   1      38.324  28.886  29.926  1.00  0.00     0.029 A 
ATOM     61  C   UNL A   1      38.941  30.131  30.337  1.00  0.00     0.049 A 
ATOM     62  H   UNL A   1      40.971  30.625  30.195  1.00  0.00     0.167 HD
ATOM     63  C   UNL A   1      45.048  31.833  28.939  1.00  0.00     0.037 A 
ATOM     64  C   UNL A   1      38.398  31.233  30.917  1.00  0.00     0.037 A 
ATOM     65  C   UNL A   1      45.218  31.496  30.334  1.00  0.00     0.049 A 
ATOM     66  C   UNL A   1      39.522  32.000  31.519  1.00  0.00     0.074 A 
ATOM     67  C   UNL A   1      45.810  30.442  31.005  1.00  0.00     0.029 A 
ATOM     68  N   UNL A   1      44.372  32.082  31.245  1.00  0.00    -0.354 N 
ATOM     69  N   UNL A   1      40.226  31.565  32.529  1.00  0.00    -0.248 NA
ATOM     70  C   UNL A   1      40.180  32.986  30.674  1.00  0.00     0.031 C 
ATOM     71  C   UNL A   1      44.920  30.145  32.080  1.00  0.00     0.029 A 
ATOM     72  C   UNL A   1      43.894  31.090  32.064  1.00  0.00     0.049 A 
ATOM     73  H   UNL A   1      44.149  33.040  31.301  1.00  0.00     0.167 HD
ATOM     74  C   UNL A   1      41.538  31.871  32.200  1.00  0.00     0.074 A 
ATOM     75  C   UNL A   1      41.442  32.795  31.070  1.00  0.00     0.031 C 
ATOM     76  C   UNL A   1      42.580  31.118  32.662  1.00  0.00     0.037 A 
BRANCH  63  77
ATOM     77  C   UNL A   1      45.195  33.248  28.434  1.00  0.00     0.064 A 
ATOM     78  C   UNL A   1      46.486  33.809  28.369  1.00  0.00     0.173 A 
ATOM     79  C   UNL A   1      44.128  34.165  28.314  1.00  0.00     0.173 A 
ATOM     80  F   UNL A   1      47.575  33.033  28.478  1.00  0.00    -0.203 F 
ATOM     81  C   UNL A   1      46.689  35.189  28.295  1.00  0.00     0.198 A 
ATOM     82  C   UNL A   1      44.336  35.537  28.186  1.00  0.00     0.198 A 
ATOM     83  F   UNL A   1      42.848  33.800  28.430  1.00  0.00    -0.203 F 
ATOM     84  F   UNL A   1      47.931  35.683  28.378  1.00  0.00    -0.200 F 
ATOM     85  C   UNL A   1      45.612  36.052  28.214  1.00  0.00     0.200 A 
ATOM     86  F   UNL A   1      43.277  36.358  28.125  1.00  0.00    -0.200 F 
ATOM     87  F   UNL A   1      45.801  37.378  28.213  1.00  0.00    -0.200 F 
ENDBRANCH  63  77
BRANCH  64  88
ATOM     88  C   UNL A   1      37.059  31.833  30.683  1.00  0.00     0.064 A 
ATOM     89  C   UNL A   1      36.085  31.865  31.697  1.00  0.00     0.173 A 
ATOM     90  C   UNL A   1      36.808  32.642  29.557  1.00  0.00     0.173 A 
ATOM     91  F   UNL A   1      36.265  31.164  32.825  1.00  0.00    -0.203 F 
ATOM     92  C   UNL A   1      34.947  32.677  31.601  1.00  0.00     0.198 A 
ATOM     93  C   UNL A   1      35.672  33.449  29.461  1.00  0.00     0.198 A 
ATOM     94  F   UNL A   1      37.710  32.743  28.570  1.00  0.00    -0.203 F 
ATOM     95  F   UNL A   1      34.073  32.727  32.616  1.00  0.00    -0.200 F 
ATOM     96  C   UNL A   1      34.748  33.476  30.488  1.00  0.00     0.200 A 
ATOM     97  F   UNL A   1      35.513  34.248  28.397  1.00  0.00    -0.200 F 
ATOM     98  F   UNL A   1      33.693  34.301  30.424  1.00  0.00    -0.200 F 
ENDBRANCH  64  88
BRANCH  76  99
ATOM     99  C   UNL A   1      42.297  30.087  33.722  1.00  0.00     0.064 A 
ATOM    100  C   UNL A   1      41.899  28.763  33.459  1.00  0.00     0.173 A 
ATOM    101  C   UNL A   1      42.597  30.411  35.052  1.00  0.00     0.173 A 
ATOM    102  F   UNL A   1      41.687  28.342  32.207  1.00  0.00    -0.203 F 
ATOM    103  C   UNL A   1      41.772  27.826  34.485  1.00  0.00     0.198 A 
ATOM    104  C   UNL A   1      42.505  29.464  36.068  1.00  0.00     0.198 A 
ATOM    105  F   UNL A   1      43.034  31.643  35.359  1.00  0.00    -0.203 F 
ATOM    106  F   UNL A   1      41.383  26.572  34.206  1.00  0.00    -0.200 F 
ATOM    107  C   UNL A   1      42.083  28.176  35.787  1.00  0.00     0.200 A 
ATOM    108  F   UNL A   1      42.857  29.796  37.318  1.00  0.00    -0.200 F 
ATOM    109  F   UNL A   1      42.003  27.265  36.768  1.00  0.00    -0.200 F 
ENDBRANCH  76  99
ENDBRANCH  50  51
ENDBRANCH  42  45
ENDBRANCH  40  41
ENDBRANCH  39  40
ENDBRANCH   1  39
TORSDOF 18
ENDMDL
MODEL 3
REMARK VINA RESULT:     -11.6      6.004     10.896
REMARK SMILES COc1cc([C@@H]2CC(NCCCCCCNC(=O)c3ccc(-c4c5nc(c(-c6c(F)c(F)c(F)c(F)c6F)c6ccc([nH]6)c(-c6c(F)c(F)c(F)c(F)c6F)c6nc(c(-c7c(F)c(F)c(F)c(F)c7F)c7ccc4[nH]7)C=C6)C=C5)cc3)=[NH+]c3c(C(=O)[O-])cn(-c4ccc(Cl)cc4)c32)cc(OC)c1O
REMARK SMILES IDX 13 1 12 2 11 3 10 4 9 5 6 6 7 7 97 8 8 9 83 10 89 11 82 12
REMARK SMILES IDX 84 13 88 14 5 17 3 18 4 19 102 20 99 21 98 22 2 23 1 24
REMARK SMILES IDX 103 25 100 27 101 28 90 29 91 30 96 31 92 32 95 33 93 34
REMARK SMILES IDX 94 35 85 36 86 37 87 38 14 39 15 40 16 41 17 42 18 44 19 45
REMARK SMILES IDX 20 46 81 47 21 48 80 49 22 50 23 51 24 52 74 53 25 54 79 55
REMARK SMILES IDX 73 56 75 57 26 58 78 59 72 60 71 61 27 63 59 64 39 65 58 66
REMARK SMILES IDX 40 67 43 68 57 69 76 70 41 71 42 72 56 74 77 75 44 76 28 77
REMARK SMILES IDX 29 78 37 79 30 80 31 81 35 82 38 83 32 84 33 85 36 86 34 87
REMARK SMILES IDX 60 88 61 89 69 90 62 91 63 92 67 93 70 94 64 95 65 96 68 97
REMARK SMILES IDX 66 98 45 99 46 100 54 101 47 102 48 103 52 104 55 105 49 106
REMARK SMILES IDX 50 107 53 108 51 109
REMARK H PARENT 9 15 82 16 103 26 16 43 75 62 43 73
REMARK Flexibility Score: inf
ROOT
ATOM      1  C   UNL A   1      47.161  35.056  31.381  1.00  0.00     0.002 C 
ENDROOT
BRANCH   1   2
ATOM      2  C   UNL A   1      46.495  33.744  30.936  1.00  0.00     0.004 C 
BRANCH   2   3
ATOM      3  C   UNL A   1      45.340  33.242  31.807  1.00  0.00     0.046 C 
BRANCH   3   4
ATOM      4  C   UNL A   1      45.209  31.724  31.876  1.00  0.00     0.233 C 
BRANCH   4   5
ATOM      5  N   UNL A   1      44.526  31.218  30.700  1.00  0.00    -0.278 N 
ATOM      6  C   UNL A   1      43.550  28.058  28.751  1.00  0.00     0.083 C 
ATOM      7  C   UNL A   1      43.509  29.530  29.214  1.00  0.00     0.142 C 
ATOM      8  C   UNL A   1      44.071  27.191  29.851  1.00  0.00     0.078 A 
ATOM      9  C   UNL A   1      44.365  29.876  30.436  1.00  0.00     0.248 C 
ATOM     10  C   UNL A   1      44.634  27.673  31.004  1.00  0.00     0.155 A 
ATOM     11  N   UNL A   1      43.942  25.822  30.011  1.00  0.00    -0.315 N 
ATOM     12  N   UNL A   1      44.887  29.009  31.252  1.00  0.00    -0.243 N 
ATOM     13  C   UNL A   1      44.870  26.627  31.916  1.00  0.00     0.062 A 
ATOM     14  C   UNL A   1      44.376  25.496  31.284  1.00  0.00     0.106 A 
ATOM     15  H   UNL A   1      44.159  31.868  30.057  1.00  0.00     0.304 HD
ATOM     16  H   UNL A   1      45.439  29.292  32.017  1.00  0.00     0.312 HD
BRANCH   6  17
ATOM     17  C   UNL A   1      44.301  27.936  27.436  1.00  0.00    -0.031 A 
ATOM     18  C   UNL A   1      44.786  26.646  25.413  1.00  0.00     0.164 A 
ATOM     19  C   UNL A   1      44.058  26.838  26.594  1.00  0.00     0.055 A 
ATOM     20  C   UNL A   1      45.743  27.601  25.036  1.00  0.00     0.200 A 
ATOM     21  C   UNL A   1      45.991  28.717  25.854  1.00  0.00     0.164 A 
ATOM     22  C   UNL A   1      45.260  28.875  27.041  1.00  0.00     0.055 A 
BRANCH  18  23
ATOM     23  O   UNL A   1      44.415  25.517  24.731  1.00  0.00    -0.493 OA
ATOM     24  C   UNL A   1      45.166  24.325  24.922  1.00  0.00     0.278 C 
ENDBRANCH  18  23
BRANCH  20  25
ATOM     25  O   UNL A   1      46.390  27.480  23.837  1.00  0.00    -0.502 OA
ATOM     26  H   UNL A   1      47.079  28.074  23.614  1.00  0.00     0.293 HD
ENDBRANCH  20  25
BRANCH  21  27
ATOM     27  O   UNL A   1      46.863  29.752  25.643  1.00  0.00    -0.493 OA
ATOM     28  C   UNL A   1      46.786  30.893  26.482  1.00  0.00     0.278 C 
ENDBRANCH  21  27
ENDBRANCH   6  17
BRANCH  11  29
ATOM     29  C   UNL A   1      43.444  24.869  29.094  1.00  0.00     0.046 A 
ATOM     30  C   UNL A   1      44.272  23.841  28.637  1.00  0.00     0.028 A 
ATOM     31  C   UNL A   1      42.102  24.917  28.704  1.00  0.00     0.028 A 
ATOM     32  C   UNL A   1      43.786  22.907  27.723  1.00  0.00     0.022 A 
ATOM     33  C   UNL A   1      41.618  23.979  27.789  1.00  0.00     0.022 A 
ATOM     34  C   UNL A   1      42.465  22.987  27.292  1.00  0.00     0.041 A 
ATOM     35  Cl  UNL A   1      41.870  21.842  26.154  1.00  0.00    -0.084 Cl
ENDBRANCH  11  29
BRANCH  13  36
ATOM     36  C   UNL A   1      45.463  26.633  33.242  1.00  0.00     0.077 C 
ATOM     37  O   UNL A   1      45.578  25.659  33.961  1.00  0.00    -0.545 OA
ATOM     38  O   UNL A   1      45.914  27.834  33.677  1.00  0.00    -0.545 OA
ENDBRANCH  13  36
ENDBRANCH   4   5
ENDBRANCH   3   4
ENDBRANCH   2   3
ENDBRANCH   1   2
BRANCH   1  39
ATOM     39  C   UNL A   1      47.537  36.058  30.279  1.00  0.00     0.021 C 
BRANCH  39  40
ATOM     40  C   UNL A   1      47.247  35.579  28.866  1.00  0.00     0.116 C 
BRANCH  40  41
ATOM     41  N   UNL A   1      46.475  36.541  28.069  1.00  0.00    -0.352 N 
ATOM     42  C   UNL A   1      45.102  36.590  27.879  1.00  0.00     0.251 C 
ATOM     43  H   UNL A   1      46.997  37.238  27.610  1.00  0.00     0.163 HD
ATOM     44  O   UNL A   1      44.608  37.155  26.911  1.00  0.00    -0.269 OA
BRANCH  42  45
ATOM     45  C   UNL A   1      44.238  35.959  28.893  1.00  0.00     0.039 A 
ATOM     46  C   UNL A   1      43.831  36.597  30.067  1.00  0.00     0.014 A 
ATOM     47  C   UNL A   1      43.790  34.681  28.593  1.00  0.00     0.014 A 
ATOM     48  C   UNL A   1      42.923  35.938  30.894  1.00  0.00     0.010 A 
ATOM     49  C   UNL A   1      42.688  34.196  29.225  1.00  0.00     0.010 A 
ATOM     50  C   UNL A   1      42.350  34.733  30.450  1.00  0.00    -0.014 A 
BRANCH  50  51
ATOM     51  C   UNL A   1      41.323  34.022  31.192  1.00  0.00     0.031 A 
ATOM     52  C   UNL A   1      41.710  33.709  32.585  1.00  0.00     0.074 A 
ATOM     53  C   UNL A   1      40.059  33.870  30.729  1.00  0.00     0.049 A 
ATOM     54  N   UNL A   1      41.974  32.545  33.071  1.00  0.00    -0.248 NA
ATOM     55  C   UNL A   1      42.008  34.822  33.498  1.00  0.00     0.031 C 
ATOM     56  C   UNL A   1      39.446  34.409  29.507  1.00  0.00     0.029 A 
ATOM     57  N   UNL A   1      39.006  33.253  31.329  1.00  0.00    -0.354 N 
ATOM     58  C   UNL A   1      42.262  32.751  34.415  1.00  0.00     0.074 A 
ATOM     59  C   UNL A   1      42.469  34.168  34.566  1.00  0.00     0.031 C 
ATOM     60  C   UNL A   1      38.100  34.294  29.576  1.00  0.00     0.029 A 
ATOM     61  C   UNL A   1      37.765  33.523  30.756  1.00  0.00     0.049 A 
ATOM     62  H   UNL A   1      39.112  32.661  32.109  1.00  0.00     0.167 HD
ATOM     63  C   UNL A   1      42.032  31.764  35.322  1.00  0.00     0.037 A 
ATOM     64  C   UNL A   1      36.555  33.152  31.251  1.00  0.00     0.037 A 
ATOM     65  C   UNL A   1      41.867  30.489  34.661  1.00  0.00     0.049 A 
ATOM     66  C   UNL A   1      36.803  32.026  32.191  1.00  0.00     0.074 A 
ATOM     67  C   UNL A   1      42.660  29.730  33.820  1.00  0.00     0.029 A 
ATOM     68  N   UNL A   1      40.588  30.019  34.482  1.00  0.00    -0.354 N 
ATOM     69  N   UNL A   1      37.233  30.853  31.808  1.00  0.00    -0.248 NA
ATOM     70  C   UNL A   1      37.069  32.368  33.581  1.00  0.00     0.031 C 
ATOM     71  C   UNL A   1      41.766  29.223  32.830  1.00  0.00     0.029 A 
ATOM     72  C   UNL A   1      40.473  29.617  33.175  1.00  0.00     0.049 A 
ATOM     73  H   UNL A   1      39.882  29.977  35.168  1.00  0.00     0.167 HD
ATOM     74  C   UNL A   1      38.192  30.508  32.748  1.00  0.00     0.074 A 
ATOM     75  C   UNL A   1      38.008  31.455  33.848  1.00  0.00     0.031 C 
ATOM     76  C   UNL A   1      39.241  29.694  32.426  1.00  0.00     0.037 A 
BRANCH  63  77
ATOM     77  C   UNL A   1      41.557  31.999  36.735  1.00  0.00     0.064 A 
ATOM     78  C   UNL A   1      40.364  32.724  36.932  1.00  0.00     0.173 A 
ATOM     79  C   UNL A   1      42.361  31.828  37.883  1.00  0.00     0.173 A 
ATOM     80  F   UNL A   1      39.526  32.953  35.910  1.00  0.00    -0.203 F 
ATOM     81  C   UNL A   1      40.055  33.316  38.159  1.00  0.00     0.198 A 
ATOM     82  C   UNL A   1      42.021  32.377  39.119  1.00  0.00     0.198 A 
ATOM     83  F   UNL A   1      43.555  31.230  37.844  1.00  0.00    -0.203 F 
ATOM     84  F   UNL A   1      38.982  34.112  38.259  1.00  0.00    -0.200 F 
ATOM     85  C   UNL A   1      40.889  33.150  39.248  1.00  0.00     0.200 A 
ATOM     86  F   UNL A   1      42.852  32.217  40.158  1.00  0.00    -0.200 F 
ATOM     87  F   UNL A   1      40.632  33.774  40.404  1.00  0.00    -0.200 F 
ENDBRANCH  63  77
BRANCH  64  88
ATOM     88  C   UNL A   1      35.282  33.917  31.241  1.00  0.00     0.064 A 
ATOM     89  C   UNL A   1      35.034  34.934  32.180  1.00  0.00     0.173 A 
ATOM     90  C   UNL A   1      34.408  33.866  30.137  1.00  0.00     0.173 A 
ATOM     91  F   UNL A   1      35.844  35.087  33.237  1.00  0.00    -0.203 F 
ATOM     92  C   UNL A   1      33.993  35.857  32.010  1.00  0.00     0.198 A 
ATOM     93  C   UNL A   1      33.369  34.785  29.969  1.00  0.00     0.198 A 
ATOM     94  F   UNL A   1      34.604  32.985  29.146  1.00  0.00    -0.203 F 
ATOM     95  F   UNL A   1      33.827  36.849  32.895  1.00  0.00    -0.200 F 
ATOM     96  C   UNL A   1      33.169  35.788  30.899  1.00  0.00     0.200 A 
ATOM     97  F   UNL A   1      32.606  34.731  28.869  1.00  0.00    -0.200 F 
ATOM     98  F   UNL A   1      32.215  36.708  30.702  1.00  0.00    -0.200 F 
ENDBRANCH  64  88
BRANCH  76  99
ATOM     99  C   UNL A   1      39.214  28.994  31.093  1.00  0.00     0.064 A 
ATOM    100  C   UNL A   1      39.718  29.538  29.897  1.00  0.00     0.173 A 
ATOM    101  C   UNL A   1      38.806  27.653  31.062  1.00  0.00     0.173 A 
ATOM    102  F   UNL A   1      40.219  30.778  29.861  1.00  0.00    -0.203 F 
ATOM    103  C   UNL A   1      39.773  28.786  28.723  1.00  0.00     0.198 A 
ATOM    104  C   UNL A   1      38.896  26.894  29.899  1.00  0.00     0.198 A 
ATOM    105  F   UNL A   1      38.367  27.061  32.184  1.00  0.00    -0.203 F 
ATOM    106  F   UNL A   1      40.251  29.333  27.595  1.00  0.00    -0.200 F 
ATOM    107  C   UNL A   1      39.368  27.463  28.728  1.00  0.00     0.200 A 
ATOM    108  F   UNL A   1      38.551  25.600  29.923  1.00  0.00    -0.200 F 
ATOM    109  F   UNL A   1      39.460  26.725  27.612  1.00  0.00    -0.200 F 
ENDBRANCH  76  99
ENDBRANCH  50  51
ENDBRANCH  42  45
ENDBRANCH  40  41
ENDBRANCH  39  40
ENDBRANCH   1  39
TORSDOF 18
ENDMDL
