MODEL 1
REMARK VINA RESULT:     -12.1      0.000      0.000
REMARK SMILES CC(C)(C)c1cc2c(cc1Cl)C=C(C(=O)NCCCCCCNC(=O)c1ccc(-c3c4nc(c(-c5c(F)c(F)c(F)c(F)c5F)c5ccc([nH]5)c(-c5c(F)c(F)c(F)c(F)c5F)c5nc(c(-c6c(F)c(F)c(F)c(F)c6F)c6ccc3[nH]6)C=C5)C=C4)cc1)[C@@H](C(F)(F)F)O2
REMARK SMILES IDX 20 1 19 2 18 3 17 4 16 5 14 6 15 7 13 9 5 10 6 11 10 12 7 13
REMARK SMILES IDX 9 14 11 15 8 16 94 17 12 18 89 19 2 20 1 21 3 22 4 23 90 24
REMARK SMILES IDX 91 25 92 26 93 27 21 28 22 29 23 30 24 31 25 33 26 34 27 35
REMARK SMILES IDX 88 36 28 37 87 38 29 39 30 40 31 41 81 42 32 43 86 44 80 45
REMARK SMILES IDX 82 46 33 47 85 48 79 49 78 50 34 52 66 53 46 54 65 55 47 56
REMARK SMILES IDX 50 57 64 58 83 59 48 60 49 61 63 63 84 64 51 65 35 66 36 67
REMARK SMILES IDX 44 68 37 69 38 70 42 71 45 72 39 73 40 74 43 75 41 76 67 77
REMARK SMILES IDX 68 78 76 79 69 80 70 81 74 82 77 83 71 84 72 85 75 86 73 87
REMARK SMILES IDX 52 88 53 89 61 90 54 91 55 92 59 93 62 94 56 95 57 96 60 97
REMARK SMILES IDX 58 98
REMARK H PARENT 16 8 23 32 82 51 50 62
REMARK Flexibility Score: inf
ROOT
ATOM      1  C   UNL A   1      38.812  22.174  25.859  1.00  0.00     0.002 C 
ENDROOT
BRANCH   1   2
ATOM      2  C   UNL A   1      37.399  22.527  25.376  1.00  0.00     0.002 C 
BRANCH   2   3
ATOM      3  C   UNL A   1      36.729  21.489  24.469  1.00  0.00     0.021 C 
BRANCH   3   4
ATOM      4  C   UNL A   1      35.870  20.470  25.213  1.00  0.00     0.116 C 
BRANCH   4   5
ATOM      5  N   UNL A   1      34.565  20.308  24.601  1.00  0.00    -0.352 N 
ATOM      6  C   UNL A   1      33.432  21.036  24.465  1.00  0.00     0.251 C 
ATOM      7  O   UNL A   1      32.540  20.495  23.802  1.00  0.00    -0.270 OA
ATOM      8  H   UNL A   1      34.480  19.429  24.165  1.00  0.00     0.163 HD
BRANCH   6   9
ATOM      9  C   UNL A   1      33.196  22.393  25.046  1.00  0.00     0.067 C 
ATOM     10  C   UNL A   1      32.785  27.438  25.686  1.00  0.00    -0.020 A 
ATOM     11  C   UNL A   1      32.341  26.274  26.363  1.00  0.00     0.053 A 
ATOM     12  C   UNL A   1      33.563  27.212  24.531  1.00  0.00     0.045 A 
ATOM     13  C   UNL A   1      32.621  24.985  25.914  1.00  0.00     0.128 A 
ATOM     14  C   UNL A   1      33.833  25.901  24.078  1.00  0.00     0.032 A 
ATOM     15  Cl  UNL A   1      34.265  28.443  23.544  1.00  0.00    -0.084 Cl
ATOM     16  C   UNL A   1      33.356  24.785  24.760  1.00  0.00     0.019 A 
ATOM     17  O   UNL A   1      32.086  23.969  26.645  1.00  0.00    -0.475 OA
ATOM     18  C   UNL A   1      33.562  23.429  24.269  1.00  0.00     0.025 C 
ATOM     19  C   UNL A   1      32.620  22.639  26.412  1.00  0.00     0.314 C 
BRANCH  10  20
ATOM     20  C   UNL A   1      32.345  28.789  26.304  1.00  0.00    -0.012 C 
ATOM     21  C   UNL A   1      33.445  29.780  26.728  1.00  0.00     0.016 C 
ATOM     22  C   UNL A   1      31.501  28.512  27.573  1.00  0.00     0.016 C 
ATOM     23  C   UNL A   1      31.469  29.554  25.276  1.00  0.00     0.016 C 
ENDBRANCH  10  20
BRANCH  19  24
ATOM     24  C   UNL A   1      33.606  22.299  27.543  1.00  0.00     0.429 C 
ATOM     25  F   UNL A   1      33.111  22.701  28.741  1.00  0.00    -0.167 F 
ATOM     26  F   UNL A   1      33.833  20.969  27.656  1.00  0.00    -0.167 F 
ATOM     27  F   UNL A   1      34.809  22.893  27.381  1.00  0.00    -0.167 F 
ENDBRANCH  19  24
ENDBRANCH   6   9
ENDBRANCH   4   5
ENDBRANCH   3   4
ENDBRANCH   2   3
ENDBRANCH   1   2
BRANCH   1  28
ATOM     28  C   UNL A   1      39.378  20.847  25.348  1.00  0.00     0.021 C 
BRANCH  28  29
ATOM     29  C   UNL A   1      39.731  19.836  26.432  1.00  0.00     0.116 C 
BRANCH  29  30
ATOM     30  N   UNL A   1      40.824  18.960  26.046  1.00  0.00    -0.352 N 
ATOM     31  C   UNL A   1      42.166  19.239  25.948  1.00  0.00     0.251 C 
ATOM     32  H   UNL A   1      40.568  18.036  25.823  1.00  0.00     0.163 HD
ATOM     33  O   UNL A   1      42.939  18.419  25.463  1.00  0.00    -0.269 OA
BRANCH  31  34
ATOM     34  C   UNL A   1      42.671  20.553  26.397  1.00  0.00     0.039 A 
ATOM     35  C   UNL A   1      42.564  20.939  27.735  1.00  0.00     0.014 A 
ATOM     36  C   UNL A   1      43.237  21.418  25.456  1.00  0.00     0.014 A 
ATOM     37  C   UNL A   1      42.882  22.242  28.104  1.00  0.00     0.010 A 
ATOM     38  C   UNL A   1      43.623  22.703  25.844  1.00  0.00     0.010 A 
ATOM     39  C   UNL A   1      43.406  23.140  27.160  1.00  0.00    -0.014 A 
BRANCH  39  40
ATOM     40  C   UNL A   1      43.709  24.537  27.561  1.00  0.00     0.031 A 
ATOM     41  C   UNL A   1      45.129  25.032  27.591  1.00  0.00     0.074 A 
ATOM     42  C   UNL A   1      42.696  25.375  27.856  1.00  0.00     0.049 A 
ATOM     43  N   UNL A   1      45.588  26.208  27.940  1.00  0.00    -0.248 NA
ATOM     44  C   UNL A   1      46.174  24.082  27.175  1.00  0.00     0.031 C 
ATOM     45  C   UNL A   1      41.278  25.017  27.837  1.00  0.00     0.029 A 
ATOM     46  N   UNL A   1      42.702  26.700  28.207  1.00  0.00    -0.354 N 
ATOM     47  C   UNL A   1      46.968  26.133  27.804  1.00  0.00     0.074 A 
ATOM     48  C   UNL A   1      47.278  24.792  27.364  1.00  0.00     0.031 C 
ATOM     49  C   UNL A   1      40.548  26.106  28.119  1.00  0.00     0.029 A 
ATOM     50  C   UNL A   1      41.448  27.222  28.399  1.00  0.00     0.049 A 
ATOM     51  H   UNL A   1      43.528  27.227  28.313  1.00  0.00     0.167 HD
ATOM     52  C   UNL A   1      47.889  27.103  28.018  1.00  0.00     0.037 A 
ATOM     53  C   UNL A   1      41.064  28.456  28.774  1.00  0.00     0.037 A 
ATOM     54  C   UNL A   1      47.576  28.446  28.435  1.00  0.00     0.049 A 
ATOM     55  C   UNL A   1      42.110  29.496  29.053  1.00  0.00     0.074 A 
ATOM     56  C   UNL A   1      48.441  29.501  28.668  1.00  0.00     0.029 A 
ATOM     57  N   UNL A   1      46.294  28.919  28.675  1.00  0.00    -0.354 N 
ATOM     58  N   UNL A   1      43.412  29.409  28.939  1.00  0.00    -0.248 NA
ATOM     59  C   UNL A   1      41.633  30.803  29.527  1.00  0.00     0.031 C 
ATOM     60  C   UNL A   1      47.686  30.602  29.084  1.00  0.00     0.029 A 
ATOM     61  C   UNL A   1      46.347  30.246  29.070  1.00  0.00     0.049 A 
ATOM     62  H   UNL A   1      45.469  28.390  28.580  1.00  0.00     0.167 HD
ATOM     63  C   UNL A   1      43.911  30.646  29.318  1.00  0.00     0.074 A 
ATOM     64  C   UNL A   1      42.770  31.476  29.644  1.00  0.00     0.031 C 
ATOM     65  C   UNL A   1      45.201  31.055  29.396  1.00  0.00     0.037 A 
BRANCH  52  66
ATOM     66  C   UNL A   1      49.333  26.753  27.813  1.00  0.00     0.064 A 
ATOM     67  C   UNL A   1      49.936  26.834  26.550  1.00  0.00     0.173 A 
ATOM     68  C   UNL A   1      50.141  26.395  28.904  1.00  0.00     0.173 A 
ATOM     69  F   UNL A   1      49.205  27.160  25.473  1.00  0.00    -0.203 F 
ATOM     70  C   UNL A   1      51.291  26.558  26.384  1.00  0.00     0.198 A 
ATOM     71  C   UNL A   1      51.499  26.142  28.738  1.00  0.00     0.198 A 
ATOM     72  F   UNL A   1      49.614  26.307  30.134  1.00  0.00    -0.203 F 
ATOM     73  F   UNL A   1      51.839  26.612  25.162  1.00  0.00    -0.200 F 
ATOM     74  C   UNL A   1      52.073  26.221  27.478  1.00  0.00     0.200 A 
ATOM     75  F   UNL A   1      52.257  25.827  29.798  1.00  0.00    -0.200 F 
ATOM     76  F   UNL A   1      53.379  25.968  27.317  1.00  0.00    -0.200 F 
ENDBRANCH  52  66
BRANCH  53  77
ATOM     77  C   UNL A   1      39.617  28.764  28.908  1.00  0.00     0.064 A 
ATOM     78  C   UNL A   1      38.959  28.595  30.132  1.00  0.00     0.173 A 
ATOM     79  C   UNL A   1      38.876  29.264  27.829  1.00  0.00     0.173 A 
ATOM     80  F   UNL A   1      39.624  28.100  31.187  1.00  0.00    -0.203 F 
ATOM     81  C   UNL A   1      37.609  28.912  30.271  1.00  0.00     0.198 A 
ATOM     82  C   UNL A   1      37.533  29.605  27.976  1.00  0.00     0.198 A 
ATOM     83  F   UNL A   1      39.462  29.445  26.636  1.00  0.00    -0.203 F 
ATOM     84  F   UNL A   1      36.995  28.715  31.446  1.00  0.00    -0.200 F 
ATOM     85  C   UNL A   1      36.900  29.425  29.196  1.00  0.00     0.200 A 
ATOM     86  F   UNL A   1      36.855  30.115  26.938  1.00  0.00    -0.200 F 
ATOM     87  F   UNL A   1      35.606  29.744  29.335  1.00  0.00    -0.200 F 
ENDBRANCH  53  77
BRANCH  65  88
ATOM     88  C   UNL A   1      45.448  32.464  29.844  1.00  0.00     0.064 A 
ATOM     89  C   UNL A   1      45.463  33.527  28.930  1.00  0.00     0.173 A 
ATOM     90  C   UNL A   1      45.619  32.761  31.204  1.00  0.00     0.173 A 
ATOM     91  F   UNL A   1      45.318  33.292  27.617  1.00  0.00    -0.203 F 
ATOM     92  C   UNL A   1      45.659  34.836  29.361  1.00  0.00     0.198 A 
ATOM     93  C   UNL A   1      45.789  34.073  31.634  1.00  0.00     0.198 A 
ATOM     94  F   UNL A   1      45.607  31.778  32.117  1.00  0.00    -0.203 F 
ATOM     95  F   UNL A   1      45.706  35.834  28.467  1.00  0.00    -0.200 F 
ATOM     96  C   UNL A   1      45.813  35.109  30.713  1.00  0.00     0.200 A 
ATOM     97  F   UNL A   1      45.927  34.336  32.941  1.00  0.00    -0.200 F 
ATOM     98  F   UNL A   1      45.991  36.371  31.126  1.00  0.00    -0.200 F 
ENDBRANCH  65  88
ENDBRANCH  39  40
ENDBRANCH  31  34
ENDBRANCH  29  30
ENDBRANCH  28  29
ENDBRANCH   1  28
TORSDOF 15
ENDMDL
MODEL 2
REMARK VINA RESULT:     -12.1      0.292      7.199
REMARK SMILES CC(C)(C)c1cc2c(cc1Cl)C=C(C(=O)NCCCCCCNC(=O)c1ccc(-c3c4nc(c(-c5c(F)c(F)c(F)c(F)c5F)c5ccc([nH]5)c(-c5c(F)c(F)c(F)c(F)c5F)c5nc(c(-c6c(F)c(F)c(F)c(F)c6F)c6ccc3[nH]6)C=C5)C=C4)cc1)[C@@H](C(F)(F)F)O2
REMARK SMILES IDX 20 1 19 2 18 3 17 4 16 5 14 6 15 7 13 9 5 10 6 11 10 12 7 13
REMARK SMILES IDX 9 14 11 15 8 16 94 17 12 18 89 19 2 20 1 21 3 22 4 23 90 24
REMARK SMILES IDX 91 25 92 26 93 27 21 28 22 29 23 30 24 31 25 33 26 34 27 35
REMARK SMILES IDX 88 36 28 37 87 38 29 39 30 40 31 41 81 42 32 43 86 44 80 45
REMARK SMILES IDX 82 46 33 47 85 48 79 49 78 50 34 52 66 53 46 54 65 55 47 56
REMARK SMILES IDX 50 57 64 58 83 59 48 60 49 61 63 63 84 64 51 65 35 66 36 67
REMARK SMILES IDX 44 68 37 69 38 70 42 71 45 72 39 73 40 74 43 75 41 76 67 77
REMARK SMILES IDX 68 78 76 79 69 80 70 81 74 82 77 83 71 84 72 85 75 86 73 87
REMARK SMILES IDX 52 88 53 89 61 90 54 91 55 92 59 93 62 94 56 95 57 96 60 97
REMARK SMILES IDX 58 98
REMARK H PARENT 16 8 23 32 82 51 50 62
REMARK Flexibility Score: inf
ROOT
ATOM      1  C   UNL A   1      38.706  22.226  25.821  1.00  0.00     0.002 C 
ENDROOT
BRANCH   1   2
ATOM      2  C   UNL A   1      37.346  22.575  25.201  1.00  0.00     0.002 C 
BRANCH   2   3
ATOM      3  C   UNL A   1      36.709  21.480  24.340  1.00  0.00     0.021 C 
BRANCH   3   4
ATOM      4  C   UNL A   1      35.861  20.481  25.124  1.00  0.00     0.116 C 
BRANCH   4   5
ATOM      5  N   UNL A   1      34.540  20.318  24.547  1.00  0.00    -0.352 N 
ATOM      6  C   UNL A   1      33.403  21.044  24.445  1.00  0.00     0.251 C 
ATOM      7  O   UNL A   1      32.493  20.503  23.805  1.00  0.00    -0.270 OA
ATOM      8  H   UNL A   1      34.446  19.440  24.112  1.00  0.00     0.163 HD
BRANCH   6   9
ATOM      9  C   UNL A   1      33.180  22.399  25.037  1.00  0.00     0.067 C 
ATOM     10  C   UNL A   1      32.802  27.442  25.711  1.00  0.00    -0.020 A 
ATOM     11  C   UNL A   1      32.358  26.277  26.385  1.00  0.00     0.053 A 
ATOM     12  C   UNL A   1      33.566  27.219  24.546  1.00  0.00     0.045 A 
ATOM     13  C   UNL A   1      32.627  24.988  25.926  1.00  0.00     0.128 A 
ATOM     14  C   UNL A   1      33.825  25.910  24.082  1.00  0.00     0.032 A 
ATOM     15  Cl  UNL A   1      34.264  28.453  23.559  1.00  0.00    -0.084 Cl
ATOM     16  C   UNL A   1      33.349  24.792  24.763  1.00  0.00     0.019 A 
ATOM     17  O   UNL A   1      32.094  23.971  26.656  1.00  0.00    -0.475 OA
ATOM     18  C   UNL A   1      33.543  23.438  24.261  1.00  0.00     0.025 C 
ATOM     19  C   UNL A   1      32.619  22.640  26.410  1.00  0.00     0.314 C 
BRANCH  10  20
ATOM     20  C   UNL A   1      32.375  28.791  26.341  1.00  0.00    -0.012 C 
ATOM     21  C   UNL A   1      33.484  29.764  26.782  1.00  0.00     0.016 C 
ATOM     22  C   UNL A   1      31.519  28.511  27.602  1.00  0.00     0.016 C 
ATOM     23  C   UNL A   1      31.514  29.579  25.316  1.00  0.00     0.016 C 
ENDBRANCH  10  20
BRANCH  19  24
ATOM     24  C   UNL A   1      33.615  22.288  27.529  1.00  0.00     0.429 C 
ATOM     25  F   UNL A   1      33.134  22.685  28.734  1.00  0.00    -0.167 F 
ATOM     26  F   UNL A   1      33.836  20.956  27.631  1.00  0.00    -0.167 F 
ATOM     27  F   UNL A   1      34.818  22.877  27.358  1.00  0.00    -0.167 F 
ENDBRANCH  19  24
ENDBRANCH   6   9
ENDBRANCH   4   5
ENDBRANCH   3   4
ENDBRANCH   2   3
ENDBRANCH   1   2
BRANCH   1  28
ATOM     28  C   UNL A   1      39.326  20.903  25.364  1.00  0.00     0.021 C 
BRANCH  28  29
ATOM     29  C   UNL A   1      39.765  19.974  26.489  1.00  0.00     0.116 C 
BRANCH  29  30
ATOM     30  N   UNL A   1      40.827  19.069  26.085  1.00  0.00    -0.352 N 
ATOM     31  C   UNL A   1      42.173  19.312  25.958  1.00  0.00     0.251 C 
ATOM     32  H   UNL A   1      40.542  18.150  25.872  1.00  0.00     0.163 HD
ATOM     33  O   UNL A   1      42.914  18.469  25.461  1.00  0.00    -0.269 OA
BRANCH  31  34
ATOM     34  C   UNL A   1      42.722  20.614  26.390  1.00  0.00     0.039 A 
ATOM     35  C   UNL A   1      42.637  21.015  27.725  1.00  0.00     0.014 A 
ATOM     36  C   UNL A   1      43.306  21.452  25.437  1.00  0.00     0.014 A 
ATOM     37  C   UNL A   1      42.997  22.313  28.078  1.00  0.00     0.010 A 
ATOM     38  C   UNL A   1      43.734  22.729  25.808  1.00  0.00     0.010 A 
ATOM     39  C   UNL A   1      43.540  23.185  27.122  1.00  0.00    -0.014 A 
BRANCH  39  40
ATOM     40  C   UNL A   1      43.889  24.575  27.507  1.00  0.00     0.031 A 
ATOM     41  C   UNL A   1      42.810  25.561  27.867  1.00  0.00     0.074 A 
ATOM     42  C   UNL A   1      45.184  24.938  27.575  1.00  0.00     0.049 A 
ATOM     43  N   UNL A   1      42.921  26.822  28.201  1.00  0.00    -0.248 NA
ATOM     44  C   UNL A   1      41.424  25.067  27.849  1.00  0.00     0.031 C 
ATOM     45  C   UNL A   1      46.318  24.064  27.274  1.00  0.00     0.029 A 
ATOM     46  N   UNL A   1      45.765  26.126  27.938  1.00  0.00    -0.354 N 
ATOM     47  C   UNL A   1      41.625  27.274  28.414  1.00  0.00     0.074 A 
ATOM     48  C   UNL A   1      40.740  26.162  28.150  1.00  0.00     0.031 C 
ATOM     49  C   UNL A   1      47.458  24.730  27.507  1.00  0.00     0.029 A 
ATOM     50  C   UNL A   1      47.137  26.096  27.913  1.00  0.00     0.049 A 
ATOM     51  H   UNL A   1      45.247  26.925  28.191  1.00  0.00     0.167 HD
ATOM     52  C   UNL A   1      41.216  28.505  28.806  1.00  0.00     0.037 A 
ATOM     53  C   UNL A   1      48.035  27.063  28.172  1.00  0.00     0.037 A 
ATOM     54  C   UNL A   1      42.101  29.605  29.090  1.00  0.00     0.049 A 
ATOM     55  C   UNL A   1      47.550  28.431  28.556  1.00  0.00     0.074 A 
ATOM     56  C   UNL A   1      41.780  30.886  29.503  1.00  0.00     0.029 A 
ATOM     57  N   UNL A   1      43.484  29.550  28.996  1.00  0.00    -0.354 N 
ATOM     58  N   UNL A   1      46.323  28.851  28.736  1.00  0.00    -0.248 NA
ATOM     59  C   UNL A   1      48.576  29.464  28.757  1.00  0.00     0.031 C 
ATOM     60  C   UNL A   1      42.966  31.617  29.625  1.00  0.00     0.029 A 
ATOM     61  C   UNL A   1      44.029  30.780  29.328  1.00  0.00     0.049 A 
ATOM     62  H   UNL A   1      44.002  28.754  28.733  1.00  0.00     0.167 HD
ATOM     63  C   UNL A   1      46.426  30.191  29.079  1.00  0.00     0.074 A 
ATOM     64  C   UNL A   1      47.839  30.510  29.104  1.00  0.00     0.031 C 
ATOM     65  C   UNL A   1      45.437  31.081  29.342  1.00  0.00     0.037 A 
BRANCH  52  66
ATOM     66  C   UNL A   1      39.741  28.738  28.947  1.00  0.00     0.064 A 
ATOM     67  C   UNL A   1      39.078  28.529  30.164  1.00  0.00     0.173 A 
ATOM     68  C   UNL A   1      38.994  29.241  27.870  1.00  0.00     0.173 A 
ATOM     69  F   UNL A   1      39.743  28.039  31.220  1.00  0.00    -0.203 F 
ATOM     70  C   UNL A   1      37.718  28.802  30.295  1.00  0.00     0.198 A 
ATOM     71  C   UNL A   1      37.640  29.534  28.010  1.00  0.00     0.198 A 
ATOM     72  F   UNL A   1      39.582  29.462  26.685  1.00  0.00    -0.203 F 
ATOM     73  F   UNL A   1      37.097  28.565  31.459  1.00  0.00    -0.200 F 
ATOM     74  C   UNL A   1      37.003  29.312  29.222  1.00  0.00     0.200 A 
ATOM     75  F   UNL A   1      36.953  30.037  26.976  1.00  0.00    -0.200 F 
ATOM     76  F   UNL A   1      35.697  29.585  29.354  1.00  0.00    -0.200 F 
ENDBRANCH  52  66
BRANCH  53  77
ATOM     77  C   UNL A   1      49.486  26.761  28.071  1.00  0.00     0.064 A 
ATOM     78  C   UNL A   1      50.157  26.866  26.846  1.00  0.00     0.173 A 
ATOM     79  C   UNL A   1      50.235  26.396  29.199  1.00  0.00     0.173 A 
ATOM     80  F   UNL A   1      49.476  27.192  25.737  1.00  0.00    -0.203 F 
ATOM     81  C   UNL A   1      51.523  26.614  26.752  1.00  0.00     0.198 A 
ATOM     82  C   UNL A   1      51.606  26.169  29.108  1.00  0.00     0.198 A 
ATOM     83  F   UNL A   1      49.638  26.284  30.395  1.00  0.00    -0.203 F 
ATOM     84  F   UNL A   1      52.137  26.694  25.563  1.00  0.00    -0.200 F 
ATOM     85  C   UNL A   1      52.249  26.275  27.884  1.00  0.00     0.200 A 
ATOM     86  F   UNL A   1      52.306  25.857  30.208  1.00  0.00    -0.200 F 
ATOM     87  F   UNL A   1      53.566  26.048  27.796  1.00  0.00    -0.200 F 
ENDBRANCH  53  77
BRANCH  65  88
ATOM     88  C   UNL A   1      45.847  32.480  29.687  1.00  0.00     0.064 A 
ATOM     89  C   UNL A   1      45.949  33.474  28.702  1.00  0.00     0.173 A 
ATOM     90  C   UNL A   1      46.089  32.845  31.020  1.00  0.00     0.173 A 
ATOM     91  F   UNL A   1      45.740  33.170  27.413  1.00  0.00    -0.203 F 
ATOM     92  C   UNL A   1      46.297  34.779  29.039  1.00  0.00     0.198 A 
ATOM     93  C   UNL A   1      46.412  34.156  31.355  1.00  0.00     0.198 A 
ATOM     94  F   UNL A   1      45.999  31.931  31.998  1.00  0.00    -0.203 F 
ATOM     95  F   UNL A   1      46.424  35.705  28.078  1.00  0.00    -0.200 F 
ATOM     96  C   UNL A   1      46.520  35.121  30.365  1.00  0.00     0.200 A 
ATOM     97  F   UNL A   1      46.616  34.488  32.637  1.00  0.00    -0.200 F 
ATOM     98  F   UNL A   1      46.845  36.380  30.686  1.00  0.00    -0.200 F 
ENDBRANCH  65  88
ENDBRANCH  39  40
ENDBRANCH  31  34
ENDBRANCH  29  30
ENDBRANCH  28  29
ENDBRANCH   1  28
TORSDOF 15
ENDMDL
MODEL 3
REMARK VINA RESULT:     -11.8      5.048     10.350
REMARK SMILES CC(C)(C)c1cc2c(cc1Cl)C=C(C(=O)NCCCCCCNC(=O)c1ccc(-c3c4nc(c(-c5c(F)c(F)c(F)c(F)c5F)c5ccc([nH]5)c(-c5c(F)c(F)c(F)c(F)c5F)c5nc(c(-c6c(F)c(F)c(F)c(F)c6F)c6ccc3[nH]6)C=C5)C=C4)cc1)[C@@H](C(F)(F)F)O2
REMARK SMILES IDX 20 1 19 2 18 3 17 4 16 5 14 6 15 7 13 9 5 10 6 11 10 12 7 13
REMARK SMILES IDX 9 14 11 15 8 16 94 17 12 18 89 19 2 20 1 21 3 22 4 23 90 24
REMARK SMILES IDX 91 25 92 26 93 27 21 28 22 29 23 30 24 31 25 33 26 34 27 35
REMARK SMILES IDX 88 36 28 37 87 38 29 39 30 40 31 41 81 42 32 43 86 44 80 45
REMARK SMILES IDX 82 46 33 47 85 48 79 49 78 50 34 52 66 53 46 54 65 55 47 56
REMARK SMILES IDX 50 57 64 58 83 59 48 60 49 61 63 63 84 64 51 65 35 66 36 67
REMARK SMILES IDX 44 68 37 69 38 70 42 71 45 72 39 73 40 74 43 75 41 76 67 77
REMARK SMILES IDX 68 78 76 79 69 80 70 81 74 82 77 83 71 84 72 85 75 86 73 87
REMARK SMILES IDX 52 88 53 89 61 90 54 91 55 92 59 93 62 94 56 95 57 96 60 97
REMARK SMILES IDX 58 98
REMARK H PARENT 16 8 23 32 82 51 50 62
REMARK Flexibility Score: inf
ROOT
ATOM      1  C   UNL A   1      31.345  30.193  25.062  1.00  0.00     0.002 C 
ENDROOT
BRANCH   1   2
ATOM      2  C   UNL A   1      32.786  29.668  25.031  1.00  0.00     0.002 C 
BRANCH   2   3
ATOM      3  C   UNL A   1      33.147  28.789  23.829  1.00  0.00     0.021 C 
BRANCH   3   4
ATOM      4  C   UNL A   1      32.944  27.294  24.063  1.00  0.00     0.116 C 
BRANCH   4   5
ATOM      5  N   UNL A   1      32.414  27.017  25.385  1.00  0.00    -0.352 N 
ATOM      6  C   UNL A   1      32.063  25.928  26.108  1.00  0.00     0.251 C 
ATOM      7  O   UNL A   1      31.677  26.167  27.257  1.00  0.00    -0.270 OA
ATOM      8  H   UNL A   1      32.271  27.847  25.894  1.00  0.00     0.163 HD
BRANCH   6   9
ATOM      9  C   UNL A   1      32.101  24.514  25.624  1.00  0.00     0.067 C 
ATOM     10  C   UNL A   1      33.553  19.731  24.600  1.00  0.00    -0.020 A 
ATOM     11  C   UNL A   1      32.336  20.458  24.612  1.00  0.00     0.053 A 
ATOM     12  C   UNL A   1      34.707  20.469  24.938  1.00  0.00     0.045 A 
ATOM     13  C   UNL A   1      32.263  21.806  24.959  1.00  0.00     0.128 A 
ATOM     14  C   UNL A   1      34.623  21.833  25.299  1.00  0.00     0.032 A 
ATOM     15  Cl  UNL A   1      36.318  19.846  24.963  1.00  0.00    -0.084 Cl
ATOM     16  C   UNL A   1      33.402  22.502  25.320  1.00  0.00     0.019 A 
ATOM     17  O   UNL A   1      31.018  22.354  24.968  1.00  0.00    -0.475 OA
ATOM     18  C   UNL A   1      33.285  23.887  25.759  1.00  0.00     0.025 C 
ATOM     19  C   UNL A   1      30.937  23.803  24.995  1.00  0.00     0.314 C 
BRANCH  10  20
ATOM     20  C   UNL A   1      33.441  18.231  24.230  1.00  0.00    -0.012 C 
ATOM     21  C   UNL A   1      34.735  17.396  24.203  1.00  0.00     0.016 C 
ATOM     22  C   UNL A   1      32.817  18.105  22.817  1.00  0.00     0.016 C 
ATOM     23  C   UNL A   1      32.512  17.525  25.254  1.00  0.00     0.016 C 
ENDBRANCH  10  20
BRANCH  19  24
ATOM     24  C   UNL A   1      30.630  24.307  23.574  1.00  0.00     0.429 C 
ATOM     25  F   UNL A   1      31.780  24.496  22.879  1.00  0.00    -0.167 F 
ATOM     26  F   UNL A   1      29.895  23.426  22.855  1.00  0.00    -0.167 F 
ATOM     27  F   UNL A   1      29.957  25.478  23.571  1.00  0.00    -0.167 F 
ENDBRANCH  19  24
ENDBRANCH   6   9
ENDBRANCH   4   5
ENDBRANCH   3   4
ENDBRANCH   2   3
ENDBRANCH   1   2
BRANCH   1  28
ATOM     28  C   UNL A   1      31.096  31.403  25.966  1.00  0.00     0.021 C 
BRANCH  28  29
ATOM     29  C   UNL A   1      32.247  31.757  26.899  1.00  0.00     0.116 C 
BRANCH  29  30
ATOM     30  N   UNL A   1      32.291  33.173  27.221  1.00  0.00    -0.352 N 
ATOM     31  C   UNL A   1      33.208  33.863  27.976  1.00  0.00     0.251 C 
ATOM     32  H   UNL A   1      31.560  33.716  26.844  1.00  0.00     0.163 HD
ATOM     33  O   UNL A   1      33.014  35.038  28.271  1.00  0.00    -0.269 OA
BRANCH  31  34
ATOM     34  C   UNL A   1      34.417  33.169  28.466  1.00  0.00     0.039 A 
ATOM     35  C   UNL A   1      34.369  31.818  28.818  1.00  0.00     0.014 A 
ATOM     36  C   UNL A   1      35.606  33.891  28.597  1.00  0.00     0.014 A 
ATOM     37  C   UNL A   1      35.466  31.230  29.442  1.00  0.00     0.010 A 
ATOM     38  C   UNL A   1      36.729  33.278  29.157  1.00  0.00     0.010 A 
ATOM     39  C   UNL A   1      36.653  31.956  29.625  1.00  0.00    -0.014 A 
BRANCH  39  40
ATOM     40  C   UNL A   1      37.802  31.325  30.321  1.00  0.00     0.031 A 
ATOM     41  C   UNL A   1      38.074  31.623  31.771  1.00  0.00     0.074 A 
ATOM     42  C   UNL A   1      38.577  30.446  29.657  1.00  0.00     0.049 A 
ATOM     43  N   UNL A   1      39.043  31.189  32.537  1.00  0.00    -0.248 NA
ATOM     44  C   UNL A   1      37.135  32.529  32.452  1.00  0.00     0.031 C 
ATOM     45  C   UNL A   1      38.396  30.059  28.258  1.00  0.00     0.029 A 
ATOM     46  N   UNL A   1      39.654  29.707  30.072  1.00  0.00    -0.354 N 
ATOM     47  C   UNL A   1      38.842  31.780  33.777  1.00  0.00     0.074 A 
ATOM     48  C   UNL A   1      37.673  32.623  33.659  1.00  0.00     0.031 C 
ATOM     49  C   UNL A   1      39.302  29.121  27.943  1.00  0.00     0.029 A 
ATOM     50  C   UNL A   1      40.165  28.887  29.098  1.00  0.00     0.049 A 
ATOM     51  H   UNL A   1      40.026  29.760  30.983  1.00  0.00     0.167 HD
ATOM     52  C   UNL A   1      39.563  31.622  34.913  1.00  0.00     0.037 A 
ATOM     53  C   UNL A   1      41.219  28.052  29.125  1.00  0.00     0.037 A 
ATOM     54  C   UNL A   1      40.714  30.764  35.033  1.00  0.00     0.049 A 
ATOM     55  C   UNL A   1      42.030  27.935  30.383  1.00  0.00     0.074 A 
ATOM     56  C   UNL A   1      41.505  30.532  36.145  1.00  0.00     0.029 A 
ATOM     57  N   UNL A   1      41.236  29.994  34.004  1.00  0.00    -0.354 N 
ATOM     58  N   UNL A   1      41.841  28.512  31.544  1.00  0.00    -0.248 NA
ATOM     59  C   UNL A   1      43.211  27.062  30.330  1.00  0.00     0.031 C 
ATOM     60  C   UNL A   1      42.525  29.648  35.781  1.00  0.00     0.029 A 
ATOM     61  C   UNL A   1      42.346  29.297  34.453  1.00  0.00     0.049 A 
ATOM     62  H   UNL A   1      40.870  29.948  33.091  1.00  0.00     0.167 HD
ATOM     63  C   UNL A   1      42.870  28.069  32.361  1.00  0.00     0.074 A 
ATOM     64  C   UNL A   1      43.669  27.156  31.571  1.00  0.00     0.031 C 
ATOM     65  C   UNL A   1      43.134  28.396  33.650  1.00  0.00     0.037 A 
BRANCH  52  66
ATOM     66  C   UNL A   1      39.138  32.398  36.124  1.00  0.00     0.064 A 
ATOM     67  C   UNL A   1      38.294  31.840  37.094  1.00  0.00     0.173 A 
ATOM     68  C   UNL A   1      39.634  33.692  36.351  1.00  0.00     0.173 A 
ATOM     69  F   UNL A   1      37.784  30.612  36.919  1.00  0.00    -0.203 F 
ATOM     70  C   UNL A   1      37.951  32.553  38.240  1.00  0.00     0.198 A 
ATOM     71  C   UNL A   1      39.308  34.392  37.508  1.00  0.00     0.198 A 
ATOM     72  F   UNL A   1      40.449  34.269  35.456  1.00  0.00    -0.203 F 
ATOM     73  F   UNL A   1      37.118  32.011  39.140  1.00  0.00    -0.200 F 
ATOM     74  C   UNL A   1      38.465  33.823  38.451  1.00  0.00     0.200 A 
ATOM     75  F   UNL A   1      39.814  35.616  37.716  1.00  0.00    -0.200 F 
ATOM     76  F   UNL A   1      38.143  34.502  39.562  1.00  0.00    -0.200 F 
ENDBRANCH  52  66
BRANCH  53  77
ATOM     77  C   UNL A   1      41.562  27.265  27.913  1.00  0.00     0.064 A 
ATOM     78  C   UNL A   1      42.366  27.814  26.905  1.00  0.00     0.173 A 
ATOM     79  C   UNL A   1      41.124  25.943  27.754  1.00  0.00     0.173 A 
ATOM     80  F   UNL A   1      42.791  29.082  27.006  1.00  0.00    -0.203 F 
ATOM     81  C   UNL A   1      42.716  27.070  25.781  1.00  0.00     0.198 A 
ATOM     82  C   UNL A   1      41.496  25.192  26.641  1.00  0.00     0.198 A 
ATOM     83  F   UNL A   1      40.353  25.372  28.692  1.00  0.00    -0.203 F 
ATOM     84  F   UNL A   1      43.463  27.627  24.818  1.00  0.00    -0.200 F 
ATOM     85  C   UNL A   1      42.289  25.757  25.654  1.00  0.00     0.200 A 
ATOM     86  F   UNL A   1      41.093  23.917  26.530  1.00  0.00    -0.200 F 
ATOM     87  F   UNL A   1      42.638  25.037  24.580  1.00  0.00    -0.200 F 
ENDBRANCH  53  77
BRANCH  65  88
ATOM     88  C   UNL A   1      44.329  27.758  34.290  1.00  0.00     0.064 A 
ATOM     89  C   UNL A   1      45.575  28.404  34.313  1.00  0.00     0.173 A 
ATOM     90  C   UNL A   1      44.218  26.516  34.930  1.00  0.00     0.173 A 
ATOM     91  F   UNL A   1      45.733  29.587  33.702  1.00  0.00    -0.203 F 
ATOM     92  C   UNL A   1      46.670  27.817  34.940  1.00  0.00     0.198 A 
ATOM     93  C   UNL A   1      45.310  25.945  35.577  1.00  0.00     0.198 A 
ATOM     94  F   UNL A   1      43.047  25.862  34.939  1.00  0.00    -0.203 F 
ATOM     95  F   UNL A   1      47.860  28.433  34.919  1.00  0.00    -0.200 F 
ATOM     96  C   UNL A   1      46.535  26.593  35.578  1.00  0.00     0.200 A 
ATOM     97  F   UNL A   1      45.175  24.767  36.203  1.00  0.00    -0.200 F 
ATOM     98  F   UNL A   1      47.589  26.035  36.189  1.00  0.00    -0.200 F 
ENDBRANCH  65  88
ENDBRANCH  39  40
ENDBRANCH  31  34
ENDBRANCH  29  30
ENDBRANCH  28  29
ENDBRANCH   1  28
TORSDOF 15
ENDMDL
