MODEL 1
REMARK VINA RESULT:     -12.0      0.000      0.000
REMARK SMILES CC[N@@H+]1CCO[C@H](c2nc(C)c(C(=O)NCCCCCCNC(=O)c3ccc(-c4c5nc(c(-c6c(F)c(F)c(F)c(F)c6F)c6ccc([nH]6)c(-c6c(F)c(F)c(F)c(F)c6F)c6nc(c(-c7c(F)c(F)c(F)c(F)c7F)c7ccc4[nH]7)C=C6)C=C5)cc3)s2)C1
REMARK SMILES IDX 18 1 17 2 16 3 15 4 13 5 14 6 12 8 8 9 9 10 88 11 10 12
REMARK SMILES IDX 11 13 7 14 3 15 4 16 89 17 5 19 6 20 2 21 1 22 19 23 20 24
REMARK SMILES IDX 21 25 22 26 23 27 24 29 25 30 26 31 87 32 27 33 86 34 28 35
REMARK SMILES IDX 29 36 30 37 80 38 31 39 85 40 79 41 81 42 32 43 84 44 78 45
REMARK SMILES IDX 77 46 33 48 65 49 45 50 64 51 46 52 49 53 63 54 82 55 47 56
REMARK SMILES IDX 48 57 62 59 83 60 50 61 34 62 35 63 43 64 36 65 37 66 41 67
REMARK SMILES IDX 44 68 38 69 39 70 42 71 40 72 66 73 67 74 75 75 68 76 69 77
REMARK SMILES IDX 73 78 76 79 70 80 71 81 74 82 72 83 51 84 52 85 60 86 53 87
REMARK SMILES IDX 54 88 58 89 61 90 55 91 56 92 59 93 57 94
REMARK H PARENT 15 7 3 18 22 28 81 47 49 58
REMARK Flexibility Score: inf
ROOT
ATOM      1  C   UNL A   1      32.622  29.994  27.186  1.00  0.00     0.002 C 
ENDROOT
BRANCH   1   2
ATOM      2  C   UNL A   1      32.702  28.477  26.985  1.00  0.00     0.021 C 
BRANCH   2   3
ATOM      3  C   UNL A   1      33.868  28.048  26.100  1.00  0.00     0.116 C 
BRANCH   3   4
ATOM      4  N   UNL A   1      33.826  28.831  24.895  1.00  0.00    -0.351 N 
ATOM      5  C   UNL A   1      33.478  28.481  23.623  1.00  0.00     0.263 C 
ATOM      6  O   UNL A   1      33.732  29.326  22.760  1.00  0.00    -0.268 OA
ATOM      7  H   UNL A   1      34.091  29.773  25.006  1.00  0.00     0.163 HD
BRANCH   5   8
ATOM      8  C   UNL A   1      32.769  27.259  23.320  1.00  0.00     0.115 A 
ATOM      9  C   UNL A   1      32.600  24.913  22.691  1.00  0.00     0.128 A 
ATOM     10  N   UNL A   1      31.504  25.295  23.317  1.00  0.00    -0.243 NA
ATOM     11  S   UNL A   1      33.614  26.213  22.266  1.00  0.00    -0.110 S 
ATOM     12  C   UNL A   1      31.570  26.650  23.660  1.00  0.00     0.062 A 
ATOM     13  C   UNL A   1      30.397  27.177  24.400  1.00  0.00     0.068 C 
BRANCH   9  14
ATOM     14  C   UNL A   1      32.970  23.476  22.388  1.00  0.00     0.232 C 
ATOM     15  N   UNL A   1      32.824  21.901  24.474  1.00  0.00    -0.331 N 
ATOM     16  C   UNL A   1      34.292  21.826  24.344  1.00  0.00     0.291 C 
ATOM     17  C   UNL A   1      32.225  22.389  23.216  1.00  0.00     0.302 C 
ATOM     18  H   UNL A   1      32.419  20.970  24.575  1.00  0.00     0.348 HD
ATOM     19  C   UNL A   1      34.945  23.040  23.664  1.00  0.00     0.222 C 
ATOM     20  O   UNL A   1      34.397  23.313  22.375  1.00  0.00    -0.359 OA
BRANCH  15  21
ATOM     21  C   UNL A   1      32.405  22.509  25.739  1.00  0.00     0.258 C 
ATOM     22  C   UNL A   1      30.932  22.900  25.847  1.00  0.00     0.071 C 
ENDBRANCH  15  21
ENDBRANCH   9  14
ENDBRANCH   5   8
ENDBRANCH   3   4
ENDBRANCH   2   3
ENDBRANCH   1   2
BRANCH   1  23
ATOM     23  C   UNL A   1      31.472  30.675  26.436  1.00  0.00     0.002 C 
BRANCH  23  24
ATOM     24  C   UNL A   1      31.406  32.194  26.608  1.00  0.00     0.021 C 
BRANCH  24  25
ATOM     25  C   UNL A   1      32.610  32.796  27.328  1.00  0.00     0.116 C 
BRANCH  25  26
ATOM     26  N   UNL A   1      32.406  34.204  27.624  1.00  0.00    -0.352 N 
ATOM     27  C   UNL A   1      32.980  34.963  28.609  1.00  0.00     0.251 C 
ATOM     28  H   UNL A   1      31.770  34.674  27.038  1.00  0.00     0.163 HD
ATOM     29  O   UNL A   1      32.527  36.070  28.890  1.00  0.00    -0.269 OA
BRANCH  27  30
ATOM     30  C   UNL A   1      34.147  34.437  29.342  1.00  0.00     0.039 A 
ATOM     31  C   UNL A   1      33.959  33.879  30.610  1.00  0.00     0.014 A 
ATOM     32  C   UNL A   1      35.424  34.496  28.774  1.00  0.00     0.014 A 
ATOM     33  C   UNL A   1      35.048  33.328  31.286  1.00  0.00     0.010 A 
ATOM     34  C   UNL A   1      36.496  33.895  29.425  1.00  0.00     0.010 A 
ATOM     35  C   UNL A   1      36.317  33.305  30.685  1.00  0.00    -0.014 A 
BRANCH  35  36
ATOM     36  C   UNL A   1      37.473  32.658  31.352  1.00  0.00     0.031 A 
ATOM     37  C   UNL A   1      38.163  31.496  30.701  1.00  0.00     0.074 A 
ATOM     38  C   UNL A   1      37.843  33.069  32.580  1.00  0.00     0.049 A 
ATOM     39  N   UNL A   1      39.123  30.737  31.165  1.00  0.00    -0.248 NA
ATOM     40  C   UNL A   1      37.695  31.118  29.358  1.00  0.00     0.031 C 
ATOM     41  C   UNL A   1      37.218  34.158  33.331  1.00  0.00     0.029 A 
ATOM     42  N   UNL A   1      38.823  32.605  33.421  1.00  0.00    -0.354 N 
ATOM     43  C   UNL A   1      39.362  29.787  30.182  1.00  0.00     0.074 A 
ATOM     44  C   UNL A   1      38.418  30.035  29.113  1.00  0.00     0.031 C 
ATOM     45  C   UNL A   1      37.835  34.285  34.516  1.00  0.00     0.029 A 
ATOM     46  C   UNL A   1      38.874  33.265  34.623  1.00  0.00     0.049 A 
ATOM     47  H   UNL A   1      39.432  31.867  33.184  1.00  0.00     0.167 HD
ATOM     48  C   UNL A   1      40.298  28.808  30.166  1.00  0.00     0.037 A 
ATOM     49  C   UNL A   1      39.661  33.062  35.695  1.00  0.00     0.037 A 
ATOM     50  C   UNL A   1      41.253  28.584  31.219  1.00  0.00     0.049 A 
ATOM     51  C   UNL A   1      40.686  31.962  35.655  1.00  0.00     0.074 A 
ATOM     52  C   UNL A   1      42.293  27.672  31.262  1.00  0.00     0.029 A 
ATOM     53  N   UNL A   1      41.281  29.281  32.419  1.00  0.00    -0.354 N 
ATOM     54  N   UNL A   1      40.950  31.114  34.691  1.00  0.00    -0.248 NA
ATOM     55  C   UNL A   1      41.521  31.790  36.852  1.00  0.00     0.031 C 
ATOM     56  C   UNL A   1      42.925  27.789  32.504  1.00  0.00     0.029 A 
ATOM     57  C   UNL A   1      42.304  28.801  33.220  1.00  0.00     0.049 A 
ATOM     58  H   UNL A   1      40.665  30.009  32.664  1.00  0.00     0.167 HD
ATOM     59  C   UNL A   1      41.990  30.321  35.156  1.00  0.00     0.074 A 
ATOM     60  C   UNL A   1      42.321  30.800  36.482  1.00  0.00     0.031 C 
ATOM     61  C   UNL A   1      42.614  29.287  34.540  1.00  0.00     0.037 A 
BRANCH  48  62
ATOM     62  C   UNL A   1      40.339  27.907  28.967  1.00  0.00     0.064 A 
ATOM     63  C   UNL A   1      41.100  28.229  27.834  1.00  0.00     0.173 A 
ATOM     64  C   UNL A   1      39.643  26.689  28.967  1.00  0.00     0.173 A 
ATOM     65  F   UNL A   1      41.775  29.387  27.781  1.00  0.00    -0.203 F 
ATOM     66  C   UNL A   1      41.144  27.377  26.735  1.00  0.00     0.198 A 
ATOM     67  C   UNL A   1      39.709  25.827  27.876  1.00  0.00     0.198 A 
ATOM     68  F   UNL A   1      38.903  26.332  30.028  1.00  0.00    -0.203 F 
ATOM     69  F   UNL A   1      41.844  27.724  25.646  1.00  0.00    -0.200 F 
ATOM     70  C   UNL A   1      40.454  26.174  26.759  1.00  0.00     0.200 A 
ATOM     71  F   UNL A   1      39.050  24.661  27.905  1.00  0.00    -0.200 F 
ATOM     72  F   UNL A   1      40.501  25.351  25.702  1.00  0.00    -0.200 F 
ENDBRANCH  48  62
BRANCH  49  73
ATOM     73  C   UNL A   1      39.519  33.929  36.892  1.00  0.00     0.064 A 
ATOM     74  C   UNL A   1      40.148  35.180  36.949  1.00  0.00     0.173 A 
ATOM     75  C   UNL A   1      38.749  33.533  37.994  1.00  0.00     0.173 A 
ATOM     76  F   UNL A   1      40.912  35.591  35.927  1.00  0.00    -0.203 F 
ATOM     77  C   UNL A   1      40.024  35.996  38.071  1.00  0.00     0.198 A 
ATOM     78  C   UNL A   1      38.605  34.361  39.106  1.00  0.00     0.198 A 
ATOM     79  F   UNL A   1      38.123  32.346  37.985  1.00  0.00    -0.203 F 
ATOM     80  F   UNL A   1      40.665  37.172  38.115  1.00  0.00    -0.200 F 
ATOM     81  C   UNL A   1      39.247  35.590  39.145  1.00  0.00     0.200 A 
ATOM     82  F   UNL A   1      37.843  33.970  40.136  1.00  0.00    -0.200 F 
ATOM     83  F   UNL A   1      39.122  36.378  40.221  1.00  0.00    -0.200 F 
ENDBRANCH  49  73
BRANCH  61  84
ATOM     84  C   UNL A   1      43.723  28.613  35.290  1.00  0.00     0.064 A 
ATOM     85  C   UNL A   1      45.056  29.022  35.144  1.00  0.00     0.173 A 
ATOM     86  C   UNL A   1      43.445  27.578  36.195  1.00  0.00     0.173 A 
ATOM     87  F   UNL A   1      45.372  29.996  34.278  1.00  0.00    -0.203 F 
ATOM     88  C   UNL A   1      46.075  28.406  35.866  1.00  0.00     0.198 A 
ATOM     89  C   UNL A   1      44.462  26.981  36.933  1.00  0.00     0.198 A 
ATOM     90  F   UNL A   1      42.184  27.155  36.372  1.00  0.00    -0.203 F 
ATOM     91  F   UNL A   1      47.346  28.786  35.682  1.00  0.00    -0.200 F 
ATOM     92  C   UNL A   1      45.777  27.393  36.764  1.00  0.00     0.200 A 
ATOM     93  F   UNL A   1      44.172  26.009  37.808  1.00  0.00    -0.200 F 
ATOM     94  F   UNL A   1      46.758  26.806  37.463  1.00  0.00    -0.200 F 
ENDBRANCH  61  84
ENDBRANCH  35  36
ENDBRANCH  27  30
ENDBRANCH  25  26
ENDBRANCH  24  25
ENDBRANCH  23  24
ENDBRANCH   1  23
TORSDOF 15
ENDMDL
MODEL 2
REMARK VINA RESULT:     -11.7      0.218      1.972
REMARK SMILES CC[N@@H+]1CCO[C@H](c2nc(C)c(C(=O)NCCCCCCNC(=O)c3ccc(-c4c5nc(c(-c6c(F)c(F)c(F)c(F)c6F)c6ccc([nH]6)c(-c6c(F)c(F)c(F)c(F)c6F)c6nc(c(-c7c(F)c(F)c(F)c(F)c7F)c7ccc4[nH]7)C=C6)C=C5)cc3)s2)C1
REMARK SMILES IDX 18 1 17 2 16 3 15 4 13 5 14 6 12 8 8 9 9 10 88 11 10 12
REMARK SMILES IDX 11 13 7 14 3 15 4 16 89 17 5 19 6 20 2 21 1 22 19 23 20 24
REMARK SMILES IDX 21 25 22 26 23 27 24 29 25 30 26 31 87 32 27 33 86 34 28 35
REMARK SMILES IDX 29 36 30 37 80 38 31 39 85 40 79 41 81 42 32 43 84 44 78 45
REMARK SMILES IDX 77 46 33 48 65 49 45 50 64 51 46 52 49 53 63 54 82 55 47 56
REMARK SMILES IDX 48 57 62 59 83 60 50 61 34 62 35 63 43 64 36 65 37 66 41 67
REMARK SMILES IDX 44 68 38 69 39 70 42 71 40 72 66 73 67 74 75 75 68 76 69 77
REMARK SMILES IDX 73 78 76 79 70 80 71 81 74 82 72 83 51 84 52 85 60 86 53 87
REMARK SMILES IDX 54 88 58 89 61 90 55 91 56 92 59 93 57 94
REMARK H PARENT 15 7 3 18 22 28 81 47 49 58
REMARK Flexibility Score: inf
ROOT
ATOM      1  C   UNL A   1      32.571  29.959  27.254  1.00  0.00     0.002 C 
ENDROOT
BRANCH   1   2
ATOM      2  C   UNL A   1      32.563  28.444  27.024  1.00  0.00     0.021 C 
BRANCH   2   3
ATOM      3  C   UNL A   1      33.747  27.955  26.195  1.00  0.00     0.116 C 
BRANCH   3   4
ATOM      4  N   UNL A   1      33.815  28.751  25.001  1.00  0.00    -0.351 N 
ATOM      5  C   UNL A   1      33.527  28.431  23.706  1.00  0.00     0.263 C 
ATOM      6  O   UNL A   1      33.873  29.271  22.870  1.00  0.00    -0.268 OA
ATOM      7  H   UNL A   1      34.116  29.678  25.139  1.00  0.00     0.163 HD
BRANCH   5   8
ATOM      8  C   UNL A   1      32.781  27.247  23.346  1.00  0.00     0.115 A 
ATOM      9  C   UNL A   1      32.539  24.911  22.701  1.00  0.00     0.128 A 
ATOM     10  N   UNL A   1      31.418  25.352  23.239  1.00  0.00    -0.243 NA
ATOM     11  S   UNL A   1      33.651  26.155  22.360  1.00  0.00    -0.110 S 
ATOM     12  C   UNL A   1      31.529  26.702  23.589  1.00  0.00     0.062 A 
ATOM     13  C   UNL A   1      30.330  27.293  24.235  1.00  0.00     0.068 C 
BRANCH   9  14
ATOM     14  C   UNL A   1      32.855  23.457  22.426  1.00  0.00     0.232 C 
ATOM     15  N   UNL A   1      32.719  21.940  24.555  1.00  0.00    -0.331 N 
ATOM     16  C   UNL A   1      34.179  21.815  24.388  1.00  0.00     0.291 C 
ATOM     17  C   UNL A   1      32.100  22.415  23.302  1.00  0.00     0.302 C 
ATOM     18  H   UNL A   1      32.288  21.025  24.691  1.00  0.00     0.348 HD
ATOM     19  C   UNL A   1      34.851  22.990  23.659  1.00  0.00     0.222 C 
ATOM     20  O   UNL A   1      34.276  23.248  22.378  1.00  0.00    -0.359 OA
BRANCH  15  21
ATOM     21  C   UNL A   1      32.354  22.592  25.815  1.00  0.00     0.258 C 
ATOM     22  C   UNL A   1      33.103  23.881  26.151  1.00  0.00     0.071 C 
ENDBRANCH  15  21
ENDBRANCH   9  14
ENDBRANCH   5   8
ENDBRANCH   3   4
ENDBRANCH   2   3
ENDBRANCH   1   2
BRANCH   1  23
ATOM     23  C   UNL A   1      31.655  30.749  26.314  1.00  0.00     0.002 C 
BRANCH  23  24
ATOM     24  C   UNL A   1      31.473  32.222  26.686  1.00  0.00     0.021 C 
BRANCH  24  25
ATOM     25  C   UNL A   1      32.701  32.863  27.326  1.00  0.00     0.116 C 
BRANCH  25  26
ATOM     26  N   UNL A   1      32.470  34.263  27.641  1.00  0.00    -0.352 N 
ATOM     27  C   UNL A   1      33.020  35.016  28.644  1.00  0.00     0.251 C 
ATOM     28  H   UNL A   1      31.832  34.731  27.055  1.00  0.00     0.163 HD
ATOM     29  O   UNL A   1      32.545  36.111  28.937  1.00  0.00    -0.269 OA
BRANCH  27  30
ATOM     30  C   UNL A   1      34.188  34.499  29.382  1.00  0.00     0.039 A 
ATOM     31  C   UNL A   1      34.000  33.949  30.652  1.00  0.00     0.014 A 
ATOM     32  C   UNL A   1      35.466  34.560  28.814  1.00  0.00     0.014 A 
ATOM     33  C   UNL A   1      35.091  33.405  31.333  1.00  0.00     0.010 A 
ATOM     34  C   UNL A   1      36.539  33.966  29.470  1.00  0.00     0.010 A 
ATOM     35  C   UNL A   1      36.361  33.384  30.734  1.00  0.00    -0.014 A 
BRANCH  35  36
ATOM     36  C   UNL A   1      37.518  32.745  31.405  1.00  0.00     0.031 A 
ATOM     37  C   UNL A   1      38.218  31.586  30.759  1.00  0.00     0.074 A 
ATOM     38  C   UNL A   1      37.881  33.160  32.634  1.00  0.00     0.049 A 
ATOM     39  N   UNL A   1      39.181  30.834  31.228  1.00  0.00    -0.248 NA
ATOM     40  C   UNL A   1      37.757  31.203  29.415  1.00  0.00     0.031 C 
ATOM     41  C   UNL A   1      37.247  34.246  33.381  1.00  0.00     0.029 A 
ATOM     42  N   UNL A   1      38.862  32.703  33.479  1.00  0.00    -0.354 N 
ATOM     43  C   UNL A   1      39.429  29.884  30.247  1.00  0.00     0.074 A 
ATOM     44  C   UNL A   1      38.488  30.125  29.174  1.00  0.00     0.031 C 
ATOM     45  C   UNL A   1      37.858  34.379  34.569  1.00  0.00     0.029 A 
ATOM     46  C   UNL A   1      38.904  33.366  34.680  1.00  0.00     0.049 A 
ATOM     47  H   UNL A   1      39.476  31.969  33.246  1.00  0.00     0.167 HD
ATOM     48  C   UNL A   1      40.372  28.911  30.236  1.00  0.00     0.037 A 
ATOM     49  C   UNL A   1      39.688  33.169  35.756  1.00  0.00     0.037 A 
ATOM     50  C   UNL A   1      41.324  28.695  31.293  1.00  0.00     0.049 A 
ATOM     51  C   UNL A   1      40.721  32.075  35.721  1.00  0.00     0.074 A 
ATOM     52  C   UNL A   1      42.370  27.790  31.341  1.00  0.00     0.029 A 
ATOM     53  N   UNL A   1      41.344  29.393  32.491  1.00  0.00    -0.354 N 
ATOM     54  N   UNL A   1      40.993  31.228  34.759  1.00  0.00    -0.248 NA
ATOM     55  C   UNL A   1      41.552  31.911  36.922  1.00  0.00     0.031 C 
ATOM     56  C   UNL A   1      42.997  27.912  32.585  1.00  0.00     0.029 A 
ATOM     57  C   UNL A   1      42.367  28.921  33.297  1.00  0.00     0.049 A 
ATOM     58  H   UNL A   1      40.723  30.118  32.733  1.00  0.00     0.167 HD
ATOM     59  C   UNL A   1      42.036  30.442  35.229  1.00  0.00     0.074 A 
ATOM     60  C   UNL A   1      42.359  30.925  36.556  1.00  0.00     0.031 C 
ATOM     61  C   UNL A   1      42.669  29.411  34.617  1.00  0.00     0.037 A 
BRANCH  48  62
ATOM     62  C   UNL A   1      40.423  28.009  29.039  1.00  0.00     0.064 A 
ATOM     63  C   UNL A   1      39.689  26.814  28.988  1.00  0.00     0.173 A 
ATOM     64  C   UNL A   1      41.183  28.361  27.913  1.00  0.00     0.173 A 
ATOM     65  F   UNL A   1      38.956  26.428  30.043  1.00  0.00    -0.203 F 
ATOM     66  C   UNL A   1      39.732  25.994  27.865  1.00  0.00     0.198 A 
ATOM     67  C   UNL A   1      41.203  27.551  26.781  1.00  0.00     0.198 A 
ATOM     68  F   UNL A   1      41.900  29.495  27.908  1.00  0.00    -0.203 F 
ATOM     69  F   UNL A   1      39.056  24.837  27.855  1.00  0.00    -0.200 F 
ATOM     70  C   UNL A   1      40.483  26.366  26.759  1.00  0.00     0.200 A 
ATOM     71  F   UNL A   1      41.921  27.916  25.710  1.00  0.00    -0.200 F 
ATOM     72  F   UNL A   1      40.520  25.578  25.676  1.00  0.00    -0.200 F 
ENDBRANCH  48  62
BRANCH  49  73
ATOM     73  C   UNL A   1      39.536  34.037  36.951  1.00  0.00     0.064 A 
ATOM     74  C   UNL A   1      38.758  33.625  38.041  1.00  0.00     0.173 A 
ATOM     75  C   UNL A   1      40.167  35.286  37.032  1.00  0.00     0.173 A 
ATOM     76  F   UNL A   1      38.119  32.446  38.000  1.00  0.00    -0.203 F 
ATOM     77  C   UNL A   1      38.606  34.436  39.163  1.00  0.00     0.198 A 
ATOM     78  C   UNL A   1      40.034  36.087  38.165  1.00  0.00     0.198 A 
ATOM     79  F   UNL A   1      40.926  35.723  36.016  1.00  0.00    -0.203 F 
ATOM     80  F   UNL A   1      37.827  34.034  40.177  1.00  0.00    -0.200 F 
ATOM     81  C   UNL A   1      39.249  35.663  39.227  1.00  0.00     0.200 A 
ATOM     82  F   UNL A   1      40.667  37.266  38.228  1.00  0.00    -0.200 F 
ATOM     83  F   UNL A   1      39.107  36.441  40.309  1.00  0.00    -0.200 F 
ENDBRANCH  49  73
BRANCH  61  84
ATOM     84  C   UNL A   1      43.779  28.745  35.372  1.00  0.00     0.064 A 
ATOM     85  C   UNL A   1      43.524  27.703  36.275  1.00  0.00     0.173 A 
ATOM     86  C   UNL A   1      45.114  29.122  35.158  1.00  0.00     0.173 A 
ATOM     87  F   UNL A   1      42.264  27.320  36.524  1.00  0.00    -0.203 F 
ATOM     88  C   UNL A   1      44.566  27.074  36.951  1.00  0.00     0.198 A 
ATOM     89  C   UNL A   1      46.154  28.475  35.817  1.00  0.00     0.198 A 
ATOM     90  F   UNL A   1      45.407  30.111  34.301  1.00  0.00    -0.203 F 
ATOM     91  F   UNL A   1      44.297  26.107  37.839  1.00  0.00    -0.200 F 
ATOM     92  C   UNL A   1      45.879  27.454  36.716  1.00  0.00     0.200 A 
ATOM     93  F   UNL A   1      47.423  28.836  35.582  1.00  0.00    -0.200 F 
ATOM     94  F   UNL A   1      46.880  26.843  37.363  1.00  0.00    -0.200 F 
ENDBRANCH  61  84
ENDBRANCH  35  36
ENDBRANCH  27  30
ENDBRANCH  25  26
ENDBRANCH  24  25
ENDBRANCH  23  24
ENDBRANCH   1  23
TORSDOF 15
ENDMDL
MODEL 3
REMARK VINA RESULT:     -11.7      1.272      2.598
REMARK SMILES CC[N@@H+]1CCO[C@H](c2nc(C)c(C(=O)NCCCCCCNC(=O)c3ccc(-c4c5nc(c(-c6c(F)c(F)c(F)c(F)c6F)c6ccc([nH]6)c(-c6c(F)c(F)c(F)c(F)c6F)c6nc(c(-c7c(F)c(F)c(F)c(F)c7F)c7ccc4[nH]7)C=C6)C=C5)cc3)s2)C1
REMARK SMILES IDX 18 1 17 2 16 3 15 4 13 5 14 6 12 8 8 9 9 10 88 11 10 12
REMARK SMILES IDX 11 13 7 14 3 15 4 16 89 17 5 19 6 20 2 21 1 22 19 23 20 24
REMARK SMILES IDX 21 25 22 26 23 27 24 29 25 30 26 31 87 32 27 33 86 34 28 35
REMARK SMILES IDX 29 36 30 37 80 38 31 39 85 40 79 41 81 42 32 43 84 44 78 45
REMARK SMILES IDX 77 46 33 48 65 49 45 50 64 51 46 52 49 53 63 54 82 55 47 56
REMARK SMILES IDX 48 57 62 59 83 60 50 61 34 62 35 63 43 64 36 65 37 66 41 67
REMARK SMILES IDX 44 68 38 69 39 70 42 71 40 72 66 73 67 74 75 75 68 76 69 77
REMARK SMILES IDX 73 78 76 79 70 80 71 81 74 82 72 83 51 84 52 85 60 86 53 87
REMARK SMILES IDX 54 88 58 89 61 90 55 91 56 92 59 93 57 94
REMARK H PARENT 15 7 3 18 22 28 81 47 49 58
REMARK Flexibility Score: inf
ROOT
ATOM      1  C   UNL A   1      32.509  29.916  26.974  1.00  0.00     0.002 C 
ENDROOT
BRANCH   1   2
ATOM      2  C   UNL A   1      31.787  28.703  27.573  1.00  0.00     0.021 C 
BRANCH   2   3
ATOM      3  C   UNL A   1      32.108  27.396  26.853  1.00  0.00     0.116 C 
BRANCH   3   4
ATOM      4  N   UNL A   1      31.042  27.123  25.929  1.00  0.00    -0.351 N 
ATOM      5  C   UNL A   1      30.932  26.166  24.963  1.00  0.00     0.263 C 
ATOM      6  O   UNL A   1      29.977  26.306  24.192  1.00  0.00    -0.268 OA
ATOM      7  H   UNL A   1      30.266  27.723  26.005  1.00  0.00     0.163 HD
BRANCH   5   8
ATOM      8  C   UNL A   1      31.803  25.015  24.907  1.00  0.00     0.115 A 
ATOM      9  C   UNL A   1      32.463  22.729  25.427  1.00  0.00     0.128 A 
ATOM     10  N   UNL A   1      33.077  23.141  24.335  1.00  0.00    -0.243 NA
ATOM     11  S   UNL A   1      31.675  23.984  26.265  1.00  0.00    -0.110 S 
ATOM     12  C   UNL A   1      32.733  24.464  24.037  1.00  0.00     0.062 A 
ATOM     13  C   UNL A   1      33.345  25.019  22.804  1.00  0.00     0.068 C 
BRANCH   9  14
ATOM     14  C   UNL A   1      32.417  21.294  25.906  1.00  0.00     0.232 C 
ATOM     15  N   UNL A   1      34.667  20.004  25.550  1.00  0.00    -0.331 N 
ATOM     16  C   UNL A   1      33.899  19.220  24.564  1.00  0.00     0.291 C 
ATOM     17  C   UNL A   1      33.750  20.715  26.462  1.00  0.00     0.302 C 
ATOM     18  H   UNL A   1      35.186  19.391  26.178  1.00  0.00     0.348 HD
ATOM     19  C   UNL A   1      32.700  19.955  23.944  1.00  0.00     0.222 C 
ATOM     20  O   UNL A   1      31.789  20.453  24.924  1.00  0.00    -0.359 OA
BRANCH  15  21
ATOM     21  C   UNL A   1      35.770  20.747  24.936  1.00  0.00     0.258 C 
ATOM     22  C   UNL A   1      36.252  21.987  25.688  1.00  0.00     0.071 C 
ENDBRANCH  15  21
ENDBRANCH   9  14
ENDBRANCH   5   8
ENDBRANCH   3   4
ENDBRANCH   2   3
ENDBRANCH   1   2
BRANCH   1  23
ATOM     23  C   UNL A   1      31.632  30.799  26.080  1.00  0.00     0.002 C 
BRANCH  23  24
ATOM     24  C   UNL A   1      31.399  32.215  26.612  1.00  0.00     0.021 C 
BRANCH  24  25
ATOM     25  C   UNL A   1      32.610  32.830  27.309  1.00  0.00     0.116 C 
BRANCH  25  26
ATOM     26  N   UNL A   1      32.401  34.238  27.600  1.00  0.00    -0.352 N 
ATOM     27  C   UNL A   1      32.974  35.003  28.581  1.00  0.00     0.251 C 
ATOM     28  H   UNL A   1      31.761  34.703  27.014  1.00  0.00     0.163 HD
ATOM     29  O   UNL A   1      32.516  36.109  28.859  1.00  0.00    -0.269 OA
BRANCH  27  30
ATOM     30  C   UNL A   1      34.145  34.485  29.313  1.00  0.00     0.039 A 
ATOM     31  C   UNL A   1      33.956  33.889  30.562  1.00  0.00     0.014 A 
ATOM     32  C   UNL A   1      35.426  34.591  28.762  1.00  0.00     0.014 A 
ATOM     33  C   UNL A   1      35.051  33.345  31.236  1.00  0.00     0.010 A 
ATOM     34  C   UNL A   1      36.505  33.998  29.408  1.00  0.00     0.010 A 
ATOM     35  C   UNL A   1      36.327  33.370  30.650  1.00  0.00    -0.014 A 
BRANCH  35  36
ATOM     36  C   UNL A   1      37.491  32.732  31.311  1.00  0.00     0.031 A 
ATOM     37  C   UNL A   1      38.196  31.583  30.652  1.00  0.00     0.074 A 
ATOM     38  C   UNL A   1      37.856  33.138  32.542  1.00  0.00     0.049 A 
ATOM     39  N   UNL A   1      39.165  30.833  31.111  1.00  0.00    -0.248 NA
ATOM     40  C   UNL A   1      37.732  31.209  29.307  1.00  0.00     0.031 C 
ATOM     41  C   UNL A   1      37.218  34.215  33.301  1.00  0.00     0.029 A 
ATOM     42  N   UNL A   1      38.843  32.681  33.380  1.00  0.00    -0.354 N 
ATOM     43  C   UNL A   1      39.415  29.893  30.121  1.00  0.00     0.074 A 
ATOM     44  C   UNL A   1      38.469  30.137  29.054  1.00  0.00     0.031 C 
ATOM     45  C   UNL A   1      37.833  34.340  34.487  1.00  0.00     0.029 A 
ATOM     46  C   UNL A   1      38.885  33.334  34.587  1.00  0.00     0.049 A 
ATOM     47  H   UNL A   1      39.460  31.953  33.137  1.00  0.00     0.167 HD
ATOM     48  C   UNL A   1      40.364  28.926  30.098  1.00  0.00     0.037 A 
ATOM     49  C   UNL A   1      39.675  33.132  35.657  1.00  0.00     0.037 A 
ATOM     50  C   UNL A   1      41.321  28.707  31.150  1.00  0.00     0.049 A 
ATOM     51  C   UNL A   1      40.714  32.045  35.609  1.00  0.00     0.074 A 
ATOM     52  C   UNL A   1      42.373  27.808  31.186  1.00  0.00     0.029 A 
ATOM     53  N   UNL A   1      41.342  29.395  32.354  1.00  0.00    -0.354 N 
ATOM     54  N   UNL A   1      40.988  31.208  34.639  1.00  0.00    -0.248 NA
ATOM     55  C   UNL A   1      41.551  31.876  36.805  1.00  0.00     0.031 C 
ATOM     56  C   UNL A   1      43.004  27.923  32.429  1.00  0.00     0.029 A 
ATOM     57  C   UNL A   1      42.370  28.922  33.151  1.00  0.00     0.049 A 
ATOM     58  H   UNL A   1      40.716  30.114  32.604  1.00  0.00     0.167 HD
ATOM     59  C   UNL A   1      42.038  30.424  35.098  1.00  0.00     0.074 A 
ATOM     60  C   UNL A   1      42.363  30.898  36.428  1.00  0.00     0.031 C 
ATOM     61  C   UNL A   1      42.674  29.403  34.475  1.00  0.00     0.037 A 
BRANCH  48  62
ATOM     62  C   UNL A   1      40.416  28.035  28.893  1.00  0.00     0.064 A 
ATOM     63  C   UNL A   1      39.697  26.832  28.838  1.00  0.00     0.173 A 
ATOM     64  C   UNL A   1      41.162  28.406  27.764  1.00  0.00     0.173 A 
ATOM     65  F   UNL A   1      38.978  26.427  29.896  1.00  0.00    -0.203 F 
ATOM     66  C   UNL A   1      39.741  26.021  27.708  1.00  0.00     0.198 A 
ATOM     67  C   UNL A   1      41.182  27.605  26.625  1.00  0.00     0.198 A 
ATOM     68  F   UNL A   1      41.864  29.549  27.763  1.00  0.00    -0.203 F 
ATOM     69  F   UNL A   1      39.078  24.856  27.694  1.00  0.00    -0.200 F 
ATOM     70  C   UNL A   1      40.477  26.412  26.600  1.00  0.00     0.200 A 
ATOM     71  F   UNL A   1      41.887  27.988  25.551  1.00  0.00    -0.200 F 
ATOM     72  F   UNL A   1      40.514  25.633  25.509  1.00  0.00    -0.200 F 
ENDBRANCH  48  62
BRANCH  49  73
ATOM     73  C   UNL A   1      39.522  33.989  36.860  1.00  0.00     0.064 A 
ATOM     74  C   UNL A   1      38.741  33.567  37.945  1.00  0.00     0.173 A 
ATOM     75  C   UNL A   1      40.153  35.236  36.954  1.00  0.00     0.173 A 
ATOM     76  F   UNL A   1      38.101  32.390  37.892  1.00  0.00    -0.203 F 
ATOM     77  C   UNL A   1      38.588  34.368  39.075  1.00  0.00     0.198 A 
ATOM     78  C   UNL A   1      40.020  36.026  38.095  1.00  0.00     0.198 A 
ATOM     79  F   UNL A   1      40.915  35.682  35.944  1.00  0.00    -0.203 F 
ATOM     80  F   UNL A   1      37.808  33.957  40.084  1.00  0.00    -0.200 F 
ATOM     81  C   UNL A   1      39.232  35.594  39.152  1.00  0.00     0.200 A 
ATOM     82  F   UNL A   1      40.654  37.204  38.170  1.00  0.00    -0.200 F 
ATOM     83  F   UNL A   1      39.090  36.361  40.241  1.00  0.00    -0.200 F 
ENDBRANCH  49  73
BRANCH  61  84
ATOM     84  C   UNL A   1      43.792  28.737  35.220  1.00  0.00     0.064 A 
ATOM     85  C   UNL A   1      43.552  27.653  36.076  1.00  0.00     0.173 A 
ATOM     86  C   UNL A   1      45.118  29.159  35.042  1.00  0.00     0.173 A 
ATOM     87  F   UNL A   1      42.299  27.226  36.290  1.00  0.00    -0.203 F 
ATOM     88  C   UNL A   1      44.601  27.025  36.743  1.00  0.00     0.198 A 
ATOM     89  C   UNL A   1      46.166  28.514  35.691  1.00  0.00     0.198 A 
ATOM     90  F   UNL A   1      45.396  30.189  34.230  1.00  0.00    -0.203 F 
ATOM     91  F   UNL A   1      44.347  26.017  37.587  1.00  0.00    -0.200 F 
ATOM     92  C   UNL A   1      45.906  27.450  36.544  1.00  0.00     0.200 A 
ATOM     93  F   UNL A   1      47.427  28.919  35.491  1.00  0.00    -0.200 F 
ATOM     94  F   UNL A   1      46.915  26.841  37.182  1.00  0.00    -0.200 F 
ENDBRANCH  61  84
ENDBRANCH  35  36
ENDBRANCH  27  30
ENDBRANCH  25  26
ENDBRANCH  24  25
ENDBRANCH  23  24
ENDBRANCH   1  23
TORSDOF 15
ENDMDL
