MODEL 1
REMARK VINA RESULT:     -12.1      0.000      0.000
REMARK SMILES C[C@@H]1CCC[C@](CCSc2ccccc2)(C(=O)NCCCCCCNC(=O)c2ccc(-c3c4nc(c(-c5c(F)c(F)c(F)c(F)c5F)c5ccc([nH]5)c(-c5c(F)c(F)c(F)c(F)c5F)c5nc(c(-c6c(F)c(F)c(F)c(F)c6F)c6ccc3[nH]6)C=C5)C=C4)cc2)C1
REMARK SMILES IDX 20 1 19 2 18 3 16 4 17 5 6 7 1 8 2 9 3 10 91 11 4 12 5 13
REMARK SMILES IDX 7 14 8 15 9 16 10 17 11 18 15 19 12 20 14 21 13 22 21 23
REMARK SMILES IDX 22 24 23 25 24 26 25 27 26 28 27 30 28 31 29 32 90 33 30 34
REMARK SMILES IDX 89 35 31 36 32 37 33 38 83 39 34 40 88 41 82 42 84 43 35 44
REMARK SMILES IDX 87 45 81 46 80 47 36 49 68 50 48 51 67 52 49 53 52 54 66 55
REMARK SMILES IDX 85 56 50 57 51 58 65 60 86 61 53 62 37 63 38 64 46 65 39 66
REMARK SMILES IDX 40 67 44 68 47 69 41 70 42 71 45 72 43 73 69 74 70 75 78 76
REMARK SMILES IDX 71 77 72 78 76 79 79 80 73 81 74 82 77 83 75 84 54 85 55 86
REMARK SMILES IDX 63 87 56 88 57 89 61 90 64 91 58 92 59 93 62 94 60 95
REMARK H PARENT 18 6 25 29 84 48 52 59
REMARK Flexibility Score: inf
ROOT
ATOM      1  C   UNL A   1      31.770  28.180  27.018  1.00  0.00     0.021 C 
ENDROOT
BRANCH   1   2
ATOM      2  C   UNL A   1      32.866  27.256  26.494  1.00  0.00     0.116 C 
BRANCH   2   3
ATOM      3  N   UNL A   1      32.822  27.200  25.060  1.00  0.00    -0.356 N 
ATOM      4  C   UNL A   1      32.100  26.479  24.180  1.00  0.00     0.226 C 
ATOM      5  O   UNL A   1      32.558  26.523  23.029  1.00  0.00    -0.274 OA
ATOM      6  H   UNL A   1      33.451  27.822  24.628  1.00  0.00     0.163 HD
BRANCH   4   7
ATOM      7  C   UNL A   1      30.871  25.581  24.515  1.00  0.00     0.050 C 
ATOM      8  C   UNL A   1      32.176  23.018  27.066  1.00  0.00     0.007 C 
ATOM      9  C   UNL A   1      31.162  23.316  25.944  1.00  0.00    -0.013 C 
ATOM     10  C   UNL A   1      31.463  22.557  24.647  1.00  0.00     0.003 C 
ATOM     11  C   UNL A   1      30.873  24.825  25.857  1.00  0.00     0.020 C 
ATOM     12  C   UNL A   1      31.501  23.359  23.349  1.00  0.00     0.001 C 
ATOM     13  C   UNL A   1      30.631  24.605  23.340  1.00  0.00     0.017 C 
BRANCH   7  14
ATOM     14  C   UNL A   1      29.644  26.594  24.542  1.00  0.00     0.028 C 
BRANCH  14  15
ATOM     15  C   UNL A   1      29.554  27.709  23.471  1.00  0.00     0.076 C 
BRANCH  15  16
ATOM     16  S   UNL A   1      27.906  28.310  22.939  1.00  0.00    -0.126 SA
BRANCH  16  17
ATOM     17  C   UNL A   1      28.193  30.030  22.557  1.00  0.00     0.007 A 
ATOM     18  C   UNL A   1      28.611  30.877  23.591  1.00  0.00     0.015 A 
ATOM     19  C   UNL A   1      28.047  30.561  21.271  1.00  0.00     0.015 A 
ATOM     20  C   UNL A   1      28.798  32.243  23.366  1.00  0.00     0.001 A 
ATOM     21  C   UNL A   1      28.227  31.931  21.046  1.00  0.00     0.001 A 
ATOM     22  C   UNL A   1      28.588  32.774  22.096  1.00  0.00     0.000 A 
ENDBRANCH  16  17
ENDBRANCH  15  16
ENDBRANCH  14  15
ENDBRANCH   7  14
ENDBRANCH   4   7
ENDBRANCH   2   3
ENDBRANCH   1   2
BRANCH   1  23
ATOM     23  C   UNL A   1      32.232  29.627  27.196  1.00  0.00     0.002 C 
BRANCH  23  24
ATOM     24  C   UNL A   1      31.645  30.615  26.181  1.00  0.00     0.002 C 
BRANCH  24  25
ATOM     25  C   UNL A   1      31.447  32.045  26.694  1.00  0.00     0.021 C 
BRANCH  25  26
ATOM     26  C   UNL A   1      32.732  32.808  27.008  1.00  0.00     0.116 C 
BRANCH  26  27
ATOM     27  N   UNL A   1      32.473  34.092  27.632  1.00  0.00    -0.352 N 
ATOM     28  C   UNL A   1      33.090  34.688  28.696  1.00  0.00     0.251 C 
ATOM     29  H   UNL A   1      31.742  34.613  27.228  1.00  0.00     0.163 HD
ATOM     30  O   UNL A   1      32.616  35.721  29.175  1.00  0.00    -0.269 OA
BRANCH  28  31
ATOM     31  C   UNL A   1      34.305  34.099  29.292  1.00  0.00     0.039 A 
ATOM     32  C   UNL A   1      34.157  33.259  30.398  1.00  0.00     0.014 A 
ATOM     33  C   UNL A   1      35.582  34.397  28.802  1.00  0.00     0.014 A 
ATOM     34  C   UNL A   1      35.283  32.689  30.990  1.00  0.00     0.010 A 
ATOM     35  C   UNL A   1      36.701  33.777  29.355  1.00  0.00     0.010 A 
ATOM     36  C   UNL A   1      36.562  32.924  30.459  1.00  0.00    -0.014 A 
BRANCH  36  37
ATOM     37  C   UNL A   1      37.750  32.276  31.067  1.00  0.00     0.031 A 
ATOM     38  C   UNL A   1      38.213  32.665  32.443  1.00  0.00     0.074 A 
ATOM     39  C   UNL A   1      38.410  31.333  30.368  1.00  0.00     0.049 A 
ATOM     40  N   UNL A   1      39.204  32.180  33.148  1.00  0.00    -0.248 NA
ATOM     41  C   UNL A   1      37.480  33.755  33.109  1.00  0.00     0.031 C 
ATOM     42  C   UNL A   1      38.084  30.911  29.004  1.00  0.00     0.029 A 
ATOM     43  N   UNL A   1      39.486  30.553  30.708  1.00  0.00    -0.354 N 
ATOM     44  C   UNL A   1      39.209  32.898  34.337  1.00  0.00     0.074 A 
ATOM     45  C   UNL A   1      38.163  33.892  34.236  1.00  0.00     0.031 C 
ATOM     46  C   UNL A   1      38.919  29.927  28.636  1.00  0.00     0.029 A 
ATOM     47  C   UNL A   1      39.853  29.665  29.726  1.00  0.00     0.049 A 
ATOM     48  H   UNL A   1      39.951  30.623  31.573  1.00  0.00     0.167 HD
ATOM     49  C   UNL A   1      39.996  32.722  35.426  1.00  0.00     0.037 A 
ATOM     50  C   UNL A   1      40.830  28.739  29.714  1.00  0.00     0.037 A 
ATOM     51  C   UNL A   1      41.026  31.722  35.527  1.00  0.00     0.049 A 
ATOM     52  C   UNL A   1      41.683  28.564  30.942  1.00  0.00     0.074 A 
ATOM     53  C   UNL A   1      41.860  31.444  36.597  1.00  0.00     0.029 A 
ATOM     54  N   UNL A   1      41.362  30.831  34.517  1.00  0.00    -0.354 N 
ATOM     55  N   UNL A   1      41.634  29.205  32.083  1.00  0.00    -0.248 NA
ATOM     56  C   UNL A   1      42.719  27.524  30.882  1.00  0.00     0.031 C 
ATOM     57  C   UNL A   1      42.722  30.407  36.222  1.00  0.00     0.029 A 
ATOM     58  C   UNL A   1      42.397  30.010  34.936  1.00  0.00     0.049 A 
ATOM     59  H   UNL A   1      40.928  30.789  33.634  1.00  0.00     0.167 HD
ATOM     60  C   UNL A   1      42.612  28.633  32.884  1.00  0.00     0.074 A 
ATOM     61  C   UNL A   1      43.218  27.572  32.107  1.00  0.00     0.031 C 
ATOM     62  C   UNL A   1      42.983  28.958  34.147  1.00  0.00     0.037 A 
BRANCH  49  63
ATOM     63  C   UNL A   1      39.760  33.616  36.609  1.00  0.00     0.064 A 
ATOM     64  C   UNL A   1      40.360  34.882  36.697  1.00  0.00     0.173 A 
ATOM     65  C   UNL A   1      38.882  33.233  37.633  1.00  0.00     0.173 A 
ATOM     66  F   UNL A   1      41.217  35.289  35.749  1.00  0.00    -0.203 F 
ATOM     67  C   UNL A   1      40.102  35.724  37.775  1.00  0.00     0.198 A 
ATOM     68  C   UNL A   1      38.605  34.089  38.697  1.00  0.00     0.198 A 
ATOM     69  F   UNL A   1      38.280  32.035  37.595  1.00  0.00    -0.203 F 
ATOM     70  F   UNL A   1      40.713  36.914  37.855  1.00  0.00    -0.200 F 
ATOM     71  C   UNL A   1      39.218  35.331  38.769  1.00  0.00     0.200 A 
ATOM     72  F   UNL A   1      37.742  33.714  39.650  1.00  0.00    -0.200 F 
ATOM     73  F   UNL A   1      38.959  36.149  39.799  1.00  0.00    -0.200 F 
ENDBRANCH  49  63
BRANCH  50  74
ATOM     74  C   UNL A   1      41.038  27.884  28.517  1.00  0.00     0.064 A 
ATOM     75  C   UNL A   1      41.911  28.277  27.492  1.00  0.00     0.173 A 
ATOM     76  C   UNL A   1      40.346  26.676  28.355  1.00  0.00     0.173 A 
ATOM     77  F   UNL A   1      42.582  29.435  27.592  1.00  0.00    -0.203 F 
ATOM     78  C   UNL A   1      42.058  27.512  26.337  1.00  0.00     0.198 A 
ATOM     79  C   UNL A   1      40.517  25.895  27.213  1.00  0.00     0.198 A 
ATOM     80  F   UNL A   1      39.505  26.249  29.308  1.00  0.00    -0.203 F 
ATOM     81  F   UNL A   1      42.852  27.943  25.348  1.00  0.00    -0.200 F 
ATOM     82  C   UNL A   1      41.363  26.321  26.199  1.00  0.00     0.200 A 
ATOM     83  F   UNL A   1      39.856  24.736  27.090  1.00  0.00    -0.200 F 
ATOM     84  F   UNL A   1      41.500  25.588  25.087  1.00  0.00    -0.200 F 
ENDBRANCH  50  74
BRANCH  62  85
ATOM     85  C   UNL A   1      44.077  28.139  34.764  1.00  0.00     0.064 A 
ATOM     86  C   UNL A   1      45.424  28.516  34.661  1.00  0.00     0.173 A 
ATOM     87  C   UNL A   1      43.774  26.964  35.471  1.00  0.00     0.173 A 
ATOM     88  F   UNL A   1      45.766  29.622  33.982  1.00  0.00    -0.203 F 
ATOM     89  C   UNL A   1      46.432  27.726  35.207  1.00  0.00     0.198 A 
ATOM     90  C   UNL A   1      44.783  26.193  36.043  1.00  0.00     0.198 A 
ATOM     91  F   UNL A   1      42.501  26.563  35.604  1.00  0.00    -0.203 F 
ATOM     92  F   UNL A   1      47.716  28.073  35.041  1.00  0.00    -0.200 F 
ATOM     93  C   UNL A   1      46.110  26.569  35.901  1.00  0.00     0.200 A 
ATOM     94  F   UNL A   1      44.470  25.082  36.722  1.00  0.00    -0.200 F 
ATOM     95  F   UNL A   1      47.082  25.807  36.422  1.00  0.00    -0.200 F 
ENDBRANCH  62  85
ENDBRANCH  36  37
ENDBRANCH  28  31
ENDBRANCH  26  27
ENDBRANCH  25  26
ENDBRANCH  24  25
ENDBRANCH  23  24
ENDBRANCH   1  23
TORSDOF 17
ENDMDL
MODEL 2
REMARK VINA RESULT:     -12.0      1.610      3.965
REMARK SMILES C[C@@H]1CCC[C@](CCSc2ccccc2)(C(=O)NCCCCCCNC(=O)c2ccc(-c3c4nc(c(-c5c(F)c(F)c(F)c(F)c5F)c5ccc([nH]5)c(-c5c(F)c(F)c(F)c(F)c5F)c5nc(c(-c6c(F)c(F)c(F)c(F)c6F)c6ccc3[nH]6)C=C5)C=C4)cc2)C1
REMARK SMILES IDX 20 1 19 2 18 3 16 4 17 5 6 7 1 8 2 9 3 10 91 11 4 12 5 13
REMARK SMILES IDX 7 14 8 15 9 16 10 17 11 18 15 19 12 20 14 21 13 22 21 23
REMARK SMILES IDX 22 24 23 25 24 26 25 27 26 28 27 30 28 31 29 32 90 33 30 34
REMARK SMILES IDX 89 35 31 36 32 37 33 38 83 39 34 40 88 41 82 42 84 43 35 44
REMARK SMILES IDX 87 45 81 46 80 47 36 49 68 50 48 51 67 52 49 53 52 54 66 55
REMARK SMILES IDX 85 56 50 57 51 58 65 60 86 61 53 62 37 63 38 64 46 65 39 66
REMARK SMILES IDX 40 67 44 68 47 69 41 70 42 71 45 72 43 73 69 74 70 75 78 76
REMARK SMILES IDX 71 77 72 78 76 79 79 80 73 81 74 82 77 83 75 84 54 85 55 86
REMARK SMILES IDX 63 87 56 88 57 89 61 90 64 91 58 92 59 93 62 94 60 95
REMARK H PARENT 18 6 25 29 84 48 52 59
REMARK Flexibility Score: inf
ROOT
ATOM      1  C   UNL A   1      32.448  28.575  27.159  1.00  0.00     0.021 C 
ENDROOT
BRANCH   1   2
ATOM      2  C   UNL A   1      31.395  28.034  26.194  1.00  0.00     0.116 C 
BRANCH   2   3
ATOM      3  N   UNL A   1      31.046  26.687  26.549  1.00  0.00    -0.356 N 
ATOM      4  C   UNL A   1      30.680  25.603  25.835  1.00  0.00     0.226 C 
ATOM      5  O   UNL A   1      30.191  24.707  26.537  1.00  0.00    -0.274 OA
ATOM      6  H   UNL A   1      31.083  26.519  27.517  1.00  0.00     0.163 HD
BRANCH   4   7
ATOM      7  C   UNL A   1      30.741  25.459  24.285  1.00  0.00     0.050 C 
ATOM      8  C   UNL A   1      33.082  28.273  23.112  1.00  0.00     0.007 C 
ATOM      9  C   UNL A   1      31.890  27.360  22.762  1.00  0.00    -0.013 C 
ATOM     10  C   UNL A   1      30.554  28.109  22.719  1.00  0.00     0.003 C 
ATOM     11  C   UNL A   1      31.964  26.041  23.552  1.00  0.00     0.020 C 
ATOM     12  C   UNL A   1      29.385  27.519  23.503  1.00  0.00     0.001 C 
ATOM     13  C   UNL A   1      29.429  26.010  23.680  1.00  0.00     0.017 C 
BRANCH   7  14
ATOM     14  C   UNL A   1      30.746  23.886  24.040  1.00  0.00     0.028 C 
BRANCH  14  15
ATOM     15  C   UNL A   1      32.031  23.203  23.508  1.00  0.00     0.076 C 
BRANCH  15  16
ATOM     16  S   UNL A   1      32.524  21.572  24.183  1.00  0.00    -0.126 SA
BRANCH  16  17
ATOM     17  C   UNL A   1      34.303  21.685  24.287  1.00  0.00     0.007 A 
ATOM     18  C   UNL A   1      34.937  22.758  23.647  1.00  0.00     0.015 A 
ATOM     19  C   UNL A   1      35.086  20.771  25.000  1.00  0.00     0.015 A 
ATOM     20  C   UNL A   1      36.329  22.869  23.646  1.00  0.00     0.001 A 
ATOM     21  C   UNL A   1      36.481  20.877  24.993  1.00  0.00     0.001 A 
ATOM     22  C   UNL A   1      37.104  21.918  24.304  1.00  0.00     0.000 A 
ENDBRANCH  16  17
ENDBRANCH  15  16
ENDBRANCH  14  15
ENDBRANCH   7  14
ENDBRANCH   4   7
ENDBRANCH   2   3
ENDBRANCH   1   2
BRANCH   1  23
ATOM     23  C   UNL A   1      32.539  30.101  27.160  1.00  0.00     0.002 C 
BRANCH  23  24
ATOM     24  C   UNL A   1      31.472  30.806  26.314  1.00  0.00     0.002 C 
BRANCH  24  25
ATOM     25  C   UNL A   1      31.370  32.322  26.513  1.00  0.00     0.021 C 
BRANCH  25  26
ATOM     26  C   UNL A   1      32.653  33.005  26.978  1.00  0.00     0.116 C 
BRANCH  26  27
ATOM     27  N   UNL A   1      32.395  34.261  27.658  1.00  0.00    -0.352 N 
ATOM     28  C   UNL A   1      33.004  34.804  28.754  1.00  0.00     0.251 C 
ATOM     29  H   UNL A   1      31.671  34.804  27.271  1.00  0.00     0.163 HD
ATOM     30  O   UNL A   1      32.530  35.816  29.276  1.00  0.00    -0.269 OA
BRANCH  28  31
ATOM     31  C   UNL A   1      34.210  34.181  29.335  1.00  0.00     0.039 A 
ATOM     32  C   UNL A   1      34.039  33.202  30.317  1.00  0.00     0.014 A 
ATOM     33  C   UNL A   1      35.496  34.578  28.955  1.00  0.00     0.014 A 
ATOM     34  C   UNL A   1      35.154  32.596  30.892  1.00  0.00     0.010 A 
ATOM     35  C   UNL A   1      36.610  33.927  29.485  1.00  0.00     0.010 A 
ATOM     36  C   UNL A   1      36.448  32.936  30.464  1.00  0.00    -0.014 A 
BRANCH  36  37
ATOM     37  C   UNL A   1      37.628  32.253  31.047  1.00  0.00     0.031 A 
ATOM     38  C   UNL A   1      38.103  32.594  32.432  1.00  0.00     0.074 A 
ATOM     39  C   UNL A   1      38.272  31.321  30.318  1.00  0.00     0.049 A 
ATOM     40  N   UNL A   1      39.089  32.073  33.119  1.00  0.00    -0.248 NA
ATOM     41  C   UNL A   1      37.389  33.674  33.133  1.00  0.00     0.031 C 
ATOM     42  C   UNL A   1      37.935  30.945  28.943  1.00  0.00     0.029 A 
ATOM     43  N   UNL A   1      39.337  30.515  30.630  1.00  0.00    -0.354 N 
ATOM     44  C   UNL A   1      39.108  32.756  34.329  1.00  0.00     0.074 A 
ATOM     45  C   UNL A   1      38.078  33.768  34.261  1.00  0.00     0.031 C 
ATOM     46  C   UNL A   1      38.754  29.959  28.543  1.00  0.00     0.029 A 
ATOM     47  C   UNL A   1      39.688  29.651  29.621  1.00  0.00     0.049 A 
ATOM     48  H   UNL A   1      39.806  30.553  31.496  1.00  0.00     0.167 HD
ATOM     49  C   UNL A   1      39.897  32.536  35.408  1.00  0.00     0.037 A 
ATOM     50  C   UNL A   1      40.650  28.711  29.578  1.00  0.00     0.037 A 
ATOM     51  C   UNL A   1      40.912  31.517  35.476  1.00  0.00     0.049 A 
ATOM     52  C   UNL A   1      41.505  28.487  30.797  1.00  0.00     0.074 A 
ATOM     53  C   UNL A   1      41.745  31.195  36.533  1.00  0.00     0.029 A 
ATOM     54  N   UNL A   1      41.230  30.652  34.439  1.00  0.00    -0.354 N 
ATOM     55  N   UNL A   1      41.469  29.095  31.957  1.00  0.00    -0.248 NA
ATOM     56  C   UNL A   1      42.524  27.434  30.702  1.00  0.00     0.031 C 
ATOM     57  C   UNL A   1      42.590  30.157  36.125  1.00  0.00     0.029 A 
ATOM     58  C   UNL A   1      42.254  29.803  34.829  1.00  0.00     0.049 A 
ATOM     59  H   UNL A   1      40.793  30.642  33.557  1.00  0.00     0.167 HD
ATOM     60  C   UNL A   1      42.441  28.484  32.737  1.00  0.00     0.074 A 
ATOM     61  C   UNL A   1      43.029  27.438  31.926  1.00  0.00     0.031 C 
ATOM     62  C   UNL A   1      42.822  28.767  34.007  1.00  0.00     0.037 A 
BRANCH  49  63
ATOM     63  C   UNL A   1      39.679  33.398  36.618  1.00  0.00     0.064 A 
ATOM     64  C   UNL A   1      40.321  34.638  36.755  1.00  0.00     0.173 A 
ATOM     65  C   UNL A   1      38.776  33.012  37.620  1.00  0.00     0.173 A 
ATOM     66  F   UNL A   1      41.202  35.046  35.830  1.00  0.00    -0.203 F 
ATOM     67  C   UNL A   1      40.080  35.453  37.858  1.00  0.00     0.198 A 
ATOM     68  C   UNL A   1      38.517  33.841  38.709  1.00  0.00     0.198 A 
ATOM     69  F   UNL A   1      38.133  31.838  37.536  1.00  0.00    -0.203 F 
ATOM     70  F   UNL A   1      40.731  36.617  37.984  1.00  0.00    -0.200 F 
ATOM     71  C   UNL A   1      39.172  35.058  38.829  1.00  0.00     0.200 A 
ATOM     72  F   UNL A   1      37.631  33.465  39.640  1.00  0.00    -0.200 F 
ATOM     73  F   UNL A   1      38.930  35.850  39.883  1.00  0.00    -0.200 F 
ENDBRANCH  49  63
BRANCH  50  74
ATOM     74  C   UNL A   1      40.841  27.889  28.355  1.00  0.00     0.064 A 
ATOM     75  C   UNL A   1      40.220  26.638  28.221  1.00  0.00     0.173 A 
ATOM     76  C   UNL A   1      41.672  28.319  27.311  1.00  0.00     0.173 A 
ATOM     77  F   UNL A   1      39.431  26.175  29.201  1.00  0.00    -0.203 F 
ATOM     78  C   UNL A   1      40.451  25.835  27.106  1.00  0.00     0.198 A 
ATOM     79  C   UNL A   1      41.878  27.528  26.182  1.00  0.00     0.198 A 
ATOM     80  F   UNL A   1      42.284  29.509  27.385  1.00  0.00    -0.203 F 
ATOM     81  F   UNL A   1      39.893  24.619  27.033  1.00  0.00    -0.200 F 
ATOM     82  C   UNL A   1      41.277  26.282  26.087  1.00  0.00     0.200 A 
ATOM     83  F   UNL A   1      42.665  27.970  25.192  1.00  0.00    -0.200 F 
ATOM     84  F   UNL A   1      41.503  25.507  25.017  1.00  0.00    -0.200 F 
ENDBRANCH  50  74
BRANCH  62  85
ATOM     85  C   UNL A   1      43.905  27.913  34.595  1.00  0.00     0.064 A 
ATOM     86  C   UNL A   1      43.617  26.703  35.243  1.00  0.00     0.173 A 
ATOM     87  C   UNL A   1      45.250  28.308  34.508  1.00  0.00     0.173 A 
ATOM     88  F   UNL A   1      42.345  26.290  35.367  1.00  0.00    -0.203 F 
ATOM     89  C   UNL A   1      44.629  25.939  35.818  1.00  0.00     0.198 A 
ATOM     90  C   UNL A   1      46.262  27.525  35.056  1.00  0.00     0.198 A 
ATOM     91  F   UNL A   1      45.580  29.453  33.892  1.00  0.00    -0.203 F 
ATOM     92  F   UNL A   1      44.322  24.819  36.487  1.00  0.00    -0.200 F 
ATOM     93  C   UNL A   1      45.950  26.349  35.719  1.00  0.00     0.200 A 
ATOM     94  F   UNL A   1      47.539  27.916  34.950  1.00  0.00    -0.200 F 
ATOM     95  F   UNL A   1      46.923  25.615  36.277  1.00  0.00    -0.200 F 
ENDBRANCH  62  85
ENDBRANCH  36  37
ENDBRANCH  28  31
ENDBRANCH  26  27
ENDBRANCH  25  26
ENDBRANCH  24  25
ENDBRANCH  23  24
ENDBRANCH   1  23
TORSDOF 17
ENDMDL
MODEL 3
REMARK VINA RESULT:     -12.0      1.618      3.500
REMARK SMILES C[C@@H]1CCC[C@](CCSc2ccccc2)(C(=O)NCCCCCCNC(=O)c2ccc(-c3c4nc(c(-c5c(F)c(F)c(F)c(F)c5F)c5ccc([nH]5)c(-c5c(F)c(F)c(F)c(F)c5F)c5nc(c(-c6c(F)c(F)c(F)c(F)c6F)c6ccc3[nH]6)C=C5)C=C4)cc2)C1
REMARK SMILES IDX 20 1 19 2 18 3 16 4 17 5 6 7 1 8 2 9 3 10 91 11 4 12 5 13
REMARK SMILES IDX 7 14 8 15 9 16 10 17 11 18 15 19 12 20 14 21 13 22 21 23
REMARK SMILES IDX 22 24 23 25 24 26 25 27 26 28 27 30 28 31 29 32 90 33 30 34
REMARK SMILES IDX 89 35 31 36 32 37 33 38 83 39 34 40 88 41 82 42 84 43 35 44
REMARK SMILES IDX 87 45 81 46 80 47 36 49 68 50 48 51 67 52 49 53 52 54 66 55
REMARK SMILES IDX 85 56 50 57 51 58 65 60 86 61 53 62 37 63 38 64 46 65 39 66
REMARK SMILES IDX 40 67 44 68 47 69 41 70 42 71 45 72 43 73 69 74 70 75 78 76
REMARK SMILES IDX 71 77 72 78 76 79 79 80 73 81 74 82 77 83 75 84 54 85 55 86
REMARK SMILES IDX 63 87 56 88 57 89 61 90 64 91 58 92 59 93 62 94 60 95
REMARK H PARENT 18 6 25 29 84 48 52 59
REMARK Flexibility Score: inf
ROOT
ATOM      1  C   UNL A   1      31.705  29.305  23.388  1.00  0.00     0.021 C 
ENDROOT
BRANCH   1   2
ATOM      2  C   UNL A   1      31.057  28.155  22.621  1.00  0.00     0.116 C 
BRANCH   2   3
ATOM      3  N   UNL A   1      32.066  27.360  21.979  1.00  0.00    -0.356 N 
ATOM      4  C   UNL A   1      32.613  26.158  22.249  1.00  0.00     0.226 C 
ATOM      5  O   UNL A   1      33.653  25.947  21.610  1.00  0.00    -0.274 OA
ATOM      6  H   UNL A   1      32.434  27.780  21.169  1.00  0.00     0.163 HD
BRANCH   4   7
ATOM      7  C   UNL A   1      32.108  25.134  23.310  1.00  0.00     0.050 C 
ATOM      8  C   UNL A   1      28.587  26.343  24.266  1.00  0.00     0.007 C 
ATOM      9  C   UNL A   1      29.857  25.595  24.715  1.00  0.00    -0.013 C 
ATOM     10  C   UNL A   1      30.680  26.376  25.745  1.00  0.00     0.003 C 
ATOM     11  C   UNL A   1      30.588  24.986  23.506  1.00  0.00     0.020 C 
ATOM     12  C   UNL A   1      32.175  26.541  25.481  1.00  0.00     0.001 C 
ATOM     13  C   UNL A   1      32.806  25.428  24.659  1.00  0.00     0.017 C 
BRANCH   7  14
ATOM     14  C   UNL A   1      32.659  23.733  22.793  1.00  0.00     0.028 C 
BRANCH  14  15
ATOM     15  C   UNL A   1      32.093  22.424  23.396  1.00  0.00     0.076 C 
BRANCH  15  16
ATOM     16  S   UNL A   1      33.240  21.224  24.172  1.00  0.00    -0.126 SA
BRANCH  16  17
ATOM     17  C   UNL A   1      34.674  22.213  24.567  1.00  0.00     0.007 A 
ATOM     18  C   UNL A   1      35.609  22.456  23.554  1.00  0.00     0.015 A 
ATOM     19  C   UNL A   1      34.889  22.775  25.830  1.00  0.00     0.015 A 
ATOM     20  C   UNL A   1      36.778  23.175  23.817  1.00  0.00     0.001 A 
ATOM     21  C   UNL A   1      36.062  23.490  26.096  1.00  0.00     0.001 A 
ATOM     22  C   UNL A   1      37.013  23.677  25.093  1.00  0.00     0.000 A 
ENDBRANCH  16  17
ENDBRANCH  15  16
ENDBRANCH  14  15
ENDBRANCH   7  14
ENDBRANCH   4   7
ENDBRANCH   2   3
ENDBRANCH   1   2
BRANCH   1  23
ATOM     23  C   UNL A   1      30.772  29.948  24.415  1.00  0.00     0.002 C 
BRANCH  23  24
ATOM     24  C   UNL A   1      31.429  30.268  25.763  1.00  0.00     0.002 C 
BRANCH  24  25
ATOM     25  C   UNL A   1      31.317  31.727  26.219  1.00  0.00     0.021 C 
BRANCH  25  26
ATOM     26  C   UNL A   1      32.559  32.292  26.903  1.00  0.00     0.116 C 
BRANCH  26  27
ATOM     27  N   UNL A   1      32.356  33.645  27.389  1.00  0.00    -0.352 N 
ATOM     28  C   UNL A   1      33.029  34.339  28.354  1.00  0.00     0.251 C 
ATOM     29  H   UNL A   1      31.620  34.137  26.957  1.00  0.00     0.163 HD
ATOM     30  O   UNL A   1      32.599  35.431  28.732  1.00  0.00    -0.269 OA
BRANCH  28  31
ATOM     31  C   UNL A   1      34.255  33.787  28.964  1.00  0.00     0.039 A 
ATOM     32  C   UNL A   1      34.116  32.832  29.975  1.00  0.00     0.014 A 
ATOM     33  C   UNL A   1      35.527  34.229  28.584  1.00  0.00     0.014 A 
ATOM     34  C   UNL A   1      35.251  32.294  30.579  1.00  0.00     0.010 A 
ATOM     35  C   UNL A   1      36.662  33.644  29.144  1.00  0.00     0.010 A 
ATOM     36  C   UNL A   1      36.533  32.677  30.152  1.00  0.00    -0.014 A 
BRANCH  36  37
ATOM     37  C   UNL A   1      37.736  32.064  30.767  1.00  0.00     0.031 A 
ATOM     38  C   UNL A   1      38.194  32.485  32.135  1.00  0.00     0.074 A 
ATOM     39  C   UNL A   1      38.415  31.124  30.082  1.00  0.00     0.049 A 
ATOM     40  N   UNL A   1      39.196  32.032  32.847  1.00  0.00    -0.248 NA
ATOM     41  C   UNL A   1      37.439  33.569  32.786  1.00  0.00     0.031 C 
ATOM     42  C   UNL A   1      38.095  30.674  28.725  1.00  0.00     0.029 A 
ATOM     43  N   UNL A   1      39.508  30.373  30.432  1.00  0.00    -0.354 N 
ATOM     44  C   UNL A   1      39.187  32.769  34.024  1.00  0.00     0.074 A 
ATOM     45  C   UNL A   1      38.121  33.739  33.909  1.00  0.00     0.031 C 
ATOM     46  C   UNL A   1      38.951  29.701  28.371  1.00  0.00     0.029 A 
ATOM     47  C   UNL A   1      39.892  29.477  29.463  1.00  0.00     0.049 A 
ATOM     48  H   UNL A   1      39.972  30.467  31.295  1.00  0.00     0.167 HD
ATOM     49  C   UNL A   1      39.980  32.627  35.113  1.00  0.00     0.037 A 
ATOM     50  C   UNL A   1      40.888  28.571  29.464  1.00  0.00     0.037 A 
ATOM     51  C   UNL A   1      41.032  31.651  35.229  1.00  0.00     0.049 A 
ATOM     52  C   UNL A   1      41.747  28.435  30.692  1.00  0.00     0.074 A 
ATOM     53  C   UNL A   1      41.873  31.407  36.300  1.00  0.00     0.029 A 
ATOM     54  N   UNL A   1      41.384  30.751  34.232  1.00  0.00    -0.354 N 
ATOM     55  N   UNL A   1      41.686  29.093  31.824  1.00  0.00    -0.248 NA
ATOM     56  C   UNL A   1      42.804  27.416  30.646  1.00  0.00     0.031 C 
ATOM     57  C   UNL A   1      42.756  30.383  35.940  1.00  0.00     0.029 A 
ATOM     58  C   UNL A   1      42.437  29.959  34.662  1.00  0.00     0.049 A 
ATOM     59  H   UNL A   1      40.950  30.685  33.351  1.00  0.00     0.167 HD
ATOM     60  C   UNL A   1      42.677  28.554  32.631  1.00  0.00     0.074 A 
ATOM     61  C   UNL A   1      43.305  27.494  31.870  1.00  0.00     0.031 C 
ATOM     62  C   UNL A   1      43.044  28.907  33.888  1.00  0.00     0.037 A 
BRANCH  49  63
ATOM     63  C   UNL A   1      39.728  33.535  36.282  1.00  0.00     0.064 A 
ATOM     64  C   UNL A   1      40.283  34.822  36.339  1.00  0.00     0.173 A 
ATOM     65  C   UNL A   1      38.878  33.140  37.326  1.00  0.00     0.173 A 
ATOM     66  F   UNL A   1      41.112  35.242  35.372  1.00  0.00    -0.203 F 
ATOM     67  C   UNL A   1      40.008  35.676  37.405  1.00  0.00     0.198 A 
ATOM     68  C   UNL A   1      38.584  34.006  38.377  1.00  0.00     0.198 A 
ATOM     69  F   UNL A   1      38.319  31.921  37.319  1.00  0.00    -0.203 F 
ATOM     70  F   UNL A   1      40.577  36.888  37.454  1.00  0.00    -0.200 F 
ATOM     71  C   UNL A   1      39.152  35.270  38.418  1.00  0.00     0.200 A 
ATOM     72  F   UNL A   1      37.747  33.618  39.349  1.00  0.00    -0.200 F 
ATOM     73  F   UNL A   1      38.877  36.098  39.435  1.00  0.00    -0.200 F 
ENDBRANCH  49  63
BRANCH  50  74
ATOM     74  C   UNL A   1      41.112  27.702  28.280  1.00  0.00     0.064 A 
ATOM     75  C   UNL A   1      41.998  28.083  27.262  1.00  0.00     0.173 A 
ATOM     76  C   UNL A   1      40.422  26.492  28.123  1.00  0.00     0.173 A 
ATOM     77  F   UNL A   1      42.668  29.242  27.357  1.00  0.00    -0.203 F 
ATOM     78  C   UNL A   1      42.161  27.304  26.119  1.00  0.00     0.198 A 
ATOM     79  C   UNL A   1      40.608  25.698  26.994  1.00  0.00     0.198 A 
ATOM     80  F   UNL A   1      39.568  26.077  29.070  1.00  0.00    -0.203 F 
ATOM     81  F   UNL A   1      42.968  27.723  25.135  1.00  0.00    -0.200 F 
ATOM     82  C   UNL A   1      41.467  26.111  25.986  1.00  0.00     0.200 A 
ATOM     83  F   UNL A   1      39.948  24.538  26.876  1.00  0.00    -0.200 F 
ATOM     84  F   UNL A   1      41.619  25.365  24.884  1.00  0.00    -0.200 F 
ENDBRANCH  50  74
BRANCH  62  85
ATOM     85  C   UNL A   1      44.156  28.121  34.516  1.00  0.00     0.064 A 
ATOM     86  C   UNL A   1      45.494  28.527  34.408  1.00  0.00     0.173 A 
ATOM     87  C   UNL A   1      43.880  26.949  35.238  1.00  0.00     0.173 A 
ATOM     88  F   UNL A   1      45.811  29.631  33.714  1.00  0.00    -0.203 F 
ATOM     89  C   UNL A   1      46.520  27.767  34.964  1.00  0.00     0.198 A 
ATOM     90  C   UNL A   1      44.906  26.209  35.820  1.00  0.00     0.198 A 
ATOM     91  F   UNL A   1      42.616  26.522  35.377  1.00  0.00    -0.203 F 
ATOM     92  F   UNL A   1      47.796  28.141  34.793  1.00  0.00    -0.200 F 
ATOM     93  C   UNL A   1      46.224  26.612  35.673  1.00  0.00     0.200 A 
ATOM     94  F   UNL A   1      44.618  25.100  36.514  1.00  0.00    -0.200 F 
ATOM     95  F   UNL A   1      47.213  25.880  36.204  1.00  0.00    -0.200 F 
ENDBRANCH  62  85
ENDBRANCH  36  37
ENDBRANCH  28  31
ENDBRANCH  26  27
ENDBRANCH  25  26
ENDBRANCH  24  25
ENDBRANCH  23  24
ENDBRANCH   1  23
TORSDOF 17
ENDMDL
