MODEL 1
REMARK VINA RESULT:      -9.3      0.000      0.000
REMARK SMILES CN1C(=O)/C(=C\c2ccc(OCC(=O)NCCCCCCNC(=O)c3ccc(-c4c5nc(c(-c6c(F)c(F)c(F)c(F)c6F)c6ccc([nH]6)c(-c6c(F)c(F)c(F)c(F)c6F)c6nc(c(-c7c(F)c(F)c(F)c(F)c7F)c7ccc4[nH]7)C=C6)C=C5)cc3)cc2)C(O)=NC1=S
REMARK SMILES IDX 17 1 16 2 15 3 13 4 14 5 12 7 11 8 10 9 7 10 8 11 89 12 9 13
REMARK SMILES IDX 88 14 6 15 1 16 2 17 3 18 93 19 4 20 5 21 92 22 94 23 90 24
REMARK SMILES IDX 91 25 18 27 19 28 20 29 21 30 22 31 23 32 24 34 25 35 26 36
REMARK SMILES IDX 87 37 27 38 86 39 28 40 29 41 30 42 80 43 31 44 85 45 79 46
REMARK SMILES IDX 81 47 32 48 84 49 78 50 77 51 33 53 65 54 45 55 64 56 46 57
REMARK SMILES IDX 49 58 63 59 82 60 47 61 48 62 62 64 83 65 50 66 34 67 35 68
REMARK SMILES IDX 43 69 36 70 37 71 41 72 44 73 38 74 39 75 42 76 40 77 66 78
REMARK SMILES IDX 67 79 75 80 68 81 69 82 73 83 76 84 70 85 71 86 74 87 72 88
REMARK SMILES IDX 51 89 52 90 60 91 53 92 54 93 58 94 61 95 55 96 56 97 59 98
REMARK SMILES IDX 57 99
REMARK H PARENT 15 6 91 26 22 33 81 52 49 63
REMARK Flexibility Score: inf
ROOT
ATOM      1  C   UNL A   1      39.105  34.691  30.538  1.00  0.00     0.021 C 
ENDROOT
BRANCH   1   2
ATOM      2  C   UNL A   1      38.621  33.878  31.739  1.00  0.00     0.116 C 
BRANCH   2   3
ATOM      3  N   UNL A   1      37.675  34.622  32.546  1.00  0.00    -0.353 N 
ATOM      4  C   UNL A   1      36.735  34.148  33.413  1.00  0.00     0.257 C 
ATOM      5  O   UNL A   1      36.012  34.953  34.004  1.00  0.00    -0.271 OA
ATOM      6  H   UNL A   1      37.717  35.602  32.457  1.00  0.00     0.163 HD
BRANCH   4   7
ATOM      7  C   UNL A   1      36.638  32.639  33.683  1.00  0.00     0.329 C 
BRANCH   7   8
ATOM      8  O   UNL A   1      37.538  32.077  34.627  1.00  0.00    -0.484 OA
BRANCH   8   9
ATOM      9  C   UNL A   1      38.433  31.149  34.173  1.00  0.00     0.120 A 
ATOM     10  C   UNL A   1      40.469  29.487  33.198  1.00  0.00    -0.024 A 
ATOM     11  C   UNL A   1      40.793  30.672  33.862  1.00  0.00     0.012 A 
ATOM     12  C   UNL A   1      39.128  29.111  33.076  1.00  0.00     0.012 A 
ATOM     13  C   UNL A   1      39.775  31.496  34.350  1.00  0.00     0.047 A 
ATOM     14  C   UNL A   1      38.113  29.939  33.562  1.00  0.00     0.047 A 
BRANCH  10  15
ATOM     15  C   UNL A   1      41.516  28.643  32.613  1.00  0.00     0.027 C 
ATOM     16  C   UNL A   1      43.250  26.970  36.843  1.00  0.00     0.156 C 
ATOM     17  N   UNL A   1      43.297  26.995  35.381  1.00  0.00    -0.286 N 
ATOM     18  C   UNL A   1      42.188  27.573  34.767  1.00  0.00     0.265 C 
ATOM     19  C   UNL A   1      44.334  26.370  34.674  1.00  0.00     0.205 C 
ATOM     20  O   UNL A   1      41.153  27.831  35.376  1.00  0.00    -0.268 OA
ATOM     21  C   UNL A   1      42.321  27.801  33.297  1.00  0.00     0.103 C 
ATOM     22  N   UNL A   1      44.336  26.428  33.305  1.00  0.00    -0.184 NA
ATOM     23  S   UNL A   1      45.589  25.512  35.427  1.00  0.00    -0.038 S 
ATOM     24  C   UNL A   1      43.434  27.079  32.673  1.00  0.00     0.226 C 
BRANCH  24  25
ATOM     25  O   UNL A   1      43.528  27.073  31.333  1.00  0.00    -0.493 OA
ATOM     26  H   UNL A   1      42.973  26.515  30.825  1.00  0.00     0.295 HD
ENDBRANCH  24  25
ENDBRANCH  10  15
ENDBRANCH   8   9
ENDBRANCH   7   8
ENDBRANCH   4   7
ENDBRANCH   2   3
ENDBRANCH   1   2
BRANCH   1  27
ATOM     27  C   UNL A   1      38.567  34.214  29.182  1.00  0.00     0.002 C 
BRANCH  27  28
ATOM     28  C   UNL A   1      37.641  32.993  29.231  1.00  0.00     0.002 C 
BRANCH  28  29
ATOM     29  C   UNL A   1      36.167  33.279  28.939  1.00  0.00     0.021 C 
BRANCH  29  30
ATOM     30  C   UNL A   1      35.182  32.409  29.712  1.00  0.00     0.116 C 
BRANCH  30  31
ATOM     31  N   UNL A   1      34.438  31.508  28.846  1.00  0.00    -0.352 N 
ATOM     32  C   UNL A   1      34.882  30.433  28.120  1.00  0.00     0.251 C 
ATOM     33  H   UNL A   1      33.474  31.697  28.770  1.00  0.00     0.163 HD
ATOM     34  O   UNL A   1      34.142  29.890  27.301  1.00  0.00    -0.269 OA
BRANCH  32  35
ATOM     35  C   UNL A   1      36.263  29.937  28.300  1.00  0.00     0.039 A 
ATOM     36  C   UNL A   1      37.175  30.079  27.250  1.00  0.00     0.014 A 
ATOM     37  C   UNL A   1      36.659  29.331  29.495  1.00  0.00     0.014 A 
ATOM     38  C   UNL A   1      38.500  29.672  27.423  1.00  0.00     0.010 A 
ATOM     39  C   UNL A   1      37.996  28.998  29.694  1.00  0.00     0.010 A 
ATOM     40  C   UNL A   1      38.930  29.162  28.660  1.00  0.00    -0.014 A 
BRANCH  40  41
ATOM     41  C   UNL A   1      40.351  28.796  28.890  1.00  0.00     0.031 A 
ATOM     42  C   UNL A   1      41.298  29.784  29.511  1.00  0.00     0.074 A 
ATOM     43  C   UNL A   1      40.805  27.598  28.473  1.00  0.00     0.049 A 
ATOM     44  N   UNL A   1      42.585  29.676  29.728  1.00  0.00    -0.248 NA
ATOM     45  C   UNL A   1      40.727  31.077  29.916  1.00  0.00     0.031 C 
ATOM     46  C   UNL A   1      39.999  26.572  27.812  1.00  0.00     0.029 A 
ATOM     47  N   UNL A   1      42.062  27.047  28.533  1.00  0.00    -0.354 N 
ATOM     48  C   UNL A   1      42.977  30.888  30.280  1.00  0.00     0.074 A 
ATOM     49  C   UNL A   1      41.806  31.738  30.309  1.00  0.00     0.031 C 
ATOM     50  C   UNL A   1      40.773  25.509  27.547  1.00  0.00     0.029 A 
ATOM     51  C   UNL A   1      42.137  25.792  27.979  1.00  0.00     0.049 A 
ATOM     52  H   UNL A   1      42.834  27.507  28.934  1.00  0.00     0.167 HD
ATOM     53  C   UNL A   1      44.198  31.252  30.742  1.00  0.00     0.037 A 
ATOM     54  C   UNL A   1      43.192  24.968  27.826  1.00  0.00     0.037 A 
ATOM     55  C   UNL A   1      45.357  30.397  30.724  1.00  0.00     0.049 A 
ATOM     56  C   UNL A   1      44.540  25.397  28.334  1.00  0.00     0.074 A 
ATOM     57  C   UNL A   1      46.623  30.648  31.224  1.00  0.00     0.029 A 
ATOM     58  N   UNL A   1      45.392  29.127  30.166  1.00  0.00    -0.354 N 
ATOM     59  N   UNL A   1      44.886  26.518  28.922  1.00  0.00    -0.248 NA
ATOM     60  C   UNL A   1      45.647  24.445  28.164  1.00  0.00     0.031 C 
ATOM     61  C   UNL A   1      47.440  29.556  30.915  1.00  0.00     0.029 A 
ATOM     62  C   UNL A   1      46.667  28.595  30.282  1.00  0.00     0.049 A 
ATOM     63  H   UNL A   1      44.625  28.671  29.749  1.00  0.00     0.167 HD
ATOM     64  C   UNL A   1      46.238  26.395  29.216  1.00  0.00     0.074 A 
ATOM     65  C   UNL A   1      46.646  25.085  28.754  1.00  0.00     0.031 C 
ATOM     66  C   UNL A   1      47.063  27.287  29.816  1.00  0.00     0.037 A 
BRANCH  53  67
ATOM     67  C   UNL A   1      44.341  32.642  31.298  1.00  0.00     0.064 A 
ATOM     68  C   UNL A   1      44.665  33.737  30.480  1.00  0.00     0.173 A 
ATOM     69  C   UNL A   1      44.140  32.886  32.665  1.00  0.00     0.173 A 
ATOM     70  F   UNL A   1      44.878  33.560  29.166  1.00  0.00    -0.203 F 
ATOM     71  C   UNL A   1      44.823  35.011  31.017  1.00  0.00     0.198 A 
ATOM     72  C   UNL A   1      44.264  34.169  33.192  1.00  0.00     0.198 A 
ATOM     73  F   UNL A   1      43.821  31.879  33.493  1.00  0.00    -0.203 F 
ATOM     74  F   UNL A   1      45.198  36.027  30.226  1.00  0.00    -0.200 F 
ATOM     75  C   UNL A   1      44.617  35.227  32.370  1.00  0.00     0.200 A 
ATOM     76  F   UNL A   1      44.048  34.379  34.498  1.00  0.00    -0.200 F 
ATOM     77  F   UNL A   1      44.769  36.456  32.885  1.00  0.00    -0.200 F 
ENDBRANCH  53  67
BRANCH  54  78
ATOM     78  C   UNL A   1      43.000  23.642  27.183  1.00  0.00     0.064 A 
ATOM     79  C   UNL A   1      43.410  23.416  25.861  1.00  0.00     0.173 A 
ATOM     80  C   UNL A   1      42.421  22.569  27.878  1.00  0.00     0.173 A 
ATOM     81  F   UNL A   1      43.950  24.416  25.148  1.00  0.00    -0.203 F 
ATOM     82  C   UNL A   1      43.236  22.173  25.256  1.00  0.00     0.198 A 
ATOM     83  C   UNL A   1      42.276  21.320  27.282  1.00  0.00     0.198 A 
ATOM     84  F   UNL A   1      42.018  22.732  29.146  1.00  0.00    -0.203 F 
ATOM     85  F   UNL A   1      43.601  21.996  23.979  1.00  0.00    -0.200 F 
ATOM     86  C   UNL A   1      42.677  21.124  25.969  1.00  0.00     0.200 A 
ATOM     87  F   UNL A   1      41.750  20.304  27.981  1.00  0.00    -0.200 F 
ATOM     88  F   UNL A   1      42.521  19.925  25.390  1.00  0.00    -0.200 F 
ENDBRANCH  54  78
BRANCH  66  89
ATOM     89  C   UNL A   1      48.487  26.867  30.041  1.00  0.00     0.064 A 
ATOM     90  C   UNL A   1      49.508  27.192  29.134  1.00  0.00     0.173 A 
ATOM     91  C   UNL A   1      48.844  26.165  31.204  1.00  0.00     0.173 A 
ATOM     92  F   UNL A   1      49.219  27.849  28.001  1.00  0.00    -0.203 F 
ATOM     93  C   UNL A   1      50.825  26.808  29.370  1.00  0.00     0.198 A 
ATOM     94  C   UNL A   1      50.167  25.812  31.453  1.00  0.00     0.198 A 
ATOM     95  F   UNL A   1      47.909  25.835  32.108  1.00  0.00    -0.203 F 
ATOM     96  F   UNL A   1      51.774  27.085  28.466  1.00  0.00    -0.200 F 
ATOM     97  C   UNL A   1      51.155  26.126  30.533  1.00  0.00     0.200 A 
ATOM     98  F   UNL A   1      50.486  25.168  32.584  1.00  0.00    -0.200 F 
ATOM     99  F   UNL A   1      52.426  25.766  30.763  1.00  0.00    -0.200 F 
ENDBRANCH  66  89
ENDBRANCH  40  41
ENDBRANCH  32  35
ENDBRANCH  30  31
ENDBRANCH  29  30
ENDBRANCH  28  29
ENDBRANCH  27  28
ENDBRANCH   1  27
TORSDOF 17
ENDMDL
MODEL 2
REMARK VINA RESULT:      -9.0      5.393      9.248
REMARK SMILES CN1C(=O)/C(=C\c2ccc(OCC(=O)NCCCCCCNC(=O)c3ccc(-c4c5nc(c(-c6c(F)c(F)c(F)c(F)c6F)c6ccc([nH]6)c(-c6c(F)c(F)c(F)c(F)c6F)c6nc(c(-c7c(F)c(F)c(F)c(F)c7F)c7ccc4[nH]7)C=C6)C=C5)cc3)cc2)C(O)=NC1=S
REMARK SMILES IDX 17 1 16 2 15 3 13 4 14 5 12 7 11 8 10 9 7 10 8 11 89 12 9 13
REMARK SMILES IDX 88 14 6 15 1 16 2 17 3 18 93 19 4 20 5 21 92 22 94 23 90 24
REMARK SMILES IDX 91 25 18 27 19 28 20 29 21 30 22 31 23 32 24 34 25 35 26 36
REMARK SMILES IDX 87 37 27 38 86 39 28 40 29 41 30 42 80 43 31 44 85 45 79 46
REMARK SMILES IDX 81 47 32 48 84 49 78 50 77 51 33 53 65 54 45 55 64 56 46 57
REMARK SMILES IDX 49 58 63 59 82 60 47 61 48 62 62 64 83 65 50 66 34 67 35 68
REMARK SMILES IDX 43 69 36 70 37 71 41 72 44 73 38 74 39 75 42 76 40 77 66 78
REMARK SMILES IDX 67 79 75 80 68 81 69 82 73 83 76 84 70 85 71 86 74 87 72 88
REMARK SMILES IDX 51 89 52 90 60 91 53 92 54 93 58 94 61 95 55 96 56 97 59 98
REMARK SMILES IDX 57 99
REMARK H PARENT 15 6 91 26 22 33 81 52 49 63
REMARK Flexibility Score: inf
ROOT
ATOM      1  C   UNL A   1      34.413  31.903  28.512  1.00  0.00     0.021 C 
ENDROOT
BRANCH   1   2
ATOM      2  C   UNL A   1      33.820  31.169  27.309  1.00  0.00     0.116 C 
BRANCH   2   3
ATOM      3  N   UNL A   1      33.037  30.019  27.713  1.00  0.00    -0.353 N 
ATOM      4  C   UNL A   1      32.141  29.297  26.980  1.00  0.00     0.257 C 
ATOM      5  O   UNL A   1      31.565  28.348  27.515  1.00  0.00    -0.271 OA
ATOM      6  H   UNL A   1      33.168  29.718  28.641  1.00  0.00     0.163 HD
BRANCH   4   7
ATOM      7  C   UNL A   1      31.920  29.634  25.498  1.00  0.00     0.329 C 
BRANCH   7   8
ATOM      8  O   UNL A   1      32.774  29.020  24.544  1.00  0.00    -0.484 OA
BRANCH   8   9
ATOM      9  C   UNL A   1      32.492  27.735  24.177  1.00  0.00     0.120 A 
ATOM     10  C   UNL A   1      32.189  25.099  23.268  1.00  0.00    -0.024 A 
ATOM     11  C   UNL A   1      33.467  25.622  23.481  1.00  0.00     0.012 A 
ATOM     12  C   UNL A   1      31.068  25.880  23.567  1.00  0.00     0.012 A 
ATOM     13  C   UNL A   1      33.613  26.935  23.937  1.00  0.00     0.047 A 
ATOM     14  C   UNL A   1      31.218  27.193  24.020  1.00  0.00     0.047 A 
BRANCH  10  15
ATOM     15  C   UNL A   1      32.011  23.751  22.720  1.00  0.00     0.027 C 
ATOM     16  C   UNL A   1      33.238  21.377  26.789  1.00  0.00     0.156 C 
ATOM     17  N   UNL A   1      32.799  21.347  25.394  1.00  0.00    -0.286 N 
ATOM     18  C   UNL A   1      32.350  22.567  24.892  1.00  0.00     0.265 C 
ATOM     19  C   UNL A   1      32.734  20.145  24.676  1.00  0.00     0.205 C 
ATOM     20  O   UNL A   1      32.117  23.534  25.613  1.00  0.00    -0.268 OA
ATOM     21  C   UNL A   1      32.109  22.599  23.419  1.00  0.00     0.103 C 
ATOM     22  N   UNL A   1      32.324  20.171  23.369  1.00  0.00    -0.184 NA
ATOM     23  S   UNL A   1      33.115  18.636  25.352  1.00  0.00    -0.038 S 
ATOM     24  C   UNL A   1      32.045  21.277  22.789  1.00  0.00     0.226 C 
BRANCH  24  25
ATOM     25  O   UNL A   1      31.654  21.192  21.507  1.00  0.00    -0.493 OA
ATOM     26  H   UNL A   1      32.043  21.745  20.859  1.00  0.00     0.295 HD
ENDBRANCH  24  25
ENDBRANCH  10  15
ENDBRANCH   8   9
ENDBRANCH   7   8
ENDBRANCH   4   7
ENDBRANCH   2   3
ENDBRANCH   1   2
BRANCH   1  27
ATOM     27  C   UNL A   1      35.351  33.064  28.156  1.00  0.00     0.002 C 
BRANCH  27  28
ATOM     28  C   UNL A   1      34.676  34.431  27.991  1.00  0.00     0.002 C 
BRANCH  28  29
ATOM     29  C   UNL A   1      33.482  34.686  28.911  1.00  0.00     0.021 C 
BRANCH  29  30
ATOM     30  C   UNL A   1      33.463  36.062  29.567  1.00  0.00     0.116 C 
BRANCH  30  31
ATOM     31  N   UNL A   1      32.486  36.152  30.641  1.00  0.00    -0.352 N 
ATOM     32  C   UNL A   1      32.512  35.590  31.892  1.00  0.00     0.251 C 
ATOM     33  H   UNL A   1      31.690  36.697  30.442  1.00  0.00     0.163 HD
ATOM     34  O   UNL A   1      31.514  35.628  32.609  1.00  0.00    -0.269 OA
BRANCH  32  35
ATOM     35  C   UNL A   1      33.735  34.911  32.374  1.00  0.00     0.039 A 
ATOM     36  C   UNL A   1      33.634  33.610  32.873  1.00  0.00     0.014 A 
ATOM     37  C   UNL A   1      34.974  35.554  32.339  1.00  0.00     0.014 A 
ATOM     38  C   UNL A   1      34.786  32.931  33.276  1.00  0.00     0.010 A 
ATOM     39  C   UNL A   1      36.130  34.851  32.666  1.00  0.00     0.010 A 
ATOM     40  C   UNL A   1      36.048  33.533  33.141  1.00  0.00    -0.014 A 
BRANCH  40  41
ATOM     41  C   UNL A   1      37.292  32.801  33.490  1.00  0.00     0.031 A 
ATOM     42  C   UNL A   1      38.028  33.118  34.762  1.00  0.00     0.074 A 
ATOM     43  C   UNL A   1      37.798  31.899  32.626  1.00  0.00     0.049 A 
ATOM     44  N   UNL A   1      39.163  32.638  35.205  1.00  0.00    -0.248 NA
ATOM     45  C   UNL A   1      37.420  34.130  35.638  1.00  0.00     0.031 C 
ATOM     46  C   UNL A   1      37.206  31.539  31.338  1.00  0.00     0.029 A 
ATOM     47  N   UNL A   1      38.934  31.131  32.697  1.00  0.00    -0.354 N 
ATOM     48  C   UNL A   1      39.411  33.300  36.400  1.00  0.00     0.074 A 
ATOM     49  C   UNL A   1      38.340  34.256  36.583  1.00  0.00     0.031 C 
ATOM     50  C   UNL A   1      37.970  30.606  30.750  1.00  0.00     0.029 A 
ATOM     51  C   UNL A   1      39.126  30.333  31.596  1.00  0.00     0.049 A 
ATOM     52  H   UNL A   1      39.552  31.151  33.463  1.00  0.00     0.167 HD
ATOM     53  C   UNL A   1      40.426  33.111  37.278  1.00  0.00     0.037 A 
ATOM     54  C   UNL A   1      40.129  29.484  31.298  1.00  0.00     0.037 A 
ATOM     55  C   UNL A   1      41.481  32.147  37.098  1.00  0.00     0.049 A 
ATOM     56  C   UNL A   1      41.253  29.299  32.280  1.00  0.00     0.074 A 
ATOM     57  C   UNL A   1      42.520  31.835  37.956  1.00  0.00     0.029 A 
ATOM     58  N   UNL A   1      41.635  31.346  35.975  1.00  0.00    -0.354 N 
ATOM     59  N   UNL A   1      41.440  29.876  33.442  1.00  0.00    -0.248 NA
ATOM     60  C   UNL A   1      42.304  28.340  31.912  1.00  0.00     0.031 C 
ATOM     61  C   UNL A   1      43.337  30.889  37.328  1.00  0.00     0.029 A 
ATOM     62  C   UNL A   1      42.772  30.562  36.106  1.00  0.00     0.049 A 
ATOM     63  H   UNL A   1      41.028  31.336  35.200  1.00  0.00     0.167 HD
ATOM     64  C   UNL A   1      42.610  29.332  33.956  1.00  0.00     0.074 A 
ATOM     65  C   UNL A   1      43.082  28.368  32.984  1.00  0.00     0.031 C 
ATOM     66  C   UNL A   1      43.233  29.606  35.129  1.00  0.00     0.037 A 
BRANCH  53  67
ATOM     67  C   UNL A   1      40.446  33.974  38.509  1.00  0.00     0.064 A 
ATOM     68  C   UNL A   1      39.774  33.603  39.685  1.00  0.00     0.173 A 
ATOM     69  C   UNL A   1      41.158  35.183  38.518  1.00  0.00     0.173 A 
ATOM     70  F   UNL A   1      39.070  32.460  39.729  1.00  0.00    -0.203 F 
ATOM     71  C   UNL A   1      39.779  34.428  40.806  1.00  0.00     0.198 A 
ATOM     72  C   UNL A   1      41.191  35.989  39.654  1.00  0.00     0.198 A 
ATOM     73  F   UNL A   1      41.826  35.585  37.426  1.00  0.00    -0.203 F 
ATOM     74  F   UNL A   1      39.074  34.082  41.893  1.00  0.00    -0.200 F 
ATOM     75  C   UNL A   1      40.491  35.617  40.791  1.00  0.00     0.200 A 
ATOM     76  F   UNL A   1      41.893  37.130  39.644  1.00  0.00    -0.200 F 
ATOM     77  F   UNL A   1      40.496  36.410  41.872  1.00  0.00    -0.200 F 
ENDBRANCH  53  67
BRANCH  54  78
ATOM     78  C   UNL A   1      40.095  28.728  30.018  1.00  0.00     0.064 A 
ATOM     79  C   UNL A   1      40.684  29.248  28.857  1.00  0.00     0.173 A 
ATOM     80  C   UNL A   1      39.491  27.464  29.932  1.00  0.00     0.173 A 
ATOM     81  F   UNL A   1      41.256  30.462  28.884  1.00  0.00    -0.203 F 
ATOM     82  C   UNL A   1      40.658  28.541  27.657  1.00  0.00     0.198 A 
ATOM     83  C   UNL A   1      39.493  26.745  28.740  1.00  0.00     0.198 A 
ATOM     84  F   UNL A   1      38.919  26.920  31.016  1.00  0.00    -0.203 F 
ATOM     85  F   UNL A   1      41.195  29.079  26.554  1.00  0.00    -0.200 F 
ATOM     86  C   UNL A   1      40.070  27.287  27.602  1.00  0.00     0.200 A 
ATOM     87  F   UNL A   1      38.938  25.526  28.695  1.00  0.00    -0.200 F 
ATOM     88  F   UNL A   1      40.057  26.601  26.450  1.00  0.00    -0.200 F 
ENDBRANCH  54  78
BRANCH  66  89
ATOM     89  C   UNL A   1      44.479  28.829  35.446  1.00  0.00     0.064 A 
ATOM     90  C   UNL A   1      45.754  29.302  35.099  1.00  0.00     0.173 A 
ATOM     91  C   UNL A   1      44.399  27.615  36.145  1.00  0.00     0.173 A 
ATOM     92  F   UNL A   1      45.887  30.449  34.416  1.00  0.00    -0.203 F 
ATOM     93  C   UNL A   1      46.898  28.574  35.417  1.00  0.00     0.198 A 
ATOM     94  C   UNL A   1      45.547  26.908  36.492  1.00  0.00     0.198 A 
ATOM     95  F   UNL A   1      43.205  27.121  36.508  1.00  0.00    -0.203 F 
ATOM     96  F   UNL A   1      48.102  29.020  35.030  1.00  0.00    -0.200 F 
ATOM     97  C   UNL A   1      46.795  27.383  36.120  1.00  0.00     0.200 A 
ATOM     98  F   UNL A   1      45.445  25.765  37.186  1.00  0.00    -0.200 F 
ATOM     99  F   UNL A   1      47.898  26.690  36.434  1.00  0.00    -0.200 F 
ENDBRANCH  66  89
ENDBRANCH  40  41
ENDBRANCH  32  35
ENDBRANCH  30  31
ENDBRANCH  29  30
ENDBRANCH  28  29
ENDBRANCH  27  28
ENDBRANCH   1  27
TORSDOF 17
ENDMDL
MODEL 3
REMARK VINA RESULT:      -8.9      5.603      9.390
REMARK SMILES CN1C(=O)/C(=C\c2ccc(OCC(=O)NCCCCCCNC(=O)c3ccc(-c4c5nc(c(-c6c(F)c(F)c(F)c(F)c6F)c6ccc([nH]6)c(-c6c(F)c(F)c(F)c(F)c6F)c6nc(c(-c7c(F)c(F)c(F)c(F)c7F)c7ccc4[nH]7)C=C6)C=C5)cc3)cc2)C(O)=NC1=S
REMARK SMILES IDX 17 1 16 2 15 3 13 4 14 5 12 7 11 8 10 9 7 10 8 11 89 12 9 13
REMARK SMILES IDX 88 14 6 15 1 16 2 17 3 18 93 19 4 20 5 21 92 22 94 23 90 24
REMARK SMILES IDX 91 25 18 27 19 28 20 29 21 30 22 31 23 32 24 34 25 35 26 36
REMARK SMILES IDX 87 37 27 38 86 39 28 40 29 41 30 42 80 43 31 44 85 45 79 46
REMARK SMILES IDX 81 47 32 48 84 49 78 50 77 51 33 53 65 54 45 55 64 56 46 57
REMARK SMILES IDX 49 58 63 59 82 60 47 61 48 62 62 64 83 65 50 66 34 67 35 68
REMARK SMILES IDX 43 69 36 70 37 71 41 72 44 73 38 74 39 75 42 76 40 77 66 78
REMARK SMILES IDX 67 79 75 80 68 81 69 82 73 83 76 84 70 85 71 86 74 87 72 88
REMARK SMILES IDX 51 89 52 90 60 91 53 92 54 93 58 94 61 95 55 96 56 97 59 98
REMARK SMILES IDX 57 99
REMARK H PARENT 15 6 91 26 22 33 81 52 49 63
REMARK Flexibility Score: inf
ROOT
ATOM      1  C   UNL A   1      33.783  32.031  27.826  1.00  0.00     0.021 C 
ENDROOT
BRANCH   1   2
ATOM      2  C   UNL A   1      33.798  30.529  27.541  1.00  0.00     0.116 C 
BRANCH   2   3
ATOM      3  N   UNL A   1      33.785  30.251  26.120  1.00  0.00    -0.353 N 
ATOM      4  C   UNL A   1      32.948  29.434  25.418  1.00  0.00     0.257 C 
ATOM      5  O   UNL A   1      33.109  29.324  24.201  1.00  0.00    -0.271 OA
ATOM      6  H   UNL A   1      34.473  30.713  25.589  1.00  0.00     0.163 HD
BRANCH   4   7
ATOM      7  C   UNL A   1      31.792  28.726  26.139  1.00  0.00     0.329 C 
BRANCH   7   8
ATOM      8  O   UNL A   1      31.077  27.729  25.423  1.00  0.00    -0.484 OA
BRANCH   8   9
ATOM      9  C   UNL A   1      31.317  26.423  25.746  1.00  0.00     0.120 A 
ATOM     10  C   UNL A   1      32.091  23.780  26.270  1.00  0.00    -0.024 A 
ATOM     11  C   UNL A   1      33.057  24.784  26.173  1.00  0.00     0.012 A 
ATOM     12  C   UNL A   1      30.738  24.114  26.162  1.00  0.00     0.012 A 
ATOM     13  C   UNL A   1      32.667  26.101  25.915  1.00  0.00     0.047 A 
ATOM     14  C   UNL A   1      30.352  25.431  25.902  1.00  0.00     0.047 A 
BRANCH  10  15
ATOM     15  C   UNL A   1      32.481  22.380  26.466  1.00  0.00     0.027 C 
ATOM     16  C   UNL A   1      31.884  21.027  21.828  1.00  0.00     0.156 C 
ATOM     17  N   UNL A   1      32.257  20.693  23.202  1.00  0.00    -0.286 N 
ATOM     18  C   UNL A   1      32.458  21.787  24.040  1.00  0.00     0.265 C 
ATOM     19  C   UNL A   1      32.502  19.368  23.589  1.00  0.00     0.205 C 
ATOM     20  O   UNL A   1      32.548  22.937  23.617  1.00  0.00    -0.268 OA
ATOM     21  C   UNL A   1      32.623  21.459  25.488  1.00  0.00     0.103 C 
ATOM     22  N   UNL A   1      32.841  19.105  24.890  1.00  0.00    -0.184 NA
ATOM     23  S   UNL A   1      32.428  18.056  22.515  1.00  0.00    -0.038 S 
ATOM     24  C   UNL A   1      32.891  20.043  25.758  1.00  0.00     0.226 C 
BRANCH  24  25
ATOM     25  O   UNL A   1      33.233  19.679  27.006  1.00  0.00    -0.493 OA
ATOM     26  H   UNL A   1      33.717  18.890  27.149  1.00  0.00     0.295 HD
ENDBRANCH  24  25
ENDBRANCH  10  15
ENDBRANCH   8   9
ENDBRANCH   7   8
ENDBRANCH   4   7
ENDBRANCH   2   3
ENDBRANCH   1   2
BRANCH   1  27
ATOM     27  C   UNL A   1      35.062  32.573  28.480  1.00  0.00     0.002 C 
BRANCH  27  28
ATOM     28  C   UNL A   1      34.998  34.031  28.947  1.00  0.00     0.002 C 
BRANCH  28  29
ATOM     29  C   UNL A   1      33.602  34.656  28.950  1.00  0.00     0.021 C 
BRANCH  29  30
ATOM     30  C   UNL A   1      33.527  36.052  29.558  1.00  0.00     0.116 C 
BRANCH  30  31
ATOM     31  N   UNL A   1      32.543  36.141  30.625  1.00  0.00    -0.352 N 
ATOM     32  C   UNL A   1      32.561  35.581  31.877  1.00  0.00     0.251 C 
ATOM     33  H   UNL A   1      31.746  36.683  30.419  1.00  0.00     0.163 HD
ATOM     34  O   UNL A   1      31.558  35.617  32.587  1.00  0.00    -0.269 OA
BRANCH  32  35
ATOM     35  C   UNL A   1      33.782  34.907  32.370  1.00  0.00     0.039 A 
ATOM     36  C   UNL A   1      33.695  33.582  32.803  1.00  0.00     0.014 A 
ATOM     37  C   UNL A   1      35.007  35.578  32.408  1.00  0.00     0.014 A 
ATOM     38  C   UNL A   1      34.849  32.909  33.213  1.00  0.00     0.010 A 
ATOM     39  C   UNL A   1      36.167  34.886  32.742  1.00  0.00     0.010 A 
ATOM     40  C   UNL A   1      36.100  33.545  33.151  1.00  0.00    -0.014 A 
BRANCH  40  41
ATOM     41  C   UNL A   1      37.349  32.824  33.509  1.00  0.00     0.031 A 
ATOM     42  C   UNL A   1      38.062  33.134  34.795  1.00  0.00     0.074 A 
ATOM     43  C   UNL A   1      37.879  31.941  32.641  1.00  0.00     0.049 A 
ATOM     44  N   UNL A   1      39.197  32.664  35.248  1.00  0.00    -0.248 NA
ATOM     45  C   UNL A   1      37.429  34.127  35.675  1.00  0.00     0.031 C 
ATOM     46  C   UNL A   1      37.310  31.590  31.340  1.00  0.00     0.029 A 
ATOM     47  N   UNL A   1      39.024  31.186  32.718  1.00  0.00    -0.354 N 
ATOM     48  C   UNL A   1      39.419  33.313  36.455  1.00  0.00     0.074 A 
ATOM     49  C   UNL A   1      38.333  34.252  36.635  1.00  0.00     0.031 C 
ATOM     50  C   UNL A   1      38.094  30.674  30.750  1.00  0.00     0.029 A 
ATOM     51  C   UNL A   1      39.242  30.405  31.610  1.00  0.00     0.049 A 
ATOM     52  H   UNL A   1      39.630  31.205  33.494  1.00  0.00     0.167 HD
ATOM     53  C   UNL A   1      40.423  33.125  37.345  1.00  0.00     0.037 A 
ATOM     54  C   UNL A   1      40.260  29.573  31.315  1.00  0.00     0.037 A 
ATOM     55  C   UNL A   1      41.493  32.177  37.168  1.00  0.00     0.049 A 
ATOM     56  C   UNL A   1      41.372  29.390  32.311  1.00  0.00     0.074 A 
ATOM     57  C   UNL A   1      42.525  31.867  38.037  1.00  0.00     0.029 A 
ATOM     58  N   UNL A   1      41.674  31.393  36.037  1.00  0.00    -0.354 N 
ATOM     59  N   UNL A   1      41.535  29.955  33.483  1.00  0.00    -0.248 NA
ATOM     60  C   UNL A   1      42.440  28.450  31.946  1.00  0.00     0.031 C 
ATOM     61  C   UNL A   1      43.363  30.941  37.409  1.00  0.00     0.029 A 
ATOM     62  C   UNL A   1      42.819  30.623  36.174  1.00  0.00     0.049 A 
ATOM     63  H   UNL A   1      41.079  31.386  35.253  1.00  0.00     0.167 HD
ATOM     64  C   UNL A   1      42.704  29.418  34.007  1.00  0.00     0.074 A 
ATOM     65  C   UNL A   1      43.202  28.474  33.030  1.00  0.00     0.031 C 
ATOM     66  C   UNL A   1      43.307  29.685  35.192  1.00  0.00     0.037 A 
BRANCH  53  67
ATOM     67  C   UNL A   1      40.415  33.972  38.587  1.00  0.00     0.064 A 
ATOM     68  C   UNL A   1      41.086  35.204  38.648  1.00  0.00     0.173 A 
ATOM     69  C   UNL A   1      39.716  33.554  39.729  1.00  0.00     0.173 A 
ATOM     70  F   UNL A   1      41.779  35.649  37.587  1.00  0.00    -0.203 F 
ATOM     71  C   UNL A   1      41.093  35.962  39.816  1.00  0.00     0.198 A 
ATOM     72  C   UNL A   1      39.695  34.332  40.884  1.00  0.00     0.198 A 
ATOM     73  F   UNL A   1      39.049  32.390  39.727  1.00  0.00    -0.203 F 
ATOM     74  F   UNL A   1      41.797  37.102  39.868  1.00  0.00    -0.200 F 
ATOM     75  C   UNL A   1      40.393  35.528  40.931  1.00  0.00     0.200 A 
ATOM     76  F   UNL A   1      39.004  33.919  41.956  1.00  0.00    -0.200 F 
ATOM     77  F   UNL A   1      40.399  36.259  42.054  1.00  0.00    -0.200 F 
ENDBRANCH  53  67
BRANCH  54  78
ATOM     78  C   UNL A   1      40.254  28.833  30.025  1.00  0.00     0.064 A 
ATOM     79  C   UNL A   1      39.620  27.588  29.911  1.00  0.00     0.173 A 
ATOM     80  C   UNL A   1      40.865  29.361  28.878  1.00  0.00     0.173 A 
ATOM     81  F   UNL A   1      39.038  27.033  30.985  1.00  0.00    -0.203 F 
ATOM     82  C   UNL A   1      39.608  26.895  28.703  1.00  0.00     0.198 A 
ATOM     83  C   UNL A   1      40.828  28.681  27.665  1.00  0.00     0.198 A 
ATOM     84  F   UNL A   1      41.481  30.551  28.934  1.00  0.00    -0.203 F 
ATOM     85  F   UNL A   1      39.028  25.689  28.632  1.00  0.00    -0.200 F 
ATOM     86  C   UNL A   1      40.205  27.445  27.579  1.00  0.00     0.200 A 
ATOM     87  F   UNL A   1      41.391  29.224  26.577  1.00  0.00    -0.200 F 
ATOM     88  F   UNL A   1      40.183  26.781  26.414  1.00  0.00    -0.200 F 
ENDBRANCH  54  78
BRANCH  66  89
ATOM     89  C   UNL A   1      44.559  28.921  35.517  1.00  0.00     0.064 A 
ATOM     90  C   UNL A   1      44.519  27.680  36.171  1.00  0.00     0.173 A 
ATOM     91  C   UNL A   1      45.813  29.418  35.129  1.00  0.00     0.173 A 
ATOM     92  F   UNL A   1      43.348  27.166  36.576  1.00  0.00    -0.203 F 
ATOM     93  C   UNL A   1      45.691  26.979  36.447  1.00  0.00     0.198 A 
ATOM     94  C   UNL A   1      46.979  28.698  35.377  1.00  0.00     0.198 A 
ATOM     95  F   UNL A   1      45.907  30.596  34.494  1.00  0.00    -0.203 F 
ATOM     96  F   UNL A   1      45.633  25.820  37.118  1.00  0.00    -0.200 F 
ATOM     97  C   UNL A   1      46.918  27.484  36.043  1.00  0.00     0.200 A 
ATOM     98  F   UNL A   1      48.162  29.181  34.971  1.00  0.00    -0.200 F 
ATOM     99  F   UNL A   1      48.043  26.803  36.301  1.00  0.00    -0.200 F 
ENDBRANCH  66  89
ENDBRANCH  40  41
ENDBRANCH  32  35
ENDBRANCH  30  31
ENDBRANCH  29  30
ENDBRANCH  28  29
ENDBRANCH  27  28
ENDBRANCH   1  27
TORSDOF 17
ENDMDL
