MODEL 1
REMARK VINA RESULT:     -11.3      0.000      0.000
REMARK SMILES CO[C@H](C)[C@@H](NC(=O)OCc1ccccc1)C(=O)NCCCCCCNC(=O)c1ccc(-c2c3nc(c(-c4c(F)c(F)c(F)c(F)c4F)c4ccc([nH]4)c(-c4c(F)c(F)c(F)c(F)c4F)c4nc(c(-c5c(F)c(F)c(F)c(F)c5F)c5ccc2[nH]5)C=C4)C=C3)cc1
REMARK SMILES IDX 21 1 20 2 19 3 17 4 18 5 5 7 3 8 4 9 2 10 1 11 6 12 7 13
REMARK SMILES IDX 8 15 9 16 10 17 11 18 12 19 16 20 13 21 15 22 14 23 22 24
REMARK SMILES IDX 23 25 24 26 25 27 26 28 27 29 28 31 29 32 30 33 91 34 31 35
REMARK SMILES IDX 90 36 32 37 33 38 34 39 84 40 35 41 89 42 83 43 85 44 36 45
REMARK SMILES IDX 88 46 82 47 81 48 37 50 69 51 49 52 68 53 50 54 53 55 67 56
REMARK SMILES IDX 86 57 51 58 52 59 66 61 87 62 54 63 38 64 39 65 47 66 40 67
REMARK SMILES IDX 41 68 45 69 48 70 42 71 43 72 46 73 44 74 70 75 71 76 79 77
REMARK SMILES IDX 72 78 73 79 77 80 80 81 74 82 75 83 78 84 76 85 55 86 56 87
REMARK SMILES IDX 64 88 57 89 58 90 62 91 65 92 59 93 60 94 63 95 61 96
REMARK H PARENT 19 6 6 14 26 30 85 49 53 60
REMARK Flexibility Score: inf
ROOT
ATOM      1  C   UNL A   1      36.496  23.090  24.833  1.00  0.00     0.021 C 
ENDROOT
BRANCH   1   2
ATOM      2  C   UNL A   1      35.579  23.688  25.888  1.00  0.00     0.116 C 
BRANCH   2   3
ATOM      3  N   UNL A   1      35.088  22.661  26.785  1.00  0.00    -0.354 N 
ATOM      4  C   UNL A   1      33.898  21.993  26.771  1.00  0.00     0.245 C 
ATOM      5  O   UNL A   1      33.726  21.126  27.633  1.00  0.00    -0.273 OA
ATOM      6  H   UNL A   1      35.703  22.409  27.511  1.00  0.00     0.163 HD
BRANCH   4   7
ATOM      7  C   UNL A   1      32.778  22.385  25.778  1.00  0.00     0.203 C 
BRANCH   7   8
ATOM      8  C   UNL A   1      32.931  21.464  24.514  1.00  0.00     0.146 C 
ATOM      9  C   UNL A   1      33.257  22.235  23.230  1.00  0.00     0.041 C 
BRANCH   8  10
ATOM     10  O   UNL A   1      33.990  20.497  24.624  1.00  0.00    -0.379 OA
ATOM     11  C   UNL A   1      33.568  19.138  24.590  1.00  0.00     0.195 C 
ENDBRANCH   8  10
ENDBRANCH   7   8
BRANCH   7  12
ATOM     12  N   UNL A   1      31.445  22.272  26.411  1.00  0.00    -0.307 N 
ATOM     13  C   UNL A   1      30.754  23.228  27.096  1.00  0.00     0.408 C 
ATOM     14  H   UNL A   1      31.001  21.397  26.327  1.00  0.00     0.168 HD
ATOM     15  O   UNL A   1      29.679  22.958  27.619  1.00  0.00    -0.225 OA
BRANCH  13  16
ATOM     16  O   UNL A   1      31.411  24.398  27.215  1.00  0.00    -0.445 OA
BRANCH  16  17
ATOM     17  C   UNL A   1      30.949  25.484  26.401  1.00  0.00     0.270 C 
BRANCH  17  18
ATOM     18  C   UNL A   1      31.858  26.681  26.474  1.00  0.00    -0.011 A 
ATOM     19  C   UNL A   1      33.135  26.631  25.898  1.00  0.00     0.007 A 
ATOM     20  C   UNL A   1      31.482  27.833  27.178  1.00  0.00     0.007 A 
ATOM     21  C   UNL A   1      34.004  27.719  26.008  1.00  0.00     0.000 A 
ATOM     22  C   UNL A   1      32.346  28.918  27.285  1.00  0.00     0.000 A 
ATOM     23  C   UNL A   1      33.607  28.862  26.700  1.00  0.00     0.000 A 
ENDBRANCH  17  18
ENDBRANCH  16  17
ENDBRANCH  13  16
ENDBRANCH   7  12
ENDBRANCH   4   7
ENDBRANCH   2   3
ENDBRANCH   1   2
BRANCH   1  24
ATOM     24  C   UNL A   1      37.362  21.943  25.361  1.00  0.00     0.002 C 
BRANCH  24  25
ATOM     25  C   UNL A   1      37.174  20.612  24.626  1.00  0.00     0.002 C 
BRANCH  25  26
ATOM     26  C   UNL A   1      38.182  19.524  25.004  1.00  0.00     0.021 C 
BRANCH  26  27
ATOM     27  C   UNL A   1      39.302  19.998  25.922  1.00  0.00     0.116 C 
BRANCH  27  28
ATOM     28  N   UNL A   1      40.377  19.025  26.009  1.00  0.00    -0.352 N 
ATOM     29  C   UNL A   1      41.727  19.228  26.108  1.00  0.00     0.251 C 
ATOM     30  H   UNL A   1      40.094  18.082  25.994  1.00  0.00     0.163 HD
ATOM     31  O   UNL A   1      42.503  18.289  25.957  1.00  0.00    -0.269 OA
BRANCH  29  32
ATOM     32  C   UNL A   1      42.250  20.581  26.380  1.00  0.00     0.039 A 
ATOM     33  C   UNL A   1      42.586  21.396  25.298  1.00  0.00     0.014 A 
ATOM     34  C   UNL A   1      42.428  21.040  27.690  1.00  0.00     0.014 A 
ATOM     35  C   UNL A   1      43.061  22.686  25.528  1.00  0.00     0.010 A 
ATOM     36  C   UNL A   1      42.823  22.356  27.916  1.00  0.00     0.010 A 
ATOM     37  C   UNL A   1      43.155  23.188  26.837  1.00  0.00    -0.014 A 
BRANCH  37  38
ATOM     38  C   UNL A   1      43.597  24.585  27.078  1.00  0.00     0.031 A 
ATOM     39  C   UNL A   1      42.621  25.622  27.559  1.00  0.00     0.074 A 
ATOM     40  C   UNL A   1      44.877  24.921  26.836  1.00  0.00     0.049 A 
ATOM     41  N   UNL A   1      42.827  26.886  27.833  1.00  0.00    -0.248 NA
ATOM     42  C   UNL A   1      41.224  25.194  27.733  1.00  0.00     0.031 C 
ATOM     43  C   UNL A   1      45.903  24.016  26.313  1.00  0.00     0.029 A 
ATOM     44  N   UNL A   1      45.539  26.113  26.997  1.00  0.00    -0.354 N 
ATOM     45  C   UNL A   1      41.591  27.400  28.205  1.00  0.00     0.074 A 
ATOM     46  C   UNL A   1      40.629  26.330  28.064  1.00  0.00     0.031 C 
ATOM     47  C   UNL A   1      47.070  24.673  26.231  1.00  0.00     0.029 A 
ATOM     48  C   UNL A   1      46.868  26.054  26.655  1.00  0.00     0.049 A 
ATOM     49  H   UNL A   1      45.102  26.931  27.327  1.00  0.00     0.167 HD
ATOM     50  C   UNL A   1      41.293  28.645  28.649  1.00  0.00     0.037 A 
ATOM     51  C   UNL A   1      47.816  27.010  26.676  1.00  0.00     0.037 A 
ATOM     52  C   UNL A   1      42.259  29.701  28.800  1.00  0.00     0.049 A 
ATOM     53  C   UNL A   1      47.453  28.387  27.166  1.00  0.00     0.074 A 
ATOM     54  C   UNL A   1      42.070  30.979  29.298  1.00  0.00     0.029 A 
ATOM     55  N   UNL A   1      43.598  29.607  28.447  1.00  0.00    -0.354 N 
ATOM     56  N   UNL A   1      46.299  28.836  27.595  1.00  0.00    -0.248 NA
ATOM     57  C   UNL A   1      48.531  29.384  27.184  1.00  0.00     0.031 C 
ATOM     58  C   UNL A   1      43.277  31.677  29.185  1.00  0.00     0.029 A 
ATOM     59  C   UNL A   1      44.237  30.813  28.684  1.00  0.00     0.049 A 
ATOM     60  H   UNL A   1      44.029  28.801  28.080  1.00  0.00     0.167 HD
ATOM     61  C   UNL A   1      46.518  30.158  27.961  1.00  0.00     0.074 A 
ATOM     62  C   UNL A   1      47.921  30.427  27.727  1.00  0.00     0.031 C 
ATOM     63  C   UNL A   1      45.636  31.069  28.445  1.00  0.00     0.037 A 
BRANCH  50  64
ATOM     64  C   UNL A   1      39.860  28.937  29.001  1.00  0.00     0.064 A 
ATOM     65  C   UNL A   1      38.933  29.357  28.036  1.00  0.00     0.173 A 
ATOM     66  C   UNL A   1      39.399  28.744  30.312  1.00  0.00     0.173 A 
ATOM     67  F   UNL A   1      39.323  29.568  26.770  1.00  0.00    -0.203 F 
ATOM     68  C   UNL A   1      37.603  29.600  28.376  1.00  0.00     0.198 A 
ATOM     69  C   UNL A   1      38.062  28.955  30.640  1.00  0.00     0.198 A 
ATOM     70  F   UNL A   1      40.240  28.338  31.273  1.00  0.00    -0.203 F 
ATOM     71  F   UNL A   1      36.748  30.050  27.447  1.00  0.00    -0.200 F 
ATOM     72  C   UNL A   1      37.167  29.389  29.675  1.00  0.00     0.200 A 
ATOM     73  F   UNL A   1      37.639  28.735  31.893  1.00  0.00    -0.200 F 
ATOM     74  F   UNL A   1      35.886  29.611  29.997  1.00  0.00    -0.200 F 
ENDBRANCH  50  64
BRANCH  51  75
ATOM     75  C   UNL A   1      49.201  26.696  26.235  1.00  0.00     0.064 A 
ATOM     76  C   UNL A   1      50.162  26.226  27.143  1.00  0.00     0.173 A 
ATOM     77  C   UNL A   1      49.599  26.876  24.902  1.00  0.00     0.173 A 
ATOM     78  F   UNL A   1      49.837  26.056  28.433  1.00  0.00    -0.203 F 
ATOM     79  C   UNL A   1      51.473  25.978  26.741  1.00  0.00     0.198 A 
ATOM     80  C   UNL A   1      50.900  26.593  24.494  1.00  0.00     0.198 A 
ATOM     81  F   UNL A   1      48.718  27.316  23.992  1.00  0.00    -0.203 F 
ATOM     82  F   UNL A   1      52.385  25.587  27.642  1.00  0.00    -0.200 F 
ATOM     83  C   UNL A   1      51.839  26.156  25.416  1.00  0.00     0.200 A 
ATOM     84  F   UNL A   1      51.245  26.749  23.208  1.00  0.00    -0.200 F 
ATOM     85  F   UNL A   1      53.100  25.916  25.028  1.00  0.00    -0.200 F 
ENDBRANCH  51  75
BRANCH  63  86
ATOM     86  C   UNL A   1      46.173  32.429  28.786  1.00  0.00     0.064 A 
ATOM     87  C   UNL A   1      46.187  33.476  27.852  1.00  0.00     0.173 A 
ATOM     88  C   UNL A   1      46.669  32.695  30.073  1.00  0.00     0.173 A 
ATOM     89  F   UNL A   1      45.737  33.274  26.604  1.00  0.00    -0.203 F 
ATOM     90  C   UNL A   1      46.714  34.723  28.179  1.00  0.00     0.198 A 
ATOM     91  C   UNL A   1      47.158  33.954  30.409  1.00  0.00     0.198 A 
ATOM     92  F   UNL A   1      46.670  31.734  31.009  1.00  0.00    -0.203 F 
ATOM     93  F   UNL A   1      46.779  35.686  27.250  1.00  0.00    -0.200 F 
ATOM     94  C   UNL A   1      47.193  34.962  29.459  1.00  0.00     0.200 A 
ATOM     95  F   UNL A   1      47.602  34.188  31.652  1.00  0.00    -0.200 F 
ATOM     96  F   UNL A   1      47.698  36.163  29.773  1.00  0.00    -0.200 F 
ENDBRANCH  63  86
ENDBRANCH  37  38
ENDBRANCH  29  32
ENDBRANCH  27  28
ENDBRANCH  26  27
ENDBRANCH  25  26
ENDBRANCH  24  25
ENDBRANCH   1  24
TORSDOF 19
ENDMDL
MODEL 2
REMARK VINA RESULT:     -11.1      0.798      7.442
REMARK SMILES CO[C@H](C)[C@@H](NC(=O)OCc1ccccc1)C(=O)NCCCCCCNC(=O)c1ccc(-c2c3nc(c(-c4c(F)c(F)c(F)c(F)c4F)c4ccc([nH]4)c(-c4c(F)c(F)c(F)c(F)c4F)c4nc(c(-c5c(F)c(F)c(F)c(F)c5F)c5ccc2[nH]5)C=C4)C=C3)cc1
REMARK SMILES IDX 21 1 20 2 19 3 17 4 18 5 5 7 3 8 4 9 2 10 1 11 6 12 7 13
REMARK SMILES IDX 8 15 9 16 10 17 11 18 12 19 16 20 13 21 15 22 14 23 22 24
REMARK SMILES IDX 23 25 24 26 25 27 26 28 27 29 28 31 29 32 30 33 91 34 31 35
REMARK SMILES IDX 90 36 32 37 33 38 34 39 84 40 35 41 89 42 83 43 85 44 36 45
REMARK SMILES IDX 88 46 82 47 81 48 37 50 69 51 49 52 68 53 50 54 53 55 67 56
REMARK SMILES IDX 86 57 51 58 52 59 66 61 87 62 54 63 38 64 39 65 47 66 40 67
REMARK SMILES IDX 41 68 45 69 48 70 42 71 43 72 46 73 44 74 70 75 71 76 79 77
REMARK SMILES IDX 72 78 73 79 77 80 80 81 74 82 75 83 78 84 76 85 55 86 56 87
REMARK SMILES IDX 64 88 57 89 58 90 62 91 65 92 59 93 60 94 63 95 61 96
REMARK H PARENT 19 6 6 14 26 30 85 49 53 60
REMARK Flexibility Score: inf
ROOT
ATOM      1  C   UNL A   1      36.351  22.632  24.335  1.00  0.00     0.021 C 
ENDROOT
BRANCH   1   2
ATOM      2  C   UNL A   1      35.523  23.395  25.355  1.00  0.00     0.116 C 
BRANCH   2   3
ATOM      3  N   UNL A   1      35.074  22.515  26.416  1.00  0.00    -0.354 N 
ATOM      4  C   UNL A   1      33.845  21.957  26.618  1.00  0.00     0.245 C 
ATOM      5  O   UNL A   1      33.720  21.204  27.589  1.00  0.00    -0.273 OA
ATOM      6  H   UNL A   1      35.755  22.287  27.088  1.00  0.00     0.163 HD
BRANCH   4   7
ATOM      7  C   UNL A   1      32.641  22.340  25.726  1.00  0.00     0.203 C 
BRANCH   7   8
ATOM      8  C   UNL A   1      32.637  21.356  24.500  1.00  0.00     0.146 C 
ATOM      9  C   UNL A   1      32.807  22.061  23.150  1.00  0.00     0.041 C 
BRANCH   8  10
ATOM     10  O   UNL A   1      33.699  20.387  24.529  1.00  0.00    -0.379 OA
ATOM     11  C   UNL A   1      33.280  19.034  24.395  1.00  0.00     0.195 C 
ENDBRANCH   8  10
ENDBRANCH   7   8
BRANCH   7  12
ATOM     12  N   UNL A   1      31.377  22.302  26.495  1.00  0.00    -0.307 N 
ATOM     13  C   UNL A   1      30.615  23.351  26.916  1.00  0.00     0.408 C 
ATOM     14  H   UNL A   1      31.045  21.406  26.732  1.00  0.00     0.168 HD
ATOM     15  O   UNL A   1      29.619  23.156  27.604  1.00  0.00    -0.225 OA
BRANCH  13  16
ATOM     16  O   UNL A   1      31.122  24.558  26.598  1.00  0.00    -0.445 OA
BRANCH  16  17
ATOM     17  C   UNL A   1      30.325  25.391  25.746  1.00  0.00     0.270 C 
BRANCH  17  18
ATOM     18  C   UNL A   1      30.798  26.819  25.734  1.00  0.00    -0.011 A 
ATOM     19  C   UNL A   1      30.698  27.583  24.563  1.00  0.00     0.007 A 
ATOM     20  C   UNL A   1      31.413  27.386  26.858  1.00  0.00     0.007 A 
ATOM     21  C   UNL A   1      31.184  28.892  24.528  1.00  0.00     0.000 A 
ATOM     22  C   UNL A   1      31.894  28.691  26.824  1.00  0.00     0.000 A 
ATOM     23  C   UNL A   1      31.779  29.445  25.660  1.00  0.00     0.000 A 
ENDBRANCH  17  18
ENDBRANCH  16  17
ENDBRANCH  13  16
ENDBRANCH   7  12
ENDBRANCH   4   7
ENDBRANCH   2   3
ENDBRANCH   1   2
BRANCH   1  24
ATOM     24  C   UNL A   1      37.365  21.676  24.968  1.00  0.00     0.002 C 
BRANCH  24  25
ATOM     25  C   UNL A   1      37.033  20.190  24.797  1.00  0.00     0.002 C 
BRANCH  25  26
ATOM     26  C   UNL A   1      38.217  19.242  25.003  1.00  0.00     0.021 C 
BRANCH  26  27
ATOM     27  C   UNL A   1      39.370  19.841  25.798  1.00  0.00     0.116 C 
BRANCH  27  28
ATOM     28  N   UNL A   1      40.488  18.920  25.907  1.00  0.00    -0.352 N 
ATOM     29  C   UNL A   1      41.821  19.186  26.070  1.00  0.00     0.251 C 
ATOM     30  H   UNL A   1      40.253  17.965  25.854  1.00  0.00     0.163 HD
ATOM     31  O   UNL A   1      42.648  18.291  25.928  1.00  0.00    -0.269 OA
BRANCH  29  32
ATOM     32  C   UNL A   1      42.263  20.555  26.400  1.00  0.00     0.039 A 
ATOM     33  C   UNL A   1      42.601  21.416  25.355  1.00  0.00     0.014 A 
ATOM     34  C   UNL A   1      42.364  20.984  27.727  1.00  0.00     0.014 A 
ATOM     35  C   UNL A   1      43.001  22.721  25.640  1.00  0.00     0.010 A 
ATOM     36  C   UNL A   1      42.683  22.310  28.006  1.00  0.00     0.010 A 
ATOM     37  C   UNL A   1      43.016  23.189  26.965  1.00  0.00    -0.014 A 
BRANCH  37  38
ATOM     38  C   UNL A   1      43.376  24.599  27.261  1.00  0.00     0.031 A 
ATOM     39  C   UNL A   1      44.765  25.105  26.991  1.00  0.00     0.074 A 
ATOM     40  C   UNL A   1      42.451  25.414  27.801  1.00  0.00     0.049 A 
ATOM     41  N   UNL A   1      45.257  26.305  27.176  1.00  0.00    -0.248 NA
ATOM     42  C   UNL A   1      45.739  24.135  26.467  1.00  0.00     0.031 C 
ATOM     43  C   UNL A   1      41.086  25.021  28.160  1.00  0.00     0.029 A 
ATOM     44  N   UNL A   1      42.513  26.742  28.141  1.00  0.00    -0.354 N 
ATOM     45  C   UNL A   1      46.591  26.230  26.797  1.00  0.00     0.074 A 
ATOM     46  C   UNL A   1      46.850  24.856  26.429  1.00  0.00     0.031 C 
ATOM     47  C   UNL A   1      40.432  26.091  28.636  1.00  0.00     0.029 A 
ATOM     48  C   UNL A   1      41.338  27.234  28.654  1.00  0.00     0.049 A 
ATOM     49  H   UNL A   1      43.323  27.290  28.027  1.00  0.00     0.167 HD
ATOM     50  C   UNL A   1      47.510  27.225  26.737  1.00  0.00     0.037 A 
ATOM     51  C   UNL A   1      41.028  28.468  29.094  1.00  0.00     0.037 A 
ATOM     52  C   UNL A   1      47.241  28.594  27.091  1.00  0.00     0.049 A 
ATOM     53  C   UNL A   1      42.071  29.551  29.023  1.00  0.00     0.074 A 
ATOM     54  C   UNL A   1      48.085  29.688  27.008  1.00  0.00     0.029 A 
ATOM     55  N   UNL A   1      46.038  29.058  27.604  1.00  0.00    -0.354 N 
ATOM     56  N   UNL A   1      43.304  29.487  28.582  1.00  0.00    -0.248 NA
ATOM     57  C   UNL A   1      41.672  30.882  29.500  1.00  0.00     0.031 C 
ATOM     58  C   UNL A   1      47.416  30.798  27.532  1.00  0.00     0.029 A 
ATOM     59  C   UNL A   1      46.130  30.414  27.874  1.00  0.00     0.049 A 
ATOM     60  H   UNL A   1      45.238  28.504  27.755  1.00  0.00     0.167 HD
ATOM     61  C   UNL A   1      43.819  30.771  28.703  1.00  0.00     0.074 A 
ATOM     62  C   UNL A   1      42.755  31.597  29.232  1.00  0.00     0.031 C 
ATOM     63  C   UNL A   1      45.062  31.225  28.404  1.00  0.00     0.037 A 
BRANCH  50  64
ATOM     64  C   UNL A   1      48.895  26.870  26.273  1.00  0.00     0.064 A 
ATOM     65  C   UNL A   1      49.864  26.368  27.155  1.00  0.00     0.173 A 
ATOM     66  C   UNL A   1      49.241  26.985  24.918  1.00  0.00     0.173 A 
ATOM     67  F   UNL A   1      49.590  26.247  28.463  1.00  0.00    -0.203 F 
ATOM     68  C   UNL A   1      51.136  26.021  26.703  1.00  0.00     0.198 A 
ATOM     69  C   UNL A   1      50.503  26.606  24.464  1.00  0.00     0.198 A 
ATOM     70  F   UNL A   1      48.353  27.454  24.030  1.00  0.00    -0.203 F 
ATOM     71  F   UNL A   1      52.060  25.592  27.574  1.00  0.00    -0.200 F 
ATOM     72  C   UNL A   1      51.450  26.131  25.357  1.00  0.00     0.200 A 
ATOM     73  F   UNL A   1      50.799  26.698  23.160  1.00  0.00    -0.200 F 
ATOM     74  F   UNL A   1      52.670  25.786  24.922  1.00  0.00    -0.200 F 
ENDBRANCH  50  64
BRANCH  51  75
ATOM     75  C   UNL A   1      39.668  28.750  29.625  1.00  0.00     0.064 A 
ATOM     76  C   UNL A   1      38.650  29.235  28.792  1.00  0.00     0.173 A 
ATOM     77  C   UNL A   1      39.363  28.558  30.981  1.00  0.00     0.173 A 
ATOM     78  F   UNL A   1      38.897  29.453  27.491  1.00  0.00    -0.203 F 
ATOM     79  C   UNL A   1      37.390  29.546  29.299  1.00  0.00     0.198 A 
ATOM     80  C   UNL A   1      38.092  28.835  31.480  1.00  0.00     0.198 A 
ATOM     81  F   UNL A   1      40.297  28.090  31.821  1.00  0.00    -0.203 F 
ATOM     82  F   UNL A   1      36.454  30.064  28.491  1.00  0.00    -0.200 F 
ATOM     83  C   UNL A   1      37.110  29.341  30.641  1.00  0.00     0.200 A 
ATOM     84  F   UNL A   1      37.821  28.618  32.774  1.00  0.00    -0.200 F 
ATOM     85  F   UNL A   1      35.898  29.638  31.129  1.00  0.00    -0.200 F 
ENDBRANCH  51  75
BRANCH  63  86
ATOM     86  C   UNL A   1      45.324  32.690  28.610  1.00  0.00     0.064 A 
ATOM     87  C   UNL A   1      45.856  33.186  29.810  1.00  0.00     0.173 A 
ATOM     88  C   UNL A   1      45.054  33.611  27.585  1.00  0.00     0.173 A 
ATOM     89  F   UNL A   1      46.121  32.351  30.827  1.00  0.00    -0.203 F 
ATOM     90  C   UNL A   1      46.067  34.550  29.992  1.00  0.00     0.198 A 
ATOM     91  C   UNL A   1      45.303  34.970  27.756  1.00  0.00     0.198 A 
ATOM     92  F   UNL A   1      44.555  33.192  26.413  1.00  0.00    -0.203 F 
ATOM     93  F   UNL A   1      46.511  35.007  31.171  1.00  0.00    -0.200 F 
ATOM     94  C   UNL A   1      45.797  35.440  28.963  1.00  0.00     0.200 A 
ATOM     95  F   UNL A   1      45.060  35.825  26.753  1.00  0.00    -0.200 F 
ATOM     96  F   UNL A   1      46.002  36.753  29.139  1.00  0.00    -0.200 F 
ENDBRANCH  63  86
ENDBRANCH  37  38
ENDBRANCH  29  32
ENDBRANCH  27  28
ENDBRANCH  26  27
ENDBRANCH  25  26
ENDBRANCH  24  25
ENDBRANCH   1  24
TORSDOF 19
ENDMDL
MODEL 3
REMARK VINA RESULT:     -11.0      5.630      9.969
REMARK SMILES CO[C@H](C)[C@@H](NC(=O)OCc1ccccc1)C(=O)NCCCCCCNC(=O)c1ccc(-c2c3nc(c(-c4c(F)c(F)c(F)c(F)c4F)c4ccc([nH]4)c(-c4c(F)c(F)c(F)c(F)c4F)c4nc(c(-c5c(F)c(F)c(F)c(F)c5F)c5ccc2[nH]5)C=C4)C=C3)cc1
REMARK SMILES IDX 21 1 20 2 19 3 17 4 18 5 5 7 3 8 4 9 2 10 1 11 6 12 7 13
REMARK SMILES IDX 8 15 9 16 10 17 11 18 12 19 16 20 13 21 15 22 14 23 22 24
REMARK SMILES IDX 23 25 24 26 25 27 26 28 27 29 28 31 29 32 30 33 91 34 31 35
REMARK SMILES IDX 90 36 32 37 33 38 34 39 84 40 35 41 89 42 83 43 85 44 36 45
REMARK SMILES IDX 88 46 82 47 81 48 37 50 69 51 49 52 68 53 50 54 53 55 67 56
REMARK SMILES IDX 86 57 51 58 52 59 66 61 87 62 54 63 38 64 39 65 47 66 40 67
REMARK SMILES IDX 41 68 45 69 48 70 42 71 43 72 46 73 44 74 70 75 71 76 79 77
REMARK SMILES IDX 72 78 73 79 77 80 80 81 74 82 75 83 78 84 76 85 55 86 56 87
REMARK SMILES IDX 64 88 57 89 58 90 62 91 65 92 59 93 60 94 63 95 61 96
REMARK H PARENT 19 6 6 14 26 30 85 49 53 60
REMARK Flexibility Score: inf
ROOT
ATOM      1  C   UNL A   1      33.673  29.591  27.053  1.00  0.00     0.021 C 
ENDROOT
BRANCH   1   2
ATOM      2  C   UNL A   1      33.962  28.473  26.064  1.00  0.00     0.116 C 
BRANCH   2   3
ATOM      3  N   UNL A   1      34.055  28.992  24.714  1.00  0.00    -0.354 N 
ATOM      4  C   UNL A   1      33.409  28.585  23.582  1.00  0.00     0.245 C 
ATOM      5  O   UNL A   1      33.633  29.217  22.546  1.00  0.00    -0.273 OA
ATOM      6  H   UNL A   1      34.675  29.747  24.596  1.00  0.00     0.163 HD
BRANCH   4   7
ATOM      7  C   UNL A   1      32.516  27.321  23.587  1.00  0.00     0.203 C 
BRANCH   7   8
ATOM      8  C   UNL A   1      31.146  27.720  24.246  1.00  0.00     0.146 C 
ATOM      9  C   UNL A   1      30.425  28.860  23.517  1.00  0.00     0.041 C 
BRANCH   8  10
ATOM     10  O   UNL A   1      30.182  26.654  24.273  1.00  0.00    -0.379 OA
ATOM     11  C   UNL A   1      28.939  26.952  23.647  1.00  0.00     0.195 C 
ENDBRANCH   8  10
ENDBRANCH   7   8
BRANCH   7  12
ATOM     12  N   UNL A   1      32.358  26.780  22.219  1.00  0.00    -0.307 N 
ATOM     13  C   UNL A   1      33.115  25.833  21.595  1.00  0.00     0.408 C 
ATOM     14  H   UNL A   1      31.611  27.149  21.694  1.00  0.00     0.168 HD
ATOM     15  O   UNL A   1      32.893  25.533  20.427  1.00  0.00    -0.225 OA
BRANCH  13  16
ATOM     16  O   UNL A   1      34.144  25.380  22.337  1.00  0.00    -0.445 OA
BRANCH  16  17
ATOM     17  C   UNL A   1      33.941  24.145  23.037  1.00  0.00     0.270 C 
BRANCH  17  18
ATOM     18  C   UNL A   1      35.138  23.749  23.859  1.00  0.00    -0.011 A 
ATOM     19  C   UNL A   1      36.044  22.797  23.369  1.00  0.00     0.007 A 
ATOM     20  C   UNL A   1      35.329  24.258  25.150  1.00  0.00     0.007 A 
ATOM     21  C   UNL A   1      37.127  22.385  24.148  1.00  0.00     0.000 A 
ATOM     22  C   UNL A   1      36.410  23.850  25.925  1.00  0.00     0.000 A 
ATOM     23  C   UNL A   1      37.309  22.913  25.425  1.00  0.00     0.000 A 
ENDBRANCH  17  18
ENDBRANCH  16  17
ENDBRANCH  13  16
ENDBRANCH   7  12
ENDBRANCH   4   7
ENDBRANCH   2   3
ENDBRANCH   1   2
BRANCH   1  24
ATOM     24  C   UNL A   1      32.180  29.887  27.216  1.00  0.00     0.002 C 
BRANCH  24  25
ATOM     25  C   UNL A   1      31.621  30.913  26.224  1.00  0.00     0.002 C 
BRANCH  25  26
ATOM     26  C   UNL A   1      31.442  32.321  26.794  1.00  0.00     0.021 C 
BRANCH  26  27
ATOM     27  C   UNL A   1      32.743  33.019  27.167  1.00  0.00     0.116 C 
BRANCH  27  28
ATOM     28  N   UNL A   1      32.510  34.342  27.720  1.00  0.00    -0.352 N 
ATOM     29  C   UNL A   1      33.095  34.949  28.798  1.00  0.00     0.251 C 
ATOM     30  H   UNL A   1      31.830  34.879  27.252  1.00  0.00     0.163 HD
ATOM     31  O   UNL A   1      32.622  35.987  29.250  1.00  0.00    -0.269 OA
BRANCH  29  32
ATOM     32  C   UNL A   1      34.285  34.344  29.428  1.00  0.00     0.039 A 
ATOM     33  C   UNL A   1      34.100  33.470  30.500  1.00  0.00     0.014 A 
ATOM     34  C   UNL A   1      35.575  34.648  28.980  1.00  0.00     0.014 A 
ATOM     35  C   UNL A   1      35.208  32.869  31.097  1.00  0.00     0.010 A 
ATOM     36  C   UNL A   1      36.672  33.984  29.522  1.00  0.00     0.010 A 
ATOM     37  C   UNL A   1      36.500  33.097  30.595  1.00  0.00    -0.014 A 
BRANCH  37  38
ATOM     38  C   UNL A   1      37.671  32.403  31.188  1.00  0.00     0.031 A 
ATOM     39  C   UNL A   1      38.174  32.784  32.552  1.00  0.00     0.074 A 
ATOM     40  C   UNL A   1      38.297  31.445  30.478  1.00  0.00     0.049 A 
ATOM     41  N   UNL A   1      39.174  32.282  33.234  1.00  0.00    -0.248 NA
ATOM     42  C   UNL A   1      37.480  33.887  33.235  1.00  0.00     0.031 C 
ATOM     43  C   UNL A   1      37.936  31.029  29.121  1.00  0.00     0.029 A 
ATOM     44  N   UNL A   1      39.365  30.645  30.796  1.00  0.00    -0.354 N 
ATOM     45  C   UNL A   1      39.230  33.009  34.415  1.00  0.00     0.074 A 
ATOM     46  C   UNL A   1      38.205  34.026  34.335  1.00  0.00     0.031 C 
ATOM     47  C   UNL A   1      38.744  30.029  28.738  1.00  0.00     0.029 A 
ATOM     48  C   UNL A   1      39.705  29.760  29.803  1.00  0.00     0.049 A 
ATOM     49  H   UNL A   1      39.843  30.701  31.656  1.00  0.00     0.167 HD
ATOM     50  C   UNL A   1      40.047  32.827  35.481  1.00  0.00     0.037 A 
ATOM     51  C   UNL A   1      40.685  28.838  29.755  1.00  0.00     0.037 A 
ATOM     52  C   UNL A   1      41.056  31.803  35.560  1.00  0.00     0.049 A 
ATOM     53  C   UNL A   1      41.583  28.664  30.950  1.00  0.00     0.074 A 
ATOM     54  C   UNL A   1      41.893  31.498  36.618  1.00  0.00     0.029 A 
ATOM     55  N   UNL A   1      41.371  30.922  34.536  1.00  0.00    -0.354 N 
ATOM     56  N   UNL A   1      41.571  29.302  32.096  1.00  0.00    -0.248 NA
ATOM     57  C   UNL A   1      42.623  27.633  30.849  1.00  0.00     0.031 C 
ATOM     58  C   UNL A   1      42.759  30.477  36.211  1.00  0.00     0.029 A 
ATOM     59  C   UNL A   1      42.413  30.095  34.926  1.00  0.00     0.049 A 
ATOM     60  H   UNL A   1      40.921  30.890  33.660  1.00  0.00     0.167 HD
ATOM     61  C   UNL A   1      42.580  28.732  32.860  1.00  0.00     0.074 A 
ATOM     62  C   UNL A   1      43.164  27.679  32.057  1.00  0.00     0.031 C 
ATOM     63  C   UNL A   1      42.987  29.051  34.114  1.00  0.00     0.037 A 
BRANCH  50  64
ATOM     64  C   UNL A   1      39.887  33.758  36.651  1.00  0.00     0.064 A 
ATOM     65  C   UNL A   1      40.552  34.992  36.711  1.00  0.00     0.173 A 
ATOM     66  C   UNL A   1      39.016  33.433  37.703  1.00  0.00     0.173 A 
ATOM     67  F   UNL A   1      41.404  35.349  35.738  1.00  0.00    -0.203 F 
ATOM     68  C   UNL A   1      40.373  35.853  37.792  1.00  0.00     0.198 A 
ATOM     69  C   UNL A   1      38.814  34.311  38.765  1.00  0.00     0.198 A 
ATOM     70  F   UNL A   1      38.351  32.269  37.695  1.00  0.00    -0.203 F 
ATOM     71  F   UNL A   1      41.058  37.004  37.850  1.00  0.00    -0.200 F 
ATOM     72  C   UNL A   1      39.497  35.516  38.812  1.00  0.00     0.200 A 
ATOM     73  F   UNL A   1      37.955  33.990  39.742  1.00  0.00    -0.200 F 
ATOM     74  F   UNL A   1      39.316  36.351  39.845  1.00  0.00    -0.200 F 
ENDBRANCH  50  64
BRANCH  51  75
ATOM     75  C   UNL A   1      40.860  27.999  28.540  1.00  0.00     0.064 A 
ATOM     76  C   UNL A   1      41.657  28.429  27.469  1.00  0.00     0.173 A 
ATOM     77  C   UNL A   1      40.219  26.757  28.415  1.00  0.00     0.173 A 
ATOM     78  F   UNL A   1      42.277  29.618  27.532  1.00  0.00    -0.203 F 
ATOM     79  C   UNL A   1      41.782  27.666  26.310  1.00  0.00     0.198 A 
ATOM     80  C   UNL A   1      40.374  25.978  27.270  1.00  0.00     0.198 A 
ATOM     81  F   UNL A   1      39.450  26.294  29.410  1.00  0.00    -0.203 F 
ATOM     82  F   UNL A   1      42.503  28.130  25.280  1.00  0.00    -0.200 F 
ATOM     83  C   UNL A   1      41.145  26.439  26.214  1.00  0.00     0.200 A 
ATOM     84  F   UNL A   1      39.771  24.784  27.189  1.00  0.00    -0.200 F 
ATOM     85  F   UNL A   1      41.266  25.704  25.100  1.00  0.00    -0.200 F 
ENDBRANCH  51  75
BRANCH  63  86
ATOM     86  C   UNL A   1      44.096  28.228  34.705  1.00  0.00     0.064 A 
ATOM     87  C   UNL A   1      45.443  28.603  34.584  1.00  0.00     0.173 A 
ATOM     88  C   UNL A   1      43.806  27.053  35.417  1.00  0.00     0.173 A 
ATOM     89  F   UNL A   1      45.777  29.710  33.904  1.00  0.00    -0.203 F 
ATOM     90  C   UNL A   1      46.459  27.812  35.116  1.00  0.00     0.198 A 
ATOM     91  C   UNL A   1      44.821  26.285  35.982  1.00  0.00     0.198 A 
ATOM     92  F   UNL A   1      42.536  26.652  35.573  1.00  0.00    -0.203 F 
ATOM     93  F   UNL A   1      47.741  28.155  34.929  1.00  0.00    -0.200 F 
ATOM     94  C   UNL A   1      46.147  26.658  35.820  1.00  0.00     0.200 A 
ATOM     95  F   UNL A   1      44.516  25.182  36.678  1.00  0.00    -0.200 F 
ATOM     96  F   UNL A   1      47.125  25.899  36.333  1.00  0.00    -0.200 F 
ENDBRANCH  63  86
ENDBRANCH  37  38
ENDBRANCH  29  32
ENDBRANCH  27  28
ENDBRANCH  26  27
ENDBRANCH  25  26
ENDBRANCH  24  25
ENDBRANCH   1  24
TORSDOF 19
ENDMDL
