MODEL 1
REMARK VINA RESULT:     -11.6      0.000      0.000
REMARK SMILES C[C@@H](O)C[C@H](C(=O)NCCCCCCNC(=O)c1ccc(-c2c3nc(c(-c4c(F)c(F)c(F)c(F)c4F)c4ccc([nH]4)c(-c4c(F)c(F)c(F)c(F)c4F)c4nc(c(-c5c(F)c(F)c(F)c(F)c5F)c5ccc2[nH]5)C=C4)C=C3)cc1)c1ccc(Br)cc1
REMARK SMILES IDX 11 1 10 2 9 3 8 4 6 5 7 6 5 8 4 9 2 10 1 11 3 12 81 14 82 15
REMARK SMILES IDX 87 16 83 17 86 18 84 19 85 20 12 21 13 22 14 23 15 24 16 25
REMARK SMILES IDX 17 27 18 28 19 29 80 30 20 31 79 32 21 33 22 34 23 35 73 36
REMARK SMILES IDX 24 37 78 38 72 39 74 40 25 41 77 42 71 43 70 44 26 46 58 47
REMARK SMILES IDX 38 48 57 49 39 50 42 51 56 52 75 53 40 54 41 55 55 57 76 58
REMARK SMILES IDX 43 59 27 60 28 61 36 62 29 63 30 64 34 65 37 66 31 67 32 68
REMARK SMILES IDX 35 69 33 70 59 71 60 72 68 73 61 74 62 75 66 76 69 77 63 78
REMARK SMILES IDX 64 79 67 80 65 81 44 82 45 83 53 84 46 85 47 86 51 87 54 88
REMARK SMILES IDX 48 89 49 90 52 91 50 92
REMARK H PARENT 8 7 3 13 15 26 74 45 42 56
REMARK Flexibility Score: inf
ROOT
ATOM      1  C   UNL A   1      32.457  29.908  26.849  1.00  0.00     0.002 C 
ENDROOT
BRANCH   1   2
ATOM      2  C   UNL A   1      31.805  28.614  27.351  1.00  0.00     0.021 C 
BRANCH   2   3
ATOM      3  C   UNL A   1      32.467  27.338  26.846  1.00  0.00     0.116 C 
BRANCH   3   4
ATOM      4  N   UNL A   1      31.515  26.274  26.578  1.00  0.00    -0.356 N 
ATOM      5  C   UNL A   1      31.178  25.656  25.409  1.00  0.00     0.227 C 
ATOM      6  O   UNL A   1      30.496  24.630  25.496  1.00  0.00    -0.274 OA
ATOM      7  H   UNL A   1      31.033  25.945  27.371  1.00  0.00     0.163 HD
BRANCH   5   8
ATOM      8  C   UNL A   1      31.574  26.213  24.029  1.00  0.00     0.111 C 
BRANCH   8   9
ATOM      9  C   UNL A   1      31.770  25.017  23.060  1.00  0.00     0.049 C 
BRANCH   9  10
ATOM     10  C   UNL A   1      33.199  24.612  22.686  1.00  0.00     0.112 C 
ATOM     11  C   UNL A   1      33.309  23.239  22.040  1.00  0.00     0.038 C 
BRANCH  10  12
ATOM     12  O   UNL A   1      33.673  25.587  21.748  1.00  0.00    -0.393 OA
ATOM     13  H   UNL A   1      32.949  26.184  21.508  1.00  0.00     0.210 HD
ENDBRANCH  10  12
ENDBRANCH   9  10
ENDBRANCH   8   9
BRANCH   8  14
ATOM     14  C   UNL A   1      30.710  27.366  23.508  1.00  0.00    -0.035 A 
ATOM     15  C   UNL A   1      31.322  28.495  22.939  1.00  0.00     0.006 A 
ATOM     16  C   UNL A   1      29.309  27.381  23.590  1.00  0.00     0.006 A 
ATOM     17  C   UNL A   1      30.571  29.513  22.341  1.00  0.00     0.016 A 
ATOM     18  C   UNL A   1      28.548  28.381  22.974  1.00  0.00     0.016 A 
ATOM     19  C   UNL A   1      29.184  29.431  22.329  1.00  0.00     0.017 A 
ATOM     20  Br  UNL A   1      28.165  30.756  21.454  1.00  0.00    -0.051 Br
ENDBRANCH   8  14
ENDBRANCH   5   8
ENDBRANCH   3   4
ENDBRANCH   2   3
ENDBRANCH   1   2
BRANCH   1  21
ATOM     21  C   UNL A   1      31.573  30.809  25.979  1.00  0.00     0.002 C 
BRANCH  21  22
ATOM     22  C   UNL A   1      31.337  32.223  26.514  1.00  0.00     0.021 C 
BRANCH  22  23
ATOM     23  C   UNL A   1      32.493  32.816  27.310  1.00  0.00     0.116 C 
BRANCH  23  24
ATOM     24  N   UNL A   1      32.290  34.217  27.634  1.00  0.00    -0.352 N 
ATOM     25  C   UNL A   1      32.939  35.001  28.553  1.00  0.00     0.251 C 
ATOM     26  H   UNL A   1      31.583  34.670  27.119  1.00  0.00     0.163 HD
ATOM     27  O   UNL A   1      32.533  36.134  28.795  1.00  0.00    -0.269 OA
BRANCH  25  28
ATOM     28  C   UNL A   1      34.115  34.473  29.276  1.00  0.00     0.039 A 
ATOM     29  C   UNL A   1      33.918  33.855  30.514  1.00  0.00     0.014 A 
ATOM     30  C   UNL A   1      35.402  34.582  28.742  1.00  0.00     0.014 A 
ATOM     31  C   UNL A   1      35.004  33.295  31.187  1.00  0.00     0.010 A 
ATOM     32  C   UNL A   1      36.470  33.954  29.376  1.00  0.00     0.010 A 
ATOM     33  C   UNL A   1      36.284  33.307  30.608  1.00  0.00    -0.014 A 
BRANCH  33  34
ATOM     34  C   UNL A   1      37.434  32.645  31.274  1.00  0.00     0.031 A 
ATOM     35  C   UNL A   1      38.143  31.502  30.604  1.00  0.00     0.074 A 
ATOM     36  C   UNL A   1      37.802  33.039  32.509  1.00  0.00     0.049 A 
ATOM     37  N   UNL A   1      39.129  30.764  31.051  1.00  0.00    -0.248 NA
ATOM     38  C   UNL A   1      37.666  31.119  29.266  1.00  0.00     0.031 C 
ATOM     39  C   UNL A   1      37.162  34.103  33.283  1.00  0.00     0.029 A 
ATOM     40  N   UNL A   1      38.798  32.581  33.336  1.00  0.00    -0.354 N 
ATOM     41  C   UNL A   1      39.377  29.824  30.058  1.00  0.00     0.074 A 
ATOM     42  C   UNL A   1      38.406  30.049  29.010  1.00  0.00     0.031 C 
ATOM     43  C   UNL A   1      37.794  34.232  34.460  1.00  0.00     0.029 A 
ATOM     44  C   UNL A   1      38.854  33.233  34.544  1.00  0.00     0.049 A 
ATOM     45  H   UNL A   1      39.413  31.854  33.088  1.00  0.00     0.167 HD
ATOM     46  C   UNL A   1      40.343  28.876  30.016  1.00  0.00     0.037 A 
ATOM     47  C   UNL A   1      39.662  33.040  35.604  1.00  0.00     0.037 A 
ATOM     48  C   UNL A   1      41.321  28.670  31.053  1.00  0.00     0.049 A 
ATOM     49  C   UNL A   1      40.721  31.973  35.534  1.00  0.00     0.074 A 
ATOM     50  C   UNL A   1      42.380  27.779  31.075  1.00  0.00     0.029 A 
ATOM     51  N   UNL A   1      41.354  29.360  32.257  1.00  0.00    -0.354 N 
ATOM     52  N   UNL A   1      40.995  31.141  34.560  1.00  0.00    -0.248 NA
ATOM     53  C   UNL A   1      41.587  31.823  36.711  1.00  0.00     0.031 C 
ATOM     54  C   UNL A   1      43.015  27.886  32.315  1.00  0.00     0.029 A 
ATOM     55  C   UNL A   1      42.397  28.891  33.041  1.00  0.00     0.049 A 
ATOM     56  H   UNL A   1      40.729  30.075  32.515  1.00  0.00     0.167 HD
ATOM     57  C   UNL A   1      42.080  30.390  34.991  1.00  0.00     0.074 A 
ATOM     58  C   UNL A   1      42.425  30.878  36.310  1.00  0.00     0.031 C 
ATOM     59  C   UNL A   1      42.733  29.388  34.351  1.00  0.00     0.037 A 
BRANCH  46  60
ATOM     60  C   UNL A   1      40.390  27.981  28.810  1.00  0.00     0.064 A 
ATOM     61  C   UNL A   1      41.123  28.323  27.662  1.00  0.00     0.173 A 
ATOM     62  C   UNL A   1      39.730  26.742  28.817  1.00  0.00     0.173 A 
ATOM     63  F   UNL A   1      41.765  29.500  27.597  1.00  0.00    -0.203 F 
ATOM     64  C   UNL A   1      41.168  27.475  26.559  1.00  0.00     0.198 A 
ATOM     65  C   UNL A   1      39.806  25.881  27.726  1.00  0.00     0.198 A 
ATOM     66  F   UNL A   1      39.021  26.361  29.890  1.00  0.00    -0.203 F 
ATOM     67  F   UNL A   1      41.832  27.847  25.456  1.00  0.00    -0.200 F 
ATOM     68  C   UNL A   1      40.517  26.252  26.595  1.00  0.00     0.200 A 
ATOM     69  F   UNL A   1      39.188  24.692  27.769  1.00  0.00    -0.200 F 
ATOM     70  F   UNL A   1      40.570  25.431  25.537  1.00  0.00    -0.200 F 
ENDBRANCH  46  60
BRANCH  47  71
ATOM     71  C   UNL A   1      39.511  33.889  36.816  1.00  0.00     0.064 A 
ATOM     72  C   UNL A   1      38.748  33.457  37.909  1.00  0.00     0.173 A 
ATOM     73  C   UNL A   1      40.124  35.148  36.905  1.00  0.00     0.173 A 
ATOM     74  F   UNL A   1      38.127  32.270  37.864  1.00  0.00    -0.203 F 
ATOM     75  C   UNL A   1      38.585  34.261  39.036  1.00  0.00     0.198 A 
ATOM     76  C   UNL A   1      39.985  35.937  38.045  1.00  0.00     0.198 A 
ATOM     77  F   UNL A   1      40.870  35.606  35.889  1.00  0.00    -0.203 F 
ATOM     78  F   UNL A   1      37.809  33.844  40.046  1.00  0.00    -0.200 F 
ATOM     79  C   UNL A   1      39.209  35.497  39.106  1.00  0.00     0.200 A 
ATOM     80  F   UNL A   1      40.605  37.123  38.114  1.00  0.00    -0.200 F 
ATOM     81  F   UNL A   1      39.055  36.267  40.191  1.00  0.00    -0.200 F 
ENDBRANCH  47  71
BRANCH  59  82
ATOM     82  C   UNL A   1      43.912  28.774  35.051  1.00  0.00     0.064 A 
ATOM     83  C   UNL A   1      43.767  27.698  35.940  1.00  0.00     0.173 A 
ATOM     84  C   UNL A   1      45.210  29.244  34.797  1.00  0.00     0.173 A 
ATOM     85  F   UNL A   1      42.548  27.220  36.228  1.00  0.00    -0.203 F 
ATOM     86  C   UNL A   1      44.875  27.135  36.568  1.00  0.00     0.198 A 
ATOM     87  C   UNL A   1      46.318  28.656  35.401  1.00  0.00     0.198 A 
ATOM     88  F   UNL A   1      45.405  30.266  33.950  1.00  0.00    -0.203 F 
ATOM     89  F   UNL A   1      44.707  26.143  37.453  1.00  0.00    -0.200 F 
ATOM     90  C   UNL A   1      46.148  27.609  36.292  1.00  0.00     0.200 A 
ATOM     91  F   UNL A   1      47.548  29.104  35.118  1.00  0.00    -0.200 F 
ATOM     92  F   UNL A   1      47.214  27.059  36.891  1.00  0.00    -0.200 F 
ENDBRANCH  59  82
ENDBRANCH  33  34
ENDBRANCH  25  28
ENDBRANCH  23  24
ENDBRANCH  22  23
ENDBRANCH  21  22
ENDBRANCH   1  21
TORSDOF 17
ENDMDL
MODEL 2
REMARK VINA RESULT:     -11.6      1.764      3.067
REMARK SMILES C[C@@H](O)C[C@H](C(=O)NCCCCCCNC(=O)c1ccc(-c2c3nc(c(-c4c(F)c(F)c(F)c(F)c4F)c4ccc([nH]4)c(-c4c(F)c(F)c(F)c(F)c4F)c4nc(c(-c5c(F)c(F)c(F)c(F)c5F)c5ccc2[nH]5)C=C4)C=C3)cc1)c1ccc(Br)cc1
REMARK SMILES IDX 11 1 10 2 9 3 8 4 6 5 7 6 5 8 4 9 2 10 1 11 3 12 81 14 82 15
REMARK SMILES IDX 87 16 83 17 86 18 84 19 85 20 12 21 13 22 14 23 15 24 16 25
REMARK SMILES IDX 17 27 18 28 19 29 80 30 20 31 79 32 21 33 22 34 23 35 73 36
REMARK SMILES IDX 24 37 78 38 72 39 74 40 25 41 77 42 71 43 70 44 26 46 58 47
REMARK SMILES IDX 38 48 57 49 39 50 42 51 56 52 75 53 40 54 41 55 55 57 76 58
REMARK SMILES IDX 43 59 27 60 28 61 36 62 29 63 30 64 34 65 37 66 31 67 32 68
REMARK SMILES IDX 35 69 33 70 59 71 60 72 68 73 61 74 62 75 66 76 69 77 63 78
REMARK SMILES IDX 64 79 67 80 65 81 44 82 45 83 53 84 46 85 47 86 51 87 54 88
REMARK SMILES IDX 48 89 49 90 52 91 50 92
REMARK H PARENT 8 7 3 13 15 26 74 45 42 56
REMARK Flexibility Score: inf
ROOT
ATOM      1  C   UNL A   1      32.119  29.830  27.238  1.00  0.00     0.002 C 
ENDROOT
BRANCH   1   2
ATOM      2  C   UNL A   1      32.471  28.408  26.787  1.00  0.00     0.021 C 
BRANCH   2   3
ATOM      3  C   UNL A   1      33.947  28.194  26.477  1.00  0.00     0.116 C 
BRANCH   3   4
ATOM      4  N   UNL A   1      34.296  28.543  25.111  1.00  0.00    -0.356 N 
ATOM      5  C   UNL A   1      33.878  28.015  23.923  1.00  0.00     0.227 C 
ATOM      6  O   UNL A   1      34.164  28.645  22.900  1.00  0.00    -0.274 OA
ATOM      7  H   UNL A   1      34.940  29.283  25.027  1.00  0.00     0.163 HD
BRANCH   5   8
ATOM      8  C   UNL A   1      33.125  26.675  23.828  1.00  0.00     0.111 C 
BRANCH   8   9
ATOM      9  C   UNL A   1      32.290  26.678  22.520  1.00  0.00     0.049 C 
BRANCH   9  10
ATOM     10  C   UNL A   1      30.799  27.015  22.611  1.00  0.00     0.112 C 
ATOM     11  C   UNL A   1      30.311  27.308  24.021  1.00  0.00     0.038 C 
BRANCH  10  12
ATOM     12  O   UNL A   1      30.590  28.186  21.812  1.00  0.00    -0.393 OA
ATOM     13  H   UNL A   1      30.640  27.951  20.873  1.00  0.00     0.210 HD
ENDBRANCH  10  12
ENDBRANCH   9  10
ENDBRANCH   8   9
BRANCH   8  14
ATOM     14  C   UNL A   1      33.970  25.422  24.084  1.00  0.00    -0.035 A 
ATOM     15  C   UNL A   1      34.101  24.452  23.077  1.00  0.00     0.006 A 
ATOM     16  C   UNL A   1      34.615  25.160  25.302  1.00  0.00     0.006 A 
ATOM     17  C   UNL A   1      34.958  23.355  23.223  1.00  0.00     0.016 A 
ATOM     18  C   UNL A   1      35.495  24.081  25.450  1.00  0.00     0.016 A 
ATOM     19  C   UNL A   1      35.682  23.197  24.398  1.00  0.00     0.017 A 
ATOM     20  Br  UNL A   1      36.903  21.768  24.574  1.00  0.00    -0.051 Br
ENDBRANCH   8  14
ENDBRANCH   5   8
ENDBRANCH   3   4
ENDBRANCH   2   3
ENDBRANCH   1   2
BRANCH   1  21
ATOM     21  C   UNL A   1      31.595  30.769  26.145  1.00  0.00     0.002 C 
BRANCH  21  22
ATOM     22  C   UNL A   1      31.412  32.232  26.556  1.00  0.00     0.021 C 
BRANCH  22  23
ATOM     23  C   UNL A   1      32.584  32.842  27.316  1.00  0.00     0.116 C 
BRANCH  23  24
ATOM     24  N   UNL A   1      32.364  34.236  27.658  1.00  0.00    -0.352 N 
ATOM     25  C   UNL A   1      32.991  35.011  28.600  1.00  0.00     0.251 C 
ATOM     26  H   UNL A   1      31.662  34.692  27.138  1.00  0.00     0.163 HD
ATOM     27  O   UNL A   1      32.572  36.137  28.852  1.00  0.00    -0.269 OA
BRANCH  25  28
ATOM     28  C   UNL A   1      34.159  34.481  29.334  1.00  0.00     0.039 A 
ATOM     29  C   UNL A   1      33.945  33.815  30.543  1.00  0.00     0.014 A 
ATOM     30  C   UNL A   1      35.457  34.634  28.837  1.00  0.00     0.014 A 
ATOM     31  C   UNL A   1      35.025  33.253  31.224  1.00  0.00     0.010 A 
ATOM     32  C   UNL A   1      36.522  34.006  29.476  1.00  0.00     0.010 A 
ATOM     33  C   UNL A   1      36.318  33.312  30.679  1.00  0.00    -0.014 A 
BRANCH  33  34
ATOM     34  C   UNL A   1      37.465  32.650  31.351  1.00  0.00     0.031 A 
ATOM     35  C   UNL A   1      38.172  31.500  30.688  1.00  0.00     0.074 A 
ATOM     36  C   UNL A   1      37.832  33.049  32.584  1.00  0.00     0.049 A 
ATOM     37  N   UNL A   1      39.154  30.761  31.141  1.00  0.00    -0.248 NA
ATOM     38  C   UNL A   1      37.695  31.111  29.352  1.00  0.00     0.031 C 
ATOM     39  C   UNL A   1      37.195  34.120  33.351  1.00  0.00     0.029 A 
ATOM     40  N   UNL A   1      38.826  32.592  33.415  1.00  0.00    -0.354 N 
ATOM     41  C   UNL A   1      39.400  29.815  30.154  1.00  0.00     0.074 A 
ATOM     42  C   UNL A   1      38.432  30.038  29.103  1.00  0.00     0.031 C 
ATOM     43  C   UNL A   1      37.825  34.253  34.528  1.00  0.00     0.029 A 
ATOM     44  C   UNL A   1      38.882  33.251  34.619  1.00  0.00     0.049 A 
ATOM     45  H   UNL A   1      39.438  31.862  33.172  1.00  0.00     0.167 HD
ATOM     46  C   UNL A   1      40.363  28.863  30.119  1.00  0.00     0.037 A 
ATOM     47  C   UNL A   1      39.688  33.062  35.682  1.00  0.00     0.037 A 
ATOM     48  C   UNL A   1      41.338  28.659  31.158  1.00  0.00     0.049 A 
ATOM     49  C   UNL A   1      40.742  31.990  35.620  1.00  0.00     0.074 A 
ATOM     50  C   UNL A   1      42.394  27.765  31.187  1.00  0.00     0.029 A 
ATOM     51  N   UNL A   1      41.372  29.356  32.358  1.00  0.00    -0.354 N 
ATOM     52  N   UNL A   1      41.015  31.152  34.651  1.00  0.00    -0.248 NA
ATOM     53  C   UNL A   1      41.607  31.844  36.799  1.00  0.00     0.031 C 
ATOM     54  C   UNL A   1      43.028  27.877  32.428  1.00  0.00     0.029 A 
ATOM     55  C   UNL A   1      42.412  28.888  33.147  1.00  0.00     0.049 A 
ATOM     56  H   UNL A   1      40.749  30.075  32.611  1.00  0.00     0.167 HD
ATOM     57  C   UNL A   1      42.097  30.399  35.088  1.00  0.00     0.074 A 
ATOM     58  C   UNL A   1      42.442  30.893  36.404  1.00  0.00     0.031 C 
ATOM     59  C   UNL A   1      42.747  29.392  34.455  1.00  0.00     0.037 A 
BRANCH  46  60
ATOM     60  C   UNL A   1      40.409  27.961  28.918  1.00  0.00     0.064 A 
ATOM     61  C   UNL A   1      39.696  26.752  28.872  1.00  0.00     0.173 A 
ATOM     62  C   UNL A   1      41.140  28.331  27.779  1.00  0.00     0.173 A 
ATOM     63  F   UNL A   1      38.989  26.345  29.937  1.00  0.00    -0.203 F 
ATOM     64  C   UNL A   1      39.738  25.936  27.745  1.00  0.00     0.198 A 
ATOM     65  C   UNL A   1      41.152  27.529  26.640  1.00  0.00     0.198 A 
ATOM     66  F   UNL A   1      41.835  29.478  27.764  1.00  0.00    -0.203 F 
ATOM     67  F   UNL A   1      39.091  24.762  27.745  1.00  0.00    -0.200 F 
ATOM     68  C   UNL A   1      40.459  26.328  26.628  1.00  0.00     0.200 A 
ATOM     69  F   UNL A   1      41.837  27.918  25.556  1.00  0.00    -0.200 F 
ATOM     70  F   UNL A   1      40.489  25.547  25.539  1.00  0.00    -0.200 F 
ENDBRANCH  46  60
BRANCH  47  71
ATOM     71  C   UNL A   1      39.538  33.918  36.889  1.00  0.00     0.064 A 
ATOM     72  C   UNL A   1      40.159  35.172  36.966  1.00  0.00     0.173 A 
ATOM     73  C   UNL A   1      38.773  33.500  37.988  1.00  0.00     0.173 A 
ATOM     74  F   UNL A   1      40.917  35.607  35.949  1.00  0.00    -0.203 F 
ATOM     75  C   UNL A   1      40.040  35.966  38.105  1.00  0.00     0.198 A 
ATOM     76  C   UNL A   1      38.629  34.308  39.114  1.00  0.00     0.198 A 
ATOM     77  F   UNL A   1      38.152  32.312  37.963  1.00  0.00    -0.203 F 
ATOM     78  F   UNL A   1      40.686  37.138  38.173  1.00  0.00    -0.200 F 
ATOM     79  C   UNL A   1      39.270  35.536  39.175  1.00  0.00     0.200 A 
ATOM     80  F   UNL A   1      37.870  33.897  40.138  1.00  0.00    -0.200 F 
ATOM     81  F   UNL A   1      39.152  36.302  40.269  1.00  0.00    -0.200 F 
ENDBRANCH  47  71
BRANCH  59  82
ATOM     82  C   UNL A   1      43.923  28.777  35.160  1.00  0.00     0.064 A 
ATOM     83  C   UNL A   1      43.783  27.661  35.998  1.00  0.00     0.173 A 
ATOM     84  C   UNL A   1      45.215  29.290  34.962  1.00  0.00     0.173 A 
ATOM     85  F   UNL A   1      42.569  27.141  36.233  1.00  0.00    -0.203 F 
ATOM     86  C   UNL A   1      44.888  27.099  36.632  1.00  0.00     0.198 A 
ATOM     87  C   UNL A   1      46.322  28.703  35.570  1.00  0.00     0.198 A 
ATOM     88  F   UNL A   1      45.406  30.351  34.164  1.00  0.00    -0.203 F 
ATOM     89  F   UNL A   1      44.723  26.066  37.470  1.00  0.00    -0.200 F 
ATOM     90  C   UNL A   1      46.156  27.615  36.411  1.00  0.00     0.200 A 
ATOM     91  F   UNL A   1      47.547  29.194  35.340  1.00  0.00    -0.200 F 
ATOM     92  F   UNL A   1      47.219  27.067  37.016  1.00  0.00    -0.200 F 
ENDBRANCH  59  82
ENDBRANCH  33  34
ENDBRANCH  25  28
ENDBRANCH  23  24
ENDBRANCH  22  23
ENDBRANCH  21  22
ENDBRANCH   1  21
TORSDOF 17
ENDMDL
MODEL 3
REMARK VINA RESULT:     -11.4      5.714     11.017
REMARK SMILES C[C@@H](O)C[C@H](C(=O)NCCCCCCNC(=O)c1ccc(-c2c3nc(c(-c4c(F)c(F)c(F)c(F)c4F)c4ccc([nH]4)c(-c4c(F)c(F)c(F)c(F)c4F)c4nc(c(-c5c(F)c(F)c(F)c(F)c5F)c5ccc2[nH]5)C=C4)C=C3)cc1)c1ccc(Br)cc1
REMARK SMILES IDX 11 1 10 2 9 3 8 4 6 5 7 6 5 8 4 9 2 10 1 11 3 12 81 14 82 15
REMARK SMILES IDX 87 16 83 17 86 18 84 19 85 20 12 21 13 22 14 23 15 24 16 25
REMARK SMILES IDX 17 27 18 28 19 29 80 30 20 31 79 32 21 33 22 34 23 35 73 36
REMARK SMILES IDX 24 37 78 38 72 39 74 40 25 41 77 42 71 43 70 44 26 46 58 47
REMARK SMILES IDX 38 48 57 49 39 50 42 51 56 52 75 53 40 54 41 55 55 57 76 58
REMARK SMILES IDX 43 59 27 60 28 61 36 62 29 63 30 64 34 65 37 66 31 67 32 68
REMARK SMILES IDX 35 69 33 70 59 71 60 72 68 73 61 74 62 75 66 76 69 77 63 78
REMARK SMILES IDX 64 79 67 80 65 81 44 82 45 83 53 84 46 85 47 86 51 87 54 88
REMARK SMILES IDX 48 89 49 90 52 91 50 92
REMARK H PARENT 8 7 3 13 15 26 74 45 42 56
REMARK Flexibility Score: inf
ROOT
ATOM      1  C   UNL A   1      36.363  21.616  25.742  1.00  0.00     0.002 C 
ENDROOT
BRANCH   1   2
ATOM      2  C   UNL A   1      36.106  23.128  25.754  1.00  0.00     0.021 C 
BRANCH   2   3
ATOM      3  C   UNL A   1      34.718  23.534  25.274  1.00  0.00     0.116 C 
BRANCH   3   4
ATOM      4  N   UNL A   1      33.719  23.489  26.326  1.00  0.00    -0.356 N 
ATOM      5  C   UNL A   1      32.531  24.151  26.455  1.00  0.00     0.227 C 
ATOM      6  O   UNL A   1      31.769  23.762  27.346  1.00  0.00    -0.274 OA
ATOM      7  H   UNL A   1      33.933  22.881  27.071  1.00  0.00     0.163 HD
BRANCH   5   8
ATOM      8  C   UNL A   1      32.152  25.357  25.577  1.00  0.00     0.111 C 
BRANCH   8   9
ATOM      9  C   UNL A   1      30.696  25.157  25.077  1.00  0.00     0.049 C 
BRANCH   9  10
ATOM     10  C   UNL A   1      30.422  25.269  23.575  1.00  0.00     0.112 C 
ATOM     11  C   UNL A   1      31.619  25.727  22.755  1.00  0.00     0.038 C 
BRANCH  10  12
ATOM     12  O   UNL A   1      30.044  23.962  23.124  1.00  0.00    -0.393 OA
ATOM     13  H   UNL A   1      29.904  23.979  22.165  1.00  0.00     0.210 HD
ENDBRANCH  10  12
ENDBRANCH   9  10
ENDBRANCH   8   9
BRANCH   8  14
ATOM     14  C   UNL A   1      32.477  26.734  26.167  1.00  0.00    -0.035 A 
ATOM     15  C   UNL A   1      33.775  27.256  26.045  1.00  0.00     0.006 A 
ATOM     16  C   UNL A   1      31.544  27.515  26.866  1.00  0.00     0.006 A 
ATOM     17  C   UNL A   1      34.084  28.557  26.460  1.00  0.00     0.016 A 
ATOM     18  C   UNL A   1      31.834  28.826  27.262  1.00  0.00     0.016 A 
ATOM     19  C   UNL A   1      33.098  29.350  27.033  1.00  0.00     0.017 A 
ATOM     20  Br  UNL A   1      33.481  31.133  27.521  1.00  0.00    -0.051 Br
ENDBRANCH   8  14
ENDBRANCH   5   8
ENDBRANCH   3   4
ENDBRANCH   2   3
ENDBRANCH   1   2
BRANCH   1  21
ATOM     21  C   UNL A   1      37.253  21.099  24.606  1.00  0.00     0.002 C 
BRANCH  21  22
ATOM     22  C   UNL A   1      38.106  19.871  24.937  1.00  0.00     0.021 C 
BRANCH  22  23
ATOM     23  C   UNL A   1      39.191  20.099  25.982  1.00  0.00     0.116 C 
BRANCH  23  24
ATOM     24  N   UNL A   1      40.234  19.090  25.935  1.00  0.00    -0.352 N 
ATOM     25  C   UNL A   1      41.595  19.239  26.032  1.00  0.00     0.251 C 
ATOM     26  H   UNL A   1      39.920  18.164  25.817  1.00  0.00     0.163 HD
ATOM     27  O   UNL A   1      42.337  18.283  25.823  1.00  0.00    -0.269 OA
BRANCH  25  28
ATOM     28  C   UNL A   1      42.172  20.559  26.360  1.00  0.00     0.039 A 
ATOM     29  C   UNL A   1      42.574  21.394  25.315  1.00  0.00     0.014 A 
ATOM     30  C   UNL A   1      42.317  20.975  27.687  1.00  0.00     0.014 A 
ATOM     31  C   UNL A   1      43.065  22.668  25.598  1.00  0.00     0.010 A 
ATOM     32  C   UNL A   1      42.733  22.274  27.964  1.00  0.00     0.010 A 
ATOM     33  C   UNL A   1      43.115  23.134  26.922  1.00  0.00    -0.014 A 
BRANCH  33  34
ATOM     34  C   UNL A   1      43.560  24.516  27.233  1.00  0.00     0.031 A 
ATOM     35  C   UNL A   1      42.576  25.535  27.735  1.00  0.00     0.074 A 
ATOM     36  C   UNL A   1      44.841  24.867  27.008  1.00  0.00     0.049 A 
ATOM     37  N   UNL A   1      42.763  26.802  28.007  1.00  0.00    -0.248 NA
ATOM     38  C   UNL A   1      41.192  25.077  27.934  1.00  0.00     0.031 C 
ATOM     39  C   UNL A   1      45.880  23.983  26.478  1.00  0.00     0.029 A 
ATOM     40  N   UNL A   1      45.487  26.067  27.186  1.00  0.00    -0.354 N 
ATOM     41  C   UNL A   1      41.522  27.293  28.393  1.00  0.00     0.074 A 
ATOM     42  C   UNL A   1      40.579  26.204  28.268  1.00  0.00     0.031 C 
ATOM     43  C   UNL A   1      47.035  24.661  26.395  1.00  0.00     0.029 A 
ATOM     44  C   UNL A   1      46.811  26.038  26.824  1.00  0.00     0.049 A 
ATOM     45  H   UNL A   1      45.042  26.870  27.540  1.00  0.00     0.167 HD
ATOM     46  C   UNL A   1      41.204  28.534  28.832  1.00  0.00     0.037 A 
ATOM     47  C   UNL A   1      47.739  27.014  26.827  1.00  0.00     0.037 A 
ATOM     48  C   UNL A   1      42.152  29.609  28.974  1.00  0.00     0.049 A 
ATOM     49  C   UNL A   1      47.357  28.387  27.311  1.00  0.00     0.074 A 
ATOM     50  C   UNL A   1      41.942  30.883  29.473  1.00  0.00     0.029 A 
ATOM     51  N   UNL A   1      43.489  29.539  28.609  1.00  0.00    -0.354 N 
ATOM     52  N   UNL A   1      46.198  28.819  27.745  1.00  0.00    -0.248 NA
ATOM     53  C   UNL A   1      48.415  29.406  27.314  1.00  0.00     0.031 C 
ATOM     54  C   UNL A   1      43.134  31.602  29.352  1.00  0.00     0.029 A 
ATOM     55  C   UNL A   1      44.107  30.758  28.843  1.00  0.00     0.049 A 
ATOM     56  H   UNL A   1      43.932  28.741  28.240  1.00  0.00     0.167 HD
ATOM     57  C   UNL A   1      46.393  30.148  28.098  1.00  0.00     0.074 A 
ATOM     58  C   UNL A   1      47.787  30.445  27.844  1.00  0.00     0.031 C 
ATOM     59  C   UNL A   1      45.498  31.040  28.590  1.00  0.00     0.037 A 
BRANCH  46  60
ATOM     60  C   UNL A   1      39.770  28.802  29.189  1.00  0.00     0.064 A 
ATOM     61  C   UNL A   1      39.279  28.599  30.489  1.00  0.00     0.173 A 
ATOM     62  C   UNL A   1      38.882  29.313  28.229  1.00  0.00     0.173 A 
ATOM     63  F   UNL A   1      40.082  28.103  31.443  1.00  0.00    -0.203 F 
ATOM     64  C   UNL A   1      37.950  28.867  30.805  1.00  0.00     0.198 A 
ATOM     65  C   UNL A   1      37.563  29.612  28.558  1.00  0.00     0.198 A 
ATOM     66  F   UNL A   1      39.298  29.533  26.973  1.00  0.00    -0.203 F 
ATOM     67  F   UNL A   1      37.493  28.616  32.040  1.00  0.00    -0.200 F 
ATOM     68  C   UNL A   1      37.096  29.381  29.843  1.00  0.00     0.200 A 
ATOM     69  F   UNL A   1      36.742  30.124  27.630  1.00  0.00    -0.200 F 
ATOM     70  F   UNL A   1      35.819  29.649  30.152  1.00  0.00    -0.200 F 
ENDBRANCH  46  60
BRANCH  47  71
ATOM     71  C   UNL A   1      49.124  26.723  26.371  1.00  0.00     0.064 A 
ATOM     72  C   UNL A   1      50.079  26.195  27.251  1.00  0.00     0.173 A 
ATOM     73  C   UNL A   1      49.523  26.968  25.048  1.00  0.00     0.173 A 
ATOM     74  F   UNL A   1      49.752  25.961  28.531  1.00  0.00    -0.203 F 
ATOM     75  C   UNL A   1      51.384  25.944  26.833  1.00  0.00     0.198 A 
ATOM     76  C   UNL A   1      50.819  26.687  24.623  1.00  0.00     0.198 A 
ATOM     77  F   UNL A   1      48.646  27.467  24.164  1.00  0.00    -0.203 F 
ATOM     78  F   UNL A   1      52.289  25.486  27.708  1.00  0.00    -0.200 F 
ATOM     79  C   UNL A   1      51.751  26.184  25.517  1.00  0.00     0.200 A 
ATOM     80  F   UNL A   1      51.164  26.904  23.347  1.00  0.00    -0.200 F 
ATOM     81  F   UNL A   1      53.005  25.938  25.114  1.00  0.00    -0.200 F 
ENDBRANCH  47  71
BRANCH  59  82
ATOM     82  C   UNL A   1      46.004  32.415  28.922  1.00  0.00     0.064 A 
ATOM     83  C   UNL A   1      46.550  32.718  30.178  1.00  0.00     0.173 A 
ATOM     84  C   UNL A   1      45.978  33.432  27.956  1.00  0.00     0.173 A 
ATOM     85  F   UNL A   1      46.587  31.786  31.142  1.00  0.00    -0.203 F 
ATOM     86  C   UNL A   1      47.025  33.996  30.462  1.00  0.00     0.198 A 
ATOM     87  C   UNL A   1      46.486  34.699  28.232  1.00  0.00     0.198 A 
ATOM     88  F   UNL A   1      45.472  33.193  26.736  1.00  0.00    -0.203 F 
ATOM     89  F   UNL A   1      47.495  34.277  31.686  1.00  0.00    -0.200 F 
ATOM     90  C   UNL A   1      47.001  34.981  29.487  1.00  0.00     0.200 A 
ATOM     91  F   UNL A   1      46.477  35.643  27.282  1.00  0.00    -0.200 F 
ATOM     92  F   UNL A   1      47.468  36.208  29.759  1.00  0.00    -0.200 F 
ENDBRANCH  59  82
ENDBRANCH  33  34
ENDBRANCH  25  28
ENDBRANCH  23  24
ENDBRANCH  22  23
ENDBRANCH  21  22
ENDBRANCH   1  21
TORSDOF 17
ENDMDL
