MODEL 1
REMARK VINA RESULT:     -11.5      0.000      0.000
REMARK SMILES CC[C@](C)(NC(=O)NC[C@@H](C)[NH+](C)C)C(=O)NCCCCCCNC(=O)c1ccc(-c2c3nc(c(-c4c(F)c(F)c(F)c(F)c4F)c4ccc([nH]4)c(-c4c(F)c(F)c(F)c(F)c4F)c4nc(c(-c5c(F)c(F)c(F)c(F)c5F)c5ccc2[nH]5)C=C4)C=C3)cc1
REMARK SMILES IDX 19 1 18 2 17 3 15 4 16 5 3 7 4 8 2 9 1 10 5 11 6 12 7 14
REMARK SMILES IDX 8 15 9 17 10 18 11 19 12 20 13 21 14 22 20 24 21 25 22 26
REMARK SMILES IDX 23 27 24 28 25 29 26 31 27 32 28 33 89 34 29 35 88 36 30 37
REMARK SMILES IDX 31 38 32 39 82 40 33 41 87 42 81 43 83 44 34 45 86 46 80 47
REMARK SMILES IDX 79 48 35 50 67 51 47 52 66 53 48 54 51 55 65 56 84 57 49 58
REMARK SMILES IDX 50 59 64 61 85 62 52 63 36 64 37 65 45 66 38 67 39 68 43 69
REMARK SMILES IDX 46 70 40 71 41 72 44 73 42 74 68 75 69 76 77 77 70 78 71 79
REMARK SMILES IDX 75 80 78 81 72 82 73 83 76 84 74 85 53 86 54 87 62 88 55 89
REMARK SMILES IDX 56 90 60 91 63 92 57 93 58 94 61 95 59 96
REMARK H PARENT 17 6 5 13 8 16 12 23 24 30 83 49 51 60
REMARK Flexibility Score: inf
ROOT
ATOM      1  C   UNL A   1      32.946  28.206  26.849  1.00  0.00     0.021 C 
ENDROOT
BRANCH   1   2
ATOM      2  C   UNL A   1      32.227  26.921  26.413  1.00  0.00     0.116 C 
BRANCH   2   3
ATOM      3  N   UNL A   1      32.906  25.956  25.559  1.00  0.00    -0.354 N 
ATOM      4  C   UNL A   1      32.476  25.134  24.547  1.00  0.00     0.245 C 
ATOM      5  O   UNL A   1      33.316  24.800  23.702  1.00  0.00    -0.272 OA
ATOM      6  H   UNL A   1      33.869  25.877  25.745  1.00  0.00     0.163 HD
BRANCH   4   7
ATOM      7  C   UNL A   1      30.985  24.767  24.351  1.00  0.00     0.117 C 
ATOM      8  C   UNL A   1      30.728  23.598  23.381  1.00  0.00     0.045 C 
BRANCH   7   9
ATOM      9  C   UNL A   1      30.318  26.050  23.745  1.00  0.00     0.035 C 
ATOM     10  C   UNL A   1      28.921  26.373  24.282  1.00  0.00     0.007 C 
ENDBRANCH   7   9
BRANCH   7  11
ATOM     11  N   UNL A   1      30.378  24.427  25.649  1.00  0.00    -0.324 N 
ATOM     12  C   UNL A   1      30.415  23.363  26.459  1.00  0.00     0.315 C 
ATOM     13  H   UNL A   1      29.813  25.152  26.003  1.00  0.00     0.166 HD
ATOM     14  O   UNL A   1      29.587  23.344  27.378  1.00  0.00    -0.249 OA
ATOM     15  N   UNL A   1      31.285  22.350  26.416  1.00  0.00    -0.332 N 
ATOM     16  H   UNL A   1      31.164  21.751  27.189  1.00  0.00     0.165 HD
BRANCH  15  17
ATOM     17  C   UNL A   1      32.373  21.869  25.552  1.00  0.00     0.182 C 
BRANCH  17  18
ATOM     18  C   UNL A   1      33.781  21.823  26.228  1.00  0.00     0.200 C 
ATOM     19  C   UNL A   1      33.687  21.949  27.754  1.00  0.00     0.077 C 
BRANCH  18  20
ATOM     20  N   UNL A   1      34.607  20.690  25.768  1.00  0.00    -0.336 N 
ATOM     21  C   UNL A   1      33.875  19.687  25.000  1.00  0.00     0.332 C 
ATOM     22  C   UNL A   1      35.854  21.050  25.115  1.00  0.00     0.332 C 
ATOM     23  H   UNL A   1      34.874  20.253  26.650  1.00  0.00     0.347 HD
ENDBRANCH  18  20
ENDBRANCH  17  18
ENDBRANCH  15  17
ENDBRANCH   7  11
ENDBRANCH   4   7
ENDBRANCH   2   3
ENDBRANCH   1   2
BRANCH   1  24
ATOM     24  C   UNL A   1      32.139  29.437  27.262  1.00  0.00     0.002 C 
BRANCH  24  25
ATOM     25  C   UNL A   1      32.038  30.548  26.222  1.00  0.00     0.002 C 
BRANCH  25  26
ATOM     26  C   UNL A   1      31.625  31.900  26.797  1.00  0.00     0.021 C 
BRANCH  26  27
ATOM     27  C   UNL A   1      32.777  32.719  27.365  1.00  0.00     0.116 C 
BRANCH  27  28
ATOM     28  N   UNL A   1      32.420  34.107  27.618  1.00  0.00    -0.352 N 
ATOM     29  C   UNL A   1      32.952  34.960  28.558  1.00  0.00     0.251 C 
ATOM     30  H   UNL A   1      31.712  34.482  27.046  1.00  0.00     0.163 HD
ATOM     31  O   UNL A   1      32.473  36.063  28.757  1.00  0.00    -0.269 OA
BRANCH  29  32
ATOM     32  C   UNL A   1      34.101  34.487  29.359  1.00  0.00     0.039 A 
ATOM     33  C   UNL A   1      33.862  33.913  30.607  1.00  0.00     0.014 A 
ATOM     34  C   UNL A   1      35.396  34.548  28.836  1.00  0.00     0.014 A 
ATOM     35  C   UNL A   1      34.921  33.333  31.305  1.00  0.00     0.010 A 
ATOM     36  C   UNL A   1      36.434  33.901  29.496  1.00  0.00     0.010 A 
ATOM     37  C   UNL A   1      36.206  33.287  30.738  1.00  0.00    -0.014 A 
BRANCH  37  38
ATOM     38  C   UNL A   1      37.313  32.584  31.431  1.00  0.00     0.031 A 
ATOM     39  C   UNL A   1      38.025  31.443  30.764  1.00  0.00     0.074 A 
ATOM     40  C   UNL A   1      37.644  32.949  32.684  1.00  0.00     0.049 A 
ATOM     41  N   UNL A   1      39.033  30.729  31.199  1.00  0.00    -0.248 NA
ATOM     42  C   UNL A   1      37.522  31.027  29.445  1.00  0.00     0.031 C 
ATOM     43  C   UNL A   1      36.977  33.993  33.465  1.00  0.00     0.029 A 
ATOM     44  N   UNL A   1      38.628  32.488  33.521  1.00  0.00    -0.354 N 
ATOM     45  C   UNL A   1      39.275  29.779  30.216  1.00  0.00     0.074 A 
ATOM     46  C   UNL A   1      38.270  29.965  29.192  1.00  0.00     0.031 C 
ATOM     47  C   UNL A   1      37.600  34.125  34.646  1.00  0.00     0.029 A 
ATOM     48  C   UNL A   1      38.691  33.159  34.718  1.00  0.00     0.049 A 
ATOM     49  H   UNL A   1      39.233  31.747  33.286  1.00  0.00     0.167 HD
ATOM     50  C   UNL A   1      40.263  28.854  30.159  1.00  0.00     0.037 A 
ATOM     51  C   UNL A   1      39.542  33.016  35.751  1.00  0.00     0.037 A 
ATOM     52  C   UNL A   1      41.272  28.690  31.172  1.00  0.00     0.049 A 
ATOM     53  C   UNL A   1      40.639  31.991  35.659  1.00  0.00     0.074 A 
ATOM     54  C   UNL A   1      42.365  27.841  31.174  1.00  0.00     0.029 A 
ATOM     55  N   UNL A   1      41.305  29.386  32.373  1.00  0.00    -0.354 N 
ATOM     56  N   UNL A   1      40.922  31.167  34.679  1.00  0.00    -0.248 NA
ATOM     57  C   UNL A   1      41.538  31.883  36.814  1.00  0.00     0.031 C 
ATOM     58  C   UNL A   1      43.027  27.984  32.399  1.00  0.00     0.029 A 
ATOM     59  C   UNL A   1      42.381  28.962  33.138  1.00  0.00     0.049 A 
ATOM     60  H   UNL A   1      40.659  30.079  32.642  1.00  0.00     0.167 HD
ATOM     61  C   UNL A   1      42.044  30.460  35.088  1.00  0.00     0.074 A 
ATOM     62  C   UNL A   1      42.403  30.971  36.395  1.00  0.00     0.031 C 
ATOM     63  C   UNL A   1      42.716  29.474  34.442  1.00  0.00     0.037 A 
BRANCH  50  64
ATOM     64  C   UNL A   1      40.292  27.947  28.962  1.00  0.00     0.064 A 
ATOM     65  C   UNL A   1      41.029  28.268  27.811  1.00  0.00     0.173 A 
ATOM     66  C   UNL A   1      39.589  26.734  28.970  1.00  0.00     0.173 A 
ATOM     67  F   UNL A   1      41.711  29.422  27.743  1.00  0.00    -0.203 F 
ATOM     68  C   UNL A   1      41.027  27.428  26.699  1.00  0.00     0.198 A 
ATOM     69  C   UNL A   1      39.617  25.880  27.870  1.00  0.00     0.198 A 
ATOM     70  F   UNL A   1      38.873  26.374  30.046  1.00  0.00    -0.203 F 
ATOM     71  F   UNL A   1      41.689  27.786  25.590  1.00  0.00    -0.200 F 
ATOM     72  C   UNL A   1      40.327  26.232  26.732  1.00  0.00     0.200 A 
ATOM     73  F   UNL A   1      38.949  24.718  27.909  1.00  0.00    -0.200 F 
ATOM     74  F   UNL A   1      40.328  25.423  25.664  1.00  0.00    -0.200 F 
ENDBRANCH  50  64
BRANCH  51  75
ATOM     75  C   UNL A   1      39.425  33.905  36.937  1.00  0.00     0.064 A 
ATOM     76  C   UNL A   1      40.029  35.171  36.945  1.00  0.00     0.173 A 
ATOM     77  C   UNL A   1      38.710  33.515  38.078  1.00  0.00     0.173 A 
ATOM     78  F   UNL A   1      40.741  35.580  35.885  1.00  0.00    -0.203 F 
ATOM     79  C   UNL A   1      39.938  36.004  38.058  1.00  0.00     0.198 A 
ATOM     80  C   UNL A   1      38.595  34.362  39.178  1.00  0.00     0.198 A 
ATOM     81  F   UNL A   1      38.109  32.317  38.117  1.00  0.00    -0.203 F 
ATOM     82  F   UNL A   1      40.560  37.192  38.055  1.00  0.00    -0.200 F 
ATOM     83  C   UNL A   1      39.216  35.603  39.171  1.00  0.00     0.200 A 
ATOM     84  F   UNL A   1      37.885  33.977  40.247  1.00  0.00    -0.200 F 
ATOM     85  F   UNL A   1      39.122  36.408  40.237  1.00  0.00    -0.200 F 
ENDBRANCH  51  75
BRANCH  63  86
ATOM     86  C   UNL A   1      43.917  28.899  35.140  1.00  0.00     0.064 A 
ATOM     87  C   UNL A   1      45.202  29.427  34.946  1.00  0.00     0.173 A 
ATOM     88  C   UNL A   1      43.778  27.816  36.020  1.00  0.00     0.173 A 
ATOM     89  F   UNL A   1      45.390  30.454  34.103  1.00  0.00    -0.203 F 
ATOM     90  C   UNL A   1      46.309  28.865  35.577  1.00  0.00     0.198 A 
ATOM     91  C   UNL A   1      44.882  27.279  36.676  1.00  0.00     0.198 A 
ATOM     92  F   UNL A   1      42.570  27.278  36.247  1.00  0.00    -0.203 F 
ATOM     93  F   UNL A   1      47.534  29.346  35.327  1.00  0.00    -0.200 F 
ATOM     94  C   UNL A   1      46.147  27.797  36.445  1.00  0.00     0.200 A 
ATOM     95  F   UNL A   1      44.722  26.256  37.526  1.00  0.00    -0.200 F 
ATOM     96  F   UNL A   1      47.214  27.257  37.051  1.00  0.00    -0.200 F 
ENDBRANCH  63  86
ENDBRANCH  37  38
ENDBRANCH  29  32
ENDBRANCH  27  28
ENDBRANCH  26  27
ENDBRANCH  25  26
ENDBRANCH  24  25
ENDBRANCH   1  24
TORSDOF 18
ENDMDL
MODEL 2
REMARK VINA RESULT:     -11.4      5.559      9.987
REMARK SMILES CC[C@](C)(NC(=O)NC[C@@H](C)[NH+](C)C)C(=O)NCCCCCCNC(=O)c1ccc(-c2c3nc(c(-c4c(F)c(F)c(F)c(F)c4F)c4ccc([nH]4)c(-c4c(F)c(F)c(F)c(F)c4F)c4nc(c(-c5c(F)c(F)c(F)c(F)c5F)c5ccc2[nH]5)C=C4)C=C3)cc1
REMARK SMILES IDX 19 1 18 2 17 3 15 4 16 5 3 7 4 8 2 9 1 10 5 11 6 12 7 14
REMARK SMILES IDX 8 15 9 17 10 18 11 19 12 20 13 21 14 22 20 24 21 25 22 26
REMARK SMILES IDX 23 27 24 28 25 29 26 31 27 32 28 33 89 34 29 35 88 36 30 37
REMARK SMILES IDX 31 38 32 39 82 40 33 41 87 42 81 43 83 44 34 45 86 46 80 47
REMARK SMILES IDX 79 48 35 50 67 51 47 52 66 53 48 54 51 55 65 56 84 57 49 58
REMARK SMILES IDX 50 59 64 61 85 62 52 63 36 64 37 65 45 66 38 67 39 68 43 69
REMARK SMILES IDX 46 70 40 71 41 72 44 73 42 74 68 75 69 76 77 77 70 78 71 79
REMARK SMILES IDX 75 80 78 81 72 82 73 83 76 84 74 85 53 86 54 87 62 88 55 89
REMARK SMILES IDX 56 90 60 91 63 92 57 93 58 94 61 95 59 96
REMARK H PARENT 17 6 5 13 8 16 12 23 24 30 83 49 51 60
REMARK Flexibility Score: inf
ROOT
ATOM      1  C   UNL A   1      37.099  23.680  25.523  1.00  0.00     0.021 C 
ENDROOT
BRANCH   1   2
ATOM      2  C   UNL A   1      35.839  23.675  24.645  1.00  0.00     0.116 C 
BRANCH   2   3
ATOM      3  N   UNL A   1      34.650  24.404  25.065  1.00  0.00    -0.354 N 
ATOM      4  C   UNL A   1      33.606  24.093  25.901  1.00  0.00     0.245 C 
ATOM      5  O   UNL A   1      33.020  25.040  26.440  1.00  0.00    -0.272 OA
ATOM      6  H   UNL A   1      34.581  25.303  24.671  1.00  0.00     0.163 HD
BRANCH   4   7
ATOM      7  C   UNL A   1      33.268  22.637  26.301  1.00  0.00     0.117 C 
ATOM      8  C   UNL A   1      34.296  21.965  27.232  1.00  0.00     0.045 C 
BRANCH   7   9
ATOM      9  C   UNL A   1      33.242  21.833  24.955  1.00  0.00     0.035 C 
ATOM     10  C   UNL A   1      33.899  20.451  25.011  1.00  0.00     0.007 C 
ENDBRANCH   7   9
BRANCH   7  11
ATOM     11  N   UNL A   1      31.953  22.591  26.962  1.00  0.00    -0.324 N 
ATOM     12  C   UNL A   1      30.726  23.028  26.655  1.00  0.00     0.315 C 
ATOM     13  H   UNL A   1      31.984  22.131  27.833  1.00  0.00     0.166 HD
ATOM     14  O   UNL A   1      29.892  23.006  27.568  1.00  0.00    -0.249 OA
ATOM     15  N   UNL A   1      30.292  23.430  25.457  1.00  0.00    -0.332 N 
ATOM     16  H   UNL A   1      29.322  23.598  25.475  1.00  0.00     0.165 HD
BRANCH  15  17
ATOM     17  C   UNL A   1      30.841  23.694  24.120  1.00  0.00     0.182 C 
BRANCH  17  18
ATOM     18  C   UNL A   1      30.584  25.136  23.574  1.00  0.00     0.200 C 
ATOM     19  C   UNL A   1      29.882  26.023  24.611  1.00  0.00     0.077 C 
BRANCH  18  20
ATOM     20  N   UNL A   1      31.784  25.750  22.973  1.00  0.00    -0.336 N 
ATOM     21  C   UNL A   1      32.577  24.839  22.153  1.00  0.00     0.332 C 
ATOM     22  C   UNL A   1      31.565  27.017  22.296  1.00  0.00     0.332 C 
ATOM     23  H   UNL A   1      32.343  25.972  23.797  1.00  0.00     0.347 HD
ENDBRANCH  18  20
ENDBRANCH  17  18
ENDBRANCH  15  17
ENDBRANCH   7  11
ENDBRANCH   4   7
ENDBRANCH   2   3
ENDBRANCH   1   2
BRANCH   1  24
ATOM     24  C   UNL A   1      37.907  22.397  25.716  1.00  0.00     0.002 C 
BRANCH  24  25
ATOM     25  C   UNL A   1      37.464  21.198  24.884  1.00  0.00     0.002 C 
BRANCH  25  26
ATOM     26  C   UNL A   1      38.368  19.976  25.026  1.00  0.00     0.021 C 
BRANCH  26  27
ATOM     27  C   UNL A   1      39.547  20.173  25.968  1.00  0.00     0.116 C 
BRANCH  27  28
ATOM     28  N   UNL A   1      40.524  19.096  25.894  1.00  0.00    -0.352 N 
ATOM     29  C   UNL A   1      41.887  19.177  26.060  1.00  0.00     0.251 C 
ATOM     30  H   UNL A   1      40.163  18.200  25.703  1.00  0.00     0.163 HD
ATOM     31  O   UNL A   1      42.611  18.220  25.843  1.00  0.00    -0.269 OA
BRANCH  29  32
ATOM     32  C   UNL A   1      42.465  20.474  26.471  1.00  0.00     0.039 A 
ATOM     33  C   UNL A   1      42.995  21.315  25.493  1.00  0.00     0.014 A 
ATOM     34  C   UNL A   1      42.408  20.878  27.808  1.00  0.00     0.014 A 
ATOM     35  C   UNL A   1      43.408  22.599  25.849  1.00  0.00     0.010 A 
ATOM     36  C   UNL A   1      42.747  22.184  28.145  1.00  0.00     0.010 A 
ATOM     37  C   UNL A   1      43.251  23.057  27.169  1.00  0.00    -0.014 A 
BRANCH  37  38
ATOM     38  C   UNL A   1      43.596  24.453  27.530  1.00  0.00     0.031 A 
ATOM     39  C   UNL A   1      45.025  24.913  27.513  1.00  0.00     0.074 A 
ATOM     40  C   UNL A   1      42.619  25.294  27.919  1.00  0.00     0.049 A 
ATOM     41  N   UNL A   1      45.516  26.101  27.766  1.00  0.00    -0.248 NA
ATOM     42  C   UNL A   1      46.044  23.900  27.196  1.00  0.00     0.031 C 
ATOM     43  C   UNL A   1      41.202  24.943  28.049  1.00  0.00     0.029 A 
ATOM     44  N   UNL A   1      42.664  26.619  28.272  1.00  0.00    -0.354 N 
ATOM     45  C   UNL A   1      46.893  25.973  27.650  1.00  0.00     0.074 A 
ATOM     46  C   UNL A   1      47.166  24.581  27.366  1.00  0.00     0.031 C 
ATOM     47  C   UNL A   1      40.509  26.035  28.404  1.00  0.00     0.029 A 
ATOM     48  C   UNL A   1      41.432  27.155  28.556  1.00  0.00     0.049 A 
ATOM     49  H   UNL A   1      43.501  27.137  28.316  1.00  0.00     0.167 HD
ATOM     50  C   UNL A   1      47.841  26.935  27.744  1.00  0.00     0.037 A 
ATOM     51  C   UNL A   1      41.087  28.413  28.890  1.00  0.00     0.037 A 
ATOM     52  C   UNL A   1      47.559  28.323  28.005  1.00  0.00     0.049 A 
ATOM     53  C   UNL A   1      42.157  29.466  28.975  1.00  0.00     0.074 A 
ATOM     54  C   UNL A   1      48.437  29.391  28.038  1.00  0.00     0.029 A 
ATOM     55  N   UNL A   1      46.300  28.831  28.290  1.00  0.00    -0.354 N 
ATOM     56  N   UNL A   1      43.446  29.357  28.761  1.00  0.00    -0.248 NA
ATOM     57  C   UNL A   1      41.722  30.820  29.340  1.00  0.00     0.031 C 
ATOM     58  C   UNL A   1      47.717  30.537  28.397  1.00  0.00     0.029 A 
ATOM     59  C   UNL A   1      46.381  30.193  28.532  1.00  0.00     0.049 A 
ATOM     60  H   UNL A   1      45.469  28.301  28.316  1.00  0.00     0.167 HD
ATOM     61  C   UNL A   1      43.973  30.629  28.943  1.00  0.00     0.074 A 
ATOM     62  C   UNL A   1      42.857  31.498  29.259  1.00  0.00     0.031 C 
ATOM     63  C   UNL A   1      45.262  31.040  28.857  1.00  0.00     0.037 A 
BRANCH  50  64
ATOM     64  C   UNL A   1      49.273  26.514  27.567  1.00  0.00     0.064 A 
ATOM     65  C   UNL A   1      49.822  26.282  26.295  1.00  0.00     0.173 A 
ATOM     66  C   UNL A   1      50.111  26.356  28.679  1.00  0.00     0.173 A 
ATOM     67  F   UNL A   1      49.061  26.407  25.197  1.00  0.00    -0.203 F 
ATOM     68  C   UNL A   1      51.144  25.869  26.149  1.00  0.00     0.198 A 
ATOM     69  C   UNL A   1      51.443  25.976  28.527  1.00  0.00     0.198 A 
ATOM     70  F   UNL A   1      49.641  26.570  29.918  1.00  0.00    -0.203 F 
ATOM     71  F   UNL A   1      51.627  25.594  24.930  1.00  0.00    -0.200 F 
ATOM     72  C   UNL A   1      51.955  25.722  27.264  1.00  0.00     0.200 A 
ATOM     73  F   UNL A   1      52.228  25.848  29.605  1.00  0.00    -0.200 F 
ATOM     74  F   UNL A   1      53.228  25.328  27.121  1.00  0.00    -0.200 F 
ENDBRANCH  50  64
BRANCH  51  75
ATOM     75  C   UNL A   1      39.658  28.756  29.113  1.00  0.00     0.064 A 
ATOM     76  C   UNL A   1      39.077  28.615  30.381  1.00  0.00     0.173 A 
ATOM     77  C   UNL A   1      38.849  29.234  28.073  1.00  0.00     0.173 A 
ATOM     78  F   UNL A   1      39.806  28.144  31.403  1.00  0.00    -0.203 F 
ATOM     79  C   UNL A   1      37.735  28.921  30.596  1.00  0.00     0.198 A 
ATOM     80  C   UNL A   1      37.514  29.567  28.296  1.00  0.00     0.198 A 
ATOM     81  F   UNL A   1      39.358  29.393  26.843  1.00  0.00    -0.203 F 
ATOM     82  F   UNL A   1      37.194  28.737  31.809  1.00  0.00    -0.200 F 
ATOM     83  C   UNL A   1      36.956  29.403  29.556  1.00  0.00     0.200 A 
ATOM     84  F   UNL A   1      36.768  30.046  27.292  1.00  0.00    -0.200 F 
ATOM     85  F   UNL A   1      35.668  29.704  29.764  1.00  0.00    -0.200 F 
ENDBRANCH  51  75
BRANCH  63  86
ATOM     86  C   UNL A   1      45.527  32.500  29.096  1.00  0.00     0.064 A 
ATOM     87  C   UNL A   1      45.854  32.989  30.370  1.00  0.00     0.173 A 
ATOM     88  C   UNL A   1      45.463  33.418  28.037  1.00  0.00     0.173 A 
ATOM     89  F   UNL A   1      45.913  32.155  31.419  1.00  0.00    -0.203 F 
ATOM     90  C   UNL A   1      46.069  34.349  30.581  1.00  0.00     0.198 A 
ATOM     91  C   UNL A   1      45.712  34.772  28.246  1.00  0.00     0.198 A 
ATOM     92  F   UNL A   1      45.161  33.002  26.798  1.00  0.00    -0.203 F 
ATOM     93  F   UNL A   1      46.318  34.801  31.817  1.00  0.00    -0.200 F 
ATOM     94  C   UNL A   1      46.004  35.237  29.518  1.00  0.00     0.200 A 
ATOM     95  F   UNL A   1      45.664  35.627  27.215  1.00  0.00    -0.200 F 
ATOM     96  F   UNL A   1      46.210  36.545  29.724  1.00  0.00    -0.200 F 
ENDBRANCH  63  86
ENDBRANCH  37  38
ENDBRANCH  29  32
ENDBRANCH  27  28
ENDBRANCH  26  27
ENDBRANCH  25  26
ENDBRANCH  24  25
ENDBRANCH   1  24
TORSDOF 18
ENDMDL
MODEL 3
REMARK VINA RESULT:     -11.2      1.834      8.032
REMARK SMILES CC[C@](C)(NC(=O)NC[C@@H](C)[NH+](C)C)C(=O)NCCCCCCNC(=O)c1ccc(-c2c3nc(c(-c4c(F)c(F)c(F)c(F)c4F)c4ccc([nH]4)c(-c4c(F)c(F)c(F)c(F)c4F)c4nc(c(-c5c(F)c(F)c(F)c(F)c5F)c5ccc2[nH]5)C=C4)C=C3)cc1
REMARK SMILES IDX 19 1 18 2 17 3 15 4 16 5 3 7 4 8 2 9 1 10 5 11 6 12 7 14
REMARK SMILES IDX 8 15 9 17 10 18 11 19 12 20 13 21 14 22 20 24 21 25 22 26
REMARK SMILES IDX 23 27 24 28 25 29 26 31 27 32 28 33 89 34 29 35 88 36 30 37
REMARK SMILES IDX 31 38 32 39 82 40 33 41 87 42 81 43 83 44 34 45 86 46 80 47
REMARK SMILES IDX 79 48 35 50 67 51 47 52 66 53 48 54 51 55 65 56 84 57 49 58
REMARK SMILES IDX 50 59 64 61 85 62 52 63 36 64 37 65 45 66 38 67 39 68 43 69
REMARK SMILES IDX 46 70 40 71 41 72 44 73 42 74 68 75 69 76 77 77 70 78 71 79
REMARK SMILES IDX 75 80 78 81 72 82 73 83 76 84 74 85 53 86 54 87 62 88 55 89
REMARK SMILES IDX 56 90 60 91 63 92 57 93 58 94 61 95 59 96
REMARK H PARENT 17 6 5 13 8 16 12 23 24 30 83 49 51 60
REMARK Flexibility Score: inf
ROOT
ATOM      1  C   UNL A   1      31.427  28.343  27.217  1.00  0.00     0.021 C 
ENDROOT
BRANCH   1   2
ATOM      2  C   UNL A   1      31.456  27.139  26.265  1.00  0.00     0.116 C 
BRANCH   2   3
ATOM      3  N   UNL A   1      30.431  26.989  25.242  1.00  0.00    -0.354 N 
ATOM      4  C   UNL A   1      30.445  26.480  23.967  1.00  0.00     0.245 C 
ATOM      5  O   UNL A   1      29.375  26.043  23.527  1.00  0.00    -0.272 OA
ATOM      6  H   UNL A   1      29.547  27.321  25.521  1.00  0.00     0.163 HD
BRANCH   4   7
ATOM      7  C   UNL A   1      31.753  26.292  23.163  1.00  0.00     0.117 C 
ATOM      8  C   UNL A   1      31.561  26.128  21.642  1.00  0.00     0.045 C 
BRANCH   7   9
ATOM      9  C   UNL A   1      32.391  24.969  23.712  1.00  0.00     0.035 C 
ATOM     10  C   UNL A   1      33.102  24.106  22.664  1.00  0.00     0.007 C 
ENDBRANCH   7   9
BRANCH   7  11
ATOM     11  N   UNL A   1      32.651  27.437  23.389  1.00  0.00    -0.324 N 
ATOM     12  C   UNL A   1      32.649  28.724  23.025  1.00  0.00     0.315 C 
ATOM     13  H   UNL A   1      33.435  27.200  23.936  1.00  0.00     0.166 HD
ATOM     14  O   UNL A   1      33.699  29.350  23.215  1.00  0.00    -0.249 OA
ATOM     15  N   UNL A   1      31.619  29.419  22.533  1.00  0.00    -0.332 N 
ATOM     16  H   UNL A   1      31.849  30.373  22.449  1.00  0.00     0.165 HD
BRANCH  15  17
ATOM     17  C   UNL A   1      30.242  29.175  22.081  1.00  0.00     0.182 C 
BRANCH  17  18
ATOM     18  C   UNL A   1      29.258  30.371  22.286  1.00  0.00     0.200 C 
ATOM     19  C   UNL A   1      28.687  30.877  20.955  1.00  0.00     0.077 C 
BRANCH  18  20
ATOM     20  N   UNL A   1      28.235  30.109  23.318  1.00  0.00    -0.336 N 
ATOM     21  C   UNL A   1      27.473  31.287  23.719  1.00  0.00     0.332 C 
ATOM     22  C   UNL A   1      27.362  28.977  23.058  1.00  0.00     0.332 C 
ATOM     23  H   UNL A   1      28.807  29.837  24.117  1.00  0.00     0.347 HD
ENDBRANCH  18  20
ENDBRANCH  17  18
ENDBRANCH  15  17
ENDBRANCH   7  11
ENDBRANCH   4   7
ENDBRANCH   2   3
ENDBRANCH   1   2
BRANCH   1  24
ATOM     24  C   UNL A   1      32.396  29.508  27.015  1.00  0.00     0.002 C 
BRANCH  24  25
ATOM     25  C   UNL A   1      31.897  30.645  26.131  1.00  0.00     0.002 C 
BRANCH  25  26
ATOM     26  C   UNL A   1      31.539  31.916  26.897  1.00  0.00     0.021 C 
BRANCH  26  27
ATOM     27  C   UNL A   1      32.739  32.755  27.317  1.00  0.00     0.116 C 
BRANCH  27  28
ATOM     28  N   UNL A   1      32.390  34.131  27.638  1.00  0.00    -0.352 N 
ATOM     29  C   UNL A   1      32.972  34.956  28.574  1.00  0.00     0.251 C 
ATOM     30  H   UNL A   1      31.647  34.519  27.122  1.00  0.00     0.163 HD
ATOM     31  O   UNL A   1      32.499  36.048  28.838  1.00  0.00    -0.269 OA
BRANCH  29  32
ATOM     32  C   UNL A   1      34.169  34.466  29.288  1.00  0.00     0.039 A 
ATOM     33  C   UNL A   1      34.002  33.789  30.496  1.00  0.00     0.014 A 
ATOM     34  C   UNL A   1      35.438  34.614  28.720  1.00  0.00     0.014 A 
ATOM     35  C   UNL A   1      35.109  33.196  31.104  1.00  0.00     0.010 A 
ATOM     36  C   UNL A   1      36.524  33.956  29.286  1.00  0.00     0.010 A 
ATOM     37  C   UNL A   1      36.370  33.242  30.484  1.00  0.00    -0.014 A 
BRANCH  37  38
ATOM     38  C   UNL A   1      37.529  32.528  31.075  1.00  0.00     0.031 A 
ATOM     39  C   UNL A   1      38.028  32.890  32.444  1.00  0.00     0.074 A 
ATOM     40  C   UNL A   1      38.159  31.582  30.353  1.00  0.00     0.049 A 
ATOM     41  N   UNL A   1      39.004  32.359  33.137  1.00  0.00    -0.248 NA
ATOM     42  C   UNL A   1      37.361  34.018  33.115  1.00  0.00     0.031 C 
ATOM     43  C   UNL A   1      37.815  31.194  28.983  1.00  0.00     0.029 A 
ATOM     44  N   UNL A   1      39.218  30.769  30.671  1.00  0.00    -0.354 N 
ATOM     45  C   UNL A   1      39.074  33.092  34.314  1.00  0.00     0.074 A 
ATOM     46  C   UNL A   1      38.085  34.144  34.217  1.00  0.00     0.031 C 
ATOM     47  C   UNL A   1      38.613  30.187  28.598  1.00  0.00     0.029 A 
ATOM     48  C   UNL A   1      39.543  29.878  29.678  1.00  0.00     0.049 A 
ATOM     49  H   UNL A   1      39.697  30.820  31.530  1.00  0.00     0.167 HD
ATOM     50  C   UNL A   1      39.870  32.887  35.390  1.00  0.00     0.037 A 
ATOM     51  C   UNL A   1      40.480  28.912  29.651  1.00  0.00     0.037 A 
ATOM     52  C   UNL A   1      40.836  31.824  35.488  1.00  0.00     0.049 A 
ATOM     53  C   UNL A   1      41.344  28.696  30.863  1.00  0.00     0.074 A 
ATOM     54  C   UNL A   1      41.634  31.478  36.564  1.00  0.00     0.029 A 
ATOM     55  N   UNL A   1      41.142  30.940  34.462  1.00  0.00    -0.354 N 
ATOM     56  N   UNL A   1      41.332  29.328  32.012  1.00  0.00    -0.248 NA
ATOM     57  C   UNL A   1      42.346  27.626  30.776  1.00  0.00     0.031 C 
ATOM     58  C   UNL A   1      42.461  30.419  36.171  1.00  0.00     0.029 A 
ATOM     59  C   UNL A   1      42.140  30.069  34.869  1.00  0.00     0.049 A 
ATOM     60  H   UNL A   1      40.712  30.932  33.576  1.00  0.00     0.167 HD
ATOM     61  C   UNL A   1      42.306  28.720  32.792  1.00  0.00     0.074 A 
ATOM     62  C   UNL A   1      42.870  27.652  31.993  1.00  0.00     0.031 C 
ATOM     63  C   UNL A   1      42.699  29.019  34.055  1.00  0.00     0.037 A 
BRANCH  50  64
ATOM     64  C   UNL A   1      39.730  33.839  36.544  1.00  0.00     0.064 A 
ATOM     65  C   UNL A   1      40.409  35.068  36.574  1.00  0.00     0.173 A 
ATOM     66  C   UNL A   1      38.896  33.527  37.626  1.00  0.00     0.173 A 
ATOM     67  F   UNL A   1      41.230  35.412  35.570  1.00  0.00    -0.203 F 
ATOM     68  C   UNL A   1      40.287  35.929  37.663  1.00  0.00     0.198 A 
ATOM     69  C   UNL A   1      38.750  34.405  38.698  1.00  0.00     0.198 A 
ATOM     70  F   UNL A   1      38.219  32.368  37.648  1.00  0.00    -0.203 F 
ATOM     71  F   UNL A   1      40.993  37.068  37.696  1.00  0.00    -0.200 F 
ATOM     72  C   UNL A   1      39.453  35.600  38.720  1.00  0.00     0.200 A 
ATOM     73  F   UNL A   1      37.933  34.091  39.713  1.00  0.00    -0.200 F 
ATOM     74  F   UNL A   1      39.335  36.430  39.766  1.00  0.00    -0.200 F 
ENDBRANCH  50  64
BRANCH  51  75
ATOM     75  C   UNL A   1      40.612  28.039  28.455  1.00  0.00     0.064 A 
ATOM     76  C   UNL A   1      41.394  28.436  27.361  1.00  0.00     0.173 A 
ATOM     77  C   UNL A   1      39.969  26.796  28.380  1.00  0.00     0.173 A 
ATOM     78  F   UNL A   1      42.013  29.626  27.377  1.00  0.00    -0.203 F 
ATOM     79  C   UNL A   1      41.511  27.631  26.230  1.00  0.00     0.198 A 
ATOM     80  C   UNL A   1      40.110  25.979  27.260  1.00  0.00     0.198 A 
ATOM     81  F   UNL A   1      39.215  26.367  29.403  1.00  0.00    -0.203 F 
ATOM     82  F   UNL A   1      42.230  28.055  25.181  1.00  0.00    -0.200 F 
ATOM     83  C   UNL A   1      40.876  26.401  26.182  1.00  0.00     0.200 A 
ATOM     84  F   UNL A   1      39.506  24.784  27.224  1.00  0.00    -0.200 F 
ATOM     85  F   UNL A   1      40.994  25.624  25.098  1.00  0.00    -0.200 F 
ENDBRANCH  51  75
BRANCH  63  86
ATOM     86  C   UNL A   1      43.782  28.164  34.651  1.00  0.00     0.064 A 
ATOM     87  C   UNL A   1      45.133  28.536  34.579  1.00  0.00     0.173 A 
ATOM     88  C   UNL A   1      43.465  26.967  35.309  1.00  0.00     0.173 A 
ATOM     89  F   UNL A   1      45.491  29.664  33.947  1.00  0.00    -0.203 F 
ATOM     90  C   UNL A   1      46.129  27.719  35.111  1.00  0.00     0.198 A 
ATOM     91  C   UNL A   1      44.460  26.171  35.869  1.00  0.00     0.198 A 
ATOM     92  F   UNL A   1      42.187  26.570  35.412  1.00  0.00    -0.203 F 
ATOM     93  F   UNL A   1      47.417  28.064  34.974  1.00  0.00    -0.200 F 
ATOM     94  C   UNL A   1      45.791  26.542  35.760  1.00  0.00     0.200 A 
ATOM     95  F   UNL A   1      44.130  25.041  36.510  1.00  0.00    -0.200 F 
ATOM     96  F   UNL A   1      46.751  25.758  36.270  1.00  0.00    -0.200 F 
ENDBRANCH  63  86
ENDBRANCH  37  38
ENDBRANCH  29  32
ENDBRANCH  27  28
ENDBRANCH  26  27
ENDBRANCH  25  26
ENDBRANCH  24  25
ENDBRANCH   1  24
TORSDOF 18
ENDMDL
