MODEL 1
REMARK VINA RESULT:     -14.1      0.000      0.000
REMARK SMILES COc1ccc2c(c1)c(CC(=O)NCCCCCCNC(=O)c1ccc(-c3c4nc(c(-c5c(F)c(F)c(F)c(F)c5F)c5ccc([nH]5)c(-c5c(F)c(F)c(F)c(F)c5F)c5nc(c(-c6c(F)c(F)c(F)c(F)c6F)c6ccc3[nH]6)C=C5)C=C4)cc1)c(C)n2C(=O)c1ccc(Cl)cc1
REMARK SMILES IDX 16 1 15 2 14 3 13 4 11 5 12 6 10 8 9 9 3 10 4 11 8 12 5 13
REMARK SMILES IDX 7 14 6 15 88 16 86 17 87 18 2 19 1 20 89 21 90 22 91 23
REMARK SMILES IDX 92 24 97 25 93 26 96 27 94 28 95 29 17 30 18 31 19 32 20 33
REMARK SMILES IDX 21 34 22 36 23 37 24 38 85 39 25 40 84 41 26 42 27 43 28 44
REMARK SMILES IDX 78 45 29 46 83 47 77 48 79 49 30 50 82 51 76 52 75 53 31 55
REMARK SMILES IDX 63 56 43 57 62 58 44 59 47 60 61 61 80 62 45 63 46 64 60 66
REMARK SMILES IDX 81 67 48 68 32 69 33 70 41 71 34 72 35 73 39 74 42 75 36 76
REMARK SMILES IDX 37 77 40 78 38 79 64 80 65 81 73 82 66 83 67 84 71 85 74 86
REMARK SMILES IDX 68 87 69 88 72 89 70 90 49 91 50 92 58 93 51 94 52 95 56 96
REMARK SMILES IDX 59 97 53 98 54 99 57 100 55 101
REMARK H PARENT 13 7 20 35 79 54 47 65
REMARK Flexibility Score: inf
ROOT
ATOM      1  C   UNL A   1      31.911  27.094  26.755  1.00  0.00     0.002 C 
ENDROOT
BRANCH   1   2
ATOM      2  C   UNL A   1      31.062  26.986  25.484  1.00  0.00     0.021 C 
BRANCH   2   3
ATOM      3  C   UNL A   1      30.026  25.866  25.542  1.00  0.00     0.116 C 
BRANCH   3   4
ATOM      4  N   UNL A   1      30.392  24.855  26.510  1.00  0.00    -0.356 N 
ATOM      5  C   UNL A   1      30.907  23.611  26.285  1.00  0.00     0.224 C 
ATOM      6  O   UNL A   1      31.121  22.882  27.257  1.00  0.00    -0.275 OA
ATOM      7  H   UNL A   1      30.252  25.095  27.455  1.00  0.00     0.163 HD
BRANCH   5   8
ATOM      8  C   UNL A   1      31.267  23.176  24.872  1.00  0.00     0.138 C 
BRANCH   8   9
ATOM      9  C   UNL A   1      32.649  22.597  24.742  1.00  0.00    -0.009 A 
ATOM     10  C   UNL A   1      32.793  18.782  24.853  1.00  0.00     0.119 A 
ATOM     11  C   UNL A   1      34.176  18.686  24.848  1.00  0.00     0.048 A 
ATOM     12  C   UNL A   1      32.191  20.039  24.803  1.00  0.00     0.057 A 
ATOM     13  C   UNL A   1      34.972  19.835  24.785  1.00  0.00     0.031 A 
ATOM     14  C   UNL A   1      32.974  21.214  24.730  1.00  0.00     0.008 A 
ATOM     15  C   UNL A   1      34.367  21.104  24.672  1.00  0.00     0.057 A 
ATOM     16  N   UNL A   1      34.890  22.391  24.457  1.00  0.00    -0.280 N 
ATOM     17  C   UNL A   1      33.846  23.303  24.680  1.00  0.00     0.028 A 
ATOM     18  C   UNL A   1      34.019  24.788  24.789  1.00  0.00     0.065 C 
BRANCH  10  19
ATOM     19  O   UNL A   1      31.932  17.720  24.883  1.00  0.00    -0.497 OA
ATOM     20  C   UNL A   1      32.473  16.500  25.376  1.00  0.00     0.278 C 
ENDBRANCH  10  19
BRANCH  16  21
ATOM     21  C   UNL A   1      36.223  22.718  24.063  1.00  0.00     0.262 C 
ATOM     22  O   UNL A   1      36.445  23.046  22.906  1.00  0.00    -0.268 OA
BRANCH  21  23
ATOM     23  C   UNL A   1      37.400  22.672  24.950  1.00  0.00     0.040 A 
ATOM     24  C   UNL A   1      38.155  21.499  25.077  1.00  0.00     0.015 A 
ATOM     25  C   UNL A   1      37.724  23.817  25.684  1.00  0.00     0.015 A 
ATOM     26  C   UNL A   1      39.184  21.451  26.020  1.00  0.00     0.021 A 
ATOM     27  C   UNL A   1      38.761  23.764  26.616  1.00  0.00     0.021 A 
ATOM     28  C   UNL A   1      39.472  22.576  26.796  1.00  0.00     0.041 A 
ATOM     29  Cl  UNL A   1      40.695  22.491  28.001  1.00  0.00    -0.084 Cl
ENDBRANCH  21  23
ENDBRANCH  16  21
ENDBRANCH   8   9
ENDBRANCH   5   8
ENDBRANCH   3   4
ENDBRANCH   2   3
ENDBRANCH   1   2
BRANCH   1  30
ATOM     30  C   UNL A   1      31.613  28.321  27.626  1.00  0.00     0.002 C 
BRANCH  30  31
ATOM     31  C   UNL A   1      32.146  29.654  27.081  1.00  0.00     0.021 C 
BRANCH  31  32
ATOM     32  C   UNL A   1      33.654  29.839  27.254  1.00  0.00     0.116 C 
BRANCH  32  33
ATOM     33  N   UNL A   1      34.049  31.225  27.385  1.00  0.00    -0.352 N 
ATOM     34  C   UNL A   1      35.204  31.879  27.697  1.00  0.00     0.251 C 
ATOM     35  H   UNL A   1      33.305  31.845  27.206  1.00  0.00     0.163 HD
ATOM     36  O   UNL A   1      35.161  33.111  27.638  1.00  0.00    -0.269 OA
BRANCH  34  37
ATOM     37  C   UNL A   1      36.461  31.234  28.163  1.00  0.00     0.039 A 
ATOM     38  C   UNL A   1      37.412  31.804  29.010  1.00  0.00     0.014 A 
ATOM     39  C   UNL A   1      36.712  29.953  27.635  1.00  0.00     0.014 A 
ATOM     40  C   UNL A   1      38.630  31.166  29.227  1.00  0.00     0.010 A 
ATOM     41  C   UNL A   1      37.915  29.302  27.864  1.00  0.00     0.010 A 
ATOM     42  C   UNL A   1      38.897  29.940  28.612  1.00  0.00    -0.014 A 
BRANCH  42  43
ATOM     43  C   UNL A   1      40.189  29.307  28.857  1.00  0.00     0.031 A 
ATOM     44  C   UNL A   1      40.474  29.023  30.293  1.00  0.00     0.074 A 
ATOM     45  C   UNL A   1      41.007  28.911  27.859  1.00  0.00     0.049 A 
ATOM     46  N   UNL A   1      41.456  29.453  31.018  1.00  0.00    -0.248 NA
ATOM     47  C   UNL A   1      39.474  28.246  31.047  1.00  0.00     0.031 C 
ATOM     48  C   UNL A   1      40.732  28.892  26.419  1.00  0.00     0.029 A 
ATOM     49  N   UNL A   1      42.247  28.349  27.934  1.00  0.00    -0.354 N 
ATOM     50  C   UNL A   1      41.288  28.879  32.277  1.00  0.00     0.074 A 
ATOM     51  C   UNL A   1      39.993  28.252  32.275  1.00  0.00     0.031 C 
ATOM     52  C   UNL A   1      41.670  28.146  25.791  1.00  0.00     0.029 A 
ATOM     53  C   UNL A   1      42.683  27.756  26.754  1.00  0.00     0.049 A 
ATOM     54  H   UNL A   1      42.789  28.363  28.755  1.00  0.00     0.167 HD
ATOM     55  C   UNL A   1      42.315  28.790  33.167  1.00  0.00     0.037 A 
ATOM     56  C   UNL A   1      43.770  26.956  26.606  1.00  0.00     0.037 A 
ATOM     57  C   UNL A   1      43.374  29.704  32.846  1.00  0.00     0.049 A 
ATOM     58  C   UNL A   1      44.660  27.205  27.764  1.00  0.00     0.074 A 
ATOM     59  C   UNL A   1      43.503  31.077  32.822  1.00  0.00     0.029 A 
ATOM     60  N   UNL A   1      44.440  29.213  32.137  1.00  0.00    -0.354 N 
ATOM     61  N   UNL A   1      45.299  28.321  27.967  1.00  0.00    -0.248 NA
ATOM     62  C   UNL A   1      44.500  26.350  28.930  1.00  0.00     0.031 C 
ATOM     63  C   UNL A   1      44.365  31.349  31.719  1.00  0.00     0.029 A 
ATOM     64  C   UNL A   1      44.756  30.128  31.169  1.00  0.00     0.049 A 
ATOM     65  H   UNL A   1      44.895  28.354  32.295  1.00  0.00     0.167 HD
ATOM     66  C   UNL A   1      45.242  28.512  29.338  1.00  0.00     0.074 A 
ATOM     67  C   UNL A   1      44.825  27.224  29.886  1.00  0.00     0.031 C 
ATOM     68  C   UNL A   1      45.265  29.769  29.866  1.00  0.00     0.037 A 
BRANCH  55  69
ATOM     69  C   UNL A   1      42.512  27.636  34.116  1.00  0.00     0.064 A 
ATOM     70  C   UNL A   1      43.065  26.428  33.646  1.00  0.00     0.173 A 
ATOM     71  C   UNL A   1      41.903  27.573  35.388  1.00  0.00     0.173 A 
ATOM     72  F   UNL A   1      43.634  26.364  32.433  1.00  0.00    -0.203 F 
ATOM     73  C   UNL A   1      42.966  25.239  34.374  1.00  0.00     0.198 A 
ATOM     74  C   UNL A   1      41.852  26.398  36.135  1.00  0.00     0.198 A 
ATOM     75  F   UNL A   1      41.235  28.613  35.904  1.00  0.00    -0.203 F 
ATOM     76  F   UNL A   1      43.404  24.091  33.840  1.00  0.00    -0.200 F 
ATOM     77  C   UNL A   1      42.359  25.224  35.616  1.00  0.00     0.200 A 
ATOM     78  F   UNL A   1      41.234  26.400  37.324  1.00  0.00    -0.200 F 
ATOM     79  F   UNL A   1      42.214  24.078  36.293  1.00  0.00    -0.200 F 
ENDBRANCH  55  69
BRANCH  56  80
ATOM     80  C   UNL A   1      43.938  25.755  25.747  1.00  0.00     0.064 A 
ATOM     81  C   UNL A   1      45.192  25.430  25.200  1.00  0.00     0.173 A 
ATOM     82  C   UNL A   1      42.960  24.743  25.709  1.00  0.00     0.173 A 
ATOM     83  F   UNL A   1      46.193  26.322  25.232  1.00  0.00    -0.203 F 
ATOM     84  C   UNL A   1      45.464  24.156  24.690  1.00  0.00     0.198 A 
ATOM     85  C   UNL A   1      43.231  23.473  25.194  1.00  0.00     0.198 A 
ATOM     86  F   UNL A   1      41.755  24.930  26.267  1.00  0.00    -0.203 F 
ATOM     87  F   UNL A   1      46.696  23.860  24.249  1.00  0.00    -0.200 F 
ATOM     88  C   UNL A   1      44.488  23.175  24.702  1.00  0.00     0.200 A 
ATOM     89  F   UNL A   1      42.290  22.521  25.246  1.00  0.00    -0.200 F 
ATOM     90  F   UNL A   1      44.769  21.932  24.283  1.00  0.00    -0.200 F 
ENDBRANCH  56  80
BRANCH  68  91
ATOM     91  C   UNL A   1      45.633  30.901  28.949  1.00  0.00     0.064 A 
ATOM     92  C   UNL A   1      46.955  31.287  28.665  1.00  0.00     0.173 A 
ATOM     93  C   UNL A   1      44.611  31.516  28.217  1.00  0.00     0.173 A 
ATOM     94  F   UNL A   1      47.993  30.684  29.256  1.00  0.00    -0.203 F 
ATOM     95  C   UNL A   1      47.232  32.267  27.712  1.00  0.00     0.198 A 
ATOM     96  C   UNL A   1      44.892  32.466  27.240  1.00  0.00     0.198 A 
ATOM     97  F   UNL A   1      43.333  31.150  28.411  1.00  0.00    -0.203 F 
ATOM     98  F   UNL A   1      48.502  32.621  27.459  1.00  0.00    -0.200 F 
ATOM     99  C   UNL A   1      46.200  32.847  26.993  1.00  0.00     0.200 A 
ATOM    100  F   UNL A   1      43.894  32.989  26.513  1.00  0.00    -0.200 F 
ATOM    101  F   UNL A   1      46.469  33.752  26.040  1.00  0.00    -0.200 F 
ENDBRANCH  68  91
ENDBRANCH  42  43
ENDBRANCH  34  37
ENDBRANCH  32  33
ENDBRANCH  31  32
ENDBRANCH  30  31
ENDBRANCH   1  30
TORSDOF 17
ENDMDL
MODEL 2
REMARK VINA RESULT:     -13.5      3.372      9.123
REMARK SMILES COc1ccc2c(c1)c(CC(=O)NCCCCCCNC(=O)c1ccc(-c3c4nc(c(-c5c(F)c(F)c(F)c(F)c5F)c5ccc([nH]5)c(-c5c(F)c(F)c(F)c(F)c5F)c5nc(c(-c6c(F)c(F)c(F)c(F)c6F)c6ccc3[nH]6)C=C5)C=C4)cc1)c(C)n2C(=O)c1ccc(Cl)cc1
REMARK SMILES IDX 16 1 15 2 14 3 13 4 11 5 12 6 10 8 9 9 3 10 4 11 8 12 5 13
REMARK SMILES IDX 7 14 6 15 88 16 86 17 87 18 2 19 1 20 89 21 90 22 91 23
REMARK SMILES IDX 92 24 97 25 93 26 96 27 94 28 95 29 17 30 18 31 19 32 20 33
REMARK SMILES IDX 21 34 22 36 23 37 24 38 85 39 25 40 84 41 26 42 27 43 28 44
REMARK SMILES IDX 78 45 29 46 83 47 77 48 79 49 30 50 82 51 76 52 75 53 31 55
REMARK SMILES IDX 63 56 43 57 62 58 44 59 47 60 61 61 80 62 45 63 46 64 60 66
REMARK SMILES IDX 81 67 48 68 32 69 33 70 41 71 34 72 35 73 39 74 42 75 36 76
REMARK SMILES IDX 37 77 40 78 38 79 64 80 65 81 73 82 66 83 67 84 71 85 74 86
REMARK SMILES IDX 68 87 69 88 72 89 70 90 49 91 50 92 58 93 51 94 52 95 56 96
REMARK SMILES IDX 59 97 53 98 54 99 57 100 55 101
REMARK H PARENT 13 7 20 35 79 54 47 65
REMARK Flexibility Score: inf
ROOT
ATOM      1  C   UNL A   1      34.319  21.689  24.690  1.00  0.00     0.002 C 
ENDROOT
BRANCH   1   2
ATOM      2  C   UNL A   1      34.339  22.734  23.570  1.00  0.00     0.021 C 
BRANCH   2   3
ATOM      3  C   UNL A   1      33.050  22.767  22.751  1.00  0.00     0.116 C 
BRANCH   3   4
ATOM      4  N   UNL A   1      32.982  23.949  21.919  1.00  0.00    -0.356 N 
ATOM      5  C   UNL A   1      32.121  25.004  22.011  1.00  0.00     0.224 C 
ATOM      6  O   UNL A   1      32.209  25.905  21.174  1.00  0.00    -0.275 OA
ATOM      7  H   UNL A   1      33.643  23.999  21.191  1.00  0.00     0.163 HD
BRANCH   5   8
ATOM      8  C   UNL A   1      31.131  25.085  23.164  1.00  0.00     0.138 C 
BRANCH   8   9
ATOM      9  C   UNL A   1      31.247  26.341  23.984  1.00  0.00    -0.009 A 
ATOM     10  C   UNL A   1      29.265  29.313  22.630  1.00  0.00     0.119 A 
ATOM     11  C   UNL A   1      29.741  30.238  23.546  1.00  0.00     0.048 A 
ATOM     12  C   UNL A   1      29.694  27.988  22.705  1.00  0.00     0.057 A 
ATOM     13  C   UNL A   1      30.639  29.854  24.548  1.00  0.00     0.031 A 
ATOM     14  C   UNL A   1      30.595  27.575  23.713  1.00  0.00     0.008 A 
ATOM     15  C   UNL A   1      31.028  28.503  24.665  1.00  0.00     0.057 A 
ATOM     16  N   UNL A   1      31.786  27.811  25.625  1.00  0.00    -0.280 N 
ATOM     17  C   UNL A   1      32.054  26.537  25.099  1.00  0.00     0.028 A 
ATOM     18  C   UNL A   1      33.026  25.559  25.687  1.00  0.00     0.065 C 
BRANCH  10  19
ATOM     19  O   UNL A   1      28.365  29.583  21.636  1.00  0.00    -0.497 OA
ATOM     20  C   UNL A   1      28.347  30.926  21.168  1.00  0.00     0.278 C 
ENDBRANCH  10  19
BRANCH  16  21
ATOM     21  C   UNL A   1      32.191  28.295  26.906  1.00  0.00     0.262 C 
ATOM     22  O   UNL A   1      31.636  27.873  27.911  1.00  0.00    -0.268 OA
BRANCH  21  23
ATOM     23  C   UNL A   1      33.237  29.308  27.133  1.00  0.00     0.040 A 
ATOM     24  C   UNL A   1      34.581  28.935  27.253  1.00  0.00     0.015 A 
ATOM     25  C   UNL A   1      32.850  30.647  27.257  1.00  0.00     0.015 A 
ATOM     26  C   UNL A   1      35.529  29.903  27.595  1.00  0.00     0.021 A 
ATOM     27  C   UNL A   1      33.805  31.610  27.587  1.00  0.00     0.021 A 
ATOM     28  C   UNL A   1      35.135  31.231  27.776  1.00  0.00     0.041 A 
ATOM     29  Cl  UNL A   1      36.293  32.406  28.261  1.00  0.00    -0.084 Cl
ENDBRANCH  21  23
ENDBRANCH  16  21
ENDBRANCH   8   9
ENDBRANCH   5   8
ENDBRANCH   3   4
ENDBRANCH   2   3
ENDBRANCH   1   2
BRANCH   1  30
ATOM     30  C   UNL A   1      35.608  21.608  25.518  1.00  0.00     0.002 C 
BRANCH  30  31
ATOM     31  C   UNL A   1      36.207  22.961  25.927  1.00  0.00     0.021 C 
BRANCH  31  32
ATOM     32  C   UNL A   1      37.575  23.249  25.309  1.00  0.00     0.116 C 
BRANCH  32  33
ATOM     33  N   UNL A   1      38.636  22.434  25.861  1.00  0.00    -0.352 N 
ATOM     34  C   UNL A   1      39.658  22.638  26.741  1.00  0.00     0.251 C 
ATOM     35  H   UNL A   1      38.615  21.511  25.520  1.00  0.00     0.163 HD
ATOM     36  O   UNL A   1      40.336  21.645  27.022  1.00  0.00    -0.269 OA
BRANCH  34  37
ATOM     37  C   UNL A   1      40.051  23.952  27.317  1.00  0.00     0.039 A 
ATOM     38  C   UNL A   1      41.252  24.239  27.966  1.00  0.00     0.014 A 
ATOM     39  C   UNL A   1      39.075  24.964  27.232  1.00  0.00     0.014 A 
ATOM     40  C   UNL A   1      41.425  25.458  28.616  1.00  0.00     0.010 A 
ATOM     41  C   UNL A   1      39.249  26.188  27.859  1.00  0.00     0.010 A 
ATOM     42  C   UNL A   1      40.401  26.408  28.603  1.00  0.00    -0.014 A 
BRANCH  42  43
ATOM     43  C   UNL A   1      40.616  27.671  29.304  1.00  0.00     0.031 A 
ATOM     44  C   UNL A   1      41.622  28.567  28.664  1.00  0.00     0.074 A 
ATOM     45  C   UNL A   1      39.886  28.042  30.376  1.00  0.00     0.049 A 
ATOM     46  N   UNL A   1      42.720  29.030  29.167  1.00  0.00    -0.248 NA
ATOM     47  C   UNL A   1      41.431  28.902  27.241  1.00  0.00     0.031 C 
ATOM     48  C   UNL A   1      38.705  27.379  30.939  1.00  0.00     0.029 A 
ATOM     49  N   UNL A   1      39.999  29.159  31.150  1.00  0.00    -0.354 N 
ATOM     50  C   UNL A   1      43.285  29.841  28.183  1.00  0.00     0.074 A 
ATOM     51  C   UNL A   1      42.520  29.627  26.983  1.00  0.00     0.031 C 
ATOM     52  C   UNL A   1      38.088  28.217  31.804  1.00  0.00     0.029 A 
ATOM     53  C   UNL A   1      38.899  29.409  31.964  1.00  0.00     0.049 A 
ATOM     54  H   UNL A   1      40.793  29.740  31.133  1.00  0.00     0.167 HD
ATOM     55  C   UNL A   1      44.220  30.785  28.482  1.00  0.00     0.037 A 
ATOM     56  C   UNL A   1      38.658  30.544  32.669  1.00  0.00     0.037 A 
ATOM     57  C   UNL A   1      44.835  30.537  29.755  1.00  0.00     0.049 A 
ATOM     58  C   UNL A   1      39.950  31.256  32.811  1.00  0.00     0.074 A 
ATOM     59  C   UNL A   1      45.653  29.551  30.266  1.00  0.00     0.029 A 
ATOM     60  N   UNL A   1      44.344  31.219  30.837  1.00  0.00    -0.354 N 
ATOM     61  N   UNL A   1      40.948  30.822  33.527  1.00  0.00    -0.248 NA
ATOM     62  C   UNL A   1      40.284  32.250  31.803  1.00  0.00     0.031 C 
ATOM     63  C   UNL A   1      45.245  29.399  31.624  1.00  0.00     0.029 A 
ATOM     64  C   UNL A   1      44.243  30.335  31.878  1.00  0.00     0.049 A 
ATOM     65  H   UNL A   1      44.105  32.174  30.861  1.00  0.00     0.167 HD
ATOM     66  C   UNL A   1      42.075  31.151  32.790  1.00  0.00     0.074 A 
ATOM     67  C   UNL A   1      41.611  32.111  31.791  1.00  0.00     0.031 C 
ATOM     68  C   UNL A   1      43.209  30.401  32.884  1.00  0.00     0.037 A 
BRANCH  55  69
ATOM     69  C   UNL A   1      44.326  32.118  27.786  1.00  0.00     0.064 A 
ATOM     70  C   UNL A   1      45.391  32.362  26.896  1.00  0.00     0.173 A 
ATOM     71  C   UNL A   1      43.594  33.256  28.188  1.00  0.00     0.173 A 
ATOM     72  F   UNL A   1      46.176  31.358  26.479  1.00  0.00    -0.203 F 
ATOM     73  C   UNL A   1      45.728  33.656  26.487  1.00  0.00     0.198 A 
ATOM     74  C   UNL A   1      43.900  34.538  27.738  1.00  0.00     0.198 A 
ATOM     75  F   UNL A   1      42.635  33.186  29.120  1.00  0.00    -0.203 F 
ATOM     76  F   UNL A   1      46.817  33.854  25.733  1.00  0.00    -0.200 F 
ATOM     77  C   UNL A   1      44.984  34.742  26.909  1.00  0.00     0.200 A 
ATOM     78  F   UNL A   1      43.183  35.580  28.181  1.00  0.00    -0.200 F 
ATOM     79  F   UNL A   1      45.335  35.987  26.562  1.00  0.00    -0.200 F 
ENDBRANCH  55  69
BRANCH  56  80
ATOM     80  C   UNL A   1      37.365  31.232  32.922  1.00  0.00     0.064 A 
ATOM     81  C   UNL A   1      37.201  32.067  34.041  1.00  0.00     0.173 A 
ATOM     82  C   UNL A   1      36.387  31.337  31.915  1.00  0.00     0.173 A 
ATOM     83  F   UNL A   1      38.109  32.060  35.027  1.00  0.00    -0.203 F 
ATOM     84  C   UNL A   1      36.147  32.984  34.126  1.00  0.00     0.198 A 
ATOM     85  C   UNL A   1      35.332  32.249  32.004  1.00  0.00     0.198 A 
ATOM     86  F   UNL A   1      36.492  30.635  30.778  1.00  0.00    -0.203 F 
ATOM     87  F   UNL A   1      36.068  33.818  35.173  1.00  0.00    -0.200 F 
ATOM     88  C   UNL A   1      35.223  33.085  33.100  1.00  0.00     0.200 A 
ATOM     89  F   UNL A   1      34.466  32.363  30.987  1.00  0.00    -0.200 F 
ATOM     90  F   UNL A   1      34.257  34.013  33.145  1.00  0.00    -0.200 F 
ENDBRANCH  56  80
BRANCH  68  91
ATOM     91  C   UNL A   1      43.289  29.398  34.001  1.00  0.00     0.064 A 
ATOM     92  C   UNL A   1      43.780  29.687  35.286  1.00  0.00     0.173 A 
ATOM     93  C   UNL A   1      42.704  28.142  33.802  1.00  0.00     0.173 A 
ATOM     94  F   UNL A   1      44.272  30.896  35.582  1.00  0.00    -0.203 F 
ATOM     95  C   UNL A   1      43.715  28.745  36.313  1.00  0.00     0.198 A 
ATOM     96  C   UNL A   1      42.606  27.218  34.838  1.00  0.00     0.198 A 
ATOM     97  F   UNL A   1      42.172  27.830  32.609  1.00  0.00    -0.203 F 
ATOM     98  F   UNL A   1      44.193  29.043  37.531  1.00  0.00    -0.200 F 
ATOM     99  C   UNL A   1      43.117  27.516  36.090  1.00  0.00     0.200 A 
ATOM    100  F   UNL A   1      41.983  26.049  34.631  1.00  0.00    -0.200 F 
ATOM    101  F   UNL A   1      43.007  26.630  37.090  1.00  0.00    -0.200 F 
ENDBRANCH  68  91
ENDBRANCH  42  43
ENDBRANCH  34  37
ENDBRANCH  32  33
ENDBRANCH  31  32
ENDBRANCH  30  31
ENDBRANCH   1  30
TORSDOF 17
ENDMDL
MODEL 3
REMARK VINA RESULT:     -13.2      1.509      2.193
REMARK SMILES COc1ccc2c(c1)c(CC(=O)NCCCCCCNC(=O)c1ccc(-c3c4nc(c(-c5c(F)c(F)c(F)c(F)c5F)c5ccc([nH]5)c(-c5c(F)c(F)c(F)c(F)c5F)c5nc(c(-c6c(F)c(F)c(F)c(F)c6F)c6ccc3[nH]6)C=C5)C=C4)cc1)c(C)n2C(=O)c1ccc(Cl)cc1
REMARK SMILES IDX 16 1 15 2 14 3 13 4 11 5 12 6 10 8 9 9 3 10 4 11 8 12 5 13
REMARK SMILES IDX 7 14 6 15 88 16 86 17 87 18 2 19 1 20 89 21 90 22 91 23
REMARK SMILES IDX 92 24 97 25 93 26 96 27 94 28 95 29 17 30 18 31 19 32 20 33
REMARK SMILES IDX 21 34 22 36 23 37 24 38 85 39 25 40 84 41 26 42 27 43 28 44
REMARK SMILES IDX 78 45 29 46 83 47 77 48 79 49 30 50 82 51 76 52 75 53 31 55
REMARK SMILES IDX 63 56 43 57 62 58 44 59 47 60 61 61 80 62 45 63 46 64 60 66
REMARK SMILES IDX 81 67 48 68 32 69 33 70 41 71 34 72 35 73 39 74 42 75 36 76
REMARK SMILES IDX 37 77 40 78 38 79 64 80 65 81 73 82 66 83 67 84 71 85 74 86
REMARK SMILES IDX 68 87 69 88 72 89 70 90 49 91 50 92 58 93 51 94 52 95 56 96
REMARK SMILES IDX 59 97 53 98 54 99 57 100 55 101
REMARK H PARENT 13 7 20 35 79 54 47 65
REMARK Flexibility Score: inf
ROOT
ATOM      1  C   UNL A   1      31.053  27.428  24.738  1.00  0.00     0.002 C 
ENDROOT
BRANCH   1   2
ATOM      2  C   UNL A   1      30.354  26.066  24.683  1.00  0.00     0.021 C 
BRANCH   2   3
ATOM      3  C   UNL A   1      30.752  25.231  23.467  1.00  0.00     0.116 C 
BRANCH   3   4
ATOM      4  N   UNL A   1      31.947  25.750  22.836  1.00  0.00    -0.356 N 
ATOM      5  C   UNL A   1      33.091  25.082  22.506  1.00  0.00     0.224 C 
ATOM      6  O   UNL A   1      34.016  25.722  22.001  1.00  0.00    -0.275 OA
ATOM      7  H   UNL A   1      31.933  26.709  22.616  1.00  0.00     0.163 HD
BRANCH   5   8
ATOM      8  C   UNL A   1      33.180  23.576  22.700  1.00  0.00     0.138 C 
BRANCH   8   9
ATOM      9  C   UNL A   1      34.044  23.157  23.858  1.00  0.00    -0.009 A 
ATOM     10  C   UNL A   1      32.198  22.842  27.188  1.00  0.00     0.119 A 
ATOM     11  C   UNL A   1      33.324  22.596  27.958  1.00  0.00     0.048 A 
ATOM     12  C   UNL A   1      32.333  23.025  25.811  1.00  0.00     0.057 A 
ATOM     13  C   UNL A   1      34.591  22.522  27.369  1.00  0.00     0.031 A 
ATOM     14  C   UNL A   1      33.601  22.946  25.193  1.00  0.00     0.008 A 
ATOM     15  C   UNL A   1      34.724  22.645  25.970  1.00  0.00     0.057 A 
ATOM     16  N   UNL A   1      35.817  22.482  25.101  1.00  0.00    -0.280 N 
ATOM     17  C   UNL A   1      35.422  22.970  23.846  1.00  0.00     0.028 A 
ATOM     18  C   UNL A   1      36.349  23.203  22.691  1.00  0.00     0.065 C 
BRANCH  10  19
ATOM     19  O   UNL A   1      30.917  22.904  27.665  1.00  0.00    -0.497 OA
ATOM     20  C   UNL A   1      29.932  23.326  26.730  1.00  0.00     0.278 C 
ENDBRANCH  10  19
BRANCH  16  21
ATOM     21  C   UNL A   1      37.085  21.907  25.420  1.00  0.00     0.262 C 
ATOM     22  O   UNL A   1      37.300  20.735  25.145  1.00  0.00    -0.268 OA
BRANCH  21  23
ATOM     23  C   UNL A   1      38.187  22.617  26.094  1.00  0.00     0.040 A 
ATOM     24  C   UNL A   1      39.350  21.937  26.475  1.00  0.00     0.015 A 
ATOM     25  C   UNL A   1      38.029  23.979  26.372  1.00  0.00     0.015 A 
ATOM     26  C   UNL A   1      40.318  22.609  27.224  1.00  0.00     0.021 A 
ATOM     27  C   UNL A   1      39.006  24.647  27.111  1.00  0.00     0.021 A 
ATOM     28  C   UNL A   1      40.135  23.955  27.552  1.00  0.00     0.041 A 
ATOM     29  Cl  UNL A   1      41.297  24.760  28.530  1.00  0.00    -0.084 Cl
ENDBRANCH  21  23
ENDBRANCH  16  21
ENDBRANCH   8   9
ENDBRANCH   5   8
ENDBRANCH   3   4
ENDBRANCH   2   3
ENDBRANCH   1   2
BRANCH   1  30
ATOM     30  C   UNL A   1      31.913  27.660  25.988  1.00  0.00     0.002 C 
BRANCH  30  31
ATOM     31  C   UNL A   1      32.952  28.783  25.867  1.00  0.00     0.021 C 
BRANCH  31  32
ATOM     32  C   UNL A   1      33.614  29.164  27.190  1.00  0.00     0.116 C 
BRANCH  32  33
ATOM     33  N   UNL A   1      33.851  30.586  27.324  1.00  0.00    -0.352 N 
ATOM     34  C   UNL A   1      34.924  31.365  27.643  1.00  0.00     0.251 C 
ATOM     35  H   UNL A   1      33.044  31.118  27.139  1.00  0.00     0.163 HD
ATOM     36  O   UNL A   1      34.744  32.584  27.583  1.00  0.00    -0.269 OA
BRANCH  34  37
ATOM     37  C   UNL A   1      36.243  30.864  28.116  1.00  0.00     0.039 A 
ATOM     38  C   UNL A   1      37.180  31.589  28.853  1.00  0.00     0.014 A 
ATOM     39  C   UNL A   1      36.568  29.553  27.719  1.00  0.00     0.014 A 
ATOM     40  C   UNL A   1      38.450  31.064  29.081  1.00  0.00     0.010 A 
ATOM     41  C   UNL A   1      37.823  29.017  27.961  1.00  0.00     0.010 A 
ATOM     42  C   UNL A   1      38.783  29.800  28.589  1.00  0.00    -0.014 A 
BRANCH  42  43
ATOM     43  C   UNL A   1      40.127  29.289  28.841  1.00  0.00     0.031 A 
ATOM     44  C   UNL A   1      40.417  29.000  30.275  1.00  0.00     0.074 A 
ATOM     45  C   UNL A   1      40.993  28.997  27.848  1.00  0.00     0.049 A 
ATOM     46  N   UNL A   1      41.343  29.506  31.025  1.00  0.00    -0.248 NA
ATOM     47  C   UNL A   1      39.487  28.113  30.995  1.00  0.00     0.031 C 
ATOM     48  C   UNL A   1      40.742  28.987  26.403  1.00  0.00     0.029 A 
ATOM     49  N   UNL A   1      42.281  28.557  27.930  1.00  0.00    -0.354 N 
ATOM     50  C   UNL A   1      41.214  28.889  32.269  1.00  0.00     0.074 A 
ATOM     51  C   UNL A   1      39.986  28.139  32.231  1.00  0.00     0.031 C 
ATOM     52  C   UNL A   1      41.756  28.350  25.774  1.00  0.00     0.029 A 
ATOM     53  C   UNL A   1      42.788  28.036  26.745  1.00  0.00     0.049 A 
ATOM     54  H   UNL A   1      42.807  28.604  28.761  1.00  0.00     0.167 HD
ATOM     55  C   UNL A   1      42.232  28.878  33.172  1.00  0.00     0.037 A 
ATOM     56  C   UNL A   1      43.950  27.350  26.596  1.00  0.00     0.037 A 
ATOM     57  C   UNL A   1      43.203  29.897  32.889  1.00  0.00     0.049 A 
ATOM     58  C   UNL A   1      44.795  27.656  27.775  1.00  0.00     0.074 A 
ATOM     59  C   UNL A   1      43.198  31.277  32.897  1.00  0.00     0.029 A 
ATOM     60  N   UNL A   1      44.320  29.528  32.187  1.00  0.00    -0.354 N 
ATOM     61  N   UNL A   1      45.320  28.823  28.012  1.00  0.00    -0.248 NA
ATOM     62  C   UNL A   1      44.703  26.762  28.918  1.00  0.00     0.031 C 
ATOM     63  C   UNL A   1      44.045  31.657  31.815  1.00  0.00     0.029 A 
ATOM     64  C   UNL A   1      44.560  30.493  31.245  1.00  0.00     0.049 A 
ATOM     65  H   UNL A   1      44.855  28.715  32.333  1.00  0.00     0.167 HD
ATOM     66  C   UNL A   1      45.226  28.975  29.387  1.00  0.00     0.074 A 
ATOM     67  C   UNL A   1      44.928  27.640  29.899  1.00  0.00     0.031 C 
ATOM     68  C   UNL A   1      45.119  30.215  29.943  1.00  0.00     0.037 A 
BRANCH  55  69
ATOM     69  C   UNL A   1      42.527  27.726  34.098  1.00  0.00     0.064 A 
ATOM     70  C   UNL A   1      43.138  26.560  33.595  1.00  0.00     0.173 A 
ATOM     71  C   UNL A   1      41.961  27.611  35.387  1.00  0.00     0.173 A 
ATOM     72  F   UNL A   1      43.674  26.547  32.366  1.00  0.00    -0.203 F 
ATOM     73  C   UNL A   1      43.133  25.358  34.309  1.00  0.00     0.198 A 
ATOM     74  C   UNL A   1      42.003  26.425  36.117  1.00  0.00     0.198 A 
ATOM     75  F   UNL A   1      41.247  28.600  35.937  1.00  0.00    -0.203 F 
ATOM     76  F   UNL A   1      43.625  24.247  33.746  1.00  0.00    -0.200 F 
ATOM     77  C   UNL A   1      42.565  25.291  35.568  1.00  0.00     0.200 A 
ATOM     78  F   UNL A   1      41.422  26.374  37.324  1.00  0.00    -0.200 F 
ATOM     79  F   UNL A   1      42.511  24.129  36.232  1.00  0.00    -0.200 F 
ENDBRANCH  55  69
BRANCH  56  80
ATOM     80  C   UNL A   1      44.245  26.191  25.714  1.00  0.00     0.064 A 
ATOM     81  C   UNL A   1      45.570  25.869  25.368  1.00  0.00     0.173 A 
ATOM     82  C   UNL A   1      43.276  25.203  25.459  1.00  0.00     0.173 A 
ATOM     83  F   UNL A   1      46.561  26.736  25.615  1.00  0.00    -0.203 F 
ATOM     84  C   UNL A   1      45.909  24.617  24.843  1.00  0.00     0.198 A 
ATOM     85  C   UNL A   1      43.615  23.956  24.929  1.00  0.00     0.198 A 
ATOM     86  F   UNL A   1      41.997  25.386  25.816  1.00  0.00    -0.203 F 
ATOM     87  F   UNL A   1      47.193  24.319  24.598  1.00  0.00    -0.200 F 
ATOM     88  C   UNL A   1      44.933  23.657  24.638  1.00  0.00     0.200 A 
ATOM     89  F   UNL A   1      42.667  23.022  24.770  1.00  0.00    -0.200 F 
ATOM     90  F   UNL A   1      45.265  22.432  24.205  1.00  0.00    -0.200 F 
ENDBRANCH  56  80
BRANCH  68  91
ATOM     91  C   UNL A   1      45.389  31.400  29.057  1.00  0.00     0.064 A 
ATOM     92  C   UNL A   1      44.419  32.013  28.245  1.00  0.00     0.173 A 
ATOM     93  C   UNL A   1      46.638  32.025  29.154  1.00  0.00     0.173 A 
ATOM     94  F   UNL A   1      43.174  31.529  28.171  1.00  0.00    -0.203 F 
ATOM     95  C   UNL A   1      44.703  33.183  27.540  1.00  0.00     0.198 A 
ATOM     96  C   UNL A   1      46.906  33.212  28.479  1.00  0.00     0.198 A 
ATOM     97  F   UNL A   1      47.585  31.511  29.955  1.00  0.00    -0.203 F 
ATOM     98  F   UNL A   1      43.762  33.750  26.769  1.00  0.00    -0.200 F 
ATOM     99  C   UNL A   1      45.943  33.786  27.667  1.00  0.00     0.200 A 
ATOM    100  F   UNL A   1      48.090  33.818  28.645  1.00  0.00    -0.200 F 
ATOM    101  F   UNL A   1      46.199  34.938  27.031  1.00  0.00    -0.200 F 
ENDBRANCH  68  91
ENDBRANCH  42  43
ENDBRANCH  34  37
ENDBRANCH  32  33
ENDBRANCH  31  32
ENDBRANCH  30  31
ENDBRANCH   1  30
TORSDOF 17
ENDMDL
