MODEL 1
REMARK VINA RESULT:     -12.9      0.000      0.000
REMARK SMILES Cc1occc1C(=O)N1CCC(C(=O)NCCCCCCNC(=O)c2ccc(-c3c4nc(c(-c5c(F)c(F)c(F)c(F)c5F)c5ccc([nH]5)c(-c5c(F)c(F)c(F)c(F)c5F)c5nc(c(-c6c(F)c(F)c(F)c(F)c6F)c6ccc3[nH]6)C=C5)C=C4)cc2)(n2cccn2)CC1
REMARK SMILES IDX 19 1 18 2 17 3 16 4 15 5 13 6 14 7 12 9 7 10 8 11 9 12 10 13
REMARK SMILES IDX 94 14 11 15 93 16 6 17 1 18 2 19 3 20 4 21 5 22 88 23 89 24
REMARK SMILES IDX 92 25 90 26 91 27 20 28 21 29 22 30 23 31 24 33 25 34 26 35
REMARK SMILES IDX 87 36 27 37 86 38 28 39 29 40 30 41 80 42 31 43 85 44 79 45
REMARK SMILES IDX 81 46 32 47 84 48 78 49 77 50 33 52 65 53 45 54 64 55 46 56
REMARK SMILES IDX 49 57 63 58 82 59 47 60 48 61 62 63 83 64 50 65 34 66 35 67
REMARK SMILES IDX 43 68 36 69 37 70 41 71 44 72 38 73 39 74 42 75 40 76 66 77
REMARK SMILES IDX 67 78 75 79 68 80 69 81 73 82 76 83 70 84 71 85 74 86 72 87
REMARK SMILES IDX 51 88 52 89 60 90 53 91 54 92 58 93 61 94 55 95 56 96 59 97
REMARK SMILES IDX 57 98
REMARK H PARENT 15 8 22 32 81 51 49 62
REMARK Flexibility Score: inf
ROOT
ATOM      1  C   UNL A   1      31.983  30.600  26.891  1.00  0.00     0.002 C 
ENDROOT
BRANCH   1   2
ATOM      2  C   UNL A   1      33.469  30.270  26.721  1.00  0.00     0.002 C 
BRANCH   2   3
ATOM      3  C   UNL A   1      33.899  28.865  27.164  1.00  0.00     0.021 C 
BRANCH   3   4
ATOM      4  C   UNL A   1      33.527  27.735  26.203  1.00  0.00     0.116 C 
BRANCH   4   5
ATOM      5  N   UNL A   1      32.360  26.998  26.660  1.00  0.00    -0.354 N 
ATOM      6  C   UNL A   1      31.223  26.533  26.049  1.00  0.00     0.248 C 
ATOM      7  O   UNL A   1      30.561  25.808  26.796  1.00  0.00    -0.272 OA
ATOM      8  H   UNL A   1      32.394  26.784  27.621  1.00  0.00     0.163 HD
BRANCH   6   9
ATOM      9  C   UNL A   1      30.886  26.849  24.546  1.00  0.00     0.144 C 
ATOM     10  C   UNL A   1      27.815  29.383  22.974  1.00  0.00     0.257 C 
ATOM     11  O   UNL A   1      26.699  29.060  23.384  1.00  0.00    -0.269 OA
ATOM     12  N   UNL A   1      28.924  28.563  23.203  1.00  0.00    -0.338 N 
ATOM     13  C   UNL A   1      28.701  27.126  23.183  1.00  0.00     0.123 C 
ATOM     14  C   UNL A   1      30.297  29.039  23.271  1.00  0.00     0.123 C 
ATOM     15  C   UNL A   1      29.444  26.358  24.263  1.00  0.00     0.062 C 
ATOM     16  C   UNL A   1      31.090  28.381  24.391  1.00  0.00     0.062 C 
BRANCH  10  17
ATOM     17  C   UNL A   1      27.977  30.616  22.211  1.00  0.00     0.081 A 
ATOM     18  C   UNL A   1      28.958  32.395  23.919  1.00  0.00     0.088 C 
ATOM     19  C   UNL A   1      28.463  31.847  22.638  1.00  0.00     0.113 A 
ATOM     20  O   UNL A   1      28.553  32.712  21.587  1.00  0.00    -0.469 OA
ATOM     21  C   UNL A   1      28.193  32.034  20.472  1.00  0.00     0.196 A 
ATOM     22  C   UNL A   1      27.841  30.747  20.793  1.00  0.00     0.056 A 
ENDBRANCH  10  17
BRANCH   9  23
ATOM     23  N   UNL A   1      31.785  26.148  23.565  1.00  0.00    -0.257 N 
ATOM     24  C   UNL A   1      32.780  26.711  22.791  1.00  0.00     0.110 A 
ATOM     25  N   UNL A   1      31.636  24.845  23.264  1.00  0.00    -0.181 NA
ATOM     26  C   UNL A   1      33.324  25.707  22.026  1.00  0.00     0.042 A 
ATOM     27  C   UNL A   1      32.584  24.573  22.370  1.00  0.00     0.135 A 
ENDBRANCH   9  23
ENDBRANCH   6   9
ENDBRANCH   4   5
ENDBRANCH   3   4
ENDBRANCH   2   3
ENDBRANCH   1   2
BRANCH   1  28
ATOM     28  C   UNL A   1      31.636  32.088  26.981  1.00  0.00     0.021 C 
BRANCH  28  29
ATOM     29  C   UNL A   1      32.827  33.038  27.085  1.00  0.00     0.116 C 
BRANCH  29  30
ATOM     30  N   UNL A   1      32.470  34.333  27.638  1.00  0.00    -0.352 N 
ATOM     31  C   UNL A   1      33.007  34.998  28.712  1.00  0.00     0.251 C 
ATOM     32  H   UNL A   1      31.737  34.802  27.175  1.00  0.00     0.163 HD
ATOM     33  O   UNL A   1      32.493  36.039  29.113  1.00  0.00    -0.269 OA
BRANCH  31  34
ATOM     34  C   UNL A   1      34.190  34.452  29.415  1.00  0.00     0.039 A 
ATOM     35  C   UNL A   1      33.997  33.771  30.621  1.00  0.00     0.014 A 
ATOM     36  C   UNL A   1      35.482  34.627  28.911  1.00  0.00     0.014 A 
ATOM     37  C   UNL A   1      35.089  33.213  31.291  1.00  0.00     0.010 A 
ATOM     38  C   UNL A   1      36.566  34.030  29.555  1.00  0.00     0.010 A 
ATOM     39  C   UNL A   1      36.379  33.317  30.748  1.00  0.00    -0.014 A 
BRANCH  39  40
ATOM     40  C   UNL A   1      37.543  32.679  31.412  1.00  0.00     0.031 A 
ATOM     41  C   UNL A   1      38.254  31.531  30.754  1.00  0.00     0.074 A 
ATOM     42  C   UNL A   1      37.914  33.087  32.641  1.00  0.00     0.049 A 
ATOM     43  N   UNL A   1      39.233  30.791  31.214  1.00  0.00    -0.248 NA
ATOM     44  C   UNL A   1      37.791  31.148  29.412  1.00  0.00     0.031 C 
ATOM     45  C   UNL A   1      37.276  34.160  33.405  1.00  0.00     0.029 A 
ATOM     46  N   UNL A   1      38.909  32.633  33.471  1.00  0.00    -0.354 N 
ATOM     47  C   UNL A   1      39.482  29.843  30.233  1.00  0.00     0.074 A 
ATOM     48  C   UNL A   1      38.540  30.084  29.160  1.00  0.00     0.031 C 
ATOM     49  C   UNL A   1      37.898  34.285  34.589  1.00  0.00     0.029 A 
ATOM     50  C   UNL A   1      38.959  33.287  34.678  1.00  0.00     0.049 A 
ATOM     51  H   UNL A   1      39.528  31.908  33.225  1.00  0.00     0.167 HD
ATOM     52  C   UNL A   1      40.420  28.865  30.225  1.00  0.00     0.037 A 
ATOM     53  C   UNL A   1      39.764  33.094  35.740  1.00  0.00     0.037 A 
ATOM     54  C   UNL A   1      41.389  28.656  31.265  1.00  0.00     0.049 A 
ATOM     55  C   UNL A   1      40.821  32.026  35.685  1.00  0.00     0.074 A 
ATOM     56  C   UNL A   1      42.435  27.748  31.300  1.00  0.00     0.029 A 
ATOM     57  N   UNL A   1      41.436  29.366  32.453  1.00  0.00    -0.354 N 
ATOM     58  N   UNL A   1      41.091  31.180  34.722  1.00  0.00    -0.248 NA
ATOM     59  C   UNL A   1      41.688  31.890  36.865  1.00  0.00     0.031 C 
ATOM     60  C   UNL A   1      43.099  27.893  32.523  1.00  0.00     0.029 A 
ATOM     61  C   UNL A   1      42.483  28.907  33.236  1.00  0.00     0.049 A 
ATOM     62  H   UNL A   1      40.817  30.090  32.704  1.00  0.00     0.167 HD
ATOM     63  C   UNL A   1      42.171  30.430  35.165  1.00  0.00     0.074 A 
ATOM     64  C   UNL A   1      42.512  30.924  36.482  1.00  0.00     0.031 C 
ATOM     65  C   UNL A   1      42.819  29.421  34.538  1.00  0.00     0.037 A 
BRANCH  52  66
ATOM     66  C   UNL A   1      40.451  27.943  29.044  1.00  0.00     0.064 A 
ATOM     67  C   UNL A   1      39.679  26.775  29.007  1.00  0.00     0.173 A 
ATOM     68  C   UNL A   1      41.216  28.266  27.914  1.00  0.00     0.173 A 
ATOM     69  F   UNL A   1      38.940  26.420  30.069  1.00  0.00    -0.203 F 
ATOM     70  C   UNL A   1      39.680  25.954  27.883  1.00  0.00     0.198 A 
ATOM     71  C   UNL A   1      41.200  27.453  26.784  1.00  0.00     0.198 A 
ATOM     72  F   UNL A   1      41.968  29.378  27.901  1.00  0.00    -0.203 F 
ATOM     73  F   UNL A   1      38.954  24.828  27.877  1.00  0.00    -0.200 F 
ATOM     74  C   UNL A   1      40.434  26.297  26.770  1.00  0.00     0.200 A 
ATOM     75  F   UNL A   1      41.922  27.790  25.707  1.00  0.00    -0.200 F 
ATOM     76  F   UNL A   1      40.426  25.511  25.685  1.00  0.00    -0.200 F 
ENDBRANCH  52  66
BRANCH  53  77
ATOM     77  C   UNL A   1      39.619  33.948  36.945  1.00  0.00     0.064 A 
ATOM     78  C   UNL A   1      38.839  33.529  38.031  1.00  0.00     0.173 A 
ATOM     79  C   UNL A   1      40.240  35.201  37.028  1.00  0.00     0.173 A 
ATOM     80  F   UNL A   1      38.208  32.347  37.984  1.00  0.00    -0.203 F 
ATOM     81  C   UNL A   1      38.670  34.341  39.150  1.00  0.00     0.198 A 
ATOM     82  C   UNL A   1      40.088  36.004  38.157  1.00  0.00     0.198 A 
ATOM     83  F   UNL A   1      40.998  35.644  36.014  1.00  0.00    -0.203 F 
ATOM     84  F   UNL A   1      37.886  33.935  40.157  1.00  0.00    -0.200 F 
ATOM     85  C   UNL A   1      39.297  35.576  39.213  1.00  0.00     0.200 A 
ATOM     86  F   UNL A   1      40.701  37.194  38.218  1.00  0.00    -0.200 F 
ATOM     87  F   UNL A   1      39.132  36.358  40.289  1.00  0.00    -0.200 F 
ENDBRANCH  53  77
BRANCH  65  88
ATOM     88  C   UNL A   1      43.984  28.807  35.251  1.00  0.00     0.064 A 
ATOM     89  C   UNL A   1      43.818  27.713  36.112  1.00  0.00     0.173 A 
ATOM     90  C   UNL A   1      45.282  29.294  35.040  1.00  0.00     0.173 A 
ATOM     91  F   UNL A   1      42.593  27.225  36.354  1.00  0.00    -0.203 F 
ATOM     92  C   UNL A   1      44.913  27.135  36.750  1.00  0.00     0.198 A 
ATOM     93  C   UNL A   1      46.376  28.702  35.665  1.00  0.00     0.198 A 
ATOM     94  F   UNL A   1      45.489  30.337  34.224  1.00  0.00    -0.203 F 
ATOM     95  F   UNL A   1      44.730  26.112  37.595  1.00  0.00    -0.200 F 
ATOM     96  C   UNL A   1      46.190  27.627  36.521  1.00  0.00     0.200 A 
ATOM     97  F   UNL A   1      47.610  29.173  35.440  1.00  0.00    -0.200 F 
ATOM     98  F   UNL A   1      47.243  27.068  37.134  1.00  0.00    -0.200 F 
ENDBRANCH  65  88
ENDBRANCH  39  40
ENDBRANCH  31  34
ENDBRANCH  29  30
ENDBRANCH  28  29
ENDBRANCH   1  28
TORSDOF 15
ENDMDL
MODEL 2
REMARK VINA RESULT:     -12.7      0.745      2.095
REMARK SMILES Cc1occc1C(=O)N1CCC(C(=O)NCCCCCCNC(=O)c2ccc(-c3c4nc(c(-c5c(F)c(F)c(F)c(F)c5F)c5ccc([nH]5)c(-c5c(F)c(F)c(F)c(F)c5F)c5nc(c(-c6c(F)c(F)c(F)c(F)c6F)c6ccc3[nH]6)C=C5)C=C4)cc2)(n2cccn2)CC1
REMARK SMILES IDX 19 1 18 2 17 3 16 4 15 5 13 6 14 7 12 9 7 10 8 11 9 12 10 13
REMARK SMILES IDX 94 14 11 15 93 16 6 17 1 18 2 19 3 20 4 21 5 22 88 23 89 24
REMARK SMILES IDX 92 25 90 26 91 27 20 28 21 29 22 30 23 31 24 33 25 34 26 35
REMARK SMILES IDX 87 36 27 37 86 38 28 39 29 40 30 41 80 42 31 43 85 44 79 45
REMARK SMILES IDX 81 46 32 47 84 48 78 49 77 50 33 52 65 53 45 54 64 55 46 56
REMARK SMILES IDX 49 57 63 58 82 59 47 60 48 61 62 63 83 64 50 65 34 66 35 67
REMARK SMILES IDX 43 68 36 69 37 70 41 71 44 72 38 73 39 74 42 75 40 76 66 77
REMARK SMILES IDX 67 78 75 79 68 80 69 81 73 82 76 83 70 84 71 85 74 86 72 87
REMARK SMILES IDX 51 88 52 89 60 90 53 91 54 92 58 93 61 94 55 95 56 96 59 97
REMARK SMILES IDX 57 98
REMARK H PARENT 15 8 22 32 81 51 49 62
REMARK Flexibility Score: inf
ROOT
ATOM      1  C   UNL A   1      32.037  30.636  26.903  1.00  0.00     0.002 C 
ENDROOT
BRANCH   1   2
ATOM      2  C   UNL A   1      33.544  30.390  27.018  1.00  0.00     0.002 C 
BRANCH   2   3
ATOM      3  C   UNL A   1      33.970  28.939  27.278  1.00  0.00     0.021 C 
BRANCH   3   4
ATOM      4  C   UNL A   1      33.570  27.937  26.194  1.00  0.00     0.116 C 
BRANCH   4   5
ATOM      5  N   UNL A   1      32.498  27.061  26.637  1.00  0.00    -0.354 N 
ATOM      6  C   UNL A   1      31.415  26.487  26.019  1.00  0.00     0.248 C 
ATOM      7  O   UNL A   1      30.845  25.671  26.748  1.00  0.00    -0.272 OA
ATOM      8  H   UNL A   1      32.565  26.825  27.590  1.00  0.00     0.163 HD
BRANCH   6   9
ATOM      9  C   UNL A   1      31.031  26.805  24.527  1.00  0.00     0.144 C 
ATOM     10  C   UNL A   1      27.885  29.307  23.055  1.00  0.00     0.257 C 
ATOM     11  O   UNL A   1      26.786  28.969  23.495  1.00  0.00    -0.269 OA
ATOM     12  N   UNL A   1      29.010  28.500  23.248  1.00  0.00    -0.338 N 
ATOM     13  C   UNL A   1      28.805  27.060  23.229  1.00  0.00     0.123 C 
ATOM     14  C   UNL A   1      30.379  28.992  23.279  1.00  0.00     0.123 C 
ATOM     15  C   UNL A   1      29.588  26.298  24.284  1.00  0.00     0.062 C 
ATOM     16  C   UNL A   1      31.212  28.340  24.373  1.00  0.00     0.062 C 
BRANCH  10  17
ATOM     17  C   UNL A   1      28.010  30.545  22.293  1.00  0.00     0.081 A 
ATOM     18  C   UNL A   1      28.998  32.335  23.985  1.00  0.00     0.088 C 
ATOM     19  C   UNL A   1      28.485  31.782  22.714  1.00  0.00     0.113 A 
ATOM     20  O   UNL A   1      28.538  32.652  21.664  1.00  0.00    -0.469 OA
ATOM     21  C   UNL A   1      28.166  31.972  20.554  1.00  0.00     0.196 A 
ATOM     22  C   UNL A   1      27.842  30.678  20.879  1.00  0.00     0.056 A 
ENDBRANCH  10  17
BRANCH   9  23
ATOM     23  N   UNL A   1      31.910  26.119  23.518  1.00  0.00    -0.257 N 
ATOM     24  C   UNL A   1      31.791  26.153  22.143  1.00  0.00     0.110 A 
ATOM     25  N   UNL A   1      32.902  25.286  23.884  1.00  0.00    -0.181 NA
ATOM     26  C   UNL A   1      32.790  25.366  21.624  1.00  0.00     0.042 A 
ATOM     27  C   UNL A   1      33.453  24.865  22.748  1.00  0.00     0.135 A 
ENDBRANCH   9  23
ENDBRANCH   6   9
ENDBRANCH   4   5
ENDBRANCH   3   4
ENDBRANCH   2   3
ENDBRANCH   1   2
BRANCH   1  28
ATOM     28  C   UNL A   1      31.594  32.100  26.950  1.00  0.00     0.021 C 
BRANCH  28  29
ATOM     29  C   UNL A   1      32.716  33.132  26.862  1.00  0.00     0.116 C 
BRANCH  29  30
ATOM     30  N   UNL A   1      32.446  34.327  27.641  1.00  0.00    -0.352 N 
ATOM     31  C   UNL A   1      33.053  34.773  28.789  1.00  0.00     0.251 C 
ATOM     32  H   UNL A   1      31.724  34.902  27.296  1.00  0.00     0.163 HD
ATOM     33  O   UNL A   1      32.607  35.752  29.382  1.00  0.00    -0.269 OA
BRANCH  31  34
ATOM     34  C   UNL A   1      34.229  34.061  29.339  1.00  0.00     0.039 A 
ATOM     35  C   UNL A   1      35.506  34.517  29.000  1.00  0.00     0.014 A 
ATOM     36  C   UNL A   1      34.082  32.940  30.161  1.00  0.00     0.014 A 
ATOM     37  C   UNL A   1      36.636  33.889  29.531  1.00  0.00     0.010 A 
ATOM     38  C   UNL A   1      35.208  32.343  30.729  1.00  0.00     0.010 A 
ATOM     39  C   UNL A   1      36.494  32.813  30.421  1.00  0.00    -0.014 A 
BRANCH  39  40
ATOM     40  C   UNL A   1      37.678  32.172  31.043  1.00  0.00     0.031 A 
ATOM     41  C   UNL A   1      38.450  31.121  30.297  1.00  0.00     0.074 A 
ATOM     42  C   UNL A   1      38.017  32.485  32.309  1.00  0.00     0.049 A 
ATOM     43  N   UNL A   1      39.456  30.388  30.704  1.00  0.00    -0.248 NA
ATOM     44  C   UNL A   1      38.020  30.839  28.919  1.00  0.00     0.031 C 
ATOM     45  C   UNL A   1      37.321  33.455  33.155  1.00  0.00     0.029 A 
ATOM     46  N   UNL A   1      39.022  32.004  33.111  1.00  0.00    -0.354 N 
ATOM     47  C   UNL A   1      39.760  29.543  29.647  1.00  0.00     0.074 A 
ATOM     48  C   UNL A   1      38.821  29.836  28.585  1.00  0.00     0.031 C 
ATOM     49  C   UNL A   1      37.923  33.502  34.355  1.00  0.00     0.029 A 
ATOM     50  C   UNL A   1      39.028  32.549  34.372  1.00  0.00     0.049 A 
ATOM     51  H   UNL A   1      39.677  31.333  32.811  1.00  0.00     0.167 HD
ATOM     52  C   UNL A   1      40.742  28.614  29.566  1.00  0.00     0.037 A 
ATOM     53  C   UNL A   1      39.830  32.299  35.424  1.00  0.00     0.037 A 
ATOM     54  C   UNL A   1      41.709  28.356  30.599  1.00  0.00     0.049 A 
ATOM     55  C   UNL A   1      40.935  31.289  35.291  1.00  0.00     0.074 A 
ATOM     56  C   UNL A   1      42.795  27.497  30.569  1.00  0.00     0.029 A 
ATOM     57  N   UNL A   1      41.710  28.959  31.846  1.00  0.00    -0.354 N 
ATOM     58  N   UNL A   1      41.255  30.546  34.261  1.00  0.00    -0.248 NA
ATOM     59  C   UNL A   1      41.795  31.087  36.467  1.00  0.00     0.031 C 
ATOM     60  C   UNL A   1      43.438  27.562  31.810  1.00  0.00     0.029 A 
ATOM     61  C   UNL A   1      42.768  28.480  32.601  1.00  0.00     0.049 A 
ATOM     62  H   UNL A   1      41.055  29.628  32.151  1.00  0.00     0.167 HD
ATOM     63  C   UNL A   1      42.363  29.808  34.652  1.00  0.00     0.074 A 
ATOM     64  C   UNL A   1      42.667  30.198  36.013  1.00  0.00     0.031 C 
ATOM     65  C   UNL A   1      43.065  28.890  33.948  1.00  0.00     0.037 A 
BRANCH  52  66
ATOM     66  C   UNL A   1      40.830  27.803  28.309  1.00  0.00     0.064 A 
ATOM     67  C   UNL A   1      41.588  28.233  27.212  1.00  0.00     0.173 A 
ATOM     68  C   UNL A   1      40.199  26.553  28.228  1.00  0.00     0.173 A 
ATOM     69  F   UNL A   1      42.200  29.426  27.241  1.00  0.00    -0.203 F 
ATOM     70  C   UNL A   1      41.702  27.445  26.070  1.00  0.00     0.198 A 
ATOM     71  C   UNL A   1      40.331  25.759  27.092  1.00  0.00     0.198 A 
ATOM     72  F   UNL A   1      39.466  26.096  29.255  1.00  0.00    -0.203 F 
ATOM     73  F   UNL A   1      42.410  27.885  25.022  1.00  0.00    -0.200 F 
ATOM     74  C   UNL A   1      41.080  26.206  26.014  1.00  0.00     0.200 A 
ATOM     75  F   UNL A   1      39.736  24.559  27.042  1.00  0.00    -0.200 F 
ATOM     76  F   UNL A   1      41.199  25.444  24.918  1.00  0.00    -0.200 F 
ENDBRANCH  52  66
BRANCH  53  77
ATOM     77  C   UNL A   1      39.631  33.034  36.698  1.00  0.00     0.064 A 
ATOM     78  C   UNL A   1      40.380  34.181  36.990  1.00  0.00     0.173 A 
ATOM     79  C   UNL A   1      38.703  32.596  37.653  1.00  0.00     0.173 A 
ATOM     80  F   UNL A   1      41.296  34.621  36.114  1.00  0.00    -0.203 F 
ATOM     81  C   UNL A   1      40.223  34.854  38.198  1.00  0.00     0.198 A 
ATOM     82  C   UNL A   1      38.530  33.282  38.853  1.00  0.00     0.198 A 
ATOM     83  F   UNL A   1      37.961  31.504  37.418  1.00  0.00    -0.203 F 
ATOM     84  F   UNL A   1      40.982  35.924  38.470  1.00  0.00    -0.200 F 
ATOM     85  C   UNL A   1      39.296  34.406  39.127  1.00  0.00     0.200 A 
ATOM     86  F   UNL A   1      37.629  32.851  39.746  1.00  0.00    -0.200 F 
ATOM     87  F   UNL A   1      39.147  35.052  40.292  1.00  0.00    -0.200 F 
ENDBRANCH  53  77
BRANCH  65  88
ATOM     88  C   UNL A   1      44.249  28.267  34.621  1.00  0.00     0.064 A 
ATOM     89  C   UNL A   1      45.517  28.863  34.566  1.00  0.00     0.173 A 
ATOM     90  C   UNL A   1      44.104  27.084  35.361  1.00  0.00     0.173 A 
ATOM     91  F   UNL A   1      45.704  29.986  33.857  1.00  0.00    -0.203 F 
ATOM     92  C   UNL A   1      46.604  28.286  35.216  1.00  0.00     0.198 A 
ATOM     93  C   UNL A   1      45.189  26.521  36.026  1.00  0.00     0.198 A 
ATOM     94  F   UNL A   1      42.909  26.480  35.444  1.00  0.00    -0.203 F 
ATOM     95  F   UNL A   1      47.815  28.852  35.124  1.00  0.00    -0.200 F 
ATOM     96  C   UNL A   1      46.438  27.120  35.950  1.00  0.00     0.200 A 
ATOM     97  F   UNL A   1      45.027  25.398  36.739  1.00  0.00    -0.200 F 
ATOM     98  F   UNL A   1      47.486  26.568  36.578  1.00  0.00    -0.200 F 
ENDBRANCH  65  88
ENDBRANCH  39  40
ENDBRANCH  31  34
ENDBRANCH  29  30
ENDBRANCH  28  29
ENDBRANCH   1  28
TORSDOF 15
ENDMDL
MODEL 3
REMARK VINA RESULT:     -12.7      0.813      7.150
REMARK SMILES Cc1occc1C(=O)N1CCC(C(=O)NCCCCCCNC(=O)c2ccc(-c3c4nc(c(-c5c(F)c(F)c(F)c(F)c5F)c5ccc([nH]5)c(-c5c(F)c(F)c(F)c(F)c5F)c5nc(c(-c6c(F)c(F)c(F)c(F)c6F)c6ccc3[nH]6)C=C5)C=C4)cc2)(n2cccn2)CC1
REMARK SMILES IDX 19 1 18 2 17 3 16 4 15 5 13 6 14 7 12 9 7 10 8 11 9 12 10 13
REMARK SMILES IDX 94 14 11 15 93 16 6 17 1 18 2 19 3 20 4 21 5 22 88 23 89 24
REMARK SMILES IDX 92 25 90 26 91 27 20 28 21 29 22 30 23 31 24 33 25 34 26 35
REMARK SMILES IDX 87 36 27 37 86 38 28 39 29 40 30 41 80 42 31 43 85 44 79 45
REMARK SMILES IDX 81 46 32 47 84 48 78 49 77 50 33 52 65 53 45 54 64 55 46 56
REMARK SMILES IDX 49 57 63 58 82 59 47 60 48 61 62 63 83 64 50 65 34 66 35 67
REMARK SMILES IDX 43 68 36 69 37 70 41 71 44 72 38 73 39 74 42 75 40 76 66 77
REMARK SMILES IDX 67 78 75 79 68 80 69 81 73 82 76 83 70 84 71 85 74 86 72 87
REMARK SMILES IDX 51 88 52 89 60 90 53 91 54 92 58 93 61 94 55 95 56 96 59 97
REMARK SMILES IDX 57 98
REMARK H PARENT 15 8 22 32 81 51 49 62
REMARK Flexibility Score: inf
ROOT
ATOM      1  C   UNL A   1      32.191  30.537  27.092  1.00  0.00     0.002 C 
ENDROOT
BRANCH   1   2
ATOM      2  C   UNL A   1      33.716  30.389  27.083  1.00  0.00     0.002 C 
BRANCH   2   3
ATOM      3  C   UNL A   1      34.252  28.958  27.222  1.00  0.00     0.021 C 
BRANCH   3   4
ATOM      4  C   UNL A   1      33.720  27.959  26.194  1.00  0.00     0.116 C 
BRANCH   4   5
ATOM      5  N   UNL A   1      32.548  27.252  26.682  1.00  0.00    -0.354 N 
ATOM      6  C   UNL A   1      31.399  26.785  26.095  1.00  0.00     0.248 C 
ATOM      7  O   UNL A   1      30.733  26.091  26.868  1.00  0.00    -0.272 OA
ATOM      8  H   UNL A   1      32.587  27.067  27.648  1.00  0.00     0.163 HD
BRANCH   6   9
ATOM      9  C   UNL A   1      31.053  27.060  24.585  1.00  0.00     0.144 C 
ATOM     10  C   UNL A   1      27.882  29.434  22.963  1.00  0.00     0.257 C 
ATOM     11  O   UNL A   1      26.780  29.072  23.376  1.00  0.00    -0.269 OA
ATOM     12  N   UNL A   1      29.024  28.666  23.208  1.00  0.00    -0.338 N 
ATOM     13  C   UNL A   1      28.862  27.220  23.213  1.00  0.00     0.123 C 
ATOM     14  C   UNL A   1      30.376  29.200  23.271  1.00  0.00     0.123 C 
ATOM     15  C   UNL A   1      29.634  26.504  24.308  1.00  0.00     0.062 C 
ATOM     16  C   UNL A   1      31.193  28.596  24.404  1.00  0.00     0.062 C 
BRANCH  10  17
ATOM     17  C   UNL A   1      27.994  30.660  22.179  1.00  0.00     0.081 A 
ATOM     18  C   UNL A   1      28.894  32.508  23.858  1.00  0.00     0.088 C 
ATOM     19  C   UNL A   1      28.426  31.917  22.586  1.00  0.00     0.113 A 
ATOM     20  O   UNL A   1      28.483  32.767  21.519  1.00  0.00    -0.469 OA
ATOM     21  C   UNL A   1      28.156  32.055  20.415  1.00  0.00     0.196 A 
ATOM     22  C   UNL A   1      27.858  30.760  20.758  1.00  0.00     0.056 A 
ENDBRANCH  10  17
BRANCH   9  23
ATOM     23  N   UNL A   1      31.984  26.381  23.618  1.00  0.00    -0.257 N 
ATOM     24  C   UNL A   1      32.796  26.981  22.677  1.00  0.00     0.110 A 
ATOM     25  N   UNL A   1      32.051  25.041  23.513  1.00  0.00    -0.181 NA
ATOM     26  C   UNL A   1      33.450  25.979  22.001  1.00  0.00     0.042 A 
ATOM     27  C   UNL A   1      32.959  24.801  22.570  1.00  0.00     0.135 A 
ENDBRANCH   9  23
ENDBRANCH   6   9
ENDBRANCH   4   5
ENDBRANCH   3   4
ENDBRANCH   2   3
ENDBRANCH   1   2
BRANCH   1  28
ATOM     28  C   UNL A   1      31.660  31.971  27.159  1.00  0.00     0.021 C 
BRANCH  28  29
ATOM     29  C   UNL A   1      32.666  33.063  26.808  1.00  0.00     0.116 C 
BRANCH  29  30
ATOM     30  N   UNL A   1      32.467  34.281  27.574  1.00  0.00    -0.352 N 
ATOM     31  C   UNL A   1      33.110  34.711  28.708  1.00  0.00     0.251 C 
ATOM     32  H   UNL A   1      31.771  34.887  27.230  1.00  0.00     0.163 HD
ATOM     33  O   UNL A   1      32.722  35.719  29.293  1.00  0.00    -0.269 OA
BRANCH  31  34
ATOM     34  C   UNL A   1      34.255  33.947  29.255  1.00  0.00     0.039 A 
ATOM     35  C   UNL A   1      35.551  34.382  28.961  1.00  0.00     0.014 A 
ATOM     36  C   UNL A   1      34.062  32.799  30.028  1.00  0.00     0.014 A 
ATOM     37  C   UNL A   1      36.653  33.705  29.490  1.00  0.00     0.010 A 
ATOM     38  C   UNL A   1      35.159  32.151  30.596  1.00  0.00     0.010 A 
ATOM     39  C   UNL A   1      36.463  32.599  30.334  1.00  0.00    -0.014 A 
BRANCH  39  40
ATOM     40  C   UNL A   1      37.617  31.903  30.955  1.00  0.00     0.031 A 
ATOM     41  C   UNL A   1      38.082  32.289  32.331  1.00  0.00     0.074 A 
ATOM     42  C   UNL A   1      38.291  30.973  30.252  1.00  0.00     0.049 A 
ATOM     43  N   UNL A   1      39.119  31.859  33.004  1.00  0.00    -0.248 NA
ATOM     44  C   UNL A   1      37.290  33.310  33.034  1.00  0.00     0.031 C 
ATOM     45  C   UNL A   1      37.968  30.542  28.892  1.00  0.00     0.029 A 
ATOM     46  N   UNL A   1      39.402  30.235  30.580  1.00  0.00    -0.354 N 
ATOM     47  C   UNL A   1      39.121  32.573  34.193  1.00  0.00     0.074 A 
ATOM     48  C   UNL A   1      37.994  33.481  34.145  1.00  0.00     0.031 C 
ATOM     49  C   UNL A   1      38.856  29.613  28.502  1.00  0.00     0.029 A 
ATOM     50  C   UNL A   1      39.824  29.401  29.574  1.00  0.00     0.049 A 
ATOM     51  H   UNL A   1      39.852  30.298  31.453  1.00  0.00     0.167 HD
ATOM     52  C   UNL A   1      39.979  32.472  35.236  1.00  0.00     0.037 A 
ATOM     53  C   UNL A   1      40.880  28.567  29.520  1.00  0.00     0.037 A 
ATOM     54  C   UNL A   1      41.068  31.536  35.310  1.00  0.00     0.049 A 
ATOM     55  C   UNL A   1      41.793  28.449  30.709  1.00  0.00     0.074 A 
ATOM     56  C   UNL A   1      41.933  31.300  36.365  1.00  0.00     0.029 A 
ATOM     57  N   UNL A   1      41.438  30.676  34.289  1.00  0.00    -0.354 N 
ATOM     58  N   UNL A   1      41.742  29.081  31.856  1.00  0.00    -0.248 NA
ATOM     59  C   UNL A   1      42.908  27.497  30.597  1.00  0.00     0.031 C 
ATOM     60  C   UNL A   1      42.845  30.315  35.971  1.00  0.00     0.029 A 
ATOM     61  C   UNL A   1      42.530  29.920  34.682  1.00  0.00     0.049 A 
ATOM     62  H   UNL A   1      40.992  30.614  33.413  1.00  0.00     0.167 HD
ATOM     63  C   UNL A   1      42.798  28.589  32.609  1.00  0.00     0.074 A 
ATOM     64  C   UNL A   1      43.470  27.599  31.794  1.00  0.00     0.031 C 
ATOM     65  C   UNL A   1      43.177  28.928  33.864  1.00  0.00     0.037 A 
BRANCH  52  66
ATOM     66  C   UNL A   1      39.774  33.397  36.397  1.00  0.00     0.064 A 
ATOM     67  C   UNL A   1      40.404  34.647  36.458  1.00  0.00     0.173 A 
ATOM     68  C   UNL A   1      38.888  33.053  37.428  1.00  0.00     0.173 A 
ATOM     69  F   UNL A   1      41.268  35.013  35.499  1.00  0.00    -0.203 F 
ATOM     70  C   UNL A   1      40.165  35.516  37.518  1.00  0.00     0.198 A 
ATOM     71  C   UNL A   1      38.635  33.933  38.477  1.00  0.00     0.198 A 
ATOM     72  F   UNL A   1      38.256  31.869  37.411  1.00  0.00    -0.203 F 
ATOM     73  F   UNL A   1      40.797  36.696  37.571  1.00  0.00    -0.200 F 
ATOM     74  C   UNL A   1      39.276  35.163  38.522  1.00  0.00     0.200 A 
ATOM     75  F   UNL A   1      37.770  33.594  39.442  1.00  0.00    -0.200 F 
ATOM     76  F   UNL A   1      39.038  36.006  39.536  1.00  0.00    -0.200 F 
ENDBRANCH  52  66
BRANCH  53  77
ATOM     77  C   UNL A   1      41.125  27.758  28.301  1.00  0.00     0.064 A 
ATOM     78  C   UNL A   1      40.523  26.503  28.139  1.00  0.00     0.173 A 
ATOM     79  C   UNL A   1      41.973  28.214  27.283  1.00  0.00     0.173 A 
ATOM     80  F   UNL A   1      39.722  26.019  29.099  1.00  0.00    -0.203 F 
ATOM     81  C   UNL A   1      40.776  25.724  27.013  1.00  0.00     0.198 A 
ATOM     82  C   UNL A   1      42.210  27.444  26.147  1.00  0.00     0.198 A 
ATOM     83  F   UNL A   1      42.571  29.410  27.392  1.00  0.00    -0.203 F 
ATOM     84  F   UNL A   1      40.221  24.510  26.903  1.00  0.00    -0.200 F 
ATOM     85  C   UNL A   1      41.617  26.197  26.017  1.00  0.00     0.200 A 
ATOM     86  F   UNL A   1      43.017  27.906  25.182  1.00  0.00    -0.200 F 
ATOM     87  F   UNL A   1      41.862  25.446  24.934  1.00  0.00    -0.200 F 
ENDBRANCH  53  77
BRANCH  65  88
ATOM     88  C   UNL A   1      44.350  28.201  34.445  1.00  0.00     0.064 A 
ATOM     89  C   UNL A   1      44.191  26.986  35.126  1.00  0.00     0.173 A 
ATOM     90  C   UNL A   1      45.648  28.707  34.286  1.00  0.00     0.173 A 
ATOM     91  F   UNL A   1      42.967  26.474  35.316  1.00  0.00    -0.203 F 
ATOM     92  C   UNL A   1      45.293  26.309  35.641  1.00  0.00     0.198 A 
ATOM     93  C   UNL A   1      46.749  28.018  34.785  1.00  0.00     0.198 A 
ATOM     94  F   UNL A   1      45.849  29.865  33.640  1.00  0.00    -0.203 F 
ATOM     95  F   UNL A   1      45.118  25.166  36.318  1.00  0.00    -0.200 F 
ATOM     96  C   UNL A   1      46.570  26.822  35.465  1.00  0.00     0.200 A 
ATOM     97  F   UNL A   1      47.983  28.510  34.611  1.00  0.00    -0.200 F 
ATOM     98  F   UNL A   1      47.630  26.167  35.960  1.00  0.00    -0.200 F 
ENDBRANCH  65  88
ENDBRANCH  39  40
ENDBRANCH  31  34
ENDBRANCH  29  30
ENDBRANCH  28  29
ENDBRANCH   1  28
TORSDOF 15
ENDMDL
