MODEL 1
REMARK VINA RESULT:     -12.4      0.000      0.000
REMARK SMILES O=C(CNC(=O)N1CC(NCCCCCCNC(=O)c2ccc(-c3c4nc(c(-c5c(F)c(F)c(F)c(F)c5F)c5ccc([nH]5)c(-c5c(F)c(F)c(F)c(F)c5F)c5nc(c(-c6c(F)c(F)c(F)c(F)c6F)c6ccc3[nH]6)C=C5)C=C4)cc2)=[NH+]c2ccccc21)N[C@H](C(=O)[O-])c1ccccc1
REMARK SMILES IDX 12 1 11 2 10 3 7 4 8 5 89 6 9 7 84 8 88 9 83 10 85 11 87 12
REMARK SMILES IDX 86 15 5 16 4 17 6 19 3 20 2 21 1 22 90 23 91 25 95 26 96 27
REMARK SMILES IDX 100 28 97 29 99 30 98 31 92 32 93 33 94 34 13 35 14 36 15 37
REMARK SMILES IDX 16 38 17 39 18 40 19 42 20 43 21 44 82 45 22 46 81 47 23 48
REMARK SMILES IDX 24 49 25 50 75 51 26 52 80 53 74 54 76 55 27 56 79 57 73 58
REMARK SMILES IDX 72 59 28 61 60 62 40 63 59 64 41 65 44 66 58 67 77 68 42 69
REMARK SMILES IDX 43 70 57 72 78 73 45 74 29 75 30 76 38 77 31 78 32 79 36 80
REMARK SMILES IDX 39 81 33 82 34 83 37 84 35 85 61 86 62 87 70 88 63 89 64 90
REMARK SMILES IDX 68 91 71 92 65 93 66 94 69 95 67 96 46 97 47 98 55 99 48 100
REMARK SMILES IDX 49 101 53 102 56 103 50 104 51 105 54 106 52 107
REMARK H PARENT 10 13 83 14 4 18 90 24 17 41 76 60 44 71
REMARK Flexibility Score: inf
ROOT
ATOM      1  C   UNL A   1      36.113  23.339  25.744  1.00  0.00     0.046 C 
ENDROOT
BRANCH   1   2
ATOM      2  C   UNL A   1      35.448  23.852  24.467  1.00  0.00     0.233 C 
BRANCH   2   3
ATOM      3  N   UNL A   1      34.032  24.014  24.679  1.00  0.00    -0.277 N 
ATOM      4  N   UNL A   1      32.940  27.188  23.219  1.00  0.00    -0.278 N 
ATOM      5  C   UNL A   1      33.644  25.925  23.054  1.00  0.00     0.255 C 
ATOM      6  C   UNL A   1      31.537  27.051  23.364  1.00  0.00     0.093 A 
ATOM      7  C   UNL A   1      33.184  24.950  24.147  1.00  0.00     0.268 C 
ATOM      8  C   UNL A   1      31.071  25.917  24.058  1.00  0.00     0.148 A 
ATOM      9  C   UNL A   1      30.636  28.009  22.881  1.00  0.00     0.031 A 
ATOM     10  N   UNL A   1      31.951  24.947  24.584  1.00  0.00    -0.241 N 
ATOM     11  C   UNL A   1      29.709  25.806  24.333  1.00  0.00     0.054 A 
ATOM     12  C   UNL A   1      29.271  27.862  23.134  1.00  0.00     0.002 A 
ATOM     13  H   UNL A   1      33.616  23.364  25.290  1.00  0.00     0.304 HD
ATOM     14  H   UNL A   1      31.649  24.291  25.253  1.00  0.00     0.312 HD
ATOM     15  C   UNL A   1      28.811  26.774  23.876  1.00  0.00     0.005 A 
BRANCH   4  16
ATOM     16  C   UNL A   1      33.666  28.346  23.209  1.00  0.00     0.323 C 
ATOM     17  N   UNL A   1      34.026  28.931  24.381  1.00  0.00    -0.329 N 
ATOM     18  H   UNL A   1      34.369  29.850  24.299  1.00  0.00     0.165 HD
ATOM     19  O   UNL A   1      34.128  28.833  22.175  1.00  0.00    -0.248 OA
BRANCH  17  20
ATOM     20  C   UNL A   1      33.984  28.408  25.741  1.00  0.00     0.218 C 
BRANCH  20  21
ATOM     21  C   UNL A   1      33.380  29.340  26.789  1.00  0.00     0.240 C 
ATOM     22  O   UNL A   1      32.607  28.909  27.645  1.00  0.00    -0.273 OA
ATOM     23  N   UNL A   1      33.842  30.638  26.818  1.00  0.00    -0.342 N 
ATOM     24  H   UNL A   1      34.507  30.949  26.162  1.00  0.00     0.164 HD
BRANCH  23  25
ATOM     25  C   UNL A   1      33.321  31.545  27.846  1.00  0.00     0.158 C 
BRANCH  25  26
ATOM     26  C   UNL A   1      34.438  32.346  28.515  1.00  0.00    -0.020 A 
ATOM     27  C   UNL A   1      34.403  32.701  29.876  1.00  0.00     0.006 A 
ATOM     28  C   UNL A   1      35.572  32.720  27.778  1.00  0.00     0.006 A 
ATOM     29  C   UNL A   1      35.437  33.427  30.472  1.00  0.00     0.000 A 
ATOM     30  C   UNL A   1      36.600  33.458  28.377  1.00  0.00     0.000 A 
ATOM     31  C   UNL A   1      36.533  33.818  29.718  1.00  0.00     0.000 A 
ENDBRANCH  25  26
BRANCH  25  32
ATOM     32  C   UNL A   1      32.227  32.453  27.233  1.00  0.00     0.068 C 
ATOM     33  O   UNL A   1      32.153  33.670  27.339  1.00  0.00    -0.548 OA
ATOM     34  O   UNL A   1      31.403  31.818  26.361  1.00  0.00    -0.548 OA
ENDBRANCH  25  32
ENDBRANCH  23  25
ENDBRANCH  20  21
ENDBRANCH  17  20
ENDBRANCH   4  16
ENDBRANCH   2   3
ENDBRANCH   1   2
BRANCH   1  35
ATOM     35  C   UNL A   1      37.277  22.366  25.499  1.00  0.00     0.004 C 
BRANCH  35  36
ATOM     36  C   UNL A   1      36.871  20.953  25.068  1.00  0.00     0.002 C 
BRANCH  36  37
ATOM     37  C   UNL A   1      38.015  19.943  24.959  1.00  0.00     0.021 C 
BRANCH  37  38
ATOM     38  C   UNL A   1      39.271  20.294  25.751  1.00  0.00     0.116 C 
BRANCH  38  39
ATOM     39  N   UNL A   1      40.231  19.201  25.795  1.00  0.00    -0.352 N 
ATOM     40  C   UNL A   1      41.586  19.249  26.016  1.00  0.00     0.251 C 
ATOM     41  H   UNL A   1      39.857  18.303  25.646  1.00  0.00     0.163 HD
ATOM     42  O   UNL A   1      42.283  18.252  25.851  1.00  0.00    -0.269 OA
BRANCH  40  43
ATOM     43  C   UNL A   1      42.212  20.523  26.428  1.00  0.00     0.039 A 
ATOM     44  C   UNL A   1      42.745  21.368  25.452  1.00  0.00     0.014 A 
ATOM     45  C   UNL A   1      42.249  20.889  27.775  1.00  0.00     0.014 A 
ATOM     46  C   UNL A   1      43.248  22.619  25.819  1.00  0.00     0.010 A 
ATOM     47  C   UNL A   1      42.686  22.162  28.132  1.00  0.00     0.010 A 
ATOM     48  C   UNL A   1      43.184  23.042  27.157  1.00  0.00    -0.014 A 
BRANCH  48  49
ATOM     49  C   UNL A   1      43.629  24.399  27.569  1.00  0.00     0.031 A 
ATOM     50  C   UNL A   1      42.610  25.445  27.927  1.00  0.00     0.074 A 
ATOM     51  C   UNL A   1      44.937  24.717  27.535  1.00  0.00     0.049 A 
ATOM     52  N   UNL A   1      42.779  26.719  28.175  1.00  0.00    -0.248 NA
ATOM     53  C   UNL A   1      41.208  25.002  27.987  1.00  0.00     0.031 C 
ATOM     54  C   UNL A   1      46.023  23.802  27.179  1.00  0.00     0.029 A 
ATOM     55  N   UNL A   1      45.577  25.909  27.783  1.00  0.00    -0.354 N 
ATOM     56  C   UNL A   1      41.508  27.231  28.400  1.00  0.00     0.074 A 
ATOM     57  C   UNL A   1      40.573  26.143  28.209  1.00  0.00     0.031 C 
ATOM     58  C   UNL A   1      47.191  24.460  27.242  1.00  0.00     0.029 A 
ATOM     59  C   UNL A   1      46.937  25.854  27.594  1.00  0.00     0.049 A 
ATOM     60  H   UNL A   1      45.105  26.724  28.069  1.00  0.00     0.167 HD
ATOM     61  C   UNL A   1      41.155  28.490  28.751  1.00  0.00     0.037 A 
ATOM     62  C   UNL A   1      47.870  26.823  27.675  1.00  0.00     0.037 A 
ATOM     63  C   UNL A   1      42.091  29.564  28.961  1.00  0.00     0.049 A 
ATOM     64  C   UNL A   1      47.447  28.223  28.036  1.00  0.00     0.074 A 
ATOM     65  C   UNL A   1      41.836  30.862  29.369  1.00  0.00     0.029 A 
ATOM     66  N   UNL A   1      43.463  29.465  28.775  1.00  0.00    -0.354 N 
ATOM     67  N   UNL A   1      46.249  28.685  28.299  1.00  0.00    -0.248 NA
ATOM     68  C   UNL A   1      48.508  29.239  28.111  1.00  0.00     0.031 C 
ATOM     69  C   UNL A   1      43.046  31.562  29.379  1.00  0.00     0.029 A 
ATOM     70  C   UNL A   1      44.063  30.685  29.037  1.00  0.00     0.049 A 
ATOM     71  H   UNL A   1      43.938  28.648  28.500  1.00  0.00     0.167 HD
ATOM     72  C   UNL A   1      46.415  30.029  28.609  1.00  0.00     0.074 A 
ATOM     73  C   UNL A   1      47.832  30.310  28.503  1.00  0.00     0.031 C 
ATOM     74  C   UNL A   1      45.478  30.945  28.952  1.00  0.00     0.037 A 
BRANCH  61  75
ATOM     75  C   UNL A   1      39.692  28.780  28.929  1.00  0.00     0.064 A 
ATOM     76  C   UNL A   1      39.067  28.675  30.181  1.00  0.00     0.173 A 
ATOM     77  C   UNL A   1      38.914  29.204  27.842  1.00  0.00     0.173 A 
ATOM     78  F   UNL A   1      39.763  28.264  31.252  1.00  0.00    -0.203 F 
ATOM     79  C   UNL A   1      37.711  28.954  30.331  1.00  0.00     0.198 A 
ATOM     80  C   UNL A   1      37.566  29.514  28.002  1.00  0.00     0.198 A 
ATOM     81  F   UNL A   1      39.463  29.328  26.624  1.00  0.00    -0.203 F 
ATOM     82  F   UNL A   1      37.124  28.795  31.526  1.00  0.00    -0.200 F 
ATOM     83  C   UNL A   1      36.964  29.380  29.244  1.00  0.00     0.200 A 
ATOM     84  F   UNL A   1      36.849  29.942  26.954  1.00  0.00    -0.200 F 
ATOM     85  F   UNL A   1      35.661  29.656  29.392  1.00  0.00    -0.200 F 
ENDBRANCH  61  75
BRANCH  62  86
ATOM     86  C   UNL A   1      49.299  26.505  27.419  1.00  0.00     0.064 A 
ATOM     87  C   UNL A   1      50.198  26.329  28.480  1.00  0.00     0.173 A 
ATOM     88  C   UNL A   1      49.801  26.382  26.115  1.00  0.00     0.173 A 
ATOM     89  F   UNL A   1      49.772  26.456  29.746  1.00  0.00    -0.203 F 
ATOM     90  C   UNL A   1      51.548  26.065  28.248  1.00  0.00     0.198 A 
ATOM     91  C   UNL A   1      51.143  26.089  25.883  1.00  0.00     0.198 A 
ATOM     92  F   UNL A   1      48.984  26.537  25.062  1.00  0.00    -0.203 F 
ATOM     93  F   UNL A   1      52.393  25.953  29.281  1.00  0.00    -0.200 F 
ATOM     94  C   UNL A   1      52.018  25.940  26.950  1.00  0.00     0.200 A 
ATOM     95  F   UNL A   1      51.591  25.953  24.627  1.00  0.00    -0.200 F 
ATOM     96  F   UNL A   1      53.314  25.686  26.726  1.00  0.00    -0.200 F 
ENDBRANCH  62  86
BRANCH  74  97
ATOM     97  C   UNL A   1      45.948  32.328  29.297  1.00  0.00     0.064 A 
ATOM     98  C   UNL A   1      45.971  33.361  28.351  1.00  0.00     0.173 A 
ATOM     99  C   UNL A   1      46.313  32.639  30.618  1.00  0.00     0.173 A 
ATOM    100  F   UNL A   1      45.646  33.113  27.073  1.00  0.00    -0.203 F 
ATOM    101  C   UNL A   1      46.354  34.651  28.709  1.00  0.00     0.198 A 
ATOM    102  C   UNL A   1      46.665  33.934  30.979  1.00  0.00     0.198 A 
ATOM    103  F   UNL A   1      46.303  31.687  31.563  1.00  0.00    -0.203 F 
ATOM    104  F   UNL A   1      46.403  35.616  27.780  1.00  0.00    -0.200 F 
ATOM    105  C   UNL A   1      46.690  34.939  30.023  1.00  0.00     0.200 A 
ATOM    106  F   UNL A   1      46.973  34.214  32.253  1.00  0.00    -0.200 F 
ATOM    107  F   UNL A   1      47.040  36.186  30.370  1.00  0.00    -0.200 F 
ENDBRANCH  74  97
ENDBRANCH  48  49
ENDBRANCH  40  43
ENDBRANCH  38  39
ENDBRANCH  37  38
ENDBRANCH  36  37
ENDBRANCH  35  36
ENDBRANCH   1  35
TORSDOF 18
ENDMDL
MODEL 2
REMARK VINA RESULT:     -12.0      1.897      3.819
REMARK SMILES O=C(CNC(=O)N1CC(NCCCCCCNC(=O)c2ccc(-c3c4nc(c(-c5c(F)c(F)c(F)c(F)c5F)c5ccc([nH]5)c(-c5c(F)c(F)c(F)c(F)c5F)c5nc(c(-c6c(F)c(F)c(F)c(F)c6F)c6ccc3[nH]6)C=C5)C=C4)cc2)=[NH+]c2ccccc21)N[C@H](C(=O)[O-])c1ccccc1
REMARK SMILES IDX 12 1 11 2 10 3 7 4 8 5 89 6 9 7 84 8 88 9 83 10 85 11 87 12
REMARK SMILES IDX 86 15 5 16 4 17 6 19 3 20 2 21 1 22 90 23 91 25 95 26 96 27
REMARK SMILES IDX 100 28 97 29 99 30 98 31 92 32 93 33 94 34 13 35 14 36 15 37
REMARK SMILES IDX 16 38 17 39 18 40 19 42 20 43 21 44 82 45 22 46 81 47 23 48
REMARK SMILES IDX 24 49 25 50 75 51 26 52 80 53 74 54 76 55 27 56 79 57 73 58
REMARK SMILES IDX 72 59 28 61 60 62 40 63 59 64 41 65 44 66 58 67 77 68 42 69
REMARK SMILES IDX 43 70 57 72 78 73 45 74 29 75 30 76 38 77 31 78 32 79 36 80
REMARK SMILES IDX 39 81 33 82 34 83 37 84 35 85 61 86 62 87 70 88 63 89 64 90
REMARK SMILES IDX 68 91 71 92 65 93 66 94 69 95 67 96 46 97 47 98 55 99 48 100
REMARK SMILES IDX 49 101 53 102 56 103 50 104 51 105 54 106 52 107
REMARK H PARENT 10 13 83 14 4 18 90 24 17 41 76 60 44 71
REMARK Flexibility Score: inf
ROOT
ATOM      1  C   UNL A   1      37.616  23.943  26.301  1.00  0.00     0.046 C 
ENDROOT
BRANCH   1   2
ATOM      2  C   UNL A   1      36.093  24.045  26.248  1.00  0.00     0.233 C 
BRANCH   2   3
ATOM      3  N   UNL A   1      35.501  22.761  26.528  1.00  0.00    -0.277 N 
ATOM      4  N   UNL A   1      33.481  21.703  23.666  1.00  0.00    -0.278 N 
ATOM      5  C   UNL A   1      34.756  22.188  24.170  1.00  0.00     0.255 C 
ATOM      6  C   UNL A   1      33.169  20.379  24.066  1.00  0.00     0.093 A 
ATOM      7  C   UNL A   1      34.832  21.918  25.680  1.00  0.00     0.268 C 
ATOM      8  C   UNL A   1      33.588  19.982  25.352  1.00  0.00     0.148 A 
ATOM      9  C   UNL A   1      32.442  19.501  23.252  1.00  0.00     0.031 A 
ATOM     10  N   UNL A   1      34.295  20.850  26.210  1.00  0.00    -0.241 N 
ATOM     11  C   UNL A   1      33.194  18.734  25.834  1.00  0.00     0.054 A 
ATOM     12  C   UNL A   1      32.089  18.241  23.739  1.00  0.00     0.002 A 
ATOM     13  H   UNL A   1      35.589  22.446  27.457  1.00  0.00     0.304 HD
ATOM     14  H   UNL A   1      34.384  20.658  27.172  1.00  0.00     0.312 HD
ATOM     15  C   UNL A   1      32.446  17.867  25.035  1.00  0.00     0.005 A 
BRANCH   4  16
ATOM     16  C   UNL A   1      32.734  22.530  22.875  1.00  0.00     0.323 C 
ATOM     17  N   UNL A   1      31.608  23.106  23.369  1.00  0.00    -0.329 N 
ATOM     18  H   UNL A   1      31.023  23.522  22.694  1.00  0.00     0.165 HD
ATOM     19  O   UNL A   1      33.101  22.887  21.753  1.00  0.00    -0.248 OA
BRANCH  17  20
ATOM     20  C   UNL A   1      31.130  23.204  24.743  1.00  0.00     0.218 C 
BRANCH  20  21
ATOM     21  C   UNL A   1      30.709  24.599  25.198  1.00  0.00     0.240 C 
ATOM     22  O   UNL A   1      30.278  24.787  26.336  1.00  0.00    -0.273 OA
ATOM     23  N   UNL A   1      30.960  25.644  24.337  1.00  0.00    -0.342 N 
ATOM     24  H   UNL A   1      31.361  25.482  23.453  1.00  0.00     0.164 HD
BRANCH  23  25
ATOM     25  C   UNL A   1      30.615  27.005  24.765  1.00  0.00     0.158 C 
BRANCH  25  26
ATOM     26  C   UNL A   1      31.748  27.653  25.562  1.00  0.00    -0.020 A 
ATOM     27  C   UNL A   1      33.007  27.931  24.996  1.00  0.00     0.006 A 
ATOM     28  C   UNL A   1      31.541  28.032  26.896  1.00  0.00     0.006 A 
ATOM     29  C   UNL A   1      34.027  28.531  25.738  1.00  0.00     0.000 A 
ATOM     30  C   UNL A   1      32.571  28.622  27.638  1.00  0.00     0.000 A 
ATOM     31  C   UNL A   1      33.814  28.866  27.066  1.00  0.00     0.000 A 
ENDBRANCH  25  26
BRANCH  25  32
ATOM     32  C   UNL A   1      30.198  27.848  23.536  1.00  0.00     0.068 C 
ATOM     33  O   UNL A   1      29.765  28.992  23.557  1.00  0.00    -0.548 OA
ATOM     34  O   UNL A   1      30.530  27.293  22.344  1.00  0.00    -0.548 OA
ENDBRANCH  25  32
ENDBRANCH  23  25
ENDBRANCH  20  21
ENDBRANCH  17  20
ENDBRANCH   4  16
ENDBRANCH   2   3
ENDBRANCH   1   2
BRANCH   1  35
ATOM     35  C   UNL A   1      38.202  22.826  25.424  1.00  0.00     0.004 C 
BRANCH  35  36
ATOM     36  C   UNL A   1      39.184  21.885  26.129  1.00  0.00     0.002 C 
BRANCH  36  37
ATOM     37  C   UNL A   1      39.394  20.527  25.457  1.00  0.00     0.021 C 
BRANCH  37  38
ATOM     38  C   UNL A   1      39.888  19.415  26.377  1.00  0.00     0.116 C 
BRANCH  38  39
ATOM     39  N   UNL A   1      41.132  18.817  25.918  1.00  0.00    -0.352 N 
ATOM     40  C   UNL A   1      42.369  19.398  25.771  1.00  0.00     0.251 C 
ATOM     41  H   UNL A   1      41.081  17.863  25.679  1.00  0.00     0.163 HD
ATOM     42  O   UNL A   1      43.280  18.797  25.209  1.00  0.00    -0.269 OA
BRANCH  40  43
ATOM     43  C   UNL A   1      42.593  20.769  26.273  1.00  0.00     0.039 A 
ATOM     44  C   UNL A   1      42.561  21.006  27.649  1.00  0.00     0.014 A 
ATOM     45  C   UNL A   1      42.856  21.814  25.383  1.00  0.00     0.014 A 
ATOM     46  C   UNL A   1      42.871  22.277  28.140  1.00  0.00     0.010 A 
ATOM     47  C   UNL A   1      43.231  23.061  25.875  1.00  0.00     0.010 A 
ATOM     48  C   UNL A   1      43.249  23.304  27.258  1.00  0.00    -0.014 A 
BRANCH  48  49
ATOM     49  C   UNL A   1      43.668  24.642  27.751  1.00  0.00     0.031 A 
ATOM     50  C   UNL A   1      42.630  25.668  28.108  1.00  0.00     0.074 A 
ATOM     51  C   UNL A   1      44.976  24.964  27.792  1.00  0.00     0.049 A 
ATOM     52  N   UNL A   1      42.782  26.930  28.420  1.00  0.00    -0.248 NA
ATOM     53  C   UNL A   1      41.229  25.220  28.083  1.00  0.00     0.031 C 
ATOM     54  C   UNL A   1      46.080  24.068  27.445  1.00  0.00     0.029 A 
ATOM     55  N   UNL A   1      45.599  26.144  28.122  1.00  0.00    -0.354 N 
ATOM     56  C   UNL A   1      41.500  27.428  28.609  1.00  0.00     0.074 A 
ATOM     57  C   UNL A   1      40.580  26.348  28.328  1.00  0.00     0.031 C 
ATOM     58  C   UNL A   1      47.242  24.725  27.591  1.00  0.00     0.029 A 
ATOM     59  C   UNL A   1      46.966  26.101  27.993  1.00  0.00     0.049 A 
ATOM     60  H   UNL A   1      45.110  26.945  28.422  1.00  0.00     0.167 HD
ATOM     61  C   UNL A   1      41.126  28.670  29.001  1.00  0.00     0.037 A 
ATOM     62  C   UNL A   1      47.890  27.067  28.160  1.00  0.00     0.037 A 
ATOM     63  C   UNL A   1      42.047  29.735  29.301  1.00  0.00     0.049 A 
ATOM     64  C   UNL A   1      47.445  28.449  28.564  1.00  0.00     0.074 A 
ATOM     65  C   UNL A   1      41.768  31.013  29.755  1.00  0.00     0.029 A 
ATOM     66  N   UNL A   1      43.426  29.647  29.174  1.00  0.00    -0.354 N 
ATOM     67  N   UNL A   1      46.234  28.896  28.792  1.00  0.00    -0.248 NA
ATOM     68  C   UNL A   1      48.497  29.462  28.733  1.00  0.00     0.031 C 
ATOM     69  C   UNL A   1      42.974  31.714  29.851  1.00  0.00     0.029 A 
ATOM     70  C   UNL A   1      44.009  30.856  29.518  1.00  0.00     0.049 A 
ATOM     71  H   UNL A   1      43.916  28.845  28.884  1.00  0.00     0.167 HD
ATOM     72  C   UNL A   1      46.381  30.224  29.169  1.00  0.00     0.074 A 
ATOM     73  C   UNL A   1      47.799  30.513  29.142  1.00  0.00     0.031 C 
ATOM     74  C   UNL A   1      45.425  31.122  29.510  1.00  0.00     0.037 A 
BRANCH  61  75
ATOM     75  C   UNL A   1      39.655  28.948  29.124  1.00  0.00     0.064 A 
ATOM     76  C   UNL A   1      38.987  28.849  30.353  1.00  0.00     0.173 A 
ATOM     77  C   UNL A   1      38.913  29.356  28.006  1.00  0.00     0.173 A 
ATOM     78  F   UNL A   1      39.648  28.453  31.452  1.00  0.00    -0.203 F 
ATOM     79  C   UNL A   1      37.624  29.117  30.452  1.00  0.00     0.198 A 
ATOM     80  C   UNL A   1      37.557  29.656  28.115  1.00  0.00     0.198 A 
ATOM     81  F   UNL A   1      39.503  29.475  26.807  1.00  0.00    -0.203 F 
ATOM     82  F   UNL A   1      36.997  28.963  31.627  1.00  0.00    -0.200 F 
ATOM     83  C   UNL A   1      36.913  29.527  29.336  1.00  0.00     0.200 A 
ATOM     84  F   UNL A   1      36.874  30.068  27.038  1.00  0.00    -0.200 F 
ATOM     85  F   UNL A   1      35.602  29.793  29.435  1.00  0.00    -0.200 F 
ENDBRANCH  61  75
BRANCH  62  86
ATOM     86  C   UNL A   1      49.331  26.764  27.956  1.00  0.00     0.064 A 
ATOM     87  C   UNL A   1      49.892  26.773  26.671  1.00  0.00     0.173 A 
ATOM     88  C   UNL A   1      50.174  26.447  29.031  1.00  0.00     0.173 A 
ATOM     89  F   UNL A   1      49.123  27.049  25.607  1.00  0.00    -0.203 F 
ATOM     90  C   UNL A   1      51.234  26.455  26.466  1.00  0.00     0.198 A 
ATOM     91  C   UNL A   1      51.522  26.159  28.829  1.00  0.00     0.198 A 
ATOM     92  F   UNL A   1      49.690  26.428  30.282  1.00  0.00    -0.203 F 
ATOM     93  F   UNL A   1      51.730  26.421  25.222  1.00  0.00    -0.200 F 
ATOM     94  C   UNL A   1      52.049  26.153  27.546  1.00  0.00     0.200 A 
ATOM     95  F   UNL A   1      52.311  25.883  29.878  1.00  0.00    -0.200 F 
ATOM     96  F   UNL A   1      53.339  25.849  27.351  1.00  0.00    -0.200 F 
ENDBRANCH  62  86
BRANCH  74  97
ATOM     97  C   UNL A   1      45.873  32.490  29.938  1.00  0.00     0.064 A 
ATOM     98  C   UNL A   1      46.215  32.776  31.266  1.00  0.00     0.173 A 
ATOM     99  C   UNL A   1      46.029  33.510  28.985  1.00  0.00     0.173 A 
ATOM    100  F   UNL A   1      46.070  31.840  32.218  1.00  0.00    -0.203 F 
ATOM    101  C   UNL A   1      46.686  34.035  31.628  1.00  0.00     0.198 A 
ATOM    102  C   UNL A   1      46.528  34.757  29.344  1.00  0.00     0.198 A 
ATOM    103  F   UNL A   1      45.719  33.285  27.699  1.00  0.00    -0.203 F 
ATOM    104  F   UNL A   1      46.974  34.298  32.911  1.00  0.00    -0.200 F 
ATOM    105  C   UNL A   1      46.852  35.021  30.667  1.00  0.00     0.200 A 
ATOM    106  F   UNL A   1      46.703  35.701  28.410  1.00  0.00    -0.200 F 
ATOM    107  F   UNL A   1      47.323  36.227  31.014  1.00  0.00    -0.200 F 
ENDBRANCH  74  97
ENDBRANCH  48  49
ENDBRANCH  40  43
ENDBRANCH  38  39
ENDBRANCH  37  38
ENDBRANCH  36  37
ENDBRANCH  35  36
ENDBRANCH   1  35
TORSDOF 18
ENDMDL
MODEL 3
REMARK VINA RESULT:     -11.9      4.764      9.230
REMARK SMILES O=C(CNC(=O)N1CC(NCCCCCCNC(=O)c2ccc(-c3c4nc(c(-c5c(F)c(F)c(F)c(F)c5F)c5ccc([nH]5)c(-c5c(F)c(F)c(F)c(F)c5F)c5nc(c(-c6c(F)c(F)c(F)c(F)c6F)c6ccc3[nH]6)C=C5)C=C4)cc2)=[NH+]c2ccccc21)N[C@H](C(=O)[O-])c1ccccc1
REMARK SMILES IDX 12 1 11 2 10 3 7 4 8 5 89 6 9 7 84 8 88 9 83 10 85 11 87 12
REMARK SMILES IDX 86 15 5 16 4 17 6 19 3 20 2 21 1 22 90 23 91 25 95 26 96 27
REMARK SMILES IDX 100 28 97 29 99 30 98 31 92 32 93 33 94 34 13 35 14 36 15 37
REMARK SMILES IDX 16 38 17 39 18 40 19 42 20 43 21 44 82 45 22 46 81 47 23 48
REMARK SMILES IDX 24 49 25 50 75 51 26 52 80 53 74 54 76 55 27 56 79 57 73 58
REMARK SMILES IDX 72 59 28 61 60 62 40 63 59 64 41 65 44 66 58 67 77 68 42 69
REMARK SMILES IDX 43 70 57 72 78 73 45 74 29 75 30 76 38 77 31 78 32 79 36 80
REMARK SMILES IDX 39 81 33 82 34 83 37 84 35 85 61 86 62 87 70 88 63 89 64 90
REMARK SMILES IDX 68 91 71 92 65 93 66 94 69 95 67 96 46 97 47 98 55 99 48 100
REMARK SMILES IDX 49 101 53 102 56 103 50 104 51 105 54 106 52 107
REMARK H PARENT 10 13 83 14 4 18 90 24 17 41 76 60 44 71
REMARK Flexibility Score: inf
ROOT
ATOM      1  C   UNL A   1      38.772  23.915  27.124  1.00  0.00     0.046 C 
ENDROOT
BRANCH   1   2
ATOM      2  C   UNL A   1      37.622  23.801  26.124  1.00  0.00     0.233 C 
BRANCH   2   3
ATOM      3  N   UNL A   1      37.372  22.416  25.815  1.00  0.00    -0.277 N 
ATOM      4  N   UNL A   1      33.763  21.856  25.578  1.00  0.00    -0.278 N 
ATOM      5  C   UNL A   1      34.926  22.630  25.171  1.00  0.00     0.255 C 
ATOM      6  C   UNL A   1      33.755  20.525  25.089  1.00  0.00     0.093 A 
ATOM      7  C   UNL A   1      36.194  21.814  25.457  1.00  0.00     0.268 C 
ATOM      8  C   UNL A   1      35.001  19.875  24.981  1.00  0.00     0.148 A 
ATOM      9  C   UNL A   1      32.572  19.853  24.761  1.00  0.00     0.031 A 
ATOM     10  N   UNL A   1      36.211  20.512  25.331  1.00  0.00    -0.241 N 
ATOM     11  C   UNL A   1      35.030  18.527  24.626  1.00  0.00     0.054 A 
ATOM     12  C   UNL A   1      32.624  18.514  24.371  1.00  0.00     0.002 A 
ATOM     13  H   UNL A   1      38.154  21.821  25.868  1.00  0.00     0.304 HD
ATOM     14  H   UNL A   1      37.038  19.996  25.473  1.00  0.00     0.312 HD
ATOM     15  C   UNL A   1      33.848  17.847  24.324  1.00  0.00     0.005 A 
BRANCH   4  16
ATOM     16  C   UNL A   1      32.815  22.462  26.354  1.00  0.00     0.323 C 
ATOM     17  N   UNL A   1      31.810  23.166  25.770  1.00  0.00    -0.329 N 
ATOM     18  H   UNL A   1      31.287  23.731  26.383  1.00  0.00     0.165 HD
ATOM     19  O   UNL A   1      32.749  22.298  27.573  1.00  0.00    -0.248 OA
BRANCH  17  20
ATOM     20  C   UNL A   1      31.386  23.215  24.376  1.00  0.00     0.218 C 
BRANCH  20  21
ATOM     21  C   UNL A   1      31.222  24.612  23.783  1.00  0.00     0.240 C 
ATOM     22  O   UNL A   1      30.141  24.975  23.317  1.00  0.00    -0.273 OA
ATOM     23  N   UNL A   1      32.281  25.481  23.918  1.00  0.00    -0.342 N 
ATOM     24  H   UNL A   1      33.118  25.191  24.348  1.00  0.00     0.164 HD
BRANCH  23  25
ATOM     25  C   UNL A   1      32.137  26.849  23.405  1.00  0.00     0.158 C 
BRANCH  25  26
ATOM     26  C   UNL A   1      32.010  27.868  24.537  1.00  0.00    -0.020 A 
ATOM     27  C   UNL A   1      31.534  29.176  24.327  1.00  0.00     0.006 A 
ATOM     28  C   UNL A   1      32.336  27.502  25.852  1.00  0.00     0.006 A 
ATOM     29  C   UNL A   1      31.418  30.091  25.376  1.00  0.00     0.000 A 
ATOM     30  C   UNL A   1      32.229  28.427  26.897  1.00  0.00     0.000 A 
ATOM     31  C   UNL A   1      31.778  29.721  26.662  1.00  0.00     0.000 A 
ENDBRANCH  25  26
BRANCH  25  32
ATOM     32  C   UNL A   1      33.308  27.171  22.446  1.00  0.00     0.068 C 
ATOM     33  O   UNL A   1      34.019  28.167  22.481  1.00  0.00    -0.548 OA
ATOM     34  O   UNL A   1      33.652  26.147  21.626  1.00  0.00    -0.548 OA
ENDBRANCH  25  32
ENDBRANCH  23  25
ENDBRANCH  20  21
ENDBRANCH  17  20
ENDBRANCH   4  16
ENDBRANCH   2   3
ENDBRANCH   1   2
BRANCH   1  35
ATOM     35  C   UNL A   1      40.141  23.509  26.556  1.00  0.00     0.004 C 
BRANCH  35  36
ATOM     36  C   UNL A   1      40.617  22.103  26.935  1.00  0.00     0.002 C 
BRANCH  36  37
ATOM     37  C   UNL A   1      41.791  21.562  26.118  1.00  0.00     0.021 C 
BRANCH  37  38
ATOM     38  C   UNL A   1      42.629  22.618  25.404  1.00  0.00     0.116 C 
BRANCH  38  39
ATOM     39  N   UNL A   1      44.050  22.496  25.689  1.00  0.00    -0.352 N 
ATOM     40  C   UNL A   1      44.835  23.261  26.519  1.00  0.00     0.251 C 
ATOM     41  H   UNL A   1      44.514  21.762  25.225  1.00  0.00     0.163 HD
ATOM     42  O   UNL A   1      46.056  23.132  26.519  1.00  0.00    -0.269 OA
BRANCH  40  43
ATOM     43  C   UNL A   1      44.202  24.266  27.397  1.00  0.00     0.039 A 
ATOM     44  C   UNL A   1      43.408  23.837  28.463  1.00  0.00     0.014 A 
ATOM     45  C   UNL A   1      44.414  25.629  27.179  1.00  0.00     0.014 A 
ATOM     46  C   UNL A   1      42.886  24.774  29.359  1.00  0.00     0.010 A 
ATOM     47  C   UNL A   1      43.952  26.556  28.109  1.00  0.00     0.010 A 
ATOM     48  C   UNL A   1      43.190  26.138  29.212  1.00  0.00    -0.014 A 
BRANCH  48  49
ATOM     49  C   UNL A   1      42.725  27.152  30.195  1.00  0.00     0.031 A 
ATOM     50  C   UNL A   1      43.396  27.257  31.536  1.00  0.00     0.074 A 
ATOM     51  C   UNL A   1      41.649  27.913  29.918  1.00  0.00     0.049 A 
ATOM     52  N   UNL A   1      43.057  27.970  32.580  1.00  0.00    -0.248 NA
ATOM     53  C   UNL A   1      44.592  26.425  31.738  1.00  0.00     0.031 C 
ATOM     54  C   UNL A   1      40.893  27.888  28.665  1.00  0.00     0.029 A 
ATOM     55  N   UNL A   1      40.988  28.843  30.685  1.00  0.00    -0.354 N 
ATOM     56  C   UNL A   1      43.985  27.659  33.565  1.00  0.00     0.074 A 
ATOM     57  C   UNL A   1      44.869  26.655  33.013  1.00  0.00     0.031 C 
ATOM     58  C   UNL A   1      39.882  28.768  28.744  1.00  0.00     0.029 A 
ATOM     59  C   UNL A   1      39.885  29.383  30.068  1.00  0.00     0.049 A 
ATOM     60  H   UNL A   1      41.277  29.098  31.591  1.00  0.00     0.167 HD
ATOM     61  C   UNL A   1      44.100  28.177  34.811  1.00  0.00     0.037 A 
ATOM     62  C   UNL A   1      38.970  30.260  30.525  1.00  0.00     0.037 A 
ATOM     63  C   UNL A   1      43.230  29.191  35.349  1.00  0.00     0.049 A 
ATOM     64  C   UNL A   1      39.101  30.797  31.927  1.00  0.00     0.074 A 
ATOM     65  C   UNL A   1      43.296  29.818  36.581  1.00  0.00     0.029 A 
ATOM     66  N   UNL A   1      42.135  29.725  34.686  1.00  0.00    -0.354 N 
ATOM     67  N   UNL A   1      40.013  30.536  32.832  1.00  0.00    -0.248 NA
ATOM     68  C   UNL A   1      38.074  31.751  32.371  1.00  0.00     0.031 C 
ATOM     69  C   UNL A   1      42.210  30.692  36.685  1.00  0.00     0.029 A 
ATOM     70  C   UNL A   1      41.502  30.656  35.494  1.00  0.00     0.049 A 
ATOM     71  H   UNL A   1      41.850  29.479  33.776  1.00  0.00     0.167 HD
ATOM     72  C   UNL A   1      39.695  31.321  33.933  1.00  0.00     0.074 A 
ATOM     73  C   UNL A   1      38.506  32.069  33.584  1.00  0.00     0.031 C 
ATOM     74  C   UNL A   1      40.333  31.413  35.124  1.00  0.00     0.037 A 
BRANCH  61  75
ATOM     75  C   UNL A   1      45.204  27.654  35.685  1.00  0.00     0.064 A 
ATOM     76  C   UNL A   1      45.036  26.509  36.477  1.00  0.00     0.173 A 
ATOM     77  C   UNL A   1      46.458  28.283  35.699  1.00  0.00     0.173 A 
ATOM     78  F   UNL A   1      43.854  25.875  36.507  1.00  0.00    -0.203 F 
ATOM     79  C   UNL A   1      46.073  26.032  37.277  1.00  0.00     0.198 A 
ATOM     80  C   UNL A   1      47.502  27.785  36.474  1.00  0.00     0.198 A 
ATOM     81  F   UNL A   1      46.675  29.378  34.955  1.00  0.00    -0.203 F 
ATOM     82  F   UNL A   1      45.872  24.967  38.066  1.00  0.00    -0.200 F 
ATOM     83  C   UNL A   1      47.305  26.665  37.268  1.00  0.00     0.200 A 
ATOM     84  F   UNL A   1      48.698  28.388  36.453  1.00  0.00    -0.200 F 
ATOM     85  F   UNL A   1      48.304  26.200  38.032  1.00  0.00    -0.200 F 
ENDBRANCH  61  75
BRANCH  62  86
ATOM     86  C   UNL A   1      37.850  30.694  29.648  1.00  0.00     0.064 A 
ATOM     87  C   UNL A   1      37.813  31.993  29.121  1.00  0.00     0.173 A 
ATOM     88  C   UNL A   1      36.792  29.832  29.329  1.00  0.00     0.173 A 
ATOM     89  F   UNL A   1      38.791  32.863  29.414  1.00  0.00    -0.203 F 
ATOM     90  C   UNL A   1      36.748  32.419  28.327  1.00  0.00     0.198 A 
ATOM     91  C   UNL A   1      35.744  30.248  28.510  1.00  0.00     0.198 A 
ATOM     92  F   UNL A   1      36.780  28.577  29.803  1.00  0.00    -0.203 F 
ATOM     93  F   UNL A   1      36.714  33.681  27.879  1.00  0.00    -0.200 F 
ATOM     94  C   UNL A   1      35.718  31.545  28.018  1.00  0.00     0.200 A 
ATOM     95  F   UNL A   1      34.757  29.396  28.200  1.00  0.00    -0.200 F 
ATOM     96  F   UNL A   1      34.696  31.954  27.254  1.00  0.00    -0.200 F 
ENDBRANCH  62  86
BRANCH  74  97
ATOM     97  C   UNL A   1      39.802  32.396  36.127  1.00  0.00     0.064 A 
ATOM     98  C   UNL A   1      38.752  32.073  36.997  1.00  0.00     0.173 A 
ATOM     99  C   UNL A   1      40.404  33.657  36.263  1.00  0.00     0.173 A 
ATOM    100  F   UNL A   1      38.133  30.886  36.898  1.00  0.00    -0.203 F 
ATOM    101  C   UNL A   1      38.316  32.980  37.959  1.00  0.00     0.198 A 
ATOM    102  C   UNL A   1      39.987  34.549  37.245  1.00  0.00     0.198 A 
ATOM    103  F   UNL A   1      41.416  34.013  35.458  1.00  0.00    -0.203 F 
ATOM    104  F   UNL A   1      37.287  32.664  38.758  1.00  0.00    -0.200 F 
ATOM    105  C   UNL A   1      38.940  34.212  38.090  1.00  0.00     0.200 A 
ATOM    106  F   UNL A   1      40.602  35.731  37.380  1.00  0.00    -0.200 F 
ATOM    107  F   UNL A   1      38.531  35.076  39.029  1.00  0.00    -0.200 F 
ENDBRANCH  74  97
ENDBRANCH  48  49
ENDBRANCH  40  43
ENDBRANCH  38  39
ENDBRANCH  37  38
ENDBRANCH  36  37
ENDBRANCH  35  36
ENDBRANCH   1  35
TORSDOF 18
ENDMDL
