MODEL 1
REMARK VINA RESULT:     -10.7      0.000      0.000
REMARK SMILES CC(=O)/C=C(/C)NCC(=O)NCCCCCCNC(=O)c1ccc(-c2c3nc(c(-c4c(F)c(F)c(F)c(F)c4F)c4ccc([nH]4)c(-c4c(F)c(F)c(F)c(F)c4F)c4nc(c(-c5c(F)c(F)c(F)c(F)c5F)c5ccc2[nH]5)C=C4)C=C3)cc1
REMARK SMILES IDX 14 1 13 2 12 3 11 4 9 5 10 6 8 8 7 9 5 11 4 12 6 13 2 14
REMARK SMILES IDX 1 15 3 16 15 17 16 18 17 19 18 20 19 21 20 23 21 24 22 25
REMARK SMILES IDX 83 26 23 27 82 28 24 29 25 30 26 31 76 32 27 33 81 34 75 35
REMARK SMILES IDX 77 36 28 37 80 38 74 39 73 40 29 42 61 43 41 44 60 45 42 46
REMARK SMILES IDX 45 47 59 48 78 49 43 50 44 51 58 53 79 54 46 55 30 56 31 57
REMARK SMILES IDX 39 58 32 59 33 60 37 61 40 62 34 63 35 64 38 65 36 66 62 67
REMARK SMILES IDX 63 68 71 69 64 70 65 71 69 72 72 73 66 74 67 75 70 76 68 77
REMARK SMILES IDX 47 78 48 79 56 80 49 81 50 82 54 83 57 84 51 85 52 86 55 87
REMARK SMILES IDX 53 88
REMARK H PARENT 11 7 7 10 18 22 77 41 45 52
REMARK Flexibility Score: inf
ROOT
ATOM      1  C   UNL A   1      34.883  32.898  27.912  1.00  0.00     0.002 C 
ENDROOT
BRANCH   1   2
ATOM      2  C   UNL A   1      34.863  31.364  27.960  1.00  0.00     0.021 C 
BRANCH   2   3
ATOM      3  C   UNL A   1      33.568  30.759  27.423  1.00  0.00     0.116 C 
BRANCH   3   4
ATOM      4  N   UNL A   1      33.776  30.111  26.144  1.00  0.00    -0.355 N 
ATOM      5  C   UNL A   1      32.885  29.598  25.251  1.00  0.00     0.239 C 
ATOM      6  O   UNL A   1      33.358  29.048  24.249  1.00  0.00    -0.273 OA
ATOM      7  H   UNL A   1      34.719  30.029  25.876  1.00  0.00     0.163 HD
BRANCH   5   8
ATOM      8  C   UNL A   1      31.362  29.751  25.389  1.00  0.00     0.213 C 
BRANCH   8   9
ATOM      9  N   UNL A   1      30.678  30.270  24.218  1.00  0.00    -0.380 N 
ATOM     10  H   UNL A   1      30.861  31.220  24.041  1.00  0.00     0.160 HD
BRANCH   9  11
ATOM     11  C   UNL A   1      29.819  29.687  23.301  1.00  0.00     0.011 C 
ATOM     12  C   UNL A   1      28.834  30.178  22.519  1.00  0.00     0.067 C 
ATOM     13  C   UNL A   1      29.968  28.165  23.277  1.00  0.00     0.064 C 
BRANCH  12  14
ATOM     14  C   UNL A   1      28.156  31.479  22.244  1.00  0.00     0.154 C 
ATOM     15  C   UNL A   1      28.053  32.074  20.875  1.00  0.00     0.093 C 
ATOM     16  O   UNL A   1      27.645  32.062  23.205  1.00  0.00    -0.295 OA
ENDBRANCH  12  14
ENDBRANCH   9  11
ENDBRANCH   8   9
ENDBRANCH   5   8
ENDBRANCH   3   4
ENDBRANCH   2   3
ENDBRANCH   1   2
BRANCH   1  17
ATOM     17  C   UNL A   1      34.394  33.593  29.189  1.00  0.00     0.002 C 
BRANCH  17  18
ATOM     18  C   UNL A   1      33.219  34.555  28.996  1.00  0.00     0.021 C 
BRANCH  18  19
ATOM     19  C   UNL A   1      33.474  35.971  29.500  1.00  0.00     0.116 C 
BRANCH  19  20
ATOM     20  N   UNL A   1      32.546  36.357  30.551  1.00  0.00    -0.352 N 
ATOM     21  C   UNL A   1      32.525  35.963  31.870  1.00  0.00     0.251 C 
ATOM     22  H   UNL A   1      31.838  36.986  30.283  1.00  0.00     0.163 HD
ATOM     23  O   UNL A   1      31.584  36.246  32.595  1.00  0.00    -0.269 OA
BRANCH  21  24
ATOM     24  C   UNL A   1      33.656  35.172  32.394  1.00  0.00     0.039 A 
ATOM     25  C   UNL A   1      33.427  33.868  32.841  1.00  0.00     0.014 A 
ATOM     26  C   UNL A   1      34.941  35.718  32.425  1.00  0.00     0.014 A 
ATOM     27  C   UNL A   1      34.504  33.083  33.261  1.00  0.00     0.010 A 
ATOM     28  C   UNL A   1      36.018  34.917  32.785  1.00  0.00     0.010 A 
ATOM     29  C   UNL A   1      35.810  33.593  33.207  1.00  0.00    -0.014 A 
BRANCH  29  30
ATOM     30  C   UNL A   1      36.988  32.784  33.603  1.00  0.00     0.031 A 
ATOM     31  C   UNL A   1      37.672  33.073  34.908  1.00  0.00     0.074 A 
ATOM     32  C   UNL A   1      37.502  31.878  32.751  1.00  0.00     0.049 A 
ATOM     33  N   UNL A   1      38.820  32.637  35.359  1.00  0.00    -0.248 NA
ATOM     34  C   UNL A   1      36.986  34.008  35.813  1.00  0.00     0.031 C 
ATOM     35  C   UNL A   1      36.942  31.526  31.446  1.00  0.00     0.029 A 
ATOM     36  N   UNL A   1      38.635  31.107  32.845  1.00  0.00    -0.354 N 
ATOM     37  C   UNL A   1      39.009  33.269  36.580  1.00  0.00     0.074 A 
ATOM     38  C   UNL A   1      37.875  34.146  36.785  1.00  0.00     0.031 C 
ATOM     39  C   UNL A   1      37.730  30.610  30.861  1.00  0.00     0.029 A 
ATOM     40  C   UNL A   1      38.875  30.344  31.729  1.00  0.00     0.049 A 
ATOM     41  H   UNL A   1      39.219  31.102  33.637  1.00  0.00     0.167 HD
ATOM     42  C   UNL A   1      40.030  33.122  37.455  1.00  0.00     0.037 A 
ATOM     43  C   UNL A   1      39.913  29.540  31.431  1.00  0.00     0.037 A 
ATOM     44  C   UNL A   1      41.132  32.218  37.263  1.00  0.00     0.049 A 
ATOM     45  C   UNL A   1      41.036  29.389  32.423  1.00  0.00     0.074 A 
ATOM     46  C   UNL A   1      42.190  31.953  38.116  1.00  0.00     0.029 A 
ATOM     47  N   UNL A   1      41.314  31.426  36.140  1.00  0.00    -0.354 N 
ATOM     48  N   UNL A   1      41.187  29.963  33.592  1.00  0.00    -0.248 NA
ATOM     49  C   UNL A   1      42.132  28.482  32.056  1.00  0.00     0.031 C 
ATOM     50  C   UNL A   1      43.029  31.025  37.494  1.00  0.00     0.029 A 
ATOM     51  C   UNL A   1      42.472  30.679  36.273  1.00  0.00     0.049 A 
ATOM     52  H   UNL A   1      40.709  31.397  35.364  1.00  0.00     0.167 HD
ATOM     53  C   UNL A   1      42.370  29.459  34.114  1.00  0.00     0.074 A 
ATOM     54  C   UNL A   1      42.899  28.533  33.135  1.00  0.00     0.031 C 
ATOM     55  C   UNL A   1      42.964  29.738  35.300  1.00  0.00     0.037 A 
BRANCH  42  56
ATOM     56  C   UNL A   1      40.004  33.958  38.701  1.00  0.00     0.064 A 
ATOM     57  C   UNL A   1      39.319  33.541  39.852  1.00  0.00     0.173 A 
ATOM     58  C   UNL A   1      40.703  35.174  38.756  1.00  0.00     0.173 A 
ATOM     59  F   UNL A   1      38.626  32.393  39.846  1.00  0.00    -0.203 F 
ATOM     60  C   UNL A   1      39.312  34.325  41.003  1.00  0.00     0.198 A 
ATOM     61  C   UNL A   1      40.717  35.940  39.917  1.00  0.00     0.198 A 
ATOM     62  F   UNL A   1      41.378  35.615  37.683  1.00  0.00    -0.203 F 
ATOM     63  F   UNL A   1      38.610  33.931  42.074  1.00  0.00    -0.200 F 
ATOM     64  C   UNL A   1      40.015  35.519  41.037  1.00  0.00     0.200 A 
ATOM     65  F   UNL A   1      41.408  37.089  39.952  1.00  0.00    -0.200 F 
ATOM     66  F   UNL A   1      40.012  36.270  42.147  1.00  0.00    -0.200 F 
ENDBRANCH  42  56
BRANCH  43  67
ATOM     67  C   UNL A   1      39.937  28.803  30.140  1.00  0.00     0.064 A 
ATOM     68  C   UNL A   1      39.372  27.525  30.034  1.00  0.00     0.173 A 
ATOM     69  C   UNL A   1      40.526  29.355  28.993  1.00  0.00     0.173 A 
ATOM     70  F   UNL A   1      38.818  26.948  31.110  1.00  0.00    -0.203 F 
ATOM     71  C   UNL A   1      39.411  26.818  28.834  1.00  0.00     0.198 A 
ATOM     72  C   UNL A   1      40.541  28.657  27.786  1.00  0.00     0.198 A 
ATOM     73  F   UNL A   1      41.077  30.576  29.041  1.00  0.00    -0.203 F 
ATOM     74  F   UNL A   1      38.903  25.580  28.773  1.00  0.00    -0.200 F 
ATOM     75  C   UNL A   1      39.991  27.386  27.710  1.00  0.00     0.200 A 
ATOM     76  F   UNL A   1      41.092  29.214  26.699  1.00  0.00    -0.200 F 
ATOM     77  F   UNL A   1      40.027  26.706  26.557  1.00  0.00    -0.200 F 
ENDBRANCH  43  67
BRANCH  55  78
ATOM     78  C   UNL A   1      44.220  28.993  35.641  1.00  0.00     0.064 A 
ATOM     79  C   UNL A   1      45.486  29.503  35.326  1.00  0.00     0.173 A 
ATOM     80  C   UNL A   1      44.151  27.792  36.363  1.00  0.00     0.173 A 
ATOM     81  F   UNL A   1      45.601  30.641  34.625  1.00  0.00    -0.203 F 
ATOM     82  C   UNL A   1      46.642  28.831  35.716  1.00  0.00     0.198 A 
ATOM     83  C   UNL A   1      45.307  27.135  36.772  1.00  0.00     0.198 A 
ATOM     84  F   UNL A   1      42.960  27.268  36.691  1.00  0.00    -0.203 F 
ATOM     85  F   UNL A   1      47.844  29.320  35.383  1.00  0.00    -0.200 F 
ATOM     86  C   UNL A   1      46.551  27.654  36.447  1.00  0.00     0.200 A 
ATOM     87  F   UNL A   1      45.219  26.007  37.489  1.00  0.00    -0.200 F 
ATOM     88  F   UNL A   1      47.665  27.019  36.836  1.00  0.00    -0.200 F 
ENDBRANCH  55  78
ENDBRANCH  29  30
ENDBRANCH  21  24
ENDBRANCH  19  20
ENDBRANCH  18  19
ENDBRANCH  17  18
ENDBRANCH   1  17
TORSDOF 16
ENDMDL
MODEL 2
REMARK VINA RESULT:     -10.4      5.546     11.382
REMARK SMILES CC(=O)/C=C(/C)NCC(=O)NCCCCCCNC(=O)c1ccc(-c2c3nc(c(-c4c(F)c(F)c(F)c(F)c4F)c4ccc([nH]4)c(-c4c(F)c(F)c(F)c(F)c4F)c4nc(c(-c5c(F)c(F)c(F)c(F)c5F)c5ccc2[nH]5)C=C4)C=C3)cc1
REMARK SMILES IDX 14 1 13 2 12 3 11 4 9 5 10 6 8 8 7 9 5 11 4 12 6 13 2 14
REMARK SMILES IDX 1 15 3 16 15 17 16 18 17 19 18 20 19 21 20 23 21 24 22 25
REMARK SMILES IDX 83 26 23 27 82 28 24 29 25 30 26 31 76 32 27 33 81 34 75 35
REMARK SMILES IDX 77 36 28 37 80 38 74 39 73 40 29 42 61 43 41 44 60 45 42 46
REMARK SMILES IDX 45 47 59 48 78 49 43 50 44 51 58 53 79 54 46 55 30 56 31 57
REMARK SMILES IDX 39 58 32 59 33 60 37 61 40 62 34 63 35 64 38 65 36 66 62 67
REMARK SMILES IDX 63 68 71 69 64 70 65 71 69 72 72 73 66 74 67 75 70 76 68 77
REMARK SMILES IDX 47 78 48 79 56 80 49 81 50 82 54 83 57 84 51 85 52 86 55 87
REMARK SMILES IDX 53 88
REMARK H PARENT 11 7 7 10 18 22 77 41 45 52
REMARK Flexibility Score: inf
ROOT
ATOM      1  C   UNL A   1      43.145  23.957  28.666  1.00  0.00     0.002 C 
ENDROOT
BRANCH   1   2
ATOM      2  C   UNL A   1      44.573  23.836  29.214  1.00  0.00     0.021 C 
BRANCH   2   3
ATOM      3  C   UNL A   1      45.644  24.256  28.209  1.00  0.00     0.116 C 
BRANCH   3   4
ATOM      4  N   UNL A   1      45.064  24.579  26.921  1.00  0.00    -0.355 N 
ATOM      5  C   UNL A   1      45.222  23.992  25.702  1.00  0.00     0.239 C 
ATOM      6  O   UNL A   1      44.634  24.523  24.752  1.00  0.00    -0.273 OA
ATOM      7  H   UNL A   1      44.455  25.351  26.929  1.00  0.00     0.163 HD
BRANCH   5   8
ATOM      8  C   UNL A   1      46.002  22.686  25.484  1.00  0.00     0.213 C 
BRANCH   8   9
ATOM      9  N   UNL A   1      45.257  21.466  25.735  1.00  0.00    -0.380 N 
ATOM     10  H   UNL A   1      44.582  21.553  26.446  1.00  0.00     0.160 HD
BRANCH   9  11
ATOM     11  C   UNL A   1      45.312  20.202  25.171  1.00  0.00     0.011 C 
ATOM     12  C   UNL A   1      44.475  19.144  25.194  1.00  0.00     0.067 C 
ATOM     13  C   UNL A   1      46.655  19.950  24.484  1.00  0.00     0.064 C 
BRANCH  12  14
ATOM     14  C   UNL A   1      43.166  18.755  25.799  1.00  0.00     0.154 C 
ATOM     15  C   UNL A   1      43.052  17.909  27.028  1.00  0.00     0.093 C 
ATOM     16  O   UNL A   1      42.144  19.183  25.253  1.00  0.00    -0.295 OA
ENDBRANCH  12  14
ENDBRANCH   9  11
ENDBRANCH   8   9
ENDBRANCH   5   8
ENDBRANCH   3   4
ENDBRANCH   2   3
ENDBRANCH   1   2
BRANCH   1  17
ATOM     17  C   UNL A   1      42.274  22.707  28.842  1.00  0.00     0.002 C 
BRANCH  17  18
ATOM     18  C   UNL A   1      42.170  21.807  27.608  1.00  0.00     0.021 C 
BRANCH  18  19
ATOM     19  C   UNL A   1      41.824  22.542  26.319  1.00  0.00     0.116 C 
BRANCH  19  20
ATOM     20  N   UNL A   1      40.422  22.395  25.960  1.00  0.00    -0.352 N 
ATOM     21  C   UNL A   1      39.364  23.221  26.264  1.00  0.00     0.251 C 
ATOM     22  H   UNL A   1      40.201  21.597  25.428  1.00  0.00     0.163 HD
ATOM     23  O   UNL A   1      38.215  22.881  26.032  1.00  0.00    -0.269 OA
BRANCH  21  24
ATOM     24  C   UNL A   1      39.639  24.527  26.897  1.00  0.00     0.039 A 
ATOM     25  C   UNL A   1      39.232  24.744  28.216  1.00  0.00     0.014 A 
ATOM     26  C   UNL A   1      40.314  25.522  26.188  1.00  0.00     0.014 A 
ATOM     27  C   UNL A   1      39.560  25.945  28.850  1.00  0.00     0.010 A 
ATOM     28  C   UNL A   1      40.693  26.691  26.838  1.00  0.00     0.010 A 
ATOM     29  C   UNL A   1      40.320  26.913  28.175  1.00  0.00    -0.014 A 
BRANCH  29  30
ATOM     30  C   UNL A   1      40.728  28.185  28.820  1.00  0.00     0.031 A 
ATOM     31  C   UNL A   1      42.128  28.327  29.342  1.00  0.00     0.074 A 
ATOM     32  C   UNL A   1      39.820  29.156  29.031  1.00  0.00     0.049 A 
ATOM     33  N   UNL A   1      42.638  29.255  30.110  1.00  0.00    -0.248 NA
ATOM     34  C   UNL A   1      43.073  27.258  28.982  1.00  0.00     0.031 C 
ATOM     35  C   UNL A   1      38.425  29.125  28.591  1.00  0.00     0.029 A 
ATOM     36  N   UNL A   1      39.932  30.351  29.699  1.00  0.00    -0.354 N 
ATOM     37  C   UNL A   1      43.948  28.866  30.351  1.00  0.00     0.074 A 
ATOM     38  C   UNL A   1      44.146  27.599  29.678  1.00  0.00     0.031 C 
ATOM     39  C   UNL A   1      37.810  30.246  29.000  1.00  0.00     0.029 A 
ATOM     40  C   UNL A   1      38.754  31.053  29.769  1.00  0.00     0.049 A 
ATOM     41  H   UNL A   1      40.775  30.672  30.091  1.00  0.00     0.167 HD
ATOM     42  C   UNL A   1      44.902  29.513  31.059  1.00  0.00     0.037 A 
ATOM     43  C   UNL A   1      38.464  32.206  30.402  1.00  0.00     0.037 A 
ATOM     44  C   UNL A   1      44.710  30.791  31.690  1.00  0.00     0.049 A 
ATOM     45  C   UNL A   1      39.544  32.909  31.181  1.00  0.00     0.074 A 
ATOM     46  C   UNL A   1      45.630  31.558  32.384  1.00  0.00     0.029 A 
ATOM     47  N   UNL A   1      43.515  31.494  31.696  1.00  0.00    -0.354 N 
ATOM     48  N   UNL A   1      40.790  32.552  31.372  1.00  0.00    -0.248 NA
ATOM     49  C   UNL A   1      39.177  34.174  31.833  1.00  0.00     0.031 C 
ATOM     50  C   UNL A   1      44.981  32.710  32.839  1.00  0.00     0.029 A 
ATOM     51  C   UNL A   1      43.671  32.681  32.392  1.00  0.00     0.049 A 
ATOM     52  H   UNL A   1      42.681  31.194  31.269  1.00  0.00     0.167 HD
ATOM     53  C   UNL A   1      41.365  33.562  32.130  1.00  0.00     0.074 A 
ATOM     54  C   UNL A   1      40.332  34.549  32.366  1.00  0.00     0.031 C 
ATOM     55  C   UNL A   1      42.636  33.664  32.587  1.00  0.00     0.037 A 
BRANCH  42  56
ATOM     56  C   UNL A   1      46.241  28.849  31.190  1.00  0.00     0.064 A 
ATOM     57  C   UNL A   1      47.263  29.062  30.253  1.00  0.00     0.173 A 
ATOM     58  C   UNL A   1      46.518  28.018  32.286  1.00  0.00     0.173 A 
ATOM     59  F   UNL A   1      47.045  29.839  29.181  1.00  0.00    -0.203 F 
ATOM     60  C   UNL A   1      48.503  28.444  30.394  1.00  0.00     0.198 A 
ATOM     61  C   UNL A   1      47.768  27.425  32.439  1.00  0.00     0.198 A 
ATOM     62  F   UNL A   1      45.577  27.785  33.214  1.00  0.00    -0.203 F 
ATOM     63  F   UNL A   1      49.447  28.623  29.460  1.00  0.00    -0.200 F 
ATOM     64  C   UNL A   1      48.757  27.633  31.489  1.00  0.00     0.200 A 
ATOM     65  F   UNL A   1      48.015  26.651  33.505  1.00  0.00    -0.200 F 
ATOM     66  F   UNL A   1      49.952  27.044  31.626  1.00  0.00    -0.200 F 
ENDBRANCH  42  56
BRANCH  43  67
ATOM     67  C   UNL A   1      37.093  32.776  30.319  1.00  0.00     0.064 A 
ATOM     68  C   UNL A   1      36.146  32.514  31.317  1.00  0.00     0.173 A 
ATOM     69  C   UNL A   1      36.702  33.587  29.243  1.00  0.00     0.173 A 
ATOM     70  F   UNL A   1      36.468  31.725  32.353  1.00  0.00    -0.203 F 
ATOM     71  C   UNL A   1      34.852  33.025  31.235  1.00  0.00     0.198 A 
ATOM     72  C   UNL A   1      35.416  34.119  29.175  1.00  0.00     0.198 A 
ATOM     73  F   UNL A   1      37.573  33.870  28.264  1.00  0.00    -0.203 F 
ATOM     74  F   UNL A   1      33.954  32.721  32.181  1.00  0.00    -0.200 F 
ATOM     75  C   UNL A   1      34.490  33.831  30.167  1.00  0.00     0.200 A 
ATOM     76  F   UNL A   1      35.072  34.907  28.148  1.00  0.00    -0.200 F 
ATOM     77  F   UNL A   1      33.247  34.323  30.089  1.00  0.00    -0.200 F 
ENDBRANCH  43  67
BRANCH  55  78
ATOM     78  C   UNL A   1      43.008  34.908  33.338  1.00  0.00     0.064 A 
ATOM     79  C   UNL A   1      43.441  36.065  32.677  1.00  0.00     0.173 A 
ATOM     80  C   UNL A   1      42.851  34.962  34.731  1.00  0.00     0.173 A 
ATOM     81  F   UNL A   1      43.619  36.057  31.347  1.00  0.00    -0.203 F 
ATOM     82  C   UNL A   1      43.711  37.233  33.386  1.00  0.00     0.198 A 
ATOM     83  C   UNL A   1      43.099  36.137  35.434  1.00  0.00     0.198 A 
ATOM     84  F   UNL A   1      42.434  33.881  35.406  1.00  0.00    -0.203 F 
ATOM     85  F   UNL A   1      44.149  38.321  32.740  1.00  0.00    -0.200 F 
ATOM     86  C   UNL A   1      43.530  37.270  34.761  1.00  0.00     0.200 A 
ATOM     87  F   UNL A   1      42.911  36.176  36.760  1.00  0.00    -0.200 F 
ATOM     88  F   UNL A   1      43.774  38.400  35.440  1.00  0.00    -0.200 F 
ENDBRANCH  55  78
ENDBRANCH  29  30
ENDBRANCH  21  24
ENDBRANCH  19  20
ENDBRANCH  18  19
ENDBRANCH  17  18
ENDBRANCH   1  17
TORSDOF 16
ENDMDL
MODEL 3
REMARK VINA RESULT:     -10.3      4.352      7.851
REMARK SMILES CC(=O)/C=C(/C)NCC(=O)NCCCCCCNC(=O)c1ccc(-c2c3nc(c(-c4c(F)c(F)c(F)c(F)c4F)c4ccc([nH]4)c(-c4c(F)c(F)c(F)c(F)c4F)c4nc(c(-c5c(F)c(F)c(F)c(F)c5F)c5ccc2[nH]5)C=C4)C=C3)cc1
REMARK SMILES IDX 14 1 13 2 12 3 11 4 9 5 10 6 8 8 7 9 5 11 4 12 6 13 2 14
REMARK SMILES IDX 1 15 3 16 15 17 16 18 17 19 18 20 19 21 20 23 21 24 22 25
REMARK SMILES IDX 83 26 23 27 82 28 24 29 25 30 26 31 76 32 27 33 81 34 75 35
REMARK SMILES IDX 77 36 28 37 80 38 74 39 73 40 29 42 61 43 41 44 60 45 42 46
REMARK SMILES IDX 45 47 59 48 78 49 43 50 44 51 58 53 79 54 46 55 30 56 31 57
REMARK SMILES IDX 39 58 32 59 33 60 37 61 40 62 34 63 35 64 38 65 36 66 62 67
REMARK SMILES IDX 63 68 71 69 64 70 65 71 69 72 72 73 66 74 67 75 70 76 68 77
REMARK SMILES IDX 47 78 48 79 56 80 49 81 50 82 54 83 57 84 51 85 52 86 55 87
REMARK SMILES IDX 53 88
REMARK H PARENT 11 7 7 10 18 22 77 41 45 52
REMARK Flexibility Score: inf
ROOT
ATOM      1  C   UNL A   1      37.369  32.842  29.923  1.00  0.00     0.002 C 
ENDROOT
BRANCH   1   2
ATOM      2  C   UNL A   1      37.721  33.690  31.153  1.00  0.00     0.021 C 
BRANCH   2   3
ATOM      3  C   UNL A   1      37.991  32.857  32.404  1.00  0.00     0.116 C 
BRANCH   3   4
ATOM      4  N   UNL A   1      38.464  33.681  33.497  1.00  0.00    -0.355 N 
ATOM      5  C   UNL A   1      37.785  34.303  34.501  1.00  0.00     0.239 C 
ATOM      6  O   UNL A   1      38.455  34.996  35.277  1.00  0.00    -0.273 OA
ATOM      7  H   UNL A   1      39.438  33.812  33.519  1.00  0.00     0.163 HD
BRANCH   5   8
ATOM      8  C   UNL A   1      36.281  34.114  34.752  1.00  0.00     0.213 C 
BRANCH   8   9
ATOM      9  N   UNL A   1      35.403  34.887  33.892  1.00  0.00    -0.380 N 
ATOM     10  H   UNL A   1      35.437  35.856  34.059  1.00  0.00     0.160 HD
BRANCH   9  11
ATOM     11  C   UNL A   1      34.526  34.526  32.883  1.00  0.00     0.011 C 
ATOM     12  C   UNL A   1      33.721  35.235  32.064  1.00  0.00     0.067 C 
ATOM     13  C   UNL A   1      34.382  33.007  32.778  1.00  0.00     0.064 C 
BRANCH  12  14
ATOM     14  C   UNL A   1      33.329  36.655  31.819  1.00  0.00     0.154 C 
ATOM     15  C   UNL A   1      33.946  37.809  32.543  1.00  0.00     0.093 C 
ATOM     16  O   UNL A   1      32.467  36.861  30.958  1.00  0.00    -0.295 OA
ENDBRANCH  12  14
ENDBRANCH   9  11
ENDBRANCH   8   9
ENDBRANCH   5   8
ENDBRANCH   3   4
ENDBRANCH   2   3
ENDBRANCH   1   2
BRANCH   1  17
ATOM     17  C   UNL A   1      36.880  33.637  28.706  1.00  0.00     0.002 C 
BRANCH  17  18
ATOM     18  C   UNL A   1      35.431  33.365  28.291  1.00  0.00     0.021 C 
BRANCH  18  19
ATOM     19  C   UNL A   1      34.712  32.334  29.153  1.00  0.00     0.116 C 
BRANCH  19  20
ATOM     20  N   UNL A   1      34.139  31.257  28.362  1.00  0.00    -0.352 N 
ATOM     21  C   UNL A   1      34.755  30.129  27.868  1.00  0.00     0.251 C 
ATOM     22  H   UNL A   1      33.182  31.346  28.150  1.00  0.00     0.163 HD
ATOM     23  O   UNL A   1      34.181  29.394  27.080  1.00  0.00    -0.269 OA
BRANCH  21  24
ATOM     24  C   UNL A   1      36.136  29.828  28.295  1.00  0.00     0.039 A 
ATOM     25  C   UNL A   1      36.355  29.294  29.568  1.00  0.00     0.014 A 
ATOM     26  C   UNL A   1      37.205  30.058  27.427  1.00  0.00     0.014 A 
ATOM     27  C   UNL A   1      37.648  28.930  29.950  1.00  0.00     0.010 A 
ATOM     28  C   UNL A   1      38.482  29.639  27.785  1.00  0.00     0.010 A 
ATOM     29  C   UNL A   1      38.715  29.071  29.049  1.00  0.00    -0.014 A 
BRANCH  29  30
ATOM     30  C   UNL A   1      40.098  28.660  29.394  1.00  0.00     0.031 A 
ATOM     31  C   UNL A   1      40.977  29.607  30.158  1.00  0.00     0.074 A 
ATOM     32  C   UNL A   1      40.591  27.496  28.931  1.00  0.00     0.049 A 
ATOM     33  N   UNL A   1      42.263  29.544  30.390  1.00  0.00    -0.248 NA
ATOM     34  C   UNL A   1      40.325  30.808  30.703  1.00  0.00     0.031 C 
ATOM     35  C   UNL A   1      39.842  26.504  28.159  1.00  0.00     0.029 A 
ATOM     36  N   UNL A   1      41.855  26.965  29.019  1.00  0.00    -0.354 N 
ATOM     37  C   UNL A   1      42.579  30.708  31.076  1.00  0.00     0.074 A 
ATOM     38  C   UNL A   1      41.358  31.478  31.192  1.00  0.00     0.031 C 
ATOM     39  C   UNL A   1      40.659  25.485  27.844  1.00  0.00     0.029 A 
ATOM     40  C   UNL A   1      41.997  25.774  28.352  1.00  0.00     0.049 A 
ATOM     41  H   UNL A   1      42.587  27.398  29.513  1.00  0.00     0.167 HD
ATOM     42  C   UNL A   1      43.777  31.093  31.573  1.00  0.00     0.037 A 
ATOM     43  C   UNL A   1      43.091  25.014  28.152  1.00  0.00     0.037 A 
ATOM     44  C   UNL A   1      44.976  30.304  31.489  1.00  0.00     0.049 A 
ATOM     45  C   UNL A   1      44.412  25.462  28.719  1.00  0.00     0.074 A 
ATOM     46  C   UNL A   1      46.229  30.579  32.010  1.00  0.00     0.029 A 
ATOM     47  N   UNL A   1      45.068  29.079  30.846  1.00  0.00    -0.354 N 
ATOM     48  N   UNL A   1      44.693  26.546  29.399  1.00  0.00    -0.248 NA
ATOM     49  C   UNL A   1      45.567  24.582  28.491  1.00  0.00     0.031 C 
ATOM     50  C   UNL A   1      47.087  29.535  31.653  1.00  0.00     0.029 A 
ATOM     51  C   UNL A   1      46.360  28.590  30.948  1.00  0.00     0.049 A 
ATOM     52  H   UNL A   1      44.326  28.624  30.387  1.00  0.00     0.167 HD
ATOM     53  C   UNL A   1      46.043  26.462  29.711  1.00  0.00     0.074 A 
ATOM     54  C   UNL A   1      46.527  25.220  29.146  1.00  0.00     0.031 C 
ATOM     55  C   UNL A   1      46.812  27.335  30.406  1.00  0.00     0.037 A 
BRANCH  42  56
ATOM     56  C   UNL A   1      43.850  32.429  32.252  1.00  0.00     0.064 A 
ATOM     57  C   UNL A   1      43.638  32.565  33.632  1.00  0.00     0.173 A 
ATOM     58  C   UNL A   1      44.173  33.582  31.520  1.00  0.00     0.173 A 
ATOM     59  F   UNL A   1      43.315  31.495  34.374  1.00  0.00    -0.203 F 
ATOM     60  C   UNL A   1      43.717  33.811  34.249  1.00  0.00     0.198 A 
ATOM     61  C   UNL A   1      44.280  34.821  32.145  1.00  0.00     0.198 A 
ATOM     62  F   UNL A   1      44.390  33.506  30.199  1.00  0.00    -0.203 F 
ATOM     63  F   UNL A   1      43.462  33.925  35.559  1.00  0.00    -0.200 F 
ATOM     64  C   UNL A   1      44.045  34.936  33.507  1.00  0.00     0.200 A 
ATOM     65  F   UNL A   1      44.609  35.905  31.428  1.00  0.00    -0.200 F 
ATOM     66  F   UNL A   1      44.127  36.133  34.103  1.00  0.00    -0.200 F 
ENDBRANCH  42  56
BRANCH  43  67
ATOM     67  C   UNL A   1      42.984  23.741  27.390  1.00  0.00     0.064 A 
ATOM     68  C   UNL A   1      42.521  22.572  28.010  1.00  0.00     0.173 A 
ATOM     69  C   UNL A   1      43.344  23.665  26.038  1.00  0.00     0.173 A 
ATOM     70  F   UNL A   1      42.187  22.592  29.309  1.00  0.00    -0.203 F 
ATOM     71  C   UNL A   1      42.441  21.370  27.310  1.00  0.00     0.198 A 
ATOM     72  C   UNL A   1      43.237  22.468  25.331  1.00  0.00     0.198 A 
ATOM     73  F   UNL A   1      43.789  24.757  25.398  1.00  0.00    -0.203 F 
ATOM     74  F   UNL A   1      42.038  20.258  27.939  1.00  0.00    -0.200 F 
ATOM     75  C   UNL A   1      42.794  21.320  25.970  1.00  0.00     0.200 A 
ATOM     76  F   UNL A   1      43.569  22.426  24.034  1.00  0.00    -0.200 F 
ATOM     77  F   UNL A   1      42.715  20.165  25.298  1.00  0.00    -0.200 F 
ENDBRANCH  43  67
BRANCH  55  78
ATOM     78  C   UNL A   1      48.242  26.958  30.652  1.00  0.00     0.064 A 
ATOM     79  C   UNL A   1      48.611  26.125  31.716  1.00  0.00     0.173 A 
ATOM     80  C   UNL A   1      49.243  27.376  29.762  1.00  0.00     0.173 A 
ATOM     81  F   UNL A   1      47.691  25.711  32.601  1.00  0.00    -0.203 F 
ATOM     82  C   UNL A   1      49.936  25.728  31.885  1.00  0.00     0.198 A 
ATOM     83  C   UNL A   1      50.561  26.959  29.919  1.00  0.00     0.198 A 
ATOM     84  F   UNL A   1      48.936  28.171  28.725  1.00  0.00    -0.203 F 
ATOM     85  F   UNL A   1      50.273  24.952  32.923  1.00  0.00    -0.200 F 
ATOM     86  C   UNL A   1      50.906  26.137  30.981  1.00  0.00     0.200 A 
ATOM     87  F   UNL A   1      51.494  27.343  29.038  1.00  0.00    -0.200 F 
ATOM     88  F   UNL A   1      52.177  25.740  31.135  1.00  0.00    -0.200 F 
ENDBRANCH  55  78
ENDBRANCH  29  30
ENDBRANCH  21  24
ENDBRANCH  19  20
ENDBRANCH  18  19
ENDBRANCH  17  18
ENDBRANCH   1  17
TORSDOF 16
ENDMDL
