MODEL 1
REMARK VINA RESULT:     -12.1      0.000      0.000
REMARK SMILES COc1ccc(F)cc1-c1ccc(C[C@]2(C(=O)NCCCCCCNC(=O)c3ccc(-c4c5nc(c(-c6c(F)c(F)c(F)c(F)c6F)c6ccc([nH]6)c(-c6c(F)c(F)c(F)c(F)c6F)c6nc(c(-c7c(F)c(F)c(F)c(F)c7F)c7ccc4[nH]7)C=C6)C=C5)cc3)CCCO2)cc1
REMARK SMILES IDX 20 1 19 2 18 3 16 4 17 5 15 7 91 8 94 9 92 10 93 11 14 12
REMARK SMILES IDX 13 13 10 14 11 15 96 16 12 17 95 18 9 19 3 20 4 21 5 22 8 23
REMARK SMILES IDX 6 24 7 25 2 26 1 27 21 28 22 29 23 30 24 31 25 32 26 33
REMARK SMILES IDX 27 35 28 36 29 37 90 38 30 39 89 40 31 41 32 42 33 43 83 44
REMARK SMILES IDX 34 45 88 46 82 47 84 48 35 49 87 50 81 51 80 52 36 54 68 55
REMARK SMILES IDX 48 56 67 57 49 58 52 59 66 60 85 61 50 62 51 63 65 65 86 66
REMARK SMILES IDX 53 67 37 68 38 69 46 70 39 71 40 72 44 73 47 74 41 75 42 76
REMARK SMILES IDX 45 77 43 78 69 79 70 80 78 81 71 82 72 83 76 84 79 85 73 86
REMARK SMILES IDX 74 87 77 88 75 89 54 90 55 91 63 92 56 93 57 94 61 95 64 96
REMARK SMILES IDX 58 97 59 98 62 99 60 100
REMARK H PARENT 18 6 25 34 84 53 52 64
REMARK Flexibility Score: inf
ROOT
ATOM      1  C   UNL A   1      34.657  31.078  28.023  1.00  0.00     0.021 C 
ENDROOT
BRANCH   1   2
ATOM      2  C   UNL A   1      33.630  30.535  27.029  1.00  0.00     0.116 C 
BRANCH   2   3
ATOM      3  N   UNL A   1      32.773  29.547  27.648  1.00  0.00    -0.354 N 
ATOM      4  C   UNL A   1      32.129  28.465  27.117  1.00  0.00     0.252 C 
ATOM      5  O   UNL A   1      31.404  27.833  27.894  1.00  0.00    -0.272 OA
ATOM      6  H   UNL A   1      32.629  29.675  28.614  1.00  0.00     0.163 HD
BRANCH   4   7
ATOM      7  C   UNL A   1      32.263  28.074  25.610  1.00  0.00     0.150 C 
ATOM      8  C   UNL A   1      31.115  27.159  25.176  1.00  0.00     0.048 C 
ATOM      9  O   UNL A   1      32.194  29.256  24.790  1.00  0.00    -0.365 OA
ATOM     10  C   UNL A   1      30.506  27.814  23.956  1.00  0.00     0.032 C 
ATOM     11  C   UNL A   1      31.433  28.958  23.615  1.00  0.00     0.162 C 
BRANCH   7  12
ATOM     12  C   UNL A   1      33.662  27.401  25.434  1.00  0.00     0.081 C 
BRANCH  12  13
ATOM     13  C   UNL A   1      33.686  25.901  25.219  1.00  0.00    -0.045 A 
ATOM     14  C   UNL A   1      33.802  23.097  24.876  1.00  0.00    -0.015 A 
ATOM     15  C   UNL A   1      34.089  23.961  23.812  1.00  0.00     0.009 A 
ATOM     16  C   UNL A   1      33.433  23.652  26.108  1.00  0.00     0.009 A 
ATOM     17  C   UNL A   1      34.013  25.346  23.976  1.00  0.00     0.004 A 
ATOM     18  C   UNL A   1      33.382  25.037  26.281  1.00  0.00     0.004 A 
BRANCH  14  19
ATOM     19  C   UNL A   1      33.896  21.643  24.700  1.00  0.00     0.027 A 
ATOM     20  C   UNL A   1      35.040  20.916  25.081  1.00  0.00     0.126 A 
ATOM     21  C   UNL A   1      35.087  19.524  24.923  1.00  0.00     0.050 A 
ATOM     22  C   UNL A   1      34.005  18.852  24.356  1.00  0.00     0.043 A 
ATOM     23  C   UNL A   1      32.816  20.947  24.132  1.00  0.00     0.051 A 
ATOM     24  C   UNL A   1      32.882  19.568  23.965  1.00  0.00     0.124 A 
ATOM     25  F   UNL A   1      31.839  18.920  23.429  1.00  0.00    -0.207 F 
BRANCH  20  26
ATOM     26  O   UNL A   1      36.061  21.596  25.697  1.00  0.00    -0.496 OA
ATOM     27  C   UNL A   1      37.313  21.458  25.031  1.00  0.00     0.278 C 
ENDBRANCH  20  26
ENDBRANCH  14  19
ENDBRANCH  12  13
ENDBRANCH   7  12
ENDBRANCH   4   7
ENDBRANCH   2   3
ENDBRANCH   1   2
BRANCH   1  28
ATOM     28  C   UNL A   1      34.874  32.591  27.931  1.00  0.00     0.002 C 
BRANCH  28  29
ATOM     29  C   UNL A   1      34.346  33.394  29.124  1.00  0.00     0.002 C 
BRANCH  29  30
ATOM     30  C   UNL A   1      33.171  34.329  28.818  1.00  0.00     0.021 C 
BRANCH  30  31
ATOM     31  C   UNL A   1      33.354  35.773  29.280  1.00  0.00     0.116 C 
BRANCH  31  32
ATOM     32  N   UNL A   1      32.545  36.080  30.446  1.00  0.00    -0.352 N 
ATOM     33  C   UNL A   1      32.681  35.675  31.748  1.00  0.00     0.251 C 
ATOM     34  H   UNL A   1      31.777  36.673  30.274  1.00  0.00     0.163 HD
ATOM     35  O   UNL A   1      31.774  35.882  32.548  1.00  0.00    -0.269 OA
BRANCH  33  36
ATOM     36  C   UNL A   1      33.908  34.983  32.200  1.00  0.00     0.039 A 
ATOM     37  C   UNL A   1      33.783  33.699  32.739  1.00  0.00     0.014 A 
ATOM     38  C   UNL A   1      35.160  35.604  32.158  1.00  0.00     0.014 A 
ATOM     39  C   UNL A   1      34.915  33.026  33.200  1.00  0.00     0.010 A 
ATOM     40  C   UNL A   1      36.299  34.908  32.562  1.00  0.00     0.010 A 
ATOM     41  C   UNL A   1      36.185  33.616  33.098  1.00  0.00    -0.014 A 
BRANCH  41  42
ATOM     42  C   UNL A   1      37.391  32.875  33.545  1.00  0.00     0.031 A 
ATOM     43  C   UNL A   1      38.043  31.859  32.653  1.00  0.00     0.074 A 
ATOM     44  C   UNL A   1      37.891  33.117  34.771  1.00  0.00     0.049 A 
ATOM     45  N   UNL A   1      39.134  31.163  32.856  1.00  0.00    -0.248 NA
ATOM     46  C   UNL A   1      37.376  31.569  31.376  1.00  0.00     0.031 C 
ATOM     47  C   UNL A   1      37.310  34.036  35.749  1.00  0.00     0.029 A 
ATOM     48  N   UNL A   1      39.006  32.619  35.398  1.00  0.00    -0.354 N 
ATOM     49  C   UNL A   1      39.279  30.353  31.739  1.00  0.00     0.074 A 
ATOM     50  C   UNL A   1      38.140  30.604  30.883  1.00  0.00     0.031 C 
ATOM     51  C   UNL A   1      38.096  34.070  36.836  1.00  0.00     0.029 A 
ATOM     52  C   UNL A   1      39.224  33.164  36.639  1.00  0.00     0.049 A 
ATOM     53  H   UNL A   1      39.591  31.937  34.996  1.00  0.00     0.167 HD
ATOM     54  C   UNL A   1      40.287  29.496  31.444  1.00  0.00     0.037 A 
ATOM     55  C   UNL A   1      40.230  32.970  37.511  1.00  0.00     0.037 A 
ATOM     56  C   UNL A   1      41.432  29.267  32.285  1.00  0.00     0.049 A 
ATOM     57  C   UNL A   1      41.351  32.039  37.148  1.00  0.00     0.074 A 
ATOM     58  C   UNL A   1      42.537  28.471  32.041  1.00  0.00     0.029 A 
ATOM     59  N   UNL A   1      41.618  29.836  33.537  1.00  0.00    -0.354 N 
ATOM     60  N   UNL A   1      41.516  31.332  36.058  1.00  0.00    -0.248 NA
ATOM     61  C   UNL A   1      42.431  31.887  38.133  1.00  0.00     0.031 C 
ATOM     62  C   UNL A   1      43.373  28.526  33.162  1.00  0.00     0.029 A 
ATOM     63  C   UNL A   1      42.810  29.390  34.087  1.00  0.00     0.049 A 
ATOM     64  H   UNL A   1      40.995  30.463  33.971  1.00  0.00     0.167 HD
ATOM     65  C   UNL A   1      42.718  30.658  36.218  1.00  0.00     0.074 A 
ATOM     66  C   UNL A   1      43.253  31.059  37.503  1.00  0.00     0.031 C 
ATOM     67  C   UNL A   1      43.322  29.785  35.375  1.00  0.00     0.037 A 
BRANCH  54  68
ATOM     68  C   UNL A   1      40.201  28.747  30.147  1.00  0.00     0.064 A 
ATOM     69  C   UNL A   1      39.560  27.501  30.082  1.00  0.00     0.173 A 
ATOM     70  C   UNL A   1      40.794  29.241  28.974  1.00  0.00     0.173 A 
ATOM     71  F   UNL A   1      38.981  26.980  31.175  1.00  0.00    -0.203 F 
ATOM     72  C   UNL A   1      39.518  26.776  28.893  1.00  0.00     0.198 A 
ATOM     73  C   UNL A   1      40.728  28.526  27.781  1.00  0.00     0.198 A 
ATOM     74  F   UNL A   1      41.411  30.433  28.981  1.00  0.00    -0.203 F 
ATOM     75  F   UNL A   1      38.917  25.579  28.861  1.00  0.00    -0.200 F 
ATOM     76  C   UNL A   1      40.097  27.293  27.743  1.00  0.00     0.200 A 
ATOM     77  F   UNL A   1      41.266  29.038  26.665  1.00  0.00    -0.200 F 
ATOM     78  F   UNL A   1      40.040  26.602  26.596  1.00  0.00    -0.200 F 
ENDBRANCH  54  68
BRANCH  55  79
ATOM     79  C   UNL A   1      40.242  33.735  38.781  1.00  0.00     0.064 A 
ATOM     80  C   UNL A   1      39.497  33.317  39.893  1.00  0.00     0.173 A 
ATOM     81  C   UNL A   1      40.956  34.937  38.885  1.00  0.00     0.173 A 
ATOM     82  F   UNL A   1      38.792  32.179  39.838  1.00  0.00    -0.203 F 
ATOM     83  C   UNL A   1      39.447  34.086  41.053  1.00  0.00     0.198 A 
ATOM     84  C   UNL A   1      40.922  35.694  40.053  1.00  0.00     0.198 A 
ATOM     85  F   UNL A   1      41.696  35.366  37.852  1.00  0.00    -0.203 F 
ATOM     86  F   UNL A   1      38.698  33.684  42.090  1.00  0.00    -0.200 F 
ATOM     87  C   UNL A   1      40.161  35.273  41.133  1.00  0.00     0.200 A 
ATOM     88  F   UNL A   1      41.625  36.832  40.132  1.00  0.00    -0.200 F 
ATOM     89  F   UNL A   1      40.112  36.012  42.250  1.00  0.00    -0.200 F 
ENDBRANCH  55  79
BRANCH  67  90
ATOM     90  C   UNL A   1      44.627  29.192  35.818  1.00  0.00     0.064 A 
ATOM     91  C   UNL A   1      45.840  29.819  35.499  1.00  0.00     0.173 A 
ATOM     92  C   UNL A   1      44.677  27.976  36.513  1.00  0.00     0.173 A 
ATOM     93  F   UNL A   1      45.846  30.981  34.830  1.00  0.00    -0.203 F 
ATOM     94  C   UNL A   1      47.057  29.246  35.855  1.00  0.00     0.198 A 
ATOM     95  C   UNL A   1      45.894  27.417  36.890  1.00  0.00     0.198 A 
ATOM     96  F   UNL A   1      43.542  27.346  36.852  1.00  0.00    -0.203 F 
ATOM     97  F   UNL A   1      48.206  29.850  35.521  1.00  0.00    -0.200 F 
ATOM     98  C   UNL A   1      47.083  28.047  36.554  1.00  0.00     0.200 A 
ATOM     99  F   UNL A   1      45.917  26.271  37.585  1.00  0.00    -0.200 F 
ATOM    100  F   UNL A   1      48.255  27.503  36.910  1.00  0.00    -0.200 F 
ENDBRANCH  67  90
ENDBRANCH  41  42
ENDBRANCH  33  36
ENDBRANCH  31  32
ENDBRANCH  30  31
ENDBRANCH  29  30
ENDBRANCH  28  29
ENDBRANCH   1  28
TORSDOF 17
ENDMDL
MODEL 2
REMARK VINA RESULT:     -11.7      3.010      8.805
REMARK SMILES COc1ccc(F)cc1-c1ccc(C[C@]2(C(=O)NCCCCCCNC(=O)c3ccc(-c4c5nc(c(-c6c(F)c(F)c(F)c(F)c6F)c6ccc([nH]6)c(-c6c(F)c(F)c(F)c(F)c6F)c6nc(c(-c7c(F)c(F)c(F)c(F)c7F)c7ccc4[nH]7)C=C6)C=C5)cc3)CCCO2)cc1
REMARK SMILES IDX 20 1 19 2 18 3 16 4 17 5 15 7 91 8 94 9 92 10 93 11 14 12
REMARK SMILES IDX 13 13 10 14 11 15 96 16 12 17 95 18 9 19 3 20 4 21 5 22 8 23
REMARK SMILES IDX 6 24 7 25 2 26 1 27 21 28 22 29 23 30 24 31 25 32 26 33
REMARK SMILES IDX 27 35 28 36 29 37 90 38 30 39 89 40 31 41 32 42 33 43 83 44
REMARK SMILES IDX 34 45 88 46 82 47 84 48 35 49 87 50 81 51 80 52 36 54 68 55
REMARK SMILES IDX 48 56 67 57 49 58 52 59 66 60 85 61 50 62 51 63 65 65 86 66
REMARK SMILES IDX 53 67 37 68 38 69 46 70 39 71 40 72 44 73 47 74 41 75 42 76
REMARK SMILES IDX 45 77 43 78 69 79 70 80 78 81 71 82 72 83 76 84 79 85 73 86
REMARK SMILES IDX 74 87 77 88 75 89 54 90 55 91 63 92 56 93 57 94 61 95 64 96
REMARK SMILES IDX 58 97 59 98 62 99 60 100
REMARK H PARENT 18 6 25 34 84 53 52 64
REMARK Flexibility Score: inf
ROOT
ATOM      1  C   UNL A   1      35.131  24.610  24.308  1.00  0.00     0.021 C 
ENDROOT
BRANCH   1   2
ATOM      2  C   UNL A   1      34.895  23.103  24.422  1.00  0.00     0.116 C 
BRANCH   2   3
ATOM      3  N   UNL A   1      34.637  22.716  25.793  1.00  0.00    -0.354 N 
ATOM      4  C   UNL A   1      33.668  21.913  26.325  1.00  0.00     0.252 C 
ATOM      5  O   UNL A   1      33.663  21.819  27.558  1.00  0.00    -0.272 OA
ATOM      6  H   UNL A   1      35.265  23.092  26.451  1.00  0.00     0.163 HD
BRANCH   4   7
ATOM      7  C   UNL A   1      32.603  21.193  25.437  1.00  0.00     0.150 C 
ATOM      8  C   UNL A   1      32.955  21.313  23.952  1.00  0.00     0.048 C 
ATOM      9  O   UNL A   1      32.573  19.787  25.751  1.00  0.00    -0.365 OA
ATOM     10  C   UNL A   1      32.952  19.899  23.413  1.00  0.00     0.032 C 
ATOM     11  C   UNL A   1      32.411  19.047  24.538  1.00  0.00     0.162 C 
BRANCH   7  12
ATOM     12  C   UNL A   1      31.217  21.830  25.775  1.00  0.00     0.081 C 
BRANCH  12  13
ATOM     13  C   UNL A   1      30.910  23.183  25.166  1.00  0.00    -0.045 A 
ATOM     14  C   UNL A   1      30.254  25.703  24.064  1.00  0.00    -0.015 A 
ATOM     15  C   UNL A   1      30.526  24.607  23.235  1.00  0.00     0.009 A 
ATOM     16  C   UNL A   1      30.336  25.528  25.451  1.00  0.00     0.009 A 
ATOM     17  C   UNL A   1      30.870  23.367  23.779  1.00  0.00     0.004 A 
ATOM     18  C   UNL A   1      30.654  24.282  25.997  1.00  0.00     0.004 A 
BRANCH  14  19
ATOM     19  C   UNL A   1      29.882  26.998  23.485  1.00  0.00     0.027 A 
ATOM     20  C   UNL A   1      30.817  27.817  22.820  1.00  0.00     0.126 A 
ATOM     21  C   UNL A   1      30.424  29.038  22.256  1.00  0.00     0.050 A 
ATOM     22  C   UNL A   1      29.102  29.465  22.376  1.00  0.00     0.043 A 
ATOM     23  C   UNL A   1      28.556  27.447  23.595  1.00  0.00     0.051 A 
ATOM     24  C   UNL A   1      28.182  28.668  23.045  1.00  0.00     0.124 A 
ATOM     25  F   UNL A   1      26.910  29.076  23.151  1.00  0.00    -0.207 F 
BRANCH  20  26
ATOM     26  O   UNL A   1      32.094  27.338  22.660  1.00  0.00    -0.496 OA
ATOM     27  C   UNL A   1      32.996  28.306  22.133  1.00  0.00     0.278 C 
ENDBRANCH  20  26
ENDBRANCH  14  19
ENDBRANCH  12  13
ENDBRANCH   7  12
ENDBRANCH   4   7
ENDBRANCH   2   3
ENDBRANCH   1   2
BRANCH   1  28
ATOM     28  C   UNL A   1      33.895  25.460  24.619  1.00  0.00     0.002 C 
BRANCH  28  29
ATOM     29  C   UNL A   1      34.007  26.332  25.873  1.00  0.00     0.002 C 
BRANCH  29  30
ATOM     30  C   UNL A   1      33.164  27.611  25.862  1.00  0.00     0.021 C 
BRANCH  30  31
ATOM     31  C   UNL A   1      33.867  28.847  25.307  1.00  0.00     0.116 C 
BRANCH  31  32
ATOM     32  N   UNL A   1      33.278  30.079  25.801  1.00  0.00    -0.352 N 
ATOM     33  C   UNL A   1      33.612  30.846  26.887  1.00  0.00     0.251 C 
ATOM     34  H   UNL A   1      32.518  30.417  25.272  1.00  0.00     0.163 HD
ATOM     35  O   UNL A   1      32.860  31.744  27.251  1.00  0.00    -0.269 OA
BRANCH  33  36
ATOM     36  C   UNL A   1      34.866  30.596  27.632  1.00  0.00     0.039 A 
ATOM     37  C   UNL A   1      34.970  29.419  28.377  1.00  0.00     0.014 A 
ATOM     38  C   UNL A   1      35.904  31.532  27.655  1.00  0.00     0.014 A 
ATOM     39  C   UNL A   1      36.127  29.162  29.113  1.00  0.00     0.010 A 
ATOM     40  C   UNL A   1      37.085  31.248  28.342  1.00  0.00     0.010 A 
ATOM     41  C   UNL A   1      37.202  30.065  29.087  1.00  0.00    -0.014 A 
BRANCH  41  42
ATOM     42  C   UNL A   1      38.449  29.764  29.833  1.00  0.00     0.031 A 
ATOM     43  C   UNL A   1      38.689  30.345  31.195  1.00  0.00     0.074 A 
ATOM     44  C   UNL A   1      39.373  28.966  29.267  1.00  0.00     0.049 A 
ATOM     45  N   UNL A   1      39.692  30.142  32.014  1.00  0.00    -0.248 NA
ATOM     46  C   UNL A   1      37.687  31.296  31.699  1.00  0.00     0.031 C 
ATOM     47  C   UNL A   1      39.280  28.390  27.926  1.00  0.00     0.029 A 
ATOM     48  N   UNL A   1      40.567  28.493  29.754  1.00  0.00    -0.354 N 
ATOM     49  C   UNL A   1      39.443  30.940  33.122  1.00  0.00     0.074 A 
ATOM     50  C   UNL A   1      38.223  31.670  32.852  1.00  0.00     0.031 C 
ATOM     51  C   UNL A   1      40.348  27.606  27.712  1.00  0.00     0.029 A 
ATOM     52  C   UNL A   1      41.208  27.638  28.891  1.00  0.00     0.049 A 
ATOM     53  H   UNL A   1      40.927  28.743  30.635  1.00  0.00     0.167 HD
ATOM     54  C   UNL A   1      40.156  31.034  34.270  1.00  0.00     0.037 A 
ATOM     55  C   UNL A   1      42.350  26.943  29.043  1.00  0.00     0.037 A 
ATOM     56  C   UNL A   1      41.355  30.287  34.546  1.00  0.00     0.049 A 
ATOM     57  C   UNL A   1      43.107  27.040  30.337  1.00  0.00     0.074 A 
ATOM     58  C   UNL A   1      42.109  30.263  35.706  1.00  0.00     0.029 A 
ATOM     59  N   UNL A   1      41.977  29.432  33.648  1.00  0.00    -0.354 N 
ATOM     60  N   UNL A   1      42.825  27.741  31.406  1.00  0.00    -0.248 NA
ATOM     61  C   UNL A   1      44.334  26.239  30.448  1.00  0.00     0.031 C 
ATOM     62  C   UNL A   1      43.209  29.424  35.496  1.00  0.00     0.029 A 
ATOM     63  C   UNL A   1      43.118  28.892  34.220  1.00  0.00     0.049 A 
ATOM     64  H   UNL A   1      41.655  29.238  32.738  1.00  0.00     0.167 HD
ATOM     65  C   UNL A   1      43.831  27.464  32.321  1.00  0.00     0.074 A 
ATOM     66  C   UNL A   1      44.719  26.511  31.687  1.00  0.00     0.031 C 
ATOM     67  C   UNL A   1      44.002  27.957  33.572  1.00  0.00     0.037 A 
BRANCH  54  68
ATOM     68  C   UNL A   1      39.650  31.973  35.325  1.00  0.00     0.064 A 
ATOM     69  C   UNL A   1      38.699  31.547  36.265  1.00  0.00     0.173 A 
ATOM     70  C   UNL A   1      40.072  33.311  35.379  1.00  0.00     0.173 A 
ATOM     71  F   UNL A   1      38.258  30.280  36.254  1.00  0.00    -0.203 F 
ATOM     72  C   UNL A   1      38.187  32.426  37.217  1.00  0.00     0.198 A 
ATOM     73  C   UNL A   1      39.577  34.180  36.348  1.00  0.00     0.198 A 
ATOM     74  F   UNL A   1      40.987  33.765  34.510  1.00  0.00    -0.203 F 
ATOM     75  F   UNL A   1      37.265  32.001  38.091  1.00  0.00    -0.200 F 
ATOM     76  C   UNL A   1      38.631  33.739  37.261  1.00  0.00     0.200 A 
ATOM     77  F   UNL A   1      40.026  35.442  36.406  1.00  0.00    -0.200 F 
ATOM     78  F   UNL A   1      38.151  34.578  38.189  1.00  0.00    -0.200 F 
ENDBRANCH  54  68
BRANCH  55  79
ATOM     79  C   UNL A   1      42.798  26.043  27.952  1.00  0.00     0.064 A 
ATOM     80  C   UNL A   1      43.709  26.475  26.976  1.00  0.00     0.173 A 
ATOM     81  C   UNL A   1      42.273  24.749  27.831  1.00  0.00     0.173 A 
ATOM     82  F   UNL A   1      44.232  27.707  27.046  1.00  0.00    -0.203 F 
ATOM     83  C   UNL A   1      44.059  25.652  25.908  1.00  0.00     0.198 A 
ATOM     84  C   UNL A   1      42.639  23.921  26.774  1.00  0.00     0.198 A 
ATOM     85  F   UNL A   1      41.411  24.290  28.751  1.00  0.00    -0.203 F 
ATOM     86  F   UNL A   1      44.903  26.100  24.969  1.00  0.00    -0.200 F 
ATOM     87  C   UNL A   1      43.526  24.376  25.809  1.00  0.00     0.200 A 
ATOM     88  F   UNL A   1      42.134  22.683  26.690  1.00  0.00    -0.200 F 
ATOM     89  F   UNL A   1      43.863  23.585  24.781  1.00  0.00    -0.200 F 
ENDBRANCH  55  79
BRANCH  67  90
ATOM     90  C   UNL A   1      45.201  27.484  34.338  1.00  0.00     0.064 A 
ATOM     91  C   UNL A   1      46.425  28.163  34.240  1.00  0.00     0.173 A 
ATOM     92  C   UNL A   1      45.152  26.328  35.130  1.00  0.00     0.173 A 
ATOM     93  F   UNL A   1      46.526  29.271  33.491  1.00  0.00    -0.203 F 
ATOM     94  C   UNL A   1      47.557  27.697  34.901  1.00  0.00     0.198 A 
ATOM     95  C   UNL A   1      46.279  25.878  35.809  1.00  0.00     0.198 A 
ATOM     96  F   UNL A   1      44.001  25.652  35.265  1.00  0.00    -0.203 F 
ATOM     97  F   UNL A   1      48.722  28.347  34.775  1.00  0.00    -0.200 F 
ATOM     98  C   UNL A   1      47.483  26.557  35.689  1.00  0.00     0.200 A 
ATOM     99  F   UNL A   1      46.200  24.790  36.589  1.00  0.00    -0.200 F 
ATOM    100  F   UNL A   1      48.570  26.118  36.338  1.00  0.00    -0.200 F 
ENDBRANCH  67  90
ENDBRANCH  41  42
ENDBRANCH  33  36
ENDBRANCH  31  32
ENDBRANCH  30  31
ENDBRANCH  29  30
ENDBRANCH  28  29
ENDBRANCH   1  28
TORSDOF 17
ENDMDL
MODEL 3
REMARK VINA RESULT:     -11.7      4.500      9.849
REMARK SMILES COc1ccc(F)cc1-c1ccc(C[C@]2(C(=O)NCCCCCCNC(=O)c3ccc(-c4c5nc(c(-c6c(F)c(F)c(F)c(F)c6F)c6ccc([nH]6)c(-c6c(F)c(F)c(F)c(F)c6F)c6nc(c(-c7c(F)c(F)c(F)c(F)c7F)c7ccc4[nH]7)C=C6)C=C5)cc3)CCCO2)cc1
REMARK SMILES IDX 20 1 19 2 18 3 16 4 17 5 15 7 91 8 94 9 92 10 93 11 14 12
REMARK SMILES IDX 13 13 10 14 11 15 96 16 12 17 95 18 9 19 3 20 4 21 5 22 8 23
REMARK SMILES IDX 6 24 7 25 2 26 1 27 21 28 22 29 23 30 24 31 25 32 26 33
REMARK SMILES IDX 27 35 28 36 29 37 90 38 30 39 89 40 31 41 32 42 33 43 83 44
REMARK SMILES IDX 34 45 88 46 82 47 84 48 35 49 87 50 81 51 80 52 36 54 68 55
REMARK SMILES IDX 48 56 67 57 49 58 52 59 66 60 85 61 50 62 51 63 65 65 86 66
REMARK SMILES IDX 53 67 37 68 38 69 46 70 39 71 40 72 44 73 47 74 41 75 42 76
REMARK SMILES IDX 45 77 43 78 69 79 70 80 78 81 71 82 72 83 76 84 79 85 73 86
REMARK SMILES IDX 74 87 77 88 75 89 54 90 55 91 63 92 56 93 57 94 61 95 64 96
REMARK SMILES IDX 58 97 59 98 62 99 60 100
REMARK H PARENT 18 6 25 34 84 53 52 64
REMARK Flexibility Score: inf
ROOT
ATOM      1  C   UNL A   1      35.395  24.728  25.593  1.00  0.00     0.021 C 
ENDROOT
BRANCH   1   2
ATOM      2  C   UNL A   1      35.182  23.361  24.942  1.00  0.00     0.116 C 
BRANCH   2   3
ATOM      3  N   UNL A   1      34.854  23.495  23.538  1.00  0.00    -0.354 N 
ATOM      4  C   UNL A   1      33.698  23.222  22.862  1.00  0.00     0.252 C 
ATOM      5  O   UNL A   1      33.740  23.378  21.637  1.00  0.00    -0.272 OA
ATOM      6  H   UNL A   1      35.585  23.840  22.977  1.00  0.00     0.163 HD
BRANCH   4   7
ATOM      7  C   UNL A   1      32.414  22.701  23.586  1.00  0.00     0.150 C 
ATOM      8  C   UNL A   1      32.367  21.171  23.587  1.00  0.00     0.048 C 
ATOM      9  O   UNL A   1      32.423  23.125  24.963  1.00  0.00    -0.365 OA
ATOM     10  C   UNL A   1      32.177  20.767  25.032  1.00  0.00     0.032 C 
ATOM     11  C   UNL A   1      31.923  22.059  25.776  1.00  0.00     0.162 C 
BRANCH   7  12
ATOM     12  C   UNL A   1      31.188  23.335  22.855  1.00  0.00     0.081 C 
BRANCH  12  13
ATOM     13  C   UNL A   1      30.899  24.798  23.129  1.00  0.00    -0.045 A 
ATOM     14  C   UNL A   1      30.450  27.541  23.648  1.00  0.00    -0.015 A 
ATOM     15  C   UNL A   1      30.007  26.560  24.544  1.00  0.00     0.009 A 
ATOM     16  C   UNL A   1      31.100  27.131  22.476  1.00  0.00     0.009 A 
ATOM     17  C   UNL A   1      30.212  25.204  24.279  1.00  0.00     0.004 A 
ATOM     18  C   UNL A   1      31.328  25.777  22.222  1.00  0.00     0.004 A 
BRANCH  14  19
ATOM     19  C   UNL A   1      30.242  28.963  23.939  1.00  0.00     0.027 A 
ATOM     20  C   UNL A   1      29.230  29.715  23.311  1.00  0.00     0.126 A 
ATOM     21  C   UNL A   1      29.040  31.066  23.631  1.00  0.00     0.050 A 
ATOM     22  C   UNL A   1      29.878  31.685  24.558  1.00  0.00     0.043 A 
ATOM     23  C   UNL A   1      31.074  29.604  24.871  1.00  0.00     0.051 A 
ATOM     24  C   UNL A   1      30.887  30.950  25.168  1.00  0.00     0.124 A 
ATOM     25  F   UNL A   1      31.684  31.543  26.066  1.00  0.00    -0.207 F 
BRANCH  20  26
ATOM     26  O   UNL A   1      28.379  29.062  22.453  1.00  0.00    -0.496 OA
ATOM     27  C   UNL A   1      27.064  28.904  22.976  1.00  0.00     0.278 C 
ENDBRANCH  20  26
ENDBRANCH  14  19
ENDBRANCH  12  13
ENDBRANCH   7  12
ENDBRANCH   4   7
ENDBRANCH   2   3
ENDBRANCH   1   2
BRANCH   1  28
ATOM     28  C   UNL A   1      34.105  25.528  25.802  1.00  0.00     0.002 C 
BRANCH  28  29
ATOM     29  C   UNL A   1      33.892  26.681  24.817  1.00  0.00     0.002 C 
BRANCH  29  30
ATOM     30  C   UNL A   1      34.114  28.084  25.391  1.00  0.00     0.021 C 
BRANCH  30  31
ATOM     31  C   UNL A   1      34.020  28.186  26.912  1.00  0.00     0.116 C 
BRANCH  31  32
ATOM     32  N   UNL A   1      33.809  29.552  27.356  1.00  0.00    -0.352 N 
ATOM     33  C   UNL A   1      34.617  30.377  28.094  1.00  0.00     0.251 C 
ATOM     34  H   UNL A   1      32.949  29.949  27.083  1.00  0.00     0.163 HD
ATOM     35  O   UNL A   1      34.170  31.430  28.537  1.00  0.00    -0.269 OA
BRANCH  33  36
ATOM     36  C   UNL A   1      36.023  30.008  28.372  1.00  0.00     0.039 A 
ATOM     37  C   UNL A   1      36.962  30.166  27.350  1.00  0.00     0.014 A 
ATOM     38  C   UNL A   1      36.408  29.455  29.596  1.00  0.00     0.014 A 
ATOM     39  C   UNL A   1      38.293  29.804  27.567  1.00  0.00     0.010 A 
ATOM     40  C   UNL A   1      37.749  29.150  29.834  1.00  0.00     0.010 A 
ATOM     41  C   UNL A   1      38.701  29.311  28.817  1.00  0.00    -0.014 A 
BRANCH  41  42
ATOM     42  C   UNL A   1      40.126  28.974  29.056  1.00  0.00     0.031 A 
ATOM     43  C   UNL A   1      41.012  29.895  29.843  1.00  0.00     0.074 A 
ATOM     44  C   UNL A   1      40.622  27.830  28.549  1.00  0.00     0.049 A 
ATOM     45  N   UNL A   1      42.262  29.732  30.199  1.00  0.00    -0.248 NA
ATOM     46  C   UNL A   1      40.430  31.176  30.268  1.00  0.00     0.031 C 
ATOM     47  C   UNL A   1      39.876  26.885  27.719  1.00  0.00     0.029 A 
ATOM     48  N   UNL A   1      41.868  27.264  28.666  1.00  0.00    -0.354 N 
ATOM     49  C   UNL A   1      42.614  30.887  30.883  1.00  0.00     0.074 A 
ATOM     50  C   UNL A   1      41.465  31.765  30.849  1.00  0.00     0.031 C 
ATOM     51  C   UNL A   1      40.664  25.835  27.438  1.00  0.00     0.029 A 
ATOM     52  C   UNL A   1      41.973  26.041  28.051  1.00  0.00     0.049 A 
ATOM     53  H   UNL A   1      42.613  27.694  29.145  1.00  0.00     0.167 HD
ATOM     54  C   UNL A   1      43.783  31.177  31.504  1.00  0.00     0.037 A 
ATOM     55  C   UNL A   1      43.001  25.175  28.004  1.00  0.00     0.037 A 
ATOM     56  C   UNL A   1      44.916  30.290  31.558  1.00  0.00     0.049 A 
ATOM     57  C   UNL A   1      44.276  25.504  28.727  1.00  0.00     0.074 A 
ATOM     58  C   UNL A   1      46.118  30.465  32.221  1.00  0.00     0.029 A 
ATOM     59  N   UNL A   1      44.987  29.060  30.921  1.00  0.00    -0.354 N 
ATOM     60  N   UNL A   1      44.574  26.567  29.431  1.00  0.00    -0.248 NA
ATOM     61  C   UNL A   1      45.354  24.508  28.655  1.00  0.00     0.031 C 
ATOM     62  C   UNL A   1      46.932  29.359  31.952  1.00  0.00     0.029 A 
ATOM     63  C   UNL A   1      46.221  28.475  31.157  1.00  0.00     0.049 A 
ATOM     64  H   UNL A   1      44.266  28.661  30.381  1.00  0.00     0.167 HD
ATOM     65  C   UNL A   1      45.867  26.368  29.895  1.00  0.00     0.074 A 
ATOM     66  C   UNL A   1      46.288  25.070  29.410  1.00  0.00     0.031 C 
ATOM     67  C   UNL A   1      46.633  27.189  30.654  1.00  0.00     0.037 A 
BRANCH  54  68
ATOM     68  C   UNL A   1      43.893  32.507  32.189  1.00  0.00     0.064 A 
ATOM     69  C   UNL A   1      44.412  33.620  31.510  1.00  0.00     0.173 A 
ATOM     70  C   UNL A   1      43.526  32.672  33.534  1.00  0.00     0.173 A 
ATOM     71  F   UNL A   1      44.783  33.515  30.225  1.00  0.00    -0.203 F 
ATOM     72  C   UNL A   1      44.563  34.846  32.153  1.00  0.00     0.198 A 
ATOM     73  C   UNL A   1      43.654  33.906  34.166  1.00  0.00     0.198 A 
ATOM     74  F   UNL A   1      43.015  31.642  34.225  1.00  0.00    -0.203 F 
ATOM     75  F   UNL A   1      45.080  35.889  31.489  1.00  0.00    -0.200 F 
ATOM     76  C   UNL A   1      44.178  34.989  33.478  1.00  0.00     0.200 A 
ATOM     77  F   UNL A   1      43.259  34.049  35.438  1.00  0.00    -0.200 F 
ATOM     78  F   UNL A   1      44.307  36.175  34.089  1.00  0.00    -0.200 F 
ENDBRANCH  54  68
BRANCH  55  79
ATOM     79  C   UNL A   1      42.826  23.883  27.296  1.00  0.00     0.064 A 
ATOM     80  C   UNL A   1      42.285  22.763  27.945  1.00  0.00     0.173 A 
ATOM     81  C   UNL A   1      43.254  23.730  25.971  1.00  0.00     0.173 A 
ATOM     82  F   UNL A   1      41.869  22.859  29.215  1.00  0.00    -0.203 F 
ATOM     83  C   UNL A   1      42.202  21.532  27.299  1.00  0.00     0.198 A 
ATOM     84  C   UNL A   1      43.152  22.504  25.320  1.00  0.00     0.198 A 
ATOM     85  F   UNL A   1      43.762  24.779  25.307  1.00  0.00    -0.203 F 
ATOM     86  F   UNL A   1      41.716  20.467  27.951  1.00  0.00    -0.200 F 
ATOM     87  C   UNL A   1      42.634  21.403  25.987  1.00  0.00     0.200 A 
ATOM     88  F   UNL A   1      43.555  22.387  24.048  1.00  0.00    -0.200 F 
ATOM     89  F   UNL A   1      42.554  20.218  25.367  1.00  0.00    -0.200 F 
ENDBRANCH  55  79
BRANCH  67  90
ATOM     90  C   UNL A   1      48.014  26.715  30.999  1.00  0.00     0.064 A 
ATOM     91  C   UNL A   1      49.096  26.991  30.150  1.00  0.00     0.173 A 
ATOM     92  C   UNL A   1      48.255  25.942  32.143  1.00  0.00     0.173 A 
ATOM     93  F   UNL A   1      48.917  27.721  29.040  1.00  0.00    -0.203 F 
ATOM     94  C   UNL A   1      50.369  26.504  30.434  1.00  0.00     0.198 A 
ATOM     95  C   UNL A   1      49.533  25.477  32.436  1.00  0.00     0.198 A 
ATOM     96  F   UNL A   1      47.253  25.663  32.992  1.00  0.00    -0.203 F 
ATOM     97  F   UNL A   1      51.385  26.760  29.597  1.00  0.00    -0.200 F 
ATOM     98  C   UNL A   1      50.588  25.752  31.578  1.00  0.00     0.200 A 
ATOM     99  F   UNL A   1      49.747  24.771  33.555  1.00  0.00    -0.200 F 
ATOM    100  F   UNL A   1      51.817  25.296  31.858  1.00  0.00    -0.200 F 
ENDBRANCH  67  90
ENDBRANCH  41  42
ENDBRANCH  33  36
ENDBRANCH  31  32
ENDBRANCH  30  31
ENDBRANCH  29  30
ENDBRANCH  28  29
ENDBRANCH   1  28
TORSDOF 17
ENDMDL
