MODEL 1
REMARK VINA RESULT:     -13.5      0.000      0.000
REMARK SMILES Cc1ccc(C(=O)NCCCCCCNC(=O)c2ccc(-c3c4nc(c(-c5c(F)c(F)c(F)c(F)c5F)c5ccc([nH]5)c(-c5c(F)c(F)c(F)c(F)c5F)c5nc(c(-c6c(F)c(F)c(F)c(F)c6F)c6ccc3[nH]6)C=C5)C=C4)cc2)c2c1N[C@H](c1ccccc1F)[C@H]1CC=C[C@@H]21
REMARK SMILES IDX 12 1 11 2 10 3 9 4 8 5 6 6 7 7 5 9 1 10 2 11 3 12 82 13 4 14
REMARK SMILES IDX 81 15 83 16 96 17 84 18 92 20 95 21 93 22 94 23 85 24 86 25
REMARK SMILES IDX 90 26 87 27 89 28 91 29 88 30 13 31 14 32 15 33 16 34 17 36
REMARK SMILES IDX 18 37 19 38 80 39 20 40 79 41 21 42 22 43 23 44 73 45 24 46
REMARK SMILES IDX 78 47 72 48 74 49 25 50 77 51 71 52 70 53 26 55 58 56 38 57
REMARK SMILES IDX 57 58 39 59 42 60 56 61 75 62 40 63 41 64 55 66 76 67 43 68
REMARK SMILES IDX 27 69 28 70 36 71 29 72 30 73 34 74 37 75 31 76 32 77 35 78
REMARK SMILES IDX 33 79 59 80 60 81 68 82 61 83 62 84 66 85 69 86 63 87 64 88
REMARK SMILES IDX 67 89 65 90 44 91 45 92 53 93 46 94 47 95 51 96 54 97 48 98
REMARK SMILES IDX 49 99 52 100 50 101
REMARK H PARENT 8 8 83 19 15 35 74 54 42 65
REMARK Flexibility Score: inf
ROOT
ATOM      1  C   UNL A   1      31.486  30.839  26.028  1.00  0.00     0.002 C 
ENDROOT
BRANCH   1   2
ATOM      2  C   UNL A   1      32.404  29.824  26.721  1.00  0.00     0.002 C 
BRANCH   2   3
ATOM      3  C   UNL A   1      33.512  29.246  25.823  1.00  0.00     0.021 C 
BRANCH   3   4
ATOM      4  C   UNL A   1      33.926  27.827  26.227  1.00  0.00     0.116 C 
BRANCH   4   5
ATOM      5  N   UNL A   1      32.749  27.098  26.640  1.00  0.00    -0.352 N 
ATOM      6  C   UNL A   1      31.855  26.276  26.007  1.00  0.00     0.251 C 
ATOM      7  O   UNL A   1      30.791  26.156  26.612  1.00  0.00    -0.269 OA
ATOM      8  H   UNL A   1      32.543  27.219  27.595  1.00  0.00     0.163 HD
BRANCH   6   9
ATOM      9  C   UNL A   1      32.119  25.533  24.717  1.00  0.00     0.045 A 
ATOM     10  C   UNL A   1      33.076  23.598  20.948  1.00  0.00     0.046 C 
ATOM     11  C   UNL A   1      32.696  24.182  22.285  1.00  0.00    -0.028 A 
ATOM     12  C   UNL A   1      32.273  25.513  22.288  1.00  0.00     0.006 A 
ATOM     13  C   UNL A   1      32.753  23.472  23.503  1.00  0.00     0.042 A 
ATOM     14  C   UNL A   1      31.942  26.156  23.479  1.00  0.00     0.014 A 
ATOM     15  C   UNL A   1      32.511  24.157  24.726  1.00  0.00    -0.005 A 
ATOM     16  N   UNL A   1      33.078  22.126  23.498  1.00  0.00    -0.377 N 
ATOM     17  C   UNL A   1      32.584  23.369  26.020  1.00  0.00     0.050 C 
ATOM     18  C   UNL A   1      33.552  21.444  24.692  1.00  0.00     0.117 C 
ATOM     19  H   UNL A   1      32.986  21.615  22.662  1.00  0.00     0.161 HD
ATOM     20  C   UNL A   1      32.677  21.837  25.887  1.00  0.00     0.031 C 
ATOM     21  C   UNL A   1      33.771  23.667  26.903  1.00  0.00    -0.023 C 
ATOM     22  C   UNL A   1      33.307  21.400  27.224  1.00  0.00     0.034 C 
ATOM     23  C   UNL A   1      34.151  22.580  27.585  1.00  0.00    -0.030 C 
BRANCH  18  24
ATOM     24  C   UNL A   1      33.677  19.956  24.380  1.00  0.00     0.010 A 
ATOM     25  C   UNL A   1      32.574  19.306  23.786  1.00  0.00     0.009 A 
ATOM     26  C   UNL A   1      34.818  19.183  24.628  1.00  0.00     0.128 A 
ATOM     27  C   UNL A   1      32.630  17.954  23.440  1.00  0.00     0.001 A 
ATOM     28  C   UNL A   1      34.881  17.835  24.277  1.00  0.00     0.039 A 
ATOM     29  F   UNL A   1      35.909  19.713  25.197  1.00  0.00    -0.207 F 
ATOM     30  C   UNL A   1      33.788  17.219  23.678  1.00  0.00     0.003 A 
ENDBRANCH  18  24
ENDBRANCH   6   9
ENDBRANCH   4   5
ENDBRANCH   3   4
ENDBRANCH   2   3
ENDBRANCH   1   2
BRANCH   1  31
ATOM     31  C   UNL A   1      31.325  32.158  26.786  1.00  0.00     0.021 C 
BRANCH  31  32
ATOM     32  C   UNL A   1      32.653  32.801  27.165  1.00  0.00     0.116 C 
BRANCH  32  33
ATOM     33  N   UNL A   1      32.466  34.188  27.559  1.00  0.00    -0.352 N 
ATOM     34  C   UNL A   1      33.035  34.853  28.615  1.00  0.00     0.251 C 
ATOM     35  H   UNL A   1      31.853  34.717  26.998  1.00  0.00     0.163 HD
ATOM     36  O   UNL A   1      32.598  35.927  29.000  1.00  0.00    -0.269 OA
BRANCH  34  37
ATOM     37  C   UNL A   1      34.199  34.240  29.281  1.00  0.00     0.039 A 
ATOM     38  C   UNL A   1      35.485  34.562  28.847  1.00  0.00     0.014 A 
ATOM     39  C   UNL A   1      34.000  33.355  30.346  1.00  0.00     0.014 A 
ATOM     40  C   UNL A   1      36.585  34.016  29.507  1.00  0.00     0.010 A 
ATOM     41  C   UNL A   1      35.095  32.857  31.039  1.00  0.00     0.010 A 
ATOM     42  C   UNL A   1      36.394  33.170  30.612  1.00  0.00    -0.014 A 
BRANCH  42  43
ATOM     43  C   UNL A   1      37.542  32.542  31.303  1.00  0.00     0.031 A 
ATOM     44  C   UNL A   1      38.263  31.406  30.638  1.00  0.00     0.074 A 
ATOM     45  C   UNL A   1      37.898  32.957  32.531  1.00  0.00     0.049 A 
ATOM     46  N   UNL A   1      39.246  30.672  31.091  1.00  0.00    -0.248 NA
ATOM     47  C   UNL A   1      37.805  31.033  29.289  1.00  0.00     0.031 C 
ATOM     48  C   UNL A   1      37.256  34.041  33.275  1.00  0.00     0.029 A 
ATOM     49  N   UNL A   1      38.883  32.508  33.374  1.00  0.00    -0.354 N 
ATOM     50  C   UNL A   1      39.524  29.758  30.083  1.00  0.00     0.074 A 
ATOM     51  C   UNL A   1      38.568  29.985  29.023  1.00  0.00     0.031 C 
ATOM     52  C   UNL A   1      37.874  34.184  34.459  1.00  0.00     0.029 A 
ATOM     53  C   UNL A   1      38.930  33.180  34.570  1.00  0.00     0.049 A 
ATOM     54  H   UNL A   1      39.496  31.774  33.143  1.00  0.00     0.167 HD
ATOM     55  C   UNL A   1      40.509  28.833  30.039  1.00  0.00     0.037 A 
ATOM     56  C   UNL A   1      39.736  33.000  35.634  1.00  0.00     0.037 A 
ATOM     57  C   UNL A   1      41.461  28.619  31.097  1.00  0.00     0.049 A 
ATOM     58  C   UNL A   1      40.790  31.925  35.581  1.00  0.00     0.074 A 
ATOM     59  C   UNL A   1      42.514  27.723  31.139  1.00  0.00     0.029 A 
ATOM     60  N   UNL A   1      41.471  29.308  32.301  1.00  0.00    -0.354 N 
ATOM     61  N   UNL A   1      41.077  31.095  34.607  1.00  0.00    -0.248 NA
ATOM     62  C   UNL A   1      41.634  31.765  36.772  1.00  0.00     0.031 C 
ATOM     63  C   UNL A   1      43.129  27.834  32.389  1.00  0.00     0.029 A 
ATOM     64  C   UNL A   1      42.498  28.840  33.103  1.00  0.00     0.049 A 
ATOM     65  H   UNL A   1      40.840  30.023  32.549  1.00  0.00     0.167 HD
ATOM     66  C   UNL A   1      42.151  30.336  35.053  1.00  0.00     0.074 A 
ATOM     67  C   UNL A   1      42.473  30.815  36.382  1.00  0.00     0.031 C 
ATOM     68  C   UNL A   1      42.810  29.335  34.421  1.00  0.00     0.037 A 
BRANCH  55  69
ATOM     69  C   UNL A   1      40.620  27.991  28.803  1.00  0.00     0.064 A 
ATOM     70  C   UNL A   1      39.904  26.792  28.667  1.00  0.00     0.173 A 
ATOM     71  C   UNL A   1      41.402  28.415  27.717  1.00  0.00     0.173 A 
ATOM     72  F   UNL A   1      39.154  26.335  29.682  1.00  0.00    -0.203 F 
ATOM     73  C   UNL A   1      39.977  26.041  27.497  1.00  0.00     0.198 A 
ATOM     74  C   UNL A   1      41.448  27.677  26.537  1.00  0.00     0.198 A 
ATOM     75  F   UNL A   1      42.106  29.554  27.795  1.00  0.00    -0.203 F 
ATOM     76  F   UNL A   1      39.313  24.881  27.405  1.00  0.00    -0.200 F 
ATOM     77  C   UNL A   1      40.741  26.490  26.429  1.00  0.00     0.200 A 
ATOM     78  F   UNL A   1      42.175  28.119  25.502  1.00  0.00    -0.200 F 
ATOM     79  F   UNL A   1      40.794  25.777  25.297  1.00  0.00    -0.200 F 
ENDBRANCH  55  69
BRANCH  56  80
ATOM     80  C   UNL A   1      39.599  33.880  36.823  1.00  0.00     0.064 A 
ATOM     81  C   UNL A   1      40.250  35.121  36.875  1.00  0.00     0.173 A 
ATOM     82  C   UNL A   1      38.808  33.513  37.922  1.00  0.00     0.173 A 
ATOM     83  F   UNL A   1      41.033  35.508  35.857  1.00  0.00    -0.203 F 
ATOM     84  C   UNL A   1      40.125  35.954  37.984  1.00  0.00     0.198 A 
ATOM     85  C   UNL A   1      38.661  34.360  39.019  1.00  0.00     0.198 A 
ATOM     86  F   UNL A   1      38.161  32.338  37.921  1.00  0.00    -0.203 F 
ATOM     87  F   UNL A   1      40.789  37.117  38.023  1.00  0.00    -0.200 F 
ATOM     88  C   UNL A   1      39.325  35.577  39.052  1.00  0.00     0.200 A 
ATOM     89  F   UNL A   1      37.875  33.998  40.041  1.00  0.00    -0.200 F 
ATOM     90  F   UNL A   1      39.196  36.383  40.114  1.00  0.00    -0.200 F 
ENDBRANCH  56  80
BRANCH  68  91
ATOM     91  C   UNL A   1      43.966  28.700  35.139  1.00  0.00     0.064 A 
ATOM     92  C   UNL A   1      45.271  29.200  35.019  1.00  0.00     0.173 A 
ATOM     93  C   UNL A   1      43.752  27.625  36.017  1.00  0.00     0.173 A 
ATOM     94  F   UNL A   1      45.529  30.218  34.185  1.00  0.00    -0.203 F 
ATOM     95  C   UNL A   1      46.321  28.636  35.737  1.00  0.00     0.198 A 
ATOM     96  C   UNL A   1      44.799  27.086  36.758  1.00  0.00     0.198 A 
ATOM     97  F   UNL A   1      42.521  27.117  36.176  1.00  0.00    -0.203 F 
ATOM     98  F   UNL A   1      47.566  29.103  35.576  1.00  0.00    -0.200 F 
ATOM     99  C   UNL A   1      46.084  27.587  36.614  1.00  0.00     0.200 A 
ATOM    100  F   UNL A   1      44.563  26.086  37.619  1.00  0.00    -0.200 F 
ATOM    101  F   UNL A   1      47.093  27.059  37.317  1.00  0.00    -0.200 F 
ENDBRANCH  68  91
ENDBRANCH  42  43
ENDBRANCH  34  37
ENDBRANCH  32  33
ENDBRANCH  31  32
ENDBRANCH   1  31
TORSDOF 14
ENDMDL
MODEL 2
REMARK VINA RESULT:     -13.3      5.563     11.176
REMARK SMILES Cc1ccc(C(=O)NCCCCCCNC(=O)c2ccc(-c3c4nc(c(-c5c(F)c(F)c(F)c(F)c5F)c5ccc([nH]5)c(-c5c(F)c(F)c(F)c(F)c5F)c5nc(c(-c6c(F)c(F)c(F)c(F)c6F)c6ccc3[nH]6)C=C5)C=C4)cc2)c2c1N[C@H](c1ccccc1F)[C@H]1CC=C[C@@H]21
REMARK SMILES IDX 12 1 11 2 10 3 9 4 8 5 6 6 7 7 5 9 1 10 2 11 3 12 82 13 4 14
REMARK SMILES IDX 81 15 83 16 96 17 84 18 92 20 95 21 93 22 94 23 85 24 86 25
REMARK SMILES IDX 90 26 87 27 89 28 91 29 88 30 13 31 14 32 15 33 16 34 17 36
REMARK SMILES IDX 18 37 19 38 80 39 20 40 79 41 21 42 22 43 23 44 73 45 24 46
REMARK SMILES IDX 78 47 72 48 74 49 25 50 77 51 71 52 70 53 26 55 58 56 38 57
REMARK SMILES IDX 57 58 39 59 42 60 56 61 75 62 40 63 41 64 55 66 76 67 43 68
REMARK SMILES IDX 27 69 28 70 36 71 29 72 30 73 34 74 37 75 31 76 32 77 35 78
REMARK SMILES IDX 33 79 59 80 60 81 68 82 61 83 62 84 66 85 69 86 63 87 64 88
REMARK SMILES IDX 67 89 65 90 44 91 45 92 53 93 46 94 47 95 51 96 54 97 48 98
REMARK SMILES IDX 49 99 52 100 50 101
REMARK H PARENT 8 8 83 19 15 35 74 54 42 65
REMARK Flexibility Score: inf
ROOT
ATOM      1  C   UNL A   1      36.834  20.397  24.999  1.00  0.00     0.002 C 
ENDROOT
BRANCH   1   2
ATOM      2  C   UNL A   1      37.074  21.911  25.062  1.00  0.00     0.002 C 
BRANCH   2   3
ATOM      3  C   UNL A   1      36.261  22.643  26.145  1.00  0.00     0.021 C 
BRANCH   3   4
ATOM      4  C   UNL A   1      35.899  24.079  25.749  1.00  0.00     0.116 C 
BRANCH   4   5
ATOM      5  N   UNL A   1      35.482  24.089  24.366  1.00  0.00    -0.352 N 
ATOM      6  C   UNL A   1      34.276  23.987  23.724  1.00  0.00     0.251 C 
ATOM      7  O   UNL A   1      34.380  23.668  22.540  1.00  0.00    -0.269 OA
ATOM      8  H   UNL A   1      36.236  24.195  23.742  1.00  0.00     0.163 HD
BRANCH   6   9
ATOM      9  C   UNL A   1      32.931  24.271  24.350  1.00  0.00     0.045 A 
ATOM     10  C   UNL A   1      29.184  25.043  26.408  1.00  0.00     0.046 C 
ATOM     11  C   UNL A   1      30.442  24.820  25.610  1.00  0.00    -0.028 A 
ATOM     12  C   UNL A   1      31.088  23.595  25.789  1.00  0.00     0.006 A 
ATOM     13  C   UNL A   1      30.992  25.765  24.719  1.00  0.00     0.042 A 
ATOM     14  C   UNL A   1      32.282  23.311  25.130  1.00  0.00     0.014 A 
ATOM     15  C   UNL A   1      32.259  25.514  24.123  1.00  0.00    -0.005 A 
ATOM     16  N   UNL A   1      30.310  26.943  24.460  1.00  0.00    -0.377 N 
ATOM     17  C   UNL A   1      32.828  26.552  23.173  1.00  0.00     0.050 C 
ATOM     18  C   UNL A   1      30.972  28.112  23.905  1.00  0.00     0.117 C 
ATOM     19  H   UNL A   1      29.347  26.990  24.658  1.00  0.00     0.161 HD
ATOM     20  C   UNL A   1      31.875  27.684  22.742  1.00  0.00     0.031 C 
ATOM     21  C   UNL A   1      34.011  27.335  23.689  1.00  0.00    -0.023 C 
ATOM     22  C   UNL A   1      32.833  28.814  22.317  1.00  0.00     0.034 C 
ATOM     23  C   UNL A   1      34.022  28.578  23.192  1.00  0.00    -0.030 C 
BRANCH  18  24
ATOM     24  C   UNL A   1      29.916  29.172  23.613  1.00  0.00     0.010 A 
ATOM     25  C   UNL A   1      28.853  28.831  22.751  1.00  0.00     0.009 A 
ATOM     26  C   UNL A   1      29.915  30.465  24.150  1.00  0.00     0.128 A 
ATOM     27  C   UNL A   1      27.830  29.740  22.467  1.00  0.00     0.001 A 
ATOM     28  C   UNL A   1      28.892  31.373  23.876  1.00  0.00     0.039 A 
ATOM     29  F   UNL A   1      30.889  30.880  24.971  1.00  0.00    -0.207 F 
ATOM     30  C   UNL A   1      27.845  31.010  23.036  1.00  0.00     0.003 A 
ENDBRANCH  18  24
ENDBRANCH   6   9
ENDBRANCH   4   5
ENDBRANCH   3   4
ENDBRANCH   2   3
ENDBRANCH   1   2
BRANCH   1  31
ATOM     31  C   UNL A   1      38.114  19.561  24.959  1.00  0.00     0.021 C 
BRANCH  31  32
ATOM     32  C   UNL A   1      39.193  20.065  25.910  1.00  0.00     0.116 C 
BRANCH  32  33
ATOM     33  N   UNL A   1      40.256  19.084  26.057  1.00  0.00    -0.352 N 
ATOM     34  C   UNL A   1      41.607  19.306  26.143  1.00  0.00     0.251 C 
ATOM     35  H   UNL A   1      39.971  18.142  26.099  1.00  0.00     0.163 HD
ATOM     36  O   UNL A   1      42.411  18.398  25.995  1.00  0.00    -0.269 OA
BRANCH  34  37
ATOM     37  C   UNL A   1      42.073  20.676  26.426  1.00  0.00     0.039 A 
ATOM     38  C   UNL A   1      42.291  21.067  27.747  1.00  0.00     0.014 A 
ATOM     39  C   UNL A   1      42.302  21.560  25.366  1.00  0.00     0.014 A 
ATOM     40  C   UNL A   1      42.775  22.348  28.008  1.00  0.00     0.010 A 
ATOM     41  C   UNL A   1      42.838  22.815  25.624  1.00  0.00     0.010 A 
ATOM     42  C   UNL A   1      43.061  23.223  26.947  1.00  0.00    -0.014 A 
BRANCH  42  43
ATOM     43  C   UNL A   1      43.532  24.603  27.198  1.00  0.00     0.031 A 
ATOM     44  C   UNL A   1      42.562  25.624  27.714  1.00  0.00     0.074 A 
ATOM     45  C   UNL A   1      44.804  24.940  26.920  1.00  0.00     0.049 A 
ATOM     46  N   UNL A   1      42.745  26.900  27.938  1.00  0.00    -0.248 NA
ATOM     47  C   UNL A   1      41.196  25.153  27.998  1.00  0.00     0.031 C 
ATOM     48  C   UNL A   1      45.825  24.031  26.401  1.00  0.00     0.029 A 
ATOM     49  N   UNL A   1      45.450  26.146  27.026  1.00  0.00    -0.354 N 
ATOM     50  C   UNL A   1      41.524  27.378  28.392  1.00  0.00     0.074 A 
ATOM     51  C   UNL A   1      40.590  26.275  28.352  1.00  0.00     0.031 C 
ATOM     52  C   UNL A   1      46.976  24.707  26.248  1.00  0.00     0.029 A 
ATOM     53  C   UNL A   1      46.762  26.103  26.625  1.00  0.00     0.049 A 
ATOM     54  H   UNL A   1      45.014  26.963  27.358  1.00  0.00     0.167 HD
ATOM     55  C   UNL A   1      41.220  28.621  28.831  1.00  0.00     0.037 A 
ATOM     56  C   UNL A   1      47.683  27.083  26.567  1.00  0.00     0.037 A 
ATOM     57  C   UNL A   1      42.158  29.711  28.873  1.00  0.00     0.049 A 
ATOM     58  C   UNL A   1      47.303  28.472  27.009  1.00  0.00     0.074 A 
ATOM     59  C   UNL A   1      41.957  31.003  29.324  1.00  0.00     0.029 A 
ATOM     60  N   UNL A   1      43.476  29.636  28.445  1.00  0.00    -0.354 N 
ATOM     61  N   UNL A   1      46.159  28.906  27.481  1.00  0.00    -0.248 NA
ATOM     62  C   UNL A   1      48.343  29.505  26.915  1.00  0.00     0.031 C 
ATOM     63  C   UNL A   1      43.137  31.723  29.121  1.00  0.00     0.029 A 
ATOM     64  C   UNL A   1      44.092  30.865  28.600  1.00  0.00     0.049 A 
ATOM     65  H   UNL A   1      43.908  28.827  28.085  1.00  0.00     0.167 HD
ATOM     66  C   UNL A   1      46.349  30.251  27.768  1.00  0.00     0.074 A 
ATOM     67  C   UNL A   1      47.724  30.559  27.430  1.00  0.00     0.031 C 
ATOM     68  C   UNL A   1      45.465  31.151  28.266  1.00  0.00     0.037 A 
BRANCH  55  69
ATOM     69  C   UNL A   1      39.822  28.868  29.314  1.00  0.00     0.064 A 
ATOM     70  C   UNL A   1      38.819  29.331  28.448  1.00  0.00     0.173 A 
ATOM     71  C   UNL A   1      39.463  28.582  30.640  1.00  0.00     0.173 A 
ATOM     72  F   UNL A   1      39.114  29.633  27.174  1.00  0.00    -0.203 F 
ATOM     73  C   UNL A   1      37.513  29.512  28.894  1.00  0.00     0.198 A 
ATOM     74  C   UNL A   1      38.149  28.736  31.075  1.00  0.00     0.198 A 
ATOM     75  F   UNL A   1      40.383  28.137  31.509  1.00  0.00    -0.203 F 
ATOM     76  F   UNL A   1      36.582  29.991  28.058  1.00  0.00    -0.200 F 
ATOM     77  C   UNL A   1      37.177  29.204  30.204  1.00  0.00     0.200 A 
ATOM     78  F   UNL A   1      37.823  28.425  32.337  1.00  0.00    -0.200 F 
ATOM     79  F   UNL A   1      35.916  29.361  30.627  1.00  0.00    -0.200 F 
ENDBRANCH  55  69
BRANCH  56  80
ATOM     80  C   UNL A   1      49.062  26.776  26.104  1.00  0.00     0.064 A 
ATOM     81  C   UNL A   1      49.432  26.985  24.768  1.00  0.00     0.173 A 
ATOM     82  C   UNL A   1      50.039  26.285  26.982  1.00  0.00     0.173 A 
ATOM     83  F   UNL A   1      48.527  27.434  23.886  1.00  0.00    -0.203 F 
ATOM     84  C   UNL A   1      50.722  26.702  24.325  1.00  0.00     0.198 A 
ATOM     85  C   UNL A   1      51.337  26.030  26.545  1.00  0.00     0.198 A 
ATOM     86  F   UNL A   1      49.737  26.071  28.271  1.00  0.00    -0.203 F 
ATOM     87  F   UNL A   1      51.038  26.875  23.035  1.00  0.00    -0.200 F 
ATOM     88  C   UNL A   1      51.676  26.232  25.215  1.00  0.00     0.200 A 
ATOM     89  F   UNL A   1      52.259  25.590  27.411  1.00  0.00    -0.200 F 
ATOM     90  F   UNL A   1      52.920  25.972  24.792  1.00  0.00    -0.200 F 
ENDBRANCH  56  80
BRANCH  68  91
ATOM     91  C   UNL A   1      45.956  32.550  28.506  1.00  0.00     0.064 A 
ATOM     92  C   UNL A   1      45.827  33.551  27.532  1.00  0.00     0.173 A 
ATOM     93  C   UNL A   1      46.492  32.911  29.753  1.00  0.00     0.173 A 
ATOM     94  F   UNL A   1      45.332  33.256  26.321  1.00  0.00    -0.203 F 
ATOM     95  C   UNL A   1      46.234  34.857  27.791  1.00  0.00     0.198 A 
ATOM     96  C   UNL A   1      46.866  34.224  30.019  1.00  0.00     0.198 A 
ATOM     97  F   UNL A   1      46.626  31.993  30.721  1.00  0.00    -0.203 F 
ATOM     98  F   UNL A   1      46.139  35.788  26.833  1.00  0.00    -0.200 F 
ATOM     99  C   UNL A   1      46.742  35.195  29.037  1.00  0.00     0.200 A 
ATOM    100  F   UNL A   1      47.338  34.552  31.230  1.00  0.00    -0.200 F 
ATOM    101  F   UNL A   1      47.116  36.456  29.289  1.00  0.00    -0.200 F 
ENDBRANCH  68  91
ENDBRANCH  42  43
ENDBRANCH  34  37
ENDBRANCH  32  33
ENDBRANCH  31  32
ENDBRANCH   1  31
TORSDOF 14
ENDMDL
MODEL 3
REMARK VINA RESULT:     -13.2      5.564     11.168
REMARK SMILES Cc1ccc(C(=O)NCCCCCCNC(=O)c2ccc(-c3c4nc(c(-c5c(F)c(F)c(F)c(F)c5F)c5ccc([nH]5)c(-c5c(F)c(F)c(F)c(F)c5F)c5nc(c(-c6c(F)c(F)c(F)c(F)c6F)c6ccc3[nH]6)C=C5)C=C4)cc2)c2c1N[C@H](c1ccccc1F)[C@H]1CC=C[C@@H]21
REMARK SMILES IDX 12 1 11 2 10 3 9 4 8 5 6 6 7 7 5 9 1 10 2 11 3 12 82 13 4 14
REMARK SMILES IDX 81 15 83 16 96 17 84 18 92 20 95 21 93 22 94 23 85 24 86 25
REMARK SMILES IDX 90 26 87 27 89 28 91 29 88 30 13 31 14 32 15 33 16 34 17 36
REMARK SMILES IDX 18 37 19 38 80 39 20 40 79 41 21 42 22 43 23 44 73 45 24 46
REMARK SMILES IDX 78 47 72 48 74 49 25 50 77 51 71 52 70 53 26 55 58 56 38 57
REMARK SMILES IDX 57 58 39 59 42 60 56 61 75 62 40 63 41 64 55 66 76 67 43 68
REMARK SMILES IDX 27 69 28 70 36 71 29 72 30 73 34 74 37 75 31 76 32 77 35 78
REMARK SMILES IDX 33 79 59 80 60 81 68 82 61 83 62 84 66 85 69 86 63 87 64 88
REMARK SMILES IDX 67 89 65 90 44 91 45 92 53 93 46 94 47 95 51 96 54 97 48 98
REMARK SMILES IDX 49 99 52 100 50 101
REMARK H PARENT 8 8 83 19 15 35 74 54 42 65
REMARK Flexibility Score: inf
ROOT
ATOM      1  C   UNL A   1      37.274  21.001  24.582  1.00  0.00     0.002 C 
ENDROOT
BRANCH   1   2
ATOM      2  C   UNL A   1      36.598  21.726  25.753  1.00  0.00     0.002 C 
BRANCH   2   3
ATOM      3  C   UNL A   1      37.029  23.192  25.932  1.00  0.00     0.021 C 
BRANCH   3   4
ATOM      4  C   UNL A   1      35.874  24.181  25.740  1.00  0.00     0.116 C 
BRANCH   4   5
ATOM      5  N   UNL A   1      35.448  24.139  24.360  1.00  0.00    -0.352 N 
ATOM      6  C   UNL A   1      34.241  23.999  23.730  1.00  0.00     0.251 C 
ATOM      7  O   UNL A   1      34.342  23.641  22.557  1.00  0.00    -0.269 OA
ATOM      8  H   UNL A   1      36.198  24.233  23.729  1.00  0.00     0.163 HD
BRANCH   6   9
ATOM      9  C   UNL A   1      32.895  24.287  24.354  1.00  0.00     0.045 A 
ATOM     10  C   UNL A   1      29.148  25.068  26.408  1.00  0.00     0.046 C 
ATOM     11  C   UNL A   1      30.407  24.842  25.611  1.00  0.00    -0.028 A 
ATOM     12  C   UNL A   1      31.048  23.614  25.790  1.00  0.00     0.006 A 
ATOM     13  C   UNL A   1      30.961  25.787  24.722  1.00  0.00     0.042 A 
ATOM     14  C   UNL A   1      32.242  23.327  25.132  1.00  0.00     0.014 A 
ATOM     15  C   UNL A   1      32.228  25.532  24.129  1.00  0.00    -0.005 A 
ATOM     16  N   UNL A   1      30.283  26.967  24.465  1.00  0.00    -0.377 N 
ATOM     17  C   UNL A   1      32.802  26.570  23.181  1.00  0.00     0.050 C 
ATOM     18  C   UNL A   1      30.950  28.135  23.913  1.00  0.00     0.117 C 
ATOM     19  H   UNL A   1      29.320  27.017  24.661  1.00  0.00     0.161 HD
ATOM     20  C   UNL A   1      31.853  27.705  22.750  1.00  0.00     0.031 C 
ATOM     21  C   UNL A   1      33.986  27.348  23.700  1.00  0.00    -0.023 C 
ATOM     22  C   UNL A   1      32.815  28.833  22.328  1.00  0.00     0.034 C 
ATOM     23  C   UNL A   1      34.002  28.591  23.205  1.00  0.00    -0.030 C 
BRANCH  18  24
ATOM     24  C   UNL A   1      29.898  29.199  23.620  1.00  0.00     0.010 A 
ATOM     25  C   UNL A   1      28.830  28.860  22.763  1.00  0.00     0.009 A 
ATOM     26  C   UNL A   1      29.905  30.494  24.153  1.00  0.00     0.128 A 
ATOM     27  C   UNL A   1      27.810  29.773  22.479  1.00  0.00     0.001 A 
ATOM     28  C   UNL A   1      28.886  31.405  23.880  1.00  0.00     0.039 A 
ATOM     29  F   UNL A   1      30.884  30.906  24.969  1.00  0.00    -0.207 F 
ATOM     30  C   UNL A   1      27.834  31.044  23.045  1.00  0.00     0.003 A 
ENDBRANCH  18  24
ENDBRANCH   6   9
ENDBRANCH   4   5
ENDBRANCH   3   4
ENDBRANCH   2   3
ENDBRANCH   1   2
BRANCH   1  31
ATOM     31  C   UNL A   1      38.147  19.816  24.998  1.00  0.00     0.021 C 
BRANCH  31  32
ATOM     32  C   UNL A   1      39.153  20.163  26.088  1.00  0.00     0.116 C 
BRANCH  32  33
ATOM     33  N   UNL A   1      40.234  19.191  26.126  1.00  0.00    -0.352 N 
ATOM     34  C   UNL A   1      41.586  19.428  26.125  1.00  0.00     0.251 C 
ATOM     35  H   UNL A   1      39.963  18.245  26.155  1.00  0.00     0.163 HD
ATOM     36  O   UNL A   1      42.387  18.536  25.889  1.00  0.00    -0.269 OA
BRANCH  34  37
ATOM     37  C   UNL A   1      42.056  20.793  26.422  1.00  0.00     0.039 A 
ATOM     38  C   UNL A   1      42.316  21.155  27.744  1.00  0.00     0.014 A 
ATOM     39  C   UNL A   1      42.248  21.701  25.376  1.00  0.00     0.014 A 
ATOM     40  C   UNL A   1      42.804  22.433  28.018  1.00  0.00     0.010 A 
ATOM     41  C   UNL A   1      42.787  22.952  25.643  1.00  0.00     0.010 A 
ATOM     42  C   UNL A   1      43.052  23.332  26.968  1.00  0.00    -0.014 A 
BRANCH  42  43
ATOM     43  C   UNL A   1      43.526  24.707  27.234  1.00  0.00     0.031 A 
ATOM     44  C   UNL A   1      42.556  25.729  27.750  1.00  0.00     0.074 A 
ATOM     45  C   UNL A   1      44.802  25.042  26.968  1.00  0.00     0.049 A 
ATOM     46  N   UNL A   1      42.743  27.001  27.986  1.00  0.00    -0.248 NA
ATOM     47  C   UNL A   1      41.187  25.260  28.020  1.00  0.00     0.031 C 
ATOM     48  C   UNL A   1      45.823  24.133  26.449  1.00  0.00     0.029 A 
ATOM     49  N   UNL A   1      45.451  26.245  27.089  1.00  0.00    -0.354 N 
ATOM     50  C   UNL A   1      41.519  27.481  28.435  1.00  0.00     0.074 A 
ATOM     51  C   UNL A   1      40.581  26.382  28.379  1.00  0.00     0.031 C 
ATOM     52  C   UNL A   1      46.978  24.806  26.311  1.00  0.00     0.029 A 
ATOM     53  C   UNL A   1      46.767  26.200  26.698  1.00  0.00     0.049 A 
ATOM     54  H   UNL A   1      45.016  27.061  27.424  1.00  0.00     0.167 HD
ATOM     55  C   UNL A   1      41.217  28.721  28.881  1.00  0.00     0.037 A 
ATOM     56  C   UNL A   1      47.692  27.177  26.655  1.00  0.00     0.037 A 
ATOM     57  C   UNL A   1      42.159  29.807  28.940  1.00  0.00     0.049 A 
ATOM     58  C   UNL A   1      47.314  28.564  27.106  1.00  0.00     0.074 A 
ATOM     59  C   UNL A   1      41.959  31.096  29.400  1.00  0.00     0.029 A 
ATOM     60  N   UNL A   1      43.480  29.730  28.522  1.00  0.00    -0.354 N 
ATOM     61  N   UNL A   1      46.168  28.999  27.572  1.00  0.00    -0.248 NA
ATOM     62  C   UNL A   1      48.358  29.593  27.028  1.00  0.00     0.031 C 
ATOM     63  C   UNL A   1      43.144  31.813  29.212  1.00  0.00     0.029 A 
ATOM     64  C   UNL A   1      44.100  30.956  28.691  1.00  0.00     0.049 A 
ATOM     65  H   UNL A   1      43.911  28.923  28.158  1.00  0.00     0.167 HD
ATOM     66  C   UNL A   1      46.361  30.340  27.872  1.00  0.00     0.074 A 
ATOM     67  C   UNL A   1      47.739  30.645  27.547  1.00  0.00     0.031 C 
ATOM     68  C   UNL A   1      45.476  31.239  28.370  1.00  0.00     0.037 A 
BRANCH  55  69
ATOM     69  C   UNL A   1      39.816  28.970  29.355  1.00  0.00     0.064 A 
ATOM     70  C   UNL A   1      38.815  29.417  28.479  1.00  0.00     0.173 A 
ATOM     71  C   UNL A   1      39.453  28.701  30.684  1.00  0.00     0.173 A 
ATOM     72  F   UNL A   1      39.114  29.702  27.203  1.00  0.00    -0.203 F 
ATOM     73  C   UNL A   1      37.507  29.599  28.918  1.00  0.00     0.198 A 
ATOM     74  C   UNL A   1      38.137  28.856  31.111  1.00  0.00     0.198 A 
ATOM     75  F   UNL A   1      40.371  28.272  31.563  1.00  0.00    -0.203 F 
ATOM     76  F   UNL A   1      36.577  30.062  28.072  1.00  0.00    -0.200 F 
ATOM     77  C   UNL A   1      37.167  29.308  30.231  1.00  0.00     0.200 A 
ATOM     78  F   UNL A   1      37.807  28.561  32.377  1.00  0.00    -0.200 F 
ATOM     79  F   UNL A   1      35.903  29.466  30.647  1.00  0.00    -0.200 F 
ENDBRANCH  55  69
BRANCH  56  80
ATOM     80  C   UNL A   1      49.073  26.869  26.200  1.00  0.00     0.064 A 
ATOM     81  C   UNL A   1      50.036  26.397  27.104  1.00  0.00     0.173 A 
ATOM     82  C   UNL A   1      49.456  27.022  24.860  1.00  0.00     0.173 A 
ATOM     83  F   UNL A   1      49.722  26.252  28.400  1.00  0.00    -0.203 F 
ATOM     84  C   UNL A   1      51.332  26.103  26.687  1.00  0.00     0.198 A 
ATOM     85  C   UNL A   1      50.745  26.700  24.438  1.00  0.00     0.198 A 
ATOM     86  F   UNL A   1      48.572  27.467  23.955  1.00  0.00    -0.203 F 
ATOM     87  F   UNL A   1      52.242  25.690  27.579  1.00  0.00    -0.200 F 
ATOM     88  C   UNL A   1      51.684  26.248  25.353  1.00  0.00     0.200 A 
ATOM     89  F   UNL A   1      51.076  26.827  23.147  1.00  0.00    -0.200 F 
ATOM     90  F   UNL A   1      52.927  25.953  24.950  1.00  0.00    -0.200 F 
ENDBRANCH  56  80
BRANCH  68  91
ATOM     91  C   UNL A   1      45.970  32.635  28.625  1.00  0.00     0.064 A 
ATOM     92  C   UNL A   1      46.653  32.969  29.803  1.00  0.00     0.173 A 
ATOM     93  C   UNL A   1      45.825  33.629  27.644  1.00  0.00     0.173 A 
ATOM     94  F   UNL A   1      46.809  32.058  30.775  1.00  0.00    -0.203 F 
ATOM     95  C   UNL A   1      47.156  34.253  29.998  1.00  0.00     0.198 A 
ATOM     96  C   UNL A   1      46.358  34.900  27.829  1.00  0.00     0.198 A 
ATOM     97  F   UNL A   1      45.189  33.357  26.495  1.00  0.00    -0.203 F 
ATOM     98  F   UNL A   1      47.770  34.561  31.148  1.00  0.00    -0.200 F 
ATOM     99  C   UNL A   1      47.018  35.214  29.007  1.00  0.00     0.200 A 
ATOM    100  F   UNL A   1      46.240  35.821  26.862  1.00  0.00    -0.200 F 
ATOM    101  F   UNL A   1      47.519  36.442  29.190  1.00  0.00    -0.200 F 
ENDBRANCH  68  91
ENDBRANCH  42  43
ENDBRANCH  34  37
ENDBRANCH  32  33
ENDBRANCH  31  32
ENDBRANCH   1  31
TORSDOF 14
ENDMDL
