MODEL 1
REMARK VINA RESULT:     -10.9      0.000      0.000
REMARK SMILES CCCCOC(=O)c1ccc(N2C[C@H](C(=O)NCCCCCCNC(=O)c3ccc(-c4c5nc(c(-c6c(F)c(F)c(F)c(F)c6F)c6ccc([nH]6)c(-c6c(F)c(F)c(F)c(F)c6F)c6nc(c(-c7c(F)c(F)c(F)c(F)c7F)c7ccc4[nH]7)C=C6)C=C5)cc3)CC2=O)cc1
REMARK SMILES IDX 18 1 17 2 15 3 16 4 14 6 12 7 13 8 91 9 90 10 92 11 11 12
REMARK SMILES IDX 8 13 9 14 94 15 10 16 93 17 6 18 7 19 5 20 4 21 3 22 2 23
REMARK SMILES IDX 1 24 19 25 20 26 21 27 22 28 23 29 24 30 25 31 26 33 27 34
REMARK SMILES IDX 28 35 89 36 29 37 88 38 30 39 31 40 32 41 82 42 33 43 87 44
REMARK SMILES IDX 81 45 83 46 34 47 86 48 80 49 79 50 35 52 67 53 47 54 66 55
REMARK SMILES IDX 48 56 51 57 65 58 84 59 49 60 50 61 64 63 85 64 52 65 36 66
REMARK SMILES IDX 37 67 45 68 38 69 39 70 43 71 46 72 40 73 41 74 44 75 42 76
REMARK SMILES IDX 68 77 69 78 77 79 70 80 71 81 75 82 78 83 72 84 73 85 76 86
REMARK SMILES IDX 74 87 53 88 54 89 62 90 55 91 56 92 60 93 63 94 57 95 58 96
REMARK SMILES IDX 61 97 59 98
REMARK H PARENT 17 5 24 32 83 51 51 62
REMARK Flexibility Score: inf
ROOT
ATOM      1  C   UNL A   1      34.032  32.326  27.999  1.00  0.00     0.116 C 
ENDROOT
BRANCH   1   2
ATOM      2  N   UNL A   1      34.725  31.090  27.698  1.00  0.00    -0.356 N 
ATOM      3  C   UNL A   1      34.292  29.951  27.094  1.00  0.00     0.225 C 
ATOM      4  O   UNL A   1      35.077  29.004  27.047  1.00  0.00    -0.275 OA
ATOM      5  H   UNL A   1      35.668  31.071  27.978  1.00  0.00     0.163 HD
BRANCH   3   6
ATOM      6  C   UNL A   1      32.932  29.916  26.411  1.00  0.00     0.107 C 
ATOM      7  N   UNL A   1      32.363  27.795  25.549  1.00  0.00    -0.312 N 
ATOM      8  C   UNL A   1      32.963  29.048  25.159  1.00  0.00     0.139 C 
ATOM      9  C   UNL A   1      31.636  27.919  26.729  1.00  0.00     0.227 C 
ATOM     10  C   UNL A   1      31.814  29.316  27.252  1.00  0.00     0.116 C 
ATOM     11  O   UNL A   1      30.957  27.085  27.311  1.00  0.00    -0.274 OA
BRANCH   7  12
ATOM     12  C   UNL A   1      32.459  26.610  24.783  1.00  0.00     0.044 A 
ATOM     13  C   UNL A   1      32.725  24.355  23.142  1.00  0.00     0.060 A 
ATOM     14  C   UNL A   1      31.495  25.009  23.218  1.00  0.00     0.018 A 
ATOM     15  C   UNL A   1      33.813  24.794  23.890  1.00  0.00     0.018 A 
ATOM     16  C   UNL A   1      31.362  26.127  24.051  1.00  0.00     0.027 A 
ATOM     17  C   UNL A   1      33.676  25.919  24.701  1.00  0.00     0.027 A 
BRANCH  13  18
ATOM     18  C   UNL A   1      32.935  23.244  22.210  1.00  0.00     0.338 C 
ATOM     19  O   UNL A   1      33.665  23.321  21.235  1.00  0.00    -0.246 OA
BRANCH  18  20
ATOM     20  O   UNL A   1      32.272  22.163  22.675  1.00  0.00    -0.462 OA
BRANCH  20  21
ATOM     21  C   UNL A   1      32.900  21.469  23.765  1.00  0.00     0.233 C 
BRANCH  21  22
ATOM     22  C   UNL A   1      31.958  21.407  24.965  1.00  0.00     0.041 C 
BRANCH  22  23
ATOM     23  C   UNL A   1      32.441  22.182  26.193  1.00  0.00     0.000 C 
ATOM     24  C   UNL A   1      31.549  23.361  26.552  1.00  0.00     0.004 C 
ENDBRANCH  22  23
ENDBRANCH  21  22
ENDBRANCH  20  21
ENDBRANCH  18  20
ENDBRANCH  13  18
ENDBRANCH   7  12
ENDBRANCH   3   6
ENDBRANCH   1   2
BRANCH   1  25
ATOM     25  C   UNL A   1      34.595  32.964  29.272  1.00  0.00     0.021 C 
BRANCH  25  26
ATOM     26  C   UNL A   1      35.284  34.318  29.052  1.00  0.00     0.002 C 
BRANCH  26  27
ATOM     27  C   UNL A   1      34.486  35.330  28.225  1.00  0.00     0.002 C 
BRANCH  27  28
ATOM     28  C   UNL A   1      33.192  35.826  28.877  1.00  0.00     0.021 C 
BRANCH  28  29
ATOM     29  C   UNL A   1      33.391  36.778  30.054  1.00  0.00     0.116 C 
BRANCH  29  30
ATOM     30  N   UNL A   1      32.408  36.573  31.105  1.00  0.00    -0.352 N 
ATOM     31  C   UNL A   1      32.444  35.704  32.166  1.00  0.00     0.251 C 
ATOM     32  H   UNL A   1      31.603  37.137  31.047  1.00  0.00     0.163 HD
ATOM     33  O   UNL A   1      31.456  35.549  32.875  1.00  0.00    -0.269 OA
BRANCH  31  34
ATOM     34  C   UNL A   1      33.673  34.929  32.442  1.00  0.00     0.039 A 
ATOM     35  C   UNL A   1      34.909  35.577  32.364  1.00  0.00     0.014 A 
ATOM     36  C   UNL A   1      33.610  33.570  32.765  1.00  0.00     0.014 A 
ATOM     37  C   UNL A   1      36.079  34.878  32.669  1.00  0.00     0.010 A 
ATOM     38  C   UNL A   1      34.770  32.889  33.122  1.00  0.00     0.010 A 
ATOM     39  C   UNL A   1      36.015  33.536  33.078  1.00  0.00    -0.014 A 
BRANCH  39  40
ATOM     40  C   UNL A   1      37.239  32.790  33.462  1.00  0.00     0.031 A 
ATOM     41  C   UNL A   1      37.935  33.099  34.756  1.00  0.00     0.074 A 
ATOM     42  C   UNL A   1      37.761  31.885  32.612  1.00  0.00     0.049 A 
ATOM     43  N   UNL A   1      39.061  32.624  35.224  1.00  0.00    -0.248 NA
ATOM     44  C   UNL A   1      37.291  34.093  35.630  1.00  0.00     0.031 C 
ATOM     45  C   UNL A   1      37.201  31.528  31.308  1.00  0.00     0.029 A 
ATOM     46  N   UNL A   1      38.892  31.113  32.712  1.00  0.00    -0.354 N 
ATOM     47  C   UNL A   1      39.271  33.275  36.432  1.00  0.00     0.074 A 
ATOM     48  C   UNL A   1      38.176  34.203  36.610  1.00  0.00     0.031 C 
ATOM     49  C   UNL A   1      37.983  30.599  30.735  1.00  0.00     0.029 A 
ATOM     50  C   UNL A   1      39.113  30.318  31.616  1.00  0.00     0.049 A 
ATOM     51  H   UNL A   1      39.486  31.129  33.497  1.00  0.00     0.167 HD
ATOM     52  C   UNL A   1      40.279  33.099  37.321  1.00  0.00     0.037 A 
ATOM     53  C   UNL A   1      40.119  29.464  31.349  1.00  0.00     0.037 A 
ATOM     54  C   UNL A   1      41.348  32.150  37.160  1.00  0.00     0.049 A 
ATOM     55  C   UNL A   1      41.216  29.276  32.360  1.00  0.00     0.074 A 
ATOM     56  C   UNL A   1      42.379  31.855  38.036  1.00  0.00     0.029 A 
ATOM     57  N   UNL A   1      41.522  31.339  36.050  1.00  0.00    -0.354 N 
ATOM     58  N   UNL A   1      41.375  29.857  33.523  1.00  0.00    -0.248 NA
ATOM     59  C   UNL A   1      42.271  28.310  32.021  1.00  0.00     0.031 C 
ATOM     60  C   UNL A   1      43.193  30.885  37.442  1.00  0.00     0.029 A 
ATOM     61  C   UNL A   1      42.650  30.552  36.211  1.00  0.00     0.049 A 
ATOM     62  H   UNL A   1      40.929  31.323  35.263  1.00  0.00     0.167 HD
ATOM     63  C   UNL A   1      42.530  29.312  34.067  1.00  0.00     0.074 A 
ATOM     64  C   UNL A   1      43.029  28.347  33.109  1.00  0.00     0.031 C 
ATOM     65  C   UNL A   1      43.125  29.589  35.252  1.00  0.00     0.037 A 
BRANCH  52  66
ATOM     66  C   UNL A   1      40.268  33.953  38.553  1.00  0.00     0.064 A 
ATOM     67  C   UNL A   1      40.916  35.197  38.588  1.00  0.00     0.173 A 
ATOM     68  C   UNL A   1      39.574  33.540  39.700  1.00  0.00     0.173 A 
ATOM     69  F   UNL A   1      41.604  35.629  37.520  1.00  0.00    -0.203 F 
ATOM     70  C   UNL A   1      40.890  35.986  39.734  1.00  0.00     0.198 A 
ATOM     71  C   UNL A   1      39.528  34.343  40.837  1.00  0.00     0.198 A 
ATOM     72  F   UNL A   1      38.935  32.361  39.716  1.00  0.00    -0.203 F 
ATOM     73  F   UNL A   1      41.550  37.152  39.760  1.00  0.00    -0.200 F 
ATOM     74  C   UNL A   1      40.191  35.561  40.855  1.00  0.00     0.200 A 
ATOM     75  F   UNL A   1      38.846  33.936  41.916  1.00  0.00    -0.200 F 
ATOM     76  F   UNL A   1      40.162  36.324  41.957  1.00  0.00    -0.200 F 
ENDBRANCH  52  66
BRANCH  53  77
ATOM     77  C   UNL A   1      40.122  28.702  30.075  1.00  0.00     0.064 A 
ATOM     78  C   UNL A   1      39.483  27.458  29.984  1.00  0.00     0.173 A 
ATOM     79  C   UNL A   1      40.755  29.199  28.928  1.00  0.00     0.173 A 
ATOM     80  F   UNL A   1      38.883  26.934  31.063  1.00  0.00    -0.203 F 
ATOM     81  C   UNL A   1      39.490  26.731  28.795  1.00  0.00     0.198 A 
ATOM     82  C   UNL A   1      40.742  28.482  27.734  1.00  0.00     0.198 A 
ATOM     83  F   UNL A   1      41.376  30.387  28.964  1.00  0.00    -0.203 F 
ATOM     84  F   UNL A   1      38.903  25.529  28.745  1.00  0.00    -0.200 F 
ATOM     85  C   UNL A   1      40.115  27.247  27.670  1.00  0.00     0.200 A 
ATOM     86  F   UNL A   1      41.338  28.988  26.645  1.00  0.00    -0.200 F 
ATOM     87  F   UNL A   1      40.119  26.550  26.525  1.00  0.00    -0.200 F 
ENDBRANCH  53  77
BRANCH  65  88
ATOM     88  C   UNL A   1      44.363  28.817  35.594  1.00  0.00     0.064 A 
ATOM     89  C   UNL A   1      44.299  27.597  36.282  1.00  0.00     0.173 A 
ATOM     90  C   UNL A   1      45.623  29.283  35.192  1.00  0.00     0.173 A 
ATOM     91  F   UNL A   1      43.117  27.120  36.700  1.00  0.00    -0.203 F 
ATOM     92  C   UNL A   1      45.456  26.879  36.569  1.00  0.00     0.198 A 
ATOM     93  C   UNL A   1      46.775  28.551  35.462  1.00  0.00     0.198 A 
ATOM     94  F   UNL A   1      45.735  30.444  34.528  1.00  0.00    -0.203 F 
ATOM     95  F   UNL A   1      45.376  25.733  37.260  1.00  0.00    -0.200 F 
ATOM     96  C   UNL A   1      46.691  27.352  36.154  1.00  0.00     0.200 A 
ATOM     97  F   UNL A   1      47.969  29.006  35.053  1.00  0.00    -0.200 F 
ATOM     98  F   UNL A   1      47.804  26.656  36.428  1.00  0.00    -0.200 F 
ENDBRANCH  65  88
ENDBRANCH  39  40
ENDBRANCH  31  34
ENDBRANCH  29  30
ENDBRANCH  28  29
ENDBRANCH  27  28
ENDBRANCH  26  27
ENDBRANCH  25  26
ENDBRANCH   1  25
TORSDOF 19
ENDMDL
MODEL 2
REMARK VINA RESULT:     -10.8      6.350     11.208
REMARK SMILES CCCCOC(=O)c1ccc(N2C[C@H](C(=O)NCCCCCCNC(=O)c3ccc(-c4c5nc(c(-c6c(F)c(F)c(F)c(F)c6F)c6ccc([nH]6)c(-c6c(F)c(F)c(F)c(F)c6F)c6nc(c(-c7c(F)c(F)c(F)c(F)c7F)c7ccc4[nH]7)C=C6)C=C5)cc3)CC2=O)cc1
REMARK SMILES IDX 18 1 17 2 15 3 16 4 14 6 12 7 13 8 91 9 90 10 92 11 11 12
REMARK SMILES IDX 8 13 9 14 94 15 10 16 93 17 6 18 7 19 5 20 4 21 3 22 2 23
REMARK SMILES IDX 1 24 19 25 20 26 21 27 22 28 23 29 24 30 25 31 26 33 27 34
REMARK SMILES IDX 28 35 89 36 29 37 88 38 30 39 31 40 32 41 82 42 33 43 87 44
REMARK SMILES IDX 81 45 83 46 34 47 86 48 80 49 79 50 35 52 67 53 47 54 66 55
REMARK SMILES IDX 48 56 51 57 65 58 84 59 49 60 50 61 64 63 85 64 52 65 36 66
REMARK SMILES IDX 37 67 45 68 38 69 39 70 43 71 46 72 40 73 41 74 44 75 42 76
REMARK SMILES IDX 68 77 69 78 77 79 70 80 71 81 75 82 78 83 72 84 73 85 76 86
REMARK SMILES IDX 74 87 53 88 54 89 62 90 55 91 56 92 60 93 63 94 57 95 58 96
REMARK SMILES IDX 61 97 59 98
REMARK H PARENT 17 5 24 32 83 51 51 62
REMARK Flexibility Score: inf
ROOT
ATOM      1  C   UNL A   1      33.558  20.648  24.472  1.00  0.00     0.116 C 
ENDROOT
BRANCH   1   2
ATOM      2  N   UNL A   1      32.956  21.388  25.563  1.00  0.00    -0.356 N 
ATOM      3  C   UNL A   1      33.026  22.707  25.889  1.00  0.00     0.225 C 
ATOM      4  O   UNL A   1      32.483  23.057  26.937  1.00  0.00    -0.275 OA
ATOM      5  H   UNL A   1      32.403  20.846  26.170  1.00  0.00     0.163 HD
BRANCH   3   6
ATOM      6  C   UNL A   1      33.654  23.702  24.924  1.00  0.00     0.107 C 
ATOM      7  N   UNL A   1      32.353  25.640  24.586  1.00  0.00    -0.312 N 
ATOM      8  C   UNL A   1      32.604  24.337  24.020  1.00  0.00     0.139 C 
ATOM      9  C   UNL A   1      33.367  26.025  25.459  1.00  0.00     0.227 C 
ATOM     10  C   UNL A   1      34.338  24.887  25.589  1.00  0.00     0.116 C 
ATOM     11  O   UNL A   1      33.510  27.079  26.062  1.00  0.00    -0.274 OA
BRANCH   7  12
ATOM     12  C   UNL A   1      31.241  26.443  24.240  1.00  0.00     0.044 A 
ATOM     13  C   UNL A   1      29.023  27.939  23.409  1.00  0.00     0.060 A 
ATOM     14  C   UNL A   1      30.307  28.456  23.231  1.00  0.00     0.018 A 
ATOM     15  C   UNL A   1      28.830  26.702  24.017  1.00  0.00     0.018 A 
ATOM     16  C   UNL A   1      31.412  27.711  23.662  1.00  0.00     0.027 A 
ATOM     17  C   UNL A   1      29.937  25.960  24.423  1.00  0.00     0.027 A 
BRANCH  13  18
ATOM     18  C   UNL A   1      27.847  28.638  22.886  1.00  0.00     0.338 C 
ATOM     19  O   UNL A   1      26.706  28.367  23.222  1.00  0.00    -0.246 OA
BRANCH  18  20
ATOM     20  O   UNL A   1      28.265  29.638  22.080  1.00  0.00    -0.462 OA
BRANCH  20  21
ATOM     21  C   UNL A   1      27.496  30.850  22.141  1.00  0.00     0.233 C 
BRANCH  21  22
ATOM     22  C   UNL A   1      27.625  31.490  23.520  1.00  0.00     0.041 C 
BRANCH  22  23
ATOM     23  C   UNL A   1      28.984  32.139  23.795  1.00  0.00     0.000 C 
ATOM     24  C   UNL A   1      29.152  33.496  23.129  1.00  0.00     0.004 C 
ENDBRANCH  22  23
ENDBRANCH  21  22
ENDBRANCH  20  21
ENDBRANCH  18  20
ENDBRANCH  13  18
ENDBRANCH   7  12
ENDBRANCH   3   6
ENDBRANCH   1   2
BRANCH   1  25
ATOM     25  C   UNL A   1      34.849  19.965  24.932  1.00  0.00     0.021 C 
BRANCH  25  26
ATOM     26  C   UNL A   1      35.958  20.934  25.365  1.00  0.00     0.002 C 
BRANCH  26  27
ATOM     27  C   UNL A   1      37.261  20.836  24.568  1.00  0.00     0.002 C 
BRANCH  27  28
ATOM     28  C   UNL A   1      38.173  19.669  24.954  1.00  0.00     0.021 C 
BRANCH  28  29
ATOM     29  C   UNL A   1      39.318  20.034  25.896  1.00  0.00     0.116 C 
BRANCH  29  30
ATOM     30  N   UNL A   1      40.363  19.024  25.917  1.00  0.00    -0.352 N 
ATOM     31  C   UNL A   1      41.718  19.184  26.052  1.00  0.00     0.251 C 
ATOM     32  H   UNL A   1      40.053  18.094  25.820  1.00  0.00     0.163 HD
ATOM     33  O   UNL A   1      42.475  18.232  25.892  1.00  0.00    -0.269 OA
BRANCH  31  34
ATOM     34  C   UNL A   1      42.275  20.517  26.368  1.00  0.00     0.039 A 
ATOM     35  C   UNL A   1      42.762  21.308  25.323  1.00  0.00     0.014 A 
ATOM     36  C   UNL A   1      42.327  20.982  27.686  1.00  0.00     0.014 A 
ATOM     37  C   UNL A   1      43.247  22.590  25.592  1.00  0.00     0.010 A 
ATOM     38  C   UNL A   1      42.759  22.279  27.946  1.00  0.00     0.010 A 
ATOM     39  C   UNL A   1      43.222  23.095  26.901  1.00  0.00    -0.014 A 
BRANCH  39  40
ATOM     40  C   UNL A   1      43.678  24.475  27.201  1.00  0.00     0.031 A 
ATOM     41  C   UNL A   1      42.704  25.497  27.710  1.00  0.00     0.074 A 
ATOM     42  C   UNL A   1      44.955  24.824  26.949  1.00  0.00     0.049 A 
ATOM     43  N   UNL A   1      42.887  26.772  27.942  1.00  0.00    -0.248 NA
ATOM     44  C   UNL A   1      41.333  25.029  27.968  1.00  0.00     0.031 C 
ATOM     45  C   UNL A   1      45.985  23.932  26.415  1.00  0.00     0.029 A 
ATOM     46  N   UNL A   1      45.597  26.028  27.092  1.00  0.00    -0.354 N 
ATOM     47  C   UNL A   1      41.654  27.262  28.352  1.00  0.00     0.074 A 
ATOM     48  C   UNL A   1      40.722  26.157  28.304  1.00  0.00     0.031 C 
ATOM     49  C   UNL A   1      47.133  24.617  26.288  1.00  0.00     0.029 A 
ATOM     50  C   UNL A   1      46.912  25.999  26.700  1.00  0.00     0.049 A 
ATOM     51  H   UNL A   1      45.156  26.835  27.443  1.00  0.00     0.167 HD
ATOM     52  C   UNL A   1      41.335  28.517  28.750  1.00  0.00     0.037 A 
ATOM     53  C   UNL A   1      47.833  26.981  26.671  1.00  0.00     0.037 A 
ATOM     54  C   UNL A   1      42.271  29.606  28.832  1.00  0.00     0.049 A 
ATOM     55  C   UNL A   1      47.456  28.362  27.133  1.00  0.00     0.074 A 
ATOM     56  C   UNL A   1      42.056  30.897  29.284  1.00  0.00     0.029 A 
ATOM     57  N   UNL A   1      43.603  29.531  28.456  1.00  0.00    -0.354 N 
ATOM     58  N   UNL A   1      46.301  28.799  27.570  1.00  0.00    -0.248 NA
ATOM     59  C   UNL A   1      48.513  29.382  27.102  1.00  0.00     0.031 C 
ATOM     60  C   UNL A   1      43.251  31.611  29.154  1.00  0.00     0.029 A 
ATOM     61  C   UNL A   1      44.220  30.756  28.653  1.00  0.00     0.049 A 
ATOM     62  H   UNL A   1      44.046  28.725  28.103  1.00  0.00     0.167 HD
ATOM     63  C   UNL A   1      46.496  30.136  27.889  1.00  0.00     0.074 A 
ATOM     64  C   UNL A   1      47.884  30.437  27.604  1.00  0.00     0.031 C 
ATOM     65  C   UNL A   1      45.604  31.034  28.373  1.00  0.00     0.037 A 
BRANCH  52  66
ATOM     66  C   UNL A   1      39.909  28.777  29.132  1.00  0.00     0.064 A 
ATOM     67  C   UNL A   1      38.954  29.162  28.179  1.00  0.00     0.173 A 
ATOM     68  C   UNL A   1      39.484  28.607  30.458  1.00  0.00     0.173 A 
ATOM     69  F   UNL A   1      39.315  29.350  26.900  1.00  0.00    -0.203 F 
ATOM     70  C   UNL A   1      37.630  29.390  28.544  1.00  0.00     0.198 A 
ATOM     71  C   UNL A   1      38.153  28.811  30.815  1.00  0.00     0.198 A 
ATOM     72  F   UNL A   1      40.357  28.236  31.406  1.00  0.00    -0.203 F 
ATOM     73  F   UNL A   1      36.743  29.797  27.625  1.00  0.00    -0.200 F 
ATOM     74  C   UNL A   1      37.230  29.209  29.860  1.00  0.00     0.200 A 
ATOM     75  F   UNL A   1      37.766  28.627  32.085  1.00  0.00    -0.200 F 
ATOM     76  F   UNL A   1      35.954  29.424  30.209  1.00  0.00    -0.200 F 
ENDBRANCH  52  66
BRANCH  53  77
ATOM     77  C   UNL A   1      49.212  26.686  26.206  1.00  0.00     0.064 A 
ATOM     78  C   UNL A   1      49.577  26.897  24.870  1.00  0.00     0.173 A 
ATOM     79  C   UNL A   1      50.188  26.193  27.083  1.00  0.00     0.173 A 
ATOM     80  F   UNL A   1      48.669  27.347  23.991  1.00  0.00    -0.203 F 
ATOM     81  C   UNL A   1      50.865  26.613  24.423  1.00  0.00     0.198 A 
ATOM     82  C   UNL A   1      51.482  25.930  26.640  1.00  0.00     0.198 A 
ATOM     83  F   UNL A   1      49.887  25.979  28.371  1.00  0.00    -0.203 F 
ATOM     84  F   UNL A   1      51.179  26.789  23.133  1.00  0.00    -0.200 F 
ATOM     85  C   UNL A   1      51.818  26.134  25.310  1.00  0.00     0.200 A 
ATOM     86  F   UNL A   1      52.403  25.479  27.502  1.00  0.00    -0.200 F 
ATOM     87  F   UNL A   1      53.059  25.864  24.882  1.00  0.00    -0.200 F 
ENDBRANCH  53  77
BRANCH  65  88
ATOM     88  C   UNL A   1      46.108  32.416  28.654  1.00  0.00     0.064 A 
ATOM     89  C   UNL A   1      46.044  33.430  27.686  1.00  0.00     0.173 A 
ATOM     90  C   UNL A   1      46.622  32.742  29.917  1.00  0.00     0.173 A 
ATOM     91  F   UNL A   1      45.575  33.161  26.459  1.00  0.00    -0.203 F 
ATOM     92  C   UNL A   1      46.493  34.716  27.970  1.00  0.00     0.198 A 
ATOM     93  C   UNL A   1      47.049  34.034  30.204  1.00  0.00     0.198 A 
ATOM     94  F   UNL A   1      46.700  31.806  30.877  1.00  0.00    -0.203 F 
ATOM     95  F   UNL A   1      46.456  35.661  27.020  1.00  0.00    -0.200 F 
ATOM     96  C   UNL A   1      46.988  35.019  29.230  1.00  0.00     0.200 A 
ATOM     97  F   UNL A   1      47.521  34.328  31.425  1.00  0.00    -0.200 F 
ATOM     98  F   UNL A   1      47.415  36.261  29.502  1.00  0.00    -0.200 F 
ENDBRANCH  65  88
ENDBRANCH  39  40
ENDBRANCH  31  34
ENDBRANCH  29  30
ENDBRANCH  28  29
ENDBRANCH  27  28
ENDBRANCH  26  27
ENDBRANCH  25  26
ENDBRANCH   1  25
TORSDOF 19
ENDMDL
MODEL 3
REMARK VINA RESULT:     -10.6      5.773     11.199
REMARK SMILES CCCCOC(=O)c1ccc(N2C[C@H](C(=O)NCCCCCCNC(=O)c3ccc(-c4c5nc(c(-c6c(F)c(F)c(F)c(F)c6F)c6ccc([nH]6)c(-c6c(F)c(F)c(F)c(F)c6F)c6nc(c(-c7c(F)c(F)c(F)c(F)c7F)c7ccc4[nH]7)C=C6)C=C5)cc3)CC2=O)cc1
REMARK SMILES IDX 18 1 17 2 15 3 16 4 14 6 12 7 13 8 91 9 90 10 92 11 11 12
REMARK SMILES IDX 8 13 9 14 94 15 10 16 93 17 6 18 7 19 5 20 4 21 3 22 2 23
REMARK SMILES IDX 1 24 19 25 20 26 21 27 22 28 23 29 24 30 25 31 26 33 27 34
REMARK SMILES IDX 28 35 89 36 29 37 88 38 30 39 31 40 32 41 82 42 33 43 87 44
REMARK SMILES IDX 81 45 83 46 34 47 86 48 80 49 79 50 35 52 67 53 47 54 66 55
REMARK SMILES IDX 48 56 51 57 65 58 84 59 49 60 50 61 64 63 85 64 52 65 36 66
REMARK SMILES IDX 37 67 45 68 38 69 39 70 43 71 46 72 40 73 41 74 44 75 42 76
REMARK SMILES IDX 68 77 69 78 77 79 70 80 71 81 75 82 78 83 72 84 73 85 76 86
REMARK SMILES IDX 74 87 53 88 54 89 62 90 55 91 56 92 60 93 63 94 57 95 58 96
REMARK SMILES IDX 61 97 59 98
REMARK H PARENT 17 5 24 32 83 51 51 62
REMARK Flexibility Score: inf
ROOT
ATOM      1  C   UNL A   1      33.015  20.567  24.683  1.00  0.00     0.116 C 
ENDROOT
BRANCH   1   2
ATOM      2  N   UNL A   1      32.742  21.229  25.943  1.00  0.00    -0.356 N 
ATOM      3  C   UNL A   1      32.247  22.468  26.208  1.00  0.00     0.225 C 
ATOM      4  O   UNL A   1      32.202  22.815  27.389  1.00  0.00    -0.275 OA
ATOM      5  H   UNL A   1      32.951  20.692  26.741  1.00  0.00     0.163 HD
BRANCH   3   6
ATOM      6  C   UNL A   1      31.673  23.320  25.086  1.00  0.00     0.107 C 
ATOM      7  N   UNL A   1      32.255  25.600  25.239  1.00  0.00    -0.312 N 
ATOM      8  C   UNL A   1      31.208  24.676  25.602  1.00  0.00     0.139 C 
ATOM      9  C   UNL A   1      33.087  25.074  24.255  1.00  0.00     0.227 C 
ATOM     10  C   UNL A   1      32.660  23.661  23.979  1.00  0.00     0.116 C 
ATOM     11  O   UNL A   1      34.029  25.597  23.676  1.00  0.00    -0.274 OA
BRANCH   7  12
ATOM     12  C   UNL A   1      32.372  26.902  25.781  1.00  0.00     0.044 A 
ATOM     13  C   UNL A   1      32.661  29.533  26.699  1.00  0.00     0.060 A 
ATOM     14  C   UNL A   1      33.638  28.585  27.007  1.00  0.00     0.018 A 
ATOM     15  C   UNL A   1      31.533  29.181  25.963  1.00  0.00     0.018 A 
ATOM     16  C   UNL A   1      33.482  27.268  26.559  1.00  0.00     0.027 A 
ATOM     17  C   UNL A   1      31.398  27.872  25.506  1.00  0.00     0.027 A 
BRANCH  13  18
ATOM     18  C   UNL A   1      32.832  30.941  27.063  1.00  0.00     0.338 C 
ATOM     19  O   UNL A   1      32.041  31.813  26.742  1.00  0.00    -0.246 OA
BRANCH  18  20
ATOM     20  O   UNL A   1      33.923  31.052  27.851  1.00  0.00    -0.462 OA
BRANCH  20  21
ATOM     21  C   UNL A   1      34.331  32.394  28.165  1.00  0.00     0.233 C 
BRANCH  21  22
ATOM     22  C   UNL A   1      34.743  32.492  29.631  1.00  0.00     0.041 C 
BRANCH  22  23
ATOM     23  C   UNL A   1      35.983  33.352  29.887  1.00  0.00     0.000 C 
ATOM     24  C   UNL A   1      37.042  33.223  28.803  1.00  0.00     0.004 C 
ENDBRANCH  22  23
ENDBRANCH  21  22
ENDBRANCH  20  21
ENDBRANCH  18  20
ENDBRANCH  13  18
ENDBRANCH   7  12
ENDBRANCH   3   6
ENDBRANCH   1   2
BRANCH   1  25
ATOM     25  C   UNL A   1      34.411  19.938  24.696  1.00  0.00     0.021 C 
BRANCH  25  26
ATOM     26  C   UNL A   1      35.492  20.810  25.350  1.00  0.00     0.002 C 
BRANCH  26  27
ATOM     27  C   UNL A   1      36.835  20.846  24.616  1.00  0.00     0.002 C 
BRANCH  27  28
ATOM     28  C   UNL A   1      37.817  19.737  25.000  1.00  0.00     0.021 C 
BRANCH  28  29
ATOM     29  C   UNL A   1      39.049  20.208  25.769  1.00  0.00     0.116 C 
BRANCH  29  30
ATOM     30  N   UNL A   1      40.050  19.164  25.906  1.00  0.00    -0.352 N 
ATOM     31  C   UNL A   1      41.399  19.282  26.126  1.00  0.00     0.251 C 
ATOM     32  H   UNL A   1      39.713  18.242  25.830  1.00  0.00     0.163 HD
ATOM     33  O   UNL A   1      42.128  18.297  26.060  1.00  0.00    -0.269 OA
BRANCH  31  34
ATOM     34  C   UNL A   1      41.985  20.608  26.419  1.00  0.00     0.039 A 
ATOM     35  C   UNL A   1      42.297  21.456  25.353  1.00  0.00     0.014 A 
ATOM     36  C   UNL A   1      42.234  21.009  27.735  1.00  0.00     0.014 A 
ATOM     37  C   UNL A   1      42.804  22.732  25.608  1.00  0.00     0.010 A 
ATOM     38  C   UNL A   1      42.688  22.300  27.990  1.00  0.00     0.010 A 
ATOM     39  C   UNL A   1      42.976  23.174  26.929  1.00  0.00    -0.014 A 
BRANCH  39  40
ATOM     40  C   UNL A   1      43.460  24.545  27.225  1.00  0.00     0.031 A 
ATOM     41  C   UNL A   1      42.516  25.575  27.775  1.00  0.00     0.074 A 
ATOM     42  C   UNL A   1      44.731  24.881  26.931  1.00  0.00     0.049 A 
ATOM     43  N   UNL A   1      42.723  26.845  28.011  1.00  0.00    -0.248 NA
ATOM     44  C   UNL A   1      41.149  25.121  28.077  1.00  0.00     0.031 C 
ATOM     45  C   UNL A   1      45.731  23.982  26.355  1.00  0.00     0.029 A 
ATOM     46  N   UNL A   1      45.392  26.076  27.062  1.00  0.00    -0.354 N 
ATOM     47  C   UNL A   1      41.511  27.346  28.467  1.00  0.00     0.074 A 
ATOM     48  C   UNL A   1      40.564  26.253  28.442  1.00  0.00     0.031 C 
ATOM     49  C   UNL A   1      46.883  24.653  26.194  1.00  0.00     0.029 A 
ATOM     50  C   UNL A   1      46.692  26.035  26.625  1.00  0.00     0.049 A 
ATOM     51  H   UNL A   1      44.973  26.885  27.435  1.00  0.00     0.167 HD
ATOM     52  C   UNL A   1      41.221  28.601  28.886  1.00  0.00     0.037 A 
ATOM     53  C   UNL A   1      47.624  27.006  26.572  1.00  0.00     0.037 A 
ATOM     54  C   UNL A   1      42.172  29.679  28.945  1.00  0.00     0.049 A 
ATOM     55  C   UNL A   1      47.280  28.387  27.058  1.00  0.00     0.074 A 
ATOM     56  C   UNL A   1      41.989  30.968  29.414  1.00  0.00     0.029 A 
ATOM     57  N   UNL A   1      43.490  29.591  28.523  1.00  0.00    -0.354 N 
ATOM     58  N   UNL A   1      46.146  28.834  27.538  1.00  0.00    -0.248 NA
ATOM     59  C   UNL A   1      48.348  29.395  26.999  1.00  0.00     0.031 C 
ATOM     60  C   UNL A   1      43.188  31.669  29.249  1.00  0.00     0.029 A 
ATOM     61  C   UNL A   1      44.128  30.807  28.708  1.00  0.00     0.049 A 
ATOM     62  H   UNL A   1      43.910  28.783  28.148  1.00  0.00     0.167 HD
ATOM     63  C   UNL A   1      46.369  30.166  27.861  1.00  0.00     0.074 A 
ATOM     64  C   UNL A   1      47.749  30.452  27.530  1.00  0.00     0.031 C 
ATOM     65  C   UNL A   1      45.505  31.070  28.383  1.00  0.00     0.037 A 
BRANCH  52  66
ATOM     66  C   UNL A   1      39.812  28.876  29.319  1.00  0.00     0.064 A 
ATOM     67  C   UNL A   1      38.837  29.310  28.408  1.00  0.00     0.173 A 
ATOM     68  C   UNL A   1      39.423  28.670  30.651  1.00  0.00     0.173 A 
ATOM     69  F   UNL A   1      39.164  29.533  27.126  1.00  0.00    -0.203 F 
ATOM     70  C   UNL A   1      37.529  29.551  28.820  1.00  0.00     0.198 A 
ATOM     71  C   UNL A   1      38.108  28.887  31.054  1.00  0.00     0.198 A 
ATOM     72  F   UNL A   1      40.317  28.251  31.559  1.00  0.00    -0.203 F 
ATOM     73  F   UNL A   1      36.624  30.005  27.942  1.00  0.00    -0.200 F 
ATOM     74  C   UNL A   1      37.165  29.333  30.141  1.00  0.00     0.200 A 
ATOM     75  F   UNL A   1      37.755  28.668  32.328  1.00  0.00    -0.200 F 
ATOM     76  F   UNL A   1      35.904  29.560  30.535  1.00  0.00    -0.200 F 
ENDBRANCH  52  66
BRANCH  53  77
ATOM     77  C   UNL A   1      48.982  26.698  26.057  1.00  0.00     0.064 A 
ATOM     78  C   UNL A   1      49.334  27.009  24.737  1.00  0.00     0.173 A 
ATOM     79  C   UNL A   1      49.952  26.095  26.870  1.00  0.00     0.173 A 
ATOM     80  F   UNL A   1      48.431  27.566  23.917  1.00  0.00    -0.203 F 
ATOM     81  C   UNL A   1      50.603  26.713  24.243  1.00  0.00     0.198 A 
ATOM     82  C   UNL A   1      51.227  25.820  26.382  1.00  0.00     0.198 A 
ATOM     83  F   UNL A   1      49.663  25.783  28.142  1.00  0.00    -0.203 F 
ATOM     84  F   UNL A   1      50.903  26.986  22.967  1.00  0.00    -0.200 F 
ATOM     85  C   UNL A   1      51.550  26.124  25.068  1.00  0.00     0.200 A 
ATOM     86  F   UNL A   1      52.143  25.262  27.185  1.00  0.00    -0.200 F 
ATOM     87  F   UNL A   1      52.772  25.843  24.595  1.00  0.00    -0.200 F 
ENDBRANCH  53  77
BRANCH  65  88
ATOM     88  C   UNL A   1      46.035  32.444  28.657  1.00  0.00     0.064 A 
ATOM     89  C   UNL A   1      46.648  32.763  29.877  1.00  0.00     0.173 A 
ATOM     90  C   UNL A   1      45.966  33.441  27.673  1.00  0.00     0.173 A 
ATOM     91  F   UNL A   1      46.722  31.847  30.854  1.00  0.00    -0.203 F 
ATOM     92  C   UNL A   1      47.159  34.037  30.107  1.00  0.00     0.198 A 
ATOM     93  C   UNL A   1      46.498  34.707  27.898  1.00  0.00     0.198 A 
ATOM     94  F   UNL A   1      45.392  33.182  26.487  1.00  0.00    -0.203 F 
ATOM     95  F   UNL A   1      47.708  34.332  31.293  1.00  0.00    -0.200 F 
ATOM     96  C   UNL A   1      47.089  35.005  29.116  1.00  0.00     0.200 A 
ATOM     97  F   UNL A   1      46.437  35.640  26.937  1.00  0.00    -0.200 F 
ATOM     98  F   UNL A   1      47.587  36.230  29.339  1.00  0.00    -0.200 F 
ENDBRANCH  65  88
ENDBRANCH  39  40
ENDBRANCH  31  34
ENDBRANCH  29  30
ENDBRANCH  28  29
ENDBRANCH  27  28
ENDBRANCH  26  27
ENDBRANCH  25  26
ENDBRANCH   1  25
TORSDOF 19
ENDMDL
