MODEL 1
REMARK VINA RESULT:     -10.6      0.000      0.000
REMARK SMILES C[C@H](C(=O)NCCCCCCNC(=O)c1ccc(-c2c3nc(c(-c4c(F)c(F)c(F)c(F)c4F)c4ccc([nH]4)c(-c4c(F)c(F)c(F)c(F)c4F)c4nc(c(-c5c(F)c(F)c(F)c(F)c5F)c5ccc2[nH]5)C=C4)C=C3)cc1)[C@@H](C)[NH2+]C[C@@H]1CCCC[C@@H]1CO
REMARK SMILES IDX 6 1 5 2 3 3 4 4 2 6 1 7 78 8 79 9 80 10 81 13 82 14 83 15
REMARK SMILES IDX 87 16 84 17 86 18 85 19 88 20 89 21 7 23 8 24 9 25 10 26
REMARK SMILES IDX 11 27 12 28 13 29 14 31 15 32 16 33 77 34 17 35 76 36 18 37
REMARK SMILES IDX 19 38 20 39 70 40 21 41 75 42 69 43 71 44 22 45 74 46 68 47
REMARK SMILES IDX 67 48 23 50 55 51 35 52 54 53 36 54 39 55 53 56 72 57 37 58
REMARK SMILES IDX 38 59 52 61 73 62 40 63 24 64 25 65 33 66 26 67 27 68 31 69
REMARK SMILES IDX 34 70 28 71 29 72 32 73 30 74 56 75 57 76 65 77 58 78 59 79
REMARK SMILES IDX 63 80 66 81 60 82 61 83 64 84 62 85 41 86 42 87 50 88 43 89
REMARK SMILES IDX 44 90 48 91 51 92 45 93 46 94 49 95 47 96
REMARK H PARENT 5 5 80 11 80 12 89 22 12 30 71 49 39 60
REMARK Flexibility Score: inf
ROOT
ATOM      1  C   UNL A   1      35.835  24.059  25.323  1.00  0.00     0.116 C 
ENDROOT
BRANCH   1   2
ATOM      2  N   UNL A   1      35.259  24.001  23.993  1.00  0.00    -0.356 N 
ATOM      3  C   UNL A   1      33.984  24.184  23.560  1.00  0.00     0.228 C 
ATOM      4  O   UNL A   1      33.736  23.859  22.394  1.00  0.00    -0.275 OA
ATOM      5  H   UNL A   1      35.904  23.790  23.280  1.00  0.00     0.163 HD
BRANCH   3   6
ATOM      6  C   UNL A   1      32.917  24.860  24.419  1.00  0.00     0.133 C 
ATOM      7  C   UNL A   1      32.036  25.802  23.606  1.00  0.00     0.024 C 
BRANCH   6   8
ATOM      8  C   UNL A   1      32.180  23.780  25.255  1.00  0.00     0.191 C 
ATOM      9  C   UNL A   1      30.921  24.422  25.857  1.00  0.00     0.076 C 
BRANCH   8  10
ATOM     10  N   UNL A   1      31.835  22.593  24.467  1.00  0.00    -0.343 N 
ATOM     11  H   UNL A   1      32.190  22.735  23.522  1.00  0.00     0.346 HD
ATOM     12  H   UNL A   1      30.821  22.512  24.530  1.00  0.00     0.346 HD
BRANCH  10  13
ATOM     13  C   UNL A   1      32.360  21.306  24.955  1.00  0.00     0.264 C 
BRANCH  13  14
ATOM     14  C   UNL A   1      32.941  20.237  23.970  1.00  0.00     0.049 C 
ATOM     15  C   UNL A   1      32.153  20.200  22.635  1.00  0.00     0.010 C 
ATOM     16  C   UNL A   1      33.454  18.869  24.563  1.00  0.00     0.023 C 
ATOM     17  C   UNL A   1      32.390  18.989  21.749  1.00  0.00     0.001 C 
ATOM     18  C   UNL A   1      33.511  17.711  23.544  1.00  0.00     0.006 C 
ATOM     19  C   UNL A   1      32.374  17.699  22.543  1.00  0.00     0.000 C 
BRANCH  16  20
ATOM     20  C   UNL A   1      32.902  18.358  25.904  1.00  0.00     0.160 C 
BRANCH  20  21
ATOM     21  O   UNL A   1      33.289  17.007  26.127  1.00  0.00    -0.396 OA
ATOM     22  H   UNL A   1      34.239  16.911  25.958  1.00  0.00     0.210 HD
ENDBRANCH  20  21
ENDBRANCH  16  20
ENDBRANCH  13  14
ENDBRANCH  10  13
ENDBRANCH   8  10
ENDBRANCH   6   8
ENDBRANCH   3   6
ENDBRANCH   1   2
BRANCH   1  23
ATOM     23  C   UNL A   1      36.912  22.989  25.498  1.00  0.00     0.021 C 
BRANCH  23  24
ATOM     24  C   UNL A   1      36.865  21.878  24.442  1.00  0.00     0.002 C 
BRANCH  24  25
ATOM     25  C   UNL A   1      36.800  20.455  25.001  1.00  0.00     0.002 C 
BRANCH  25  26
ATOM     26  C   UNL A   1      38.098  19.651  24.886  1.00  0.00     0.021 C 
BRANCH  26  27
ATOM     27  C   UNL A   1      39.104  19.876  26.011  1.00  0.00     0.116 C 
BRANCH  27  28
ATOM     28  N   UNL A   1      40.229  18.960  25.951  1.00  0.00    -0.352 N 
ATOM     29  C   UNL A   1      41.575  19.211  26.052  1.00  0.00     0.251 C 
ATOM     30  H   UNL A   1      39.991  18.014  25.818  1.00  0.00     0.163 HD
ATOM     31  O   UNL A   1      42.383  18.313  25.834  1.00  0.00    -0.269 OA
BRANCH  29  32
ATOM     32  C   UNL A   1      42.062  20.568  26.390  1.00  0.00     0.039 A 
ATOM     33  C   UNL A   1      42.340  21.452  25.345  1.00  0.00     0.014 A 
ATOM     34  C   UNL A   1      42.272  20.965  27.713  1.00  0.00     0.014 A 
ATOM     35  C   UNL A   1      42.771  22.751  25.628  1.00  0.00     0.010 A 
ATOM     36  C   UNL A   1      42.633  22.282  27.997  1.00  0.00     0.010 A 
ATOM     37  C   UNL A   1      42.888  23.188  26.957  1.00  0.00    -0.014 A 
BRANCH  37  38
ATOM     38  C   UNL A   1      43.271  24.592  27.260  1.00  0.00     0.031 A 
ATOM     39  C   UNL A   1      44.674  25.074  27.015  1.00  0.00     0.074 A 
ATOM     40  C   UNL A   1      42.356  25.428  27.789  1.00  0.00     0.049 A 
ATOM     41  N   UNL A   1      45.192  26.259  27.231  1.00  0.00    -0.248 NA
ATOM     42  C   UNL A   1      45.628  24.094  26.476  1.00  0.00     0.031 C 
ATOM     43  C   UNL A   1      40.978  25.066  28.127  1.00  0.00     0.029 A 
ATOM     44  N   UNL A   1      42.447  26.752  28.142  1.00  0.00    -0.354 N 
ATOM     45  C   UNL A   1      46.524  26.165  26.851  1.00  0.00     0.074 A 
ATOM     46  C   UNL A   1      46.754  24.793  26.452  1.00  0.00     0.031 C 
ATOM     47  C   UNL A   1      40.347  26.147  28.616  1.00  0.00     0.029 A 
ATOM     48  C   UNL A   1      41.282  27.266  28.657  1.00  0.00     0.049 A 
ATOM     49  H   UNL A   1      43.270  27.282  28.035  1.00  0.00     0.167 HD
ATOM     50  C   UNL A   1      47.463  27.141  26.807  1.00  0.00     0.037 A 
ATOM     51  C   UNL A   1      41.000  28.501  29.114  1.00  0.00     0.037 A 
ATOM     52  C   UNL A   1      47.233  28.509  27.197  1.00  0.00     0.049 A 
ATOM     53  C   UNL A   1      42.063  29.565  29.059  1.00  0.00     0.074 A 
ATOM     54  C   UNL A   1      48.114  29.576  27.165  1.00  0.00     0.029 A 
ATOM     55  N   UNL A   1      46.033  28.998  27.692  1.00  0.00    -0.354 N 
ATOM     56  N   UNL A   1      43.301  29.478  28.636  1.00  0.00    -0.248 NA
ATOM     57  C   UNL A   1      41.685  30.903  29.532  1.00  0.00     0.031 C 
ATOM     58  C   UNL A   1      47.458  30.702  27.676  1.00  0.00     0.029 A 
ATOM     59  C   UNL A   1      46.155  30.348  27.979  1.00  0.00     0.049 A 
ATOM     60  H   UNL A   1      45.215  28.464  27.819  1.00  0.00     0.167 HD
ATOM     61  C   UNL A   1      43.839  30.751  28.768  1.00  0.00     0.074 A 
ATOM     62  C   UNL A   1      42.786  31.598  29.286  1.00  0.00     0.031 C 
ATOM     63  C   UNL A   1      45.095  31.180  28.489  1.00  0.00     0.037 A 
BRANCH  50  64
ATOM     64  C   UNL A   1      48.827  26.768  26.301  1.00  0.00     0.064 A 
ATOM     65  C   UNL A   1      49.173  26.930  24.950  1.00  0.00     0.173 A 
ATOM     66  C   UNL A   1      49.813  26.293  27.177  1.00  0.00     0.173 A 
ATOM     67  F   UNL A   1      48.264  27.372  24.069  1.00  0.00    -0.203 F 
ATOM     68  C   UNL A   1      50.448  26.607  24.492  1.00  0.00     0.198 A 
ATOM     69  C   UNL A   1      51.097  25.999  26.721  1.00  0.00     0.198 A 
ATOM     70  F   UNL A   1      49.539  26.126  28.480  1.00  0.00    -0.203 F 
ATOM     71  F   UNL A   1      50.740  26.727  23.189  1.00  0.00    -0.200 F 
ATOM     72  C   UNL A   1      51.410  26.149  25.378  1.00  0.00     0.200 A 
ATOM     73  F   UNL A   1      52.030  25.571  27.582  1.00  0.00    -0.200 F 
ATOM     74  F   UNL A   1      52.640  25.849  24.938  1.00  0.00    -0.200 F 
ENDBRANCH  50  64
BRANCH  51  75
ATOM     75  C   UNL A   1      39.646  28.807  29.648  1.00  0.00     0.064 A 
ATOM     76  C   UNL A   1      38.629  29.290  28.813  1.00  0.00     0.173 A 
ATOM     77  C   UNL A   1      39.350  28.646  31.010  1.00  0.00     0.173 A 
ATOM     78  F   UNL A   1      38.869  29.480  27.507  1.00  0.00    -0.203 F 
ATOM     79  C   UNL A   1      37.378  29.629  29.324  1.00  0.00     0.198 A 
ATOM     80  C   UNL A   1      38.088  28.953  31.514  1.00  0.00     0.198 A 
ATOM     81  F   UNL A   1      40.285  28.180  31.851  1.00  0.00    -0.203 F 
ATOM     82  F   UNL A   1      36.443  30.142  28.513  1.00  0.00    -0.200 F 
ATOM     83  C   UNL A   1      37.106  29.456  30.673  1.00  0.00     0.200 A 
ATOM     84  F   UNL A   1      37.826  28.770  32.814  1.00  0.00    -0.200 F 
ATOM     85  F   UNL A   1      35.903  29.782  31.163  1.00  0.00    -0.200 F 
ENDBRANCH  51  75
BRANCH  63  86
ATOM     86  C   UNL A   1      45.386  32.636  28.711  1.00  0.00     0.064 A 
ATOM     87  C   UNL A   1      45.921  33.106  29.920  1.00  0.00     0.173 A 
ATOM     88  C   UNL A   1      45.144  33.571  27.694  1.00  0.00     0.173 A 
ATOM     89  F   UNL A   1      46.157  32.254  30.930  1.00  0.00    -0.203 F 
ATOM     90  C   UNL A   1      46.170  34.462  30.114  1.00  0.00     0.198 A 
ATOM     91  C   UNL A   1      45.424  34.923  27.880  1.00  0.00     0.198 A 
ATOM     92  F   UNL A   1      44.640  33.175  26.515  1.00  0.00    -0.203 F 
ATOM     93  F   UNL A   1      46.626  34.894  31.298  1.00  0.00    -0.200 F 
ATOM     94  C   UNL A   1      45.927  35.368  29.093  1.00  0.00     0.200 A 
ATOM     95  F   UNL A   1      45.201  35.795  26.887  1.00  0.00    -0.200 F 
ATOM     96  F   UNL A   1      46.167  36.672  29.282  1.00  0.00    -0.200 F 
ENDBRANCH  63  86
ENDBRANCH  37  38
ENDBRANCH  29  32
ENDBRANCH  27  28
ENDBRANCH  26  27
ENDBRANCH  25  26
ENDBRANCH  24  25
ENDBRANCH  23  24
ENDBRANCH   1  23
TORSDOF 19
ENDMDL
MODEL 2
REMARK VINA RESULT:     -10.6      5.585      9.765
REMARK SMILES C[C@H](C(=O)NCCCCCCNC(=O)c1ccc(-c2c3nc(c(-c4c(F)c(F)c(F)c(F)c4F)c4ccc([nH]4)c(-c4c(F)c(F)c(F)c(F)c4F)c4nc(c(-c5c(F)c(F)c(F)c(F)c5F)c5ccc2[nH]5)C=C4)C=C3)cc1)[C@@H](C)[NH2+]C[C@@H]1CCCC[C@@H]1CO
REMARK SMILES IDX 6 1 5 2 3 3 4 4 2 6 1 7 78 8 79 9 80 10 81 13 82 14 83 15
REMARK SMILES IDX 87 16 84 17 86 18 85 19 88 20 89 21 7 23 8 24 9 25 10 26
REMARK SMILES IDX 11 27 12 28 13 29 14 31 15 32 16 33 77 34 17 35 76 36 18 37
REMARK SMILES IDX 19 38 20 39 70 40 21 41 75 42 69 43 71 44 22 45 74 46 68 47
REMARK SMILES IDX 67 48 23 50 55 51 35 52 54 53 36 54 39 55 53 56 72 57 37 58
REMARK SMILES IDX 38 59 52 61 73 62 40 63 24 64 25 65 33 66 26 67 27 68 31 69
REMARK SMILES IDX 34 70 28 71 29 72 32 73 30 74 56 75 57 76 65 77 58 78 59 79
REMARK SMILES IDX 63 80 66 81 60 82 61 83 64 84 62 85 41 86 42 87 50 88 43 89
REMARK SMILES IDX 44 90 48 91 51 92 45 93 46 94 49 95 47 96
REMARK H PARENT 5 5 80 11 80 12 89 22 12 30 71 49 39 60
REMARK Flexibility Score: inf
ROOT
ATOM      1  C   UNL A   1      33.466  27.724  26.003  1.00  0.00     0.116 C 
ENDROOT
BRANCH   1   2
ATOM      2  N   UNL A   1      32.195  27.341  26.588  1.00  0.00    -0.356 N 
ATOM      3  C   UNL A   1      31.373  26.287  26.338  1.00  0.00     0.228 C 
ATOM      4  O   UNL A   1      30.243  26.327  26.835  1.00  0.00    -0.275 OA
ATOM      5  H   UNL A   1      31.870  27.952  27.288  1.00  0.00     0.163 HD
BRANCH   3   6
ATOM      6  C   UNL A   1      31.840  25.051  25.572  1.00  0.00     0.133 C 
ATOM      7  C   UNL A   1      32.427  23.989  26.498  1.00  0.00     0.024 C 
BRANCH   6   8
ATOM      8  C   UNL A   1      30.705  24.583  24.624  1.00  0.00     0.191 C 
ATOM      9  C   UNL A   1      30.687  25.519  23.406  1.00  0.00     0.076 C 
BRANCH   8  10
ATOM     10  N   UNL A   1      30.855  23.186  24.207  1.00  0.00    -0.343 N 
ATOM     11  H   UNL A   1      29.924  22.821  24.009  1.00  0.00     0.346 HD
ATOM     12  H   UNL A   1      31.336  22.724  24.978  1.00  0.00     0.346 HD
BRANCH  10  13
ATOM     13  C   UNL A   1      31.694  22.942  23.021  1.00  0.00     0.264 C 
BRANCH  13  14
ATOM     14  C   UNL A   1      33.132  22.339  23.151  1.00  0.00     0.049 C 
ATOM     15  C   UNL A   1      33.223  21.319  24.315  1.00  0.00     0.010 C 
ATOM     16  C   UNL A   1      34.369  23.285  22.900  1.00  0.00     0.023 C 
ATOM     17  C   UNL A   1      34.623  20.931  24.760  1.00  0.00     0.001 C 
ATOM     18  C   UNL A   1      35.688  22.796  23.536  1.00  0.00     0.006 C 
ATOM     19  C   UNL A   1      35.526  22.141  24.892  1.00  0.00     0.000 C 
BRANCH  16  20
ATOM     20  C   UNL A   1      34.227  24.803  23.094  1.00  0.00     0.160 C 
BRANCH  20  21
ATOM     21  O   UNL A   1      33.889  25.440  21.868  1.00  0.00    -0.396 OA
ATOM     22  H   UNL A   1      33.625  26.357  22.043  1.00  0.00     0.210 HD
ENDBRANCH  20  21
ENDBRANCH  16  20
ENDBRANCH  13  14
ENDBRANCH  10  13
ENDBRANCH   8  10
ENDBRANCH   6   8
ENDBRANCH   3   6
ENDBRANCH   1   2
BRANCH   1  23
ATOM     23  C   UNL A   1      33.548  29.238  25.821  1.00  0.00     0.021 C 
BRANCH  23  24
ATOM     24  C   UNL A   1      32.642  30.031  26.770  1.00  0.00     0.002 C 
BRANCH  24  25
ATOM     25  C   UNL A   1      31.582  30.897  26.083  1.00  0.00     0.002 C 
BRANCH  25  26
ATOM     26  C   UNL A   1      31.364  32.277  26.708  1.00  0.00     0.021 C 
BRANCH  26  27
ATOM     27  C   UNL A   1      32.634  33.002  27.142  1.00  0.00     0.116 C 
BRANCH  27  28
ATOM     28  N   UNL A   1      32.376  34.344  27.632  1.00  0.00    -0.352 N 
ATOM     29  C   UNL A   1      32.972  35.036  28.657  1.00  0.00     0.251 C 
ATOM     30  H   UNL A   1      31.665  34.833  27.158  1.00  0.00     0.163 HD
ATOM     31  O   UNL A   1      32.515  36.119  29.012  1.00  0.00    -0.269 OA
BRANCH  29  32
ATOM     32  C   UNL A   1      34.147  34.472  29.361  1.00  0.00     0.039 A 
ATOM     33  C   UNL A   1      33.941  33.828  30.584  1.00  0.00     0.014 A 
ATOM     34  C   UNL A   1      35.441  34.593  28.847  1.00  0.00     0.014 A 
ATOM     35  C   UNL A   1      35.021  33.256  31.261  1.00  0.00     0.010 A 
ATOM     36  C   UNL A   1      36.507  33.960  29.486  1.00  0.00     0.010 A 
ATOM     37  C   UNL A   1      36.308  33.287  30.701  1.00  0.00    -0.014 A 
BRANCH  37  38
ATOM     38  C   UNL A   1      37.445  32.611  31.380  1.00  0.00     0.031 A 
ATOM     39  C   UNL A   1      38.148  31.452  30.728  1.00  0.00     0.074 A 
ATOM     40  C   UNL A   1      37.824  33.025  32.604  1.00  0.00     0.049 A 
ATOM     41  N   UNL A   1      39.148  30.734  31.176  1.00  0.00    -0.248 NA
ATOM     42  C   UNL A   1      37.651  31.030  29.410  1.00  0.00     0.031 C 
ATOM     43  C   UNL A   1      37.187  34.100  33.367  1.00  0.00     0.029 A 
ATOM     44  N   UNL A   1      38.833  32.589  33.427  1.00  0.00    -0.354 N 
ATOM     45  C   UNL A   1      39.400  29.783  30.195  1.00  0.00     0.074 A 
ATOM     46  C   UNL A   1      38.408  29.972  29.159  1.00  0.00     0.031 C 
ATOM     47  C   UNL A   1      37.834  34.254  34.535  1.00  0.00     0.029 A 
ATOM     48  C   UNL A   1      38.908  33.270  34.618  1.00  0.00     0.049 A 
ATOM     49  H   UNL A   1      39.446  31.856  33.186  1.00  0.00     0.167 HD
ATOM     50  C   UNL A   1      40.388  28.856  30.148  1.00  0.00     0.037 A 
ATOM     51  C   UNL A   1      39.746  33.117  35.660  1.00  0.00     0.037 A 
ATOM     52  C   UNL A   1      41.380  28.672  31.176  1.00  0.00     0.049 A 
ATOM     53  C   UNL A   1      40.831  32.076  35.583  1.00  0.00     0.074 A 
ATOM     54  C   UNL A   1      42.436  27.777  31.208  1.00  0.00     0.029 A 
ATOM     55  N   UNL A   1      41.438  29.398  32.357  1.00  0.00    -0.354 N 
ATOM     56  N   UNL A   1      41.097  31.227  34.621  1.00  0.00    -0.248 NA
ATOM     57  C   UNL A   1      41.741  31.983  36.733  1.00  0.00     0.031 C 
ATOM     58  C   UNL A   1      43.109  27.936  32.424  1.00  0.00     0.029 A 
ATOM     59  C   UNL A   1      42.503  28.962  33.128  1.00  0.00     0.049 A 
ATOM     60  H   UNL A   1      40.813  30.116  32.609  1.00  0.00     0.167 HD
ATOM     61  C   UNL A   1      42.217  30.519  35.037  1.00  0.00     0.074 A 
ATOM     62  C   UNL A   1      42.595  31.055  36.327  1.00  0.00     0.031 C 
ATOM     63  C   UNL A   1      42.871  29.511  34.409  1.00  0.00     0.037 A 
BRANCH  50  64
ATOM     64  C   UNL A   1      40.457  27.979  28.931  1.00  0.00     0.064 A 
ATOM     65  C   UNL A   1      41.263  28.317  27.833  1.00  0.00     0.173 A 
ATOM     66  C   UNL A   1      39.754  26.767  28.879  1.00  0.00     0.173 A 
ATOM     67  F   UNL A   1      41.948  29.470  27.829  1.00  0.00    -0.203 F 
ATOM     68  C   UNL A   1      41.343  27.487  26.718  1.00  0.00     0.198 A 
ATOM     69  C   UNL A   1      39.859  25.924  27.774  1.00  0.00     0.198 A 
ATOM     70  F   UNL A   1      38.974  26.391  29.904  1.00  0.00    -0.203 F 
ATOM     71  F   UNL A   1      42.084  27.853  25.663  1.00  0.00    -0.200 F 
ATOM     72  C   UNL A   1      40.648  26.288  26.693  1.00  0.00     0.200 A 
ATOM     73  F   UNL A   1      39.199  24.758  27.758  1.00  0.00    -0.200 F 
ATOM     74  F   UNL A   1      40.734  25.484  25.624  1.00  0.00    -0.200 F 
ENDBRANCH  50  64
BRANCH  51  75
ATOM     75  C   UNL A   1      39.607  33.981  36.862  1.00  0.00     0.064 A 
ATOM     76  C   UNL A   1      40.228  35.236  36.929  1.00  0.00     0.173 A 
ATOM     77  C   UNL A   1      38.869  33.558  37.978  1.00  0.00     0.173 A 
ATOM     78  F   UNL A   1      40.961  35.676  35.895  1.00  0.00    -0.203 F 
ATOM     79  C   UNL A   1      40.143  36.021  38.076  1.00  0.00     0.198 A 
ATOM     80  C   UNL A   1      38.756  34.359  39.113  1.00  0.00     0.198 A 
ATOM     81  F   UNL A   1      38.249  32.369  37.963  1.00  0.00    -0.203 F 
ATOM     82  F   UNL A   1      40.794  37.191  38.134  1.00  0.00    -0.200 F 
ATOM     83  C   UNL A   1      39.403  35.586  39.166  1.00  0.00     0.200 A 
ATOM     84  F   UNL A   1      38.028  33.941  40.155  1.00  0.00    -0.200 F 
ATOM     85  F   UNL A   1      39.322  36.341  40.269  1.00  0.00    -0.200 F 
ENDBRANCH  51  75
BRANCH  63  86
ATOM     86  C   UNL A   1      44.080  28.947  35.096  1.00  0.00     0.064 A 
ATOM     87  C   UNL A   1      45.367  29.455  34.861  1.00  0.00     0.173 A 
ATOM     88  C   UNL A   1      43.949  27.896  36.017  1.00  0.00     0.173 A 
ATOM     89  F   UNL A   1      45.550  30.449  33.978  1.00  0.00    -0.203 F 
ATOM     90  C   UNL A   1      46.480  28.908  35.495  1.00  0.00     0.198 A 
ATOM     91  C   UNL A   1      45.060  27.373  36.674  1.00  0.00     0.198 A 
ATOM     92  F   UNL A   1      42.741  27.379  36.285  1.00  0.00    -0.203 F 
ATOM     93  F   UNL A   1      47.705  29.372  35.210  1.00  0.00    -0.200 F 
ATOM     94  C   UNL A   1      46.326  27.873  36.404  1.00  0.00     0.200 A 
ATOM     95  F   UNL A   1      44.907  26.383  37.563  1.00  0.00    -0.200 F 
ATOM     96  F   UNL A   1      47.398  27.350  37.014  1.00  0.00    -0.200 F 
ENDBRANCH  63  86
ENDBRANCH  37  38
ENDBRANCH  29  32
ENDBRANCH  27  28
ENDBRANCH  26  27
ENDBRANCH  25  26
ENDBRANCH  24  25
ENDBRANCH  23  24
ENDBRANCH   1  23
TORSDOF 19
ENDMDL
MODEL 3
REMARK VINA RESULT:     -10.6      5.426     10.787
REMARK SMILES C[C@H](C(=O)NCCCCCCNC(=O)c1ccc(-c2c3nc(c(-c4c(F)c(F)c(F)c(F)c4F)c4ccc([nH]4)c(-c4c(F)c(F)c(F)c(F)c4F)c4nc(c(-c5c(F)c(F)c(F)c(F)c5F)c5ccc2[nH]5)C=C4)C=C3)cc1)[C@@H](C)[NH2+]C[C@@H]1CCCC[C@@H]1CO
REMARK SMILES IDX 6 1 5 2 3 3 4 4 2 6 1 7 78 8 79 9 80 10 81 13 82 14 83 15
REMARK SMILES IDX 87 16 84 17 86 18 85 19 88 20 89 21 7 23 8 24 9 25 10 26
REMARK SMILES IDX 11 27 12 28 13 29 14 31 15 32 16 33 77 34 17 35 76 36 18 37
REMARK SMILES IDX 19 38 20 39 70 40 21 41 75 42 69 43 71 44 22 45 74 46 68 47
REMARK SMILES IDX 67 48 23 50 55 51 35 52 54 53 36 54 39 55 53 56 72 57 37 58
REMARK SMILES IDX 38 59 52 61 73 62 40 63 24 64 25 65 33 66 26 67 27 68 31 69
REMARK SMILES IDX 34 70 28 71 29 72 32 73 30 74 56 75 57 76 65 77 58 78 59 79
REMARK SMILES IDX 63 80 66 81 60 82 61 83 64 84 62 85 41 86 42 87 50 88 43 89
REMARK SMILES IDX 44 90 48 91 51 92 45 93 46 94 49 95 47 96
REMARK H PARENT 5 5 80 11 80 12 89 22 12 30 71 49 39 60
REMARK Flexibility Score: inf
ROOT
ATOM      1  C   UNL A   1      32.777  27.849  26.568  1.00  0.00     0.116 C 
ENDROOT
BRANCH   1   2
ATOM      2  N   UNL A   1      33.057  27.735  25.149  1.00  0.00    -0.356 N 
ATOM      3  C   UNL A   1      32.239  27.501  24.089  1.00  0.00     0.228 C 
ATOM      4  O   UNL A   1      32.780  27.238  23.011  1.00  0.00    -0.275 OA
ATOM      5  H   UNL A   1      34.007  27.844  24.913  1.00  0.00     0.163 HD
BRANCH   3   6
ATOM      6  C   UNL A   1      30.722  27.660  24.177  1.00  0.00     0.133 C 
ATOM      7  C   UNL A   1      30.193  28.691  23.185  1.00  0.00     0.024 C 
BRANCH   6   8
ATOM      8  C   UNL A   1      30.062  26.257  24.127  1.00  0.00     0.191 C 
ATOM      9  C   UNL A   1      28.560  26.447  23.862  1.00  0.00     0.076 C 
BRANCH   8  10
ATOM     10  N   UNL A   1      30.663  25.384  23.115  1.00  0.00    -0.343 N 
ATOM     11  H   UNL A   1      31.652  25.626  23.046  1.00  0.00     0.346 HD
ATOM     12  H   UNL A   1      30.128  25.548  22.263  1.00  0.00     0.346 HD
BRANCH  10  13
ATOM     13  C   UNL A   1      30.573  23.935  23.361  1.00  0.00     0.264 C 
BRANCH  13  14
ATOM     14  C   UNL A   1      31.744  23.148  24.038  1.00  0.00     0.049 C 
ATOM     15  C   UNL A   1      32.172  21.919  23.194  1.00  0.00     0.010 C 
ATOM     16  C   UNL A   1      31.742  23.001  25.608  1.00  0.00     0.023 C 
ATOM     17  C   UNL A   1      33.044  20.893  23.897  1.00  0.00     0.001 C 
ATOM     18  C   UNL A   1      32.583  21.822  26.141  1.00  0.00     0.006 C 
ATOM     19  C   UNL A   1      32.528  20.573  25.286  1.00  0.00     0.000 C 
BRANCH  16  20
ATOM     20  C   UNL A   1      30.420  23.093  26.386  1.00  0.00     0.160 C 
BRANCH  20  21
ATOM     21  O   UNL A   1      30.583  22.619  27.717  1.00  0.00    -0.396 OA
ATOM     22  H   UNL A   1      29.949  23.065  28.299  1.00  0.00     0.210 HD
ENDBRANCH  20  21
ENDBRANCH  16  20
ENDBRANCH  13  14
ENDBRANCH  10  13
ENDBRANCH   8  10
ENDBRANCH   6   8
ENDBRANCH   3   6
ENDBRANCH   1   2
BRANCH   1  23
ATOM     23  C   UNL A   1      33.795  28.758  27.254  1.00  0.00     0.021 C 
BRANCH  23  24
ATOM     24  C   UNL A   1      33.444  30.250  27.188  1.00  0.00     0.002 C 
BRANCH  24  25
ATOM     25  C   UNL A   1      31.978  30.557  26.875  1.00  0.00     0.002 C 
BRANCH  25  26
ATOM     26  C   UNL A   1      31.611  32.044  26.876  1.00  0.00     0.021 C 
BRANCH  26  27
ATOM     27  C   UNL A   1      32.794  33.005  26.926  1.00  0.00     0.116 C 
BRANCH  27  28
ATOM     28  N   UNL A   1      32.477  34.253  27.598  1.00  0.00    -0.352 N 
ATOM     29  C   UNL A   1      33.034  34.815  28.720  1.00  0.00     0.251 C 
ATOM     30  H   UNL A   1      31.751  34.776  27.187  1.00  0.00     0.163 HD
ATOM     31  O   UNL A   1      32.530  35.817  29.217  1.00  0.00    -0.269 OA
BRANCH  29  32
ATOM     32  C   UNL A   1      34.223  34.202  29.356  1.00  0.00     0.039 A 
ATOM     33  C   UNL A   1      34.024  33.319  30.420  1.00  0.00     0.014 A 
ATOM     34  C   UNL A   1      35.520  34.505  28.934  1.00  0.00     0.014 A 
ATOM     35  C   UNL A   1      35.121  32.697  31.023  1.00  0.00     0.010 A 
ATOM     36  C   UNL A   1      36.608  33.831  29.488  1.00  0.00     0.010 A 
ATOM     37  C   UNL A   1      36.420  32.921  30.540  1.00  0.00    -0.014 A 
BRANCH  37  38
ATOM     38  C   UNL A   1      37.580  32.201  31.128  1.00  0.00     0.031 A 
ATOM     39  C   UNL A   1      38.079  32.547  32.504  1.00  0.00     0.074 A 
ATOM     40  C   UNL A   1      38.207  31.253  30.404  1.00  0.00     0.049 A 
ATOM     41  N   UNL A   1      39.083  32.035  33.173  1.00  0.00    -0.248 NA
ATOM     42  C   UNL A   1      37.371  33.621  33.216  1.00  0.00     0.031 C 
ATOM     43  C   UNL A   1      37.856  30.866  29.036  1.00  0.00     0.029 A 
ATOM     44  N   UNL A   1      39.273  30.446  30.714  1.00  0.00    -0.354 N 
ATOM     45  C   UNL A   1      39.123  32.721  34.380  1.00  0.00     0.074 A 
ATOM     46  C   UNL A   1      38.086  33.728  34.328  1.00  0.00     0.031 C 
ATOM     47  C   UNL A   1      38.676  29.882  28.634  1.00  0.00     0.029 A 
ATOM     48  C   UNL A   1      39.630  29.591  29.700  1.00  0.00     0.049 A 
ATOM     49  H   UNL A   1      39.739  30.478  31.581  1.00  0.00     0.167 HD
ATOM     50  C   UNL A   1      39.930  32.509  35.448  1.00  0.00     0.037 A 
ATOM     51  C   UNL A   1      40.617  28.677  29.635  1.00  0.00     0.037 A 
ATOM     52  C   UNL A   1      40.959  31.501  35.503  1.00  0.00     0.049 A 
ATOM     53  C   UNL A   1      41.502  28.466  30.834  1.00  0.00     0.074 A 
ATOM     54  C   UNL A   1      41.811  31.194  36.549  1.00  0.00     0.029 A 
ATOM     55  N   UNL A   1      41.274  30.638  34.465  1.00  0.00    -0.354 N 
ATOM     56  N   UNL A   1      41.486  29.077  31.993  1.00  0.00    -0.248 NA
ATOM     57  C   UNL A   1      42.534  27.427  30.720  1.00  0.00     0.031 C 
ATOM     58  C   UNL A   1      42.667  30.169  36.131  1.00  0.00     0.029 A 
ATOM     59  C   UNL A   1      42.316  29.806  34.842  1.00  0.00     0.049 A 
ATOM     60  H   UNL A   1      40.824  30.619  33.589  1.00  0.00     0.167 HD
ATOM     61  C   UNL A   1      42.485  28.482  32.752  1.00  0.00     0.074 A 
ATOM     62  C   UNL A   1      43.070  27.443  31.931  1.00  0.00     0.031 C 
ATOM     63  C   UNL A   1      42.884  28.771  34.015  1.00  0.00     0.037 A 
BRANCH  50  64
ATOM     64  C   UNL A   1      39.720  33.374  36.657  1.00  0.00     0.064 A 
ATOM     65  C   UNL A   1      38.843  32.992  37.685  1.00  0.00     0.173 A 
ATOM     66  C   UNL A   1      40.435  34.569  36.818  1.00  0.00     0.173 A 
ATOM     67  F   UNL A   1      38.128  31.863  37.575  1.00  0.00    -0.203 F 
ATOM     68  C   UNL A   1      38.672  33.786  38.815  1.00  0.00     0.198 A 
ATOM     69  C   UNL A   1      40.285  35.347  37.964  1.00  0.00     0.198 A 
ATOM     70  F   UNL A   1      41.293  34.979  35.870  1.00  0.00    -0.203 F 
ATOM     71  F   UNL A   1      37.795  33.422  39.761  1.00  0.00    -0.200 F 
ATOM     72  C   UNL A   1      39.398  34.958  38.958  1.00  0.00     0.200 A 
ATOM     73  F   UNL A   1      40.998  36.472  38.108  1.00  0.00    -0.200 F 
ATOM     74  F   UNL A   1      39.242  35.716  40.052  1.00  0.00    -0.200 F 
ENDBRANCH  50  64
BRANCH  51  75
ATOM     75  C   UNL A   1      40.812  27.877  28.397  1.00  0.00     0.064 A 
ATOM     76  C   UNL A   1      40.167  26.645  28.220  1.00  0.00     0.173 A 
ATOM     77  C   UNL A   1      41.667  28.318  27.375  1.00  0.00     0.173 A 
ATOM     78  F   UNL A   1      39.355  26.172  29.177  1.00  0.00    -0.203 F 
ATOM     79  C   UNL A   1      40.393  25.870  27.084  1.00  0.00     0.198 A 
ATOM     80  C   UNL A   1      41.867  27.557  26.225  1.00  0.00     0.198 A 
ATOM     81  F   UNL A   1      42.304  29.492  27.491  1.00  0.00    -0.203 F 
ATOM     82  F   UNL A   1      39.807  24.670  26.968  1.00  0.00    -0.200 F 
ATOM     83  C   UNL A   1      41.238  26.328  26.085  1.00  0.00     0.200 A 
ATOM     84  F   UNL A   1      42.672  28.011  25.256  1.00  0.00    -0.200 F 
ATOM     85  F   UNL A   1      41.455  25.583  24.994  1.00  0.00    -0.200 F 
ENDBRANCH  51  75
BRANCH  63  86
ATOM     86  C   UNL A   1      43.986  27.932  34.593  1.00  0.00     0.064 A 
ATOM     87  C   UNL A   1      43.718  26.818  35.404  1.00  0.00     0.173 A 
ATOM     88  C   UNL A   1      45.329  28.234  34.319  1.00  0.00     0.173 A 
ATOM     89  F   UNL A   1      42.452  26.496  35.709  1.00  0.00    -0.203 F 
ATOM     90  C   UNL A   1      44.753  26.061  35.946  1.00  0.00     0.198 A 
ATOM     91  C   UNL A   1      46.360  27.455  34.836  1.00  0.00     0.198 A 
ATOM     92  F   UNL A   1      45.641  29.283  33.543  1.00  0.00    -0.203 F 
ATOM     93  F   UNL A   1      44.472  25.037  36.764  1.00  0.00    -0.200 F 
ATOM     94  C   UNL A   1      46.072  26.376  35.657  1.00  0.00     0.200 A 
ATOM     95  F   UNL A   1      47.634  27.753  34.545  1.00  0.00    -0.200 F 
ATOM     96  F   UNL A   1      47.066  25.645  36.179  1.00  0.00    -0.200 F 
ENDBRANCH  63  86
ENDBRANCH  37  38
ENDBRANCH  29  32
ENDBRANCH  27  28
ENDBRANCH  26  27
ENDBRANCH  25  26
ENDBRANCH  24  25
ENDBRANCH  23  24
ENDBRANCH   1  23
TORSDOF 19
ENDMDL
