MODEL 1
REMARK VINA RESULT:     -11.9      0.000      0.000
REMARK SMILES O=C(NCCCCCCNC(=O)c1cc(F)ccc1N1CCCc2ccccc21)c1ccc(-c2c3nc(c(-c4c(F)c(F)c(F)c(F)c4F)c4ccc([nH]4)c(-c4c(F)c(F)c(F)c(F)c4F)c4nc(c(-c5c(F)c(F)c(F)c(F)c5F)c5ccc2[nH]5)C=C4)C=C3)cc1
REMARK SMILES IDX 6 1 5 2 4 3 3 4 1 5 2 6 30 8 31 9 92 10 32 11 91 12 33 13
REMARK SMILES IDX 34 14 35 15 85 16 36 17 90 18 84 19 86 20 37 21 89 22 83 23
REMARK SMILES IDX 82 24 38 26 70 27 50 28 69 29 51 30 54 31 68 32 87 33 52 34
REMARK SMILES IDX 53 35 67 37 88 38 55 39 39 40 40 41 48 42 41 43 42 44 46 45
REMARK SMILES IDX 49 46 43 47 44 48 47 49 45 50 71 51 72 52 80 53 73 54 74 55
REMARK SMILES IDX 78 56 81 57 75 58 76 59 79 60 77 61 56 62 57 63 65 64 58 65
REMARK SMILES IDX 59 66 63 67 66 68 60 69 61 70 64 71 62 72 7 73 8 74 9 75
REMARK SMILES IDX 10 76 11 77 12 79 13 80 14 81 19 82 15 83 18 84 16 85 17 86
REMARK SMILES IDX 20 87 21 88 29 89 22 90 24 91 28 92 23 93 25 94 27 95 26 96
REMARK H PARENT 3 7 86 25 54 36 10 78
REMARK Flexibility Score: inf
ROOT
ATOM      1  C   UNL A   1      33.662  26.657  24.581  1.00  0.00     0.002 C 
ENDROOT
BRANCH   1   2
ATOM      2  C   UNL A   1      33.071  27.462  25.739  1.00  0.00     0.021 C 
BRANCH   2   3
ATOM      3  C   UNL A   1      34.091  28.061  26.698  1.00  0.00     0.116 C 
BRANCH   3   4
ATOM      4  N   UNL A   1      33.766  29.424  27.083  1.00  0.00    -0.352 N 
ATOM      5  O   UNL A   1      34.004  31.381  28.183  1.00  0.00    -0.269 OA
ATOM      6  C   UNL A   1      34.501  30.316  27.823  1.00  0.00     0.251 C 
ATOM      7  H   UNL A   1      32.893  29.755  26.769  1.00  0.00     0.163 HD
BRANCH   6   8
ATOM      8  C   UNL A   1      35.889  29.986  28.210  1.00  0.00     0.039 A 
ATOM      9  C   UNL A   1      36.949  30.193  27.323  1.00  0.00     0.014 A 
ATOM     10  C   UNL A   1      36.133  29.472  29.486  1.00  0.00     0.014 A 
ATOM     11  C   UNL A   1      38.228  29.765  27.662  1.00  0.00     0.010 A 
ATOM     12  C   UNL A   1      37.433  29.116  29.855  1.00  0.00     0.010 A 
ATOM     13  C   UNL A   1      38.486  29.235  28.936  1.00  0.00    -0.014 A 
BRANCH  13  14
ATOM     14  C   UNL A   1      39.875  28.872  29.311  1.00  0.00     0.031 A 
ATOM     15  C   UNL A   1      40.687  29.747  30.223  1.00  0.00     0.074 A 
ATOM     16  C   UNL A   1      40.398  27.728  28.829  1.00  0.00     0.049 A 
ATOM     17  N   UNL A   1      41.918  29.587  30.637  1.00  0.00    -0.248 NA
ATOM     18  C   UNL A   1      40.037  30.963  30.735  1.00  0.00     0.031 C 
ATOM     19  C   UNL A   1      39.701  26.802  27.935  1.00  0.00     0.029 A 
ATOM     20  N   UNL A   1      41.622  27.144  29.027  1.00  0.00    -0.354 N 
ATOM     21  C   UNL A   1      42.197  30.683  31.443  1.00  0.00     0.074 A 
ATOM     22  C   UNL A   1      41.014  31.517  31.440  1.00  0.00     0.031 C 
ATOM     23  C   UNL A   1      40.492  25.746  27.695  1.00  0.00     0.029 A 
ATOM     24  C   UNL A   1      41.772  25.952  28.364  1.00  0.00     0.049 A 
ATOM     25  H   UNL A   1      42.325  27.542  29.590  1.00  0.00     0.167 HD
ATOM     26  C   UNL A   1      43.333  30.958  32.126  1.00  0.00     0.037 A 
ATOM     27  C   UNL A   1      42.830  25.122  28.284  1.00  0.00     0.037 A 
ATOM     28  C   UNL A   1      44.500  30.113  32.133  1.00  0.00     0.049 A 
ATOM     29  C   UNL A   1      44.090  25.471  29.019  1.00  0.00     0.074 A 
ATOM     30  C   UNL A   1      45.688  30.292  32.820  1.00  0.00     0.029 A 
ATOM     31  N   UNL A   1      44.628  28.931  31.417  1.00  0.00    -0.354 N 
ATOM     32  N   UNL A   1      44.334  26.501  29.792  1.00  0.00    -0.248 NA
ATOM     33  C   UNL A   1      45.224  24.549  28.869  1.00  0.00     0.031 C 
ATOM     34  C   UNL A   1      46.553  29.247  32.482  1.00  0.00     0.029 A 
ATOM     35  C   UNL A   1      45.884  28.385  31.627  1.00  0.00     0.049 A 
ATOM     36  H   UNL A   1      43.930  28.539  30.845  1.00  0.00     0.167 HD
ATOM     37  C   UNL A   1      45.640  26.347  30.232  1.00  0.00     0.074 A 
ATOM     38  C   UNL A   1      46.134  25.114  29.652  1.00  0.00     0.031 C 
ATOM     39  C   UNL A   1      46.361  27.155  31.045  1.00  0.00     0.037 A 
BRANCH  26  40
ATOM     40  C   UNL A   1      43.387  32.229  32.923  1.00  0.00     0.064 A 
ATOM     41  C   UNL A   1      43.960  33.388  32.376  1.00  0.00     0.173 A 
ATOM     42  C   UNL A   1      42.945  32.282  34.253  1.00  0.00     0.173 A 
ATOM     43  F   UNL A   1      44.405  33.388  31.110  1.00  0.00    -0.203 F 
ATOM     44  C   UNL A   1      44.102  34.546  33.135  1.00  0.00     0.198 A 
ATOM     45  C   UNL A   1      43.064  33.451  35.002  1.00  0.00     0.198 A 
ATOM     46  F   UNL A   1      42.381  31.205  34.822  1.00  0.00    -0.203 F 
ATOM     47  F   UNL A   1      44.683  35.629  32.600  1.00  0.00    -0.200 F 
ATOM     48  C   UNL A   1      43.651  34.578  34.445  1.00  0.00     0.200 A 
ATOM     49  F   UNL A   1      42.608  33.488  36.262  1.00  0.00    -0.200 F 
ATOM     50  F   UNL A   1      43.781  35.696  35.173  1.00  0.00    -0.200 F 
ENDBRANCH  26  40
BRANCH  27  51
ATOM     51  C   UNL A   1      42.716  23.880  27.479  1.00  0.00     0.064 A 
ATOM     52  C   UNL A   1      42.330  22.664  28.066  1.00  0.00     0.173 A 
ATOM     53  C   UNL A   1      43.053  23.872  26.120  1.00  0.00     0.173 A 
ATOM     54  F   UNL A   1      42.006  22.620  29.366  1.00  0.00    -0.203 F 
ATOM     55  C   UNL A   1      42.315  21.483  27.330  1.00  0.00     0.198 A 
ATOM     56  C   UNL A   1      43.010  22.694  25.377  1.00  0.00     0.198 A 
ATOM     57  F   UNL A   1      43.411  25.012  25.512  1.00  0.00    -0.203 F 
ATOM     58  F   UNL A   1      41.989  20.328  27.926  1.00  0.00    -0.200 F 
ATOM     59  C   UNL A   1      42.653  21.499  25.984  1.00  0.00     0.200 A 
ATOM     60  F   UNL A   1      43.318  22.716  24.073  1.00  0.00    -0.200 F 
ATOM     61  F   UNL A   1      42.636  20.363  25.275  1.00  0.00    -0.200 F 
ENDBRANCH  27  51
BRANCH  39  62
ATOM     62  C   UNL A   1      47.762  26.732  31.380  1.00  0.00     0.064 A 
ATOM     63  C   UNL A   1      48.828  27.087  30.539  1.00  0.00     0.173 A 
ATOM     64  C   UNL A   1      48.036  25.911  32.481  1.00  0.00     0.173 A 
ATOM     65  F   UNL A   1      48.614  27.866  29.467  1.00  0.00    -0.203 F 
ATOM     66  C   UNL A   1      50.115  26.618  30.779  1.00  0.00     0.198 A 
ATOM     67  C   UNL A   1      49.331  25.465  32.734  1.00  0.00     0.198 A 
ATOM     68  F   UNL A   1      47.053  25.557  33.321  1.00  0.00    -0.203 F 
ATOM     69  F   UNL A   1      51.111  26.939  29.942  1.00  0.00    -0.200 F 
ATOM     70  C   UNL A   1      50.367  25.810  31.878  1.00  0.00     0.200 A 
ATOM     71  F   UNL A   1      49.576  24.704  33.809  1.00  0.00    -0.200 F 
ATOM     72  F   UNL A   1      51.608  25.362  32.112  1.00  0.00    -0.200 F 
ENDBRANCH  39  62
ENDBRANCH  13  14
ENDBRANCH   6   8
ENDBRANCH   3   4
ENDBRANCH   2   3
ENDBRANCH   1   2
BRANCH   1  73
ATOM     73  C   UNL A   1      33.076  26.955  23.198  1.00  0.00     0.002 C 
BRANCH  73  74
ATOM     74  C   UNL A   1      33.358  25.912  22.113  1.00  0.00     0.021 C 
BRANCH  74  75
ATOM     75  C   UNL A   1      34.039  24.636  22.597  1.00  0.00     0.116 C 
BRANCH  75  76
ATOM     76  N   UNL A   1      33.270  23.446  22.284  1.00  0.00    -0.352 N 
ATOM     77  C   UNL A   1      32.344  22.781  23.051  1.00  0.00     0.253 C 
ATOM     78  H   UNL A   1      33.434  23.059  21.393  1.00  0.00     0.163 HD
ATOM     79  O   UNL A   1      31.822  21.756  22.619  1.00  0.00    -0.269 OA
BRANCH  77  80
ATOM     80  C   UNL A   1      31.971  23.330  24.371  1.00  0.00     0.066 A 
ATOM     81  C   UNL A   1      30.873  24.206  24.412  1.00  0.00     0.055 A 
ATOM     82  C   UNL A   1      32.625  22.943  25.557  1.00  0.00     0.054 A 
ATOM     83  C   UNL A   1      30.478  24.761  25.620  1.00  0.00     0.124 A 
ATOM     84  C   UNL A   1      32.190  23.529  26.765  1.00  0.00     0.030 A 
ATOM     85  F   UNL A   1      29.452  25.619  25.646  1.00  0.00    -0.207 F 
ATOM     86  C   UNL A   1      31.135  24.442  26.798  1.00  0.00     0.041 A 
BRANCH  82  87
ATOM     87  N   UNL A   1      33.654  21.989  25.629  1.00  0.00    -0.341 N 
ATOM     88  C   UNL A   1      33.282  20.581  25.790  1.00  0.00     0.123 C 
ATOM     89  C   UNL A   1      35.041  22.263  25.595  1.00  0.00     0.044 A 
ATOM     90  C   UNL A   1      34.027  19.742  24.758  1.00  0.00     0.027 C 
ATOM     91  C   UNL A   1      35.976  21.263  25.260  1.00  0.00    -0.024 A 
ATOM     92  C   UNL A   1      35.527  23.549  25.894  1.00  0.00     0.026 A 
ATOM     93  C   UNL A   1      35.532  19.851  24.979  1.00  0.00     0.039 C 
ATOM     94  C   UNL A   1      37.348  21.564  25.225  1.00  0.00     0.006 A 
ATOM     95  C   UNL A   1      36.892  23.840  25.861  1.00  0.00     0.002 A 
ATOM     96  C   UNL A   1      37.802  22.848  25.520  1.00  0.00     0.000 A 
ENDBRANCH  82  87
ENDBRANCH  77  80
ENDBRANCH  75  76
ENDBRANCH  74  75
ENDBRANCH  73  74
ENDBRANCH   1  73
TORSDOF 14
ENDMDL
MODEL 2
REMARK VINA RESULT:     -11.9      3.346      8.512
REMARK SMILES O=C(NCCCCCCNC(=O)c1cc(F)ccc1N1CCCc2ccccc21)c1ccc(-c2c3nc(c(-c4c(F)c(F)c(F)c(F)c4F)c4ccc([nH]4)c(-c4c(F)c(F)c(F)c(F)c4F)c4nc(c(-c5c(F)c(F)c(F)c(F)c5F)c5ccc2[nH]5)C=C4)C=C3)cc1
REMARK SMILES IDX 6 1 5 2 4 3 3 4 1 5 2 6 30 8 31 9 92 10 32 11 91 12 33 13
REMARK SMILES IDX 34 14 35 15 85 16 36 17 90 18 84 19 86 20 37 21 89 22 83 23
REMARK SMILES IDX 82 24 38 26 70 27 50 28 69 29 51 30 54 31 68 32 87 33 52 34
REMARK SMILES IDX 53 35 67 37 88 38 55 39 39 40 40 41 48 42 41 43 42 44 46 45
REMARK SMILES IDX 49 46 43 47 44 48 47 49 45 50 71 51 72 52 80 53 73 54 74 55
REMARK SMILES IDX 78 56 81 57 75 58 76 59 79 60 77 61 56 62 57 63 65 64 58 65
REMARK SMILES IDX 59 66 63 67 66 68 60 69 61 70 64 71 62 72 7 73 8 74 9 75
REMARK SMILES IDX 10 76 11 77 12 79 13 80 14 81 19 82 15 83 18 84 16 85 17 86
REMARK SMILES IDX 20 87 21 88 29 89 22 90 24 91 28 92 23 93 25 94 27 95 26 96
REMARK H PARENT 3 7 86 25 54 36 10 78
REMARK Flexibility Score: inf
ROOT
ATOM      1  C   UNL A   1      31.384  30.893  25.987  1.00  0.00     0.002 C 
ENDROOT
BRANCH   1   2
ATOM      2  C   UNL A   1      31.310  32.334  26.491  1.00  0.00     0.021 C 
BRANCH   2   3
ATOM      3  C   UNL A   1      32.572  32.847  27.172  1.00  0.00     0.116 C 
BRANCH   3   4
ATOM      4  N   UNL A   1      32.434  34.210  27.657  1.00  0.00    -0.352 N 
ATOM      5  O   UNL A   1      32.763  35.962  29.042  1.00  0.00    -0.269 OA
ATOM      6  C   UNL A   1      33.117  34.847  28.662  1.00  0.00     0.251 C 
ATOM      7  H   UNL A   1      31.753  34.754  27.199  1.00  0.00     0.163 HD
BRANCH   6   8
ATOM      8  C   UNL A   1      34.267  34.182  29.309  1.00  0.00     0.039 A 
ATOM      9  C   UNL A   1      35.577  34.481  28.925  1.00  0.00     0.014 A 
ATOM     10  C   UNL A   1      34.029  33.253  30.326  1.00  0.00     0.014 A 
ATOM     11  C   UNL A   1      36.637  33.758  29.461  1.00  0.00     0.010 A 
ATOM     12  C   UNL A   1      35.102  32.585  30.921  1.00  0.00     0.010 A 
ATOM     13  C   UNL A   1      36.413  32.813  30.475  1.00  0.00    -0.014 A 
BRANCH  13  14
ATOM     14  C   UNL A   1      37.566  32.120  31.100  1.00  0.00     0.031 A 
ATOM     15  C   UNL A   1      38.330  31.061  30.360  1.00  0.00     0.074 A 
ATOM     16  C   UNL A   1      37.930  32.469  32.350  1.00  0.00     0.049 A 
ATOM     17  N   UNL A   1      39.349  30.346  30.764  1.00  0.00    -0.248 NA
ATOM     18  C   UNL A   1      37.893  30.757  28.989  1.00  0.00     0.031 C 
ATOM     19  C   UNL A   1      37.261  33.484  33.164  1.00  0.00     0.029 A 
ATOM     20  N   UNL A   1      38.952  32.022  33.147  1.00  0.00    -0.354 N 
ATOM     21  C   UNL A   1      39.667  29.501  29.709  1.00  0.00     0.074 A 
ATOM     22  C   UNL A   1      38.715  29.772  28.653  1.00  0.00     0.031 C 
ATOM     23  C   UNL A   1      37.913  33.613  34.328  1.00  0.00     0.029 A 
ATOM     24  C   UNL A   1      39.004  32.646  34.368  1.00  0.00     0.049 A 
ATOM     25  H   UNL A   1      39.586  31.321  32.871  1.00  0.00     0.167 HD
ATOM     26  C   UNL A   1      40.667  28.591  29.631  1.00  0.00     0.037 A 
ATOM     27  C   UNL A   1      39.827  32.450  35.416  1.00  0.00     0.037 A 
ATOM     28  C   UNL A   1      41.618  28.339  30.684  1.00  0.00     0.049 A 
ATOM     29  C   UNL A   1      40.902  31.408  35.318  1.00  0.00     0.074 A 
ATOM     30  C   UNL A   1      42.686  27.458  30.685  1.00  0.00     0.029 A 
ATOM     31  N   UNL A   1      41.615  28.965  31.922  1.00  0.00    -0.354 N 
ATOM     32  N   UNL A   1      41.203  30.629  34.308  1.00  0.00    -0.248 NA
ATOM     33  C   UNL A   1      41.747  31.212  36.502  1.00  0.00     0.031 C 
ATOM     34  C   UNL A   1      43.298  27.514  31.940  1.00  0.00     0.029 A 
ATOM     35  C   UNL A   1      42.648  28.471  32.703  1.00  0.00     0.049 A 
ATOM     36  H   UNL A   1      40.974  29.657  32.204  1.00  0.00     0.167 HD
ATOM     37  C   UNL A   1      42.278  29.861  34.726  1.00  0.00     0.074 A 
ATOM     38  C   UNL A   1      42.589  30.277  36.079  1.00  0.00     0.031 C 
ATOM     39  C   UNL A   1      42.947  28.897  34.047  1.00  0.00     0.037 A 
BRANCH  26  40
ATOM     40  C   UNL A   1      40.790  27.786  28.370  1.00  0.00     0.064 A 
ATOM     41  C   UNL A   1      40.170  26.531  28.264  1.00  0.00     0.173 A 
ATOM     42  C   UNL A   1      41.586  28.215  27.298  1.00  0.00     0.173 A 
ATOM     43  F   UNL A   1      39.404  26.069  29.265  1.00  0.00    -0.203 F 
ATOM     44  C   UNL A   1      40.353  25.731  27.140  1.00  0.00     0.198 A 
ATOM     45  C   UNL A   1      41.745  27.424  26.162  1.00  0.00     0.198 A 
ATOM     46  F   UNL A   1      42.194  29.410  27.344  1.00  0.00    -0.203 F 
ATOM     47  F   UNL A   1      39.776  24.523  27.077  1.00  0.00    -0.200 F 
ATOM     48  C   UNL A   1      41.137  26.180  26.088  1.00  0.00     0.200 A 
ATOM     49  F   UNL A   1      42.486  27.868  25.137  1.00  0.00    -0.200 F 
ATOM     50  F   UNL A   1      41.306  25.413  25.002  1.00  0.00    -0.200 F 
ENDBRANCH  26  40
BRANCH  27  51
ATOM     51  C   UNL A   1      39.655  33.278  36.636  1.00  0.00     0.064 A 
ATOM     52  C   UNL A   1      38.757  32.905  37.649  1.00  0.00     0.173 A 
ATOM     53  C   UNL A   1      40.339  34.491  36.784  1.00  0.00     0.173 A 
ATOM     54  F   UNL A   1      38.072  31.757  37.548  1.00  0.00    -0.203 F 
ATOM     55  C   UNL A   1      38.528  33.729  38.747  1.00  0.00     0.198 A 
ATOM     56  C   UNL A   1      40.130  35.302  37.897  1.00  0.00     0.198 A 
ATOM     57  F   UNL A   1      41.220  34.881  35.851  1.00  0.00    -0.203 F 
ATOM     58  F   UNL A   1      37.630  33.372  39.675  1.00  0.00    -0.200 F 
ATOM     59  C   UNL A   1      39.217  34.927  38.872  1.00  0.00     0.200 A 
ATOM     60  F   UNL A   1      40.812  36.448  38.025  1.00  0.00    -0.200 F 
ATOM     61  F   UNL A   1      38.999  35.719  39.930  1.00  0.00    -0.200 F 
ENDBRANCH  27  51
BRANCH  39  62
ATOM     62  C   UNL A   1      44.099  28.232  34.741  1.00  0.00     0.064 A 
ATOM     63  C   UNL A   1      43.891  27.080  35.515  1.00  0.00     0.173 A 
ATOM     64  C   UNL A   1      45.390  28.779  34.708  1.00  0.00     0.173 A 
ATOM     65  F   UNL A   1      42.671  26.524  35.584  1.00  0.00    -0.203 F 
ATOM     66  C   UNL A   1      44.928  26.511  36.246  1.00  0.00     0.198 A 
ATOM     67  C   UNL A   1      46.432  28.191  35.419  1.00  0.00     0.198 A 
ATOM     68  F   UNL A   1      45.642  29.870  33.971  1.00  0.00    -0.203 F 
ATOM     69  F   UNL A   1      44.697  25.434  37.007  1.00  0.00    -0.200 F 
ATOM     70  C   UNL A   1      46.199  27.065  36.196  1.00  0.00     0.200 A 
ATOM     71  F   UNL A   1      47.664  28.713  35.350  1.00  0.00    -0.200 F 
ATOM     72  F   UNL A   1      47.199  26.513  36.895  1.00  0.00    -0.200 F 
ENDBRANCH  39  62
ENDBRANCH  13  14
ENDBRANCH   6   8
ENDBRANCH   3   4
ENDBRANCH   2   3
ENDBRANCH   1   2
BRANCH   1  73
ATOM     73  C   UNL A   1      32.362  29.979  26.731  1.00  0.00     0.002 C 
BRANCH  73  74
ATOM     74  C   UNL A   1      31.780  28.663  27.256  1.00  0.00     0.021 C 
BRANCH  74  75
ATOM     75  C   UNL A   1      32.555  27.407  26.870  1.00  0.00     0.116 C 
BRANCH  75  76
ATOM     76  N   UNL A   1      31.751  26.204  26.987  1.00  0.00    -0.352 N 
ATOM     77  C   UNL A   1      31.040  25.535  26.021  1.00  0.00     0.253 C 
ATOM     78  H   UNL A   1      31.710  25.811  27.889  1.00  0.00     0.163 HD
ATOM     79  O   UNL A   1      30.382  24.545  26.330  1.00  0.00    -0.269 OA
BRANCH  77  80
ATOM     80  C   UNL A   1      31.105  26.002  24.621  1.00  0.00     0.066 A 
ATOM     81  C   UNL A   1      30.183  26.988  24.231  1.00  0.00     0.055 A 
ATOM     82  C   UNL A   1      32.093  25.550  23.725  1.00  0.00     0.054 A 
ATOM     83  C   UNL A   1      30.189  27.462  22.928  1.00  0.00     0.124 A 
ATOM     84  C   UNL A   1      32.066  26.060  22.409  1.00  0.00     0.030 A 
ATOM     85  F   UNL A   1      29.285  28.376  22.556  1.00  0.00    -0.207 F 
ATOM     86  C   UNL A   1      31.114  26.998  22.007  1.00  0.00     0.041 A 
BRANCH  82  87
ATOM     87  N   UNL A   1      33.125  24.656  24.056  1.00  0.00    -0.341 N 
ATOM     88  C   UNL A   1      34.415  25.212  24.473  1.00  0.00     0.123 C 
ATOM     89  C   UNL A   1      33.050  23.244  23.991  1.00  0.00     0.044 A 
ATOM     90  C   UNL A   1      34.862  24.535  25.764  1.00  0.00     0.027 C 
ATOM     91  C   UNL A   1      33.948  22.432  24.713  1.00  0.00    -0.024 A 
ATOM     92  C   UNL A   1      32.071  22.612  23.204  1.00  0.00     0.026 A 
ATOM     93  C   UNL A   1      35.055  23.040  25.535  1.00  0.00     0.039 C 
ATOM     94  C   UNL A   1      33.847  21.032  24.639  1.00  0.00     0.006 A 
ATOM     95  C   UNL A   1      31.979  21.221  23.132  1.00  0.00     0.002 A 
ATOM     96  C   UNL A   1      32.864  20.431  23.856  1.00  0.00     0.000 A 
ENDBRANCH  82  87
ENDBRANCH  77  80
ENDBRANCH  75  76
ENDBRANCH  74  75
ENDBRANCH  73  74
ENDBRANCH   1  73
TORSDOF 14
ENDMDL
MODEL 3
REMARK VINA RESULT:     -11.9      3.240      8.662
REMARK SMILES O=C(NCCCCCCNC(=O)c1cc(F)ccc1N1CCCc2ccccc21)c1ccc(-c2c3nc(c(-c4c(F)c(F)c(F)c(F)c4F)c4ccc([nH]4)c(-c4c(F)c(F)c(F)c(F)c4F)c4nc(c(-c5c(F)c(F)c(F)c(F)c5F)c5ccc2[nH]5)C=C4)C=C3)cc1
REMARK SMILES IDX 6 1 5 2 4 3 3 4 1 5 2 6 30 8 31 9 92 10 32 11 91 12 33 13
REMARK SMILES IDX 34 14 35 15 85 16 36 17 90 18 84 19 86 20 37 21 89 22 83 23
REMARK SMILES IDX 82 24 38 26 70 27 50 28 69 29 51 30 54 31 68 32 87 33 52 34
REMARK SMILES IDX 53 35 67 37 88 38 55 39 39 40 40 41 48 42 41 43 42 44 46 45
REMARK SMILES IDX 49 46 43 47 44 48 47 49 45 50 71 51 72 52 80 53 73 54 74 55
REMARK SMILES IDX 78 56 81 57 75 58 76 59 79 60 77 61 56 62 57 63 65 64 58 65
REMARK SMILES IDX 59 66 63 67 66 68 60 69 61 70 64 71 62 72 7 73 8 74 9 75
REMARK SMILES IDX 10 76 11 77 12 79 13 80 14 81 19 82 15 83 18 84 16 85 17 86
REMARK SMILES IDX 20 87 21 88 29 89 22 90 24 91 28 92 23 93 25 94 27 95 26 96
REMARK H PARENT 3 7 86 25 54 36 10 78
REMARK Flexibility Score: inf
ROOT
ATOM      1  C   UNL A   1      34.229  24.308  25.830  1.00  0.00     0.002 C 
ENDROOT
BRANCH   1   2
ATOM      2  C   UNL A   1      35.247  23.601  24.935  1.00  0.00     0.021 C 
BRANCH   2   3
ATOM      3  C   UNL A   1      36.694  24.032  25.136  1.00  0.00     0.116 C 
BRANCH   3   4
ATOM      4  N   UNL A   1      37.571  22.919  25.459  1.00  0.00    -0.352 N 
ATOM      5  O   UNL A   1      39.458  21.905  26.173  1.00  0.00    -0.269 OA
ATOM      6  C   UNL A   1      38.774  22.925  26.120  1.00  0.00     0.251 C 
ATOM      7  H   UNL A   1      37.258  22.034  25.162  1.00  0.00     0.163 HD
BRANCH   6   8
ATOM      8  C   UNL A   1      39.263  24.170  26.749  1.00  0.00     0.039 A 
ATOM      9  C   UNL A   1      39.031  24.428  28.103  1.00  0.00     0.014 A 
ATOM     10  C   UNL A   1      39.977  25.088  25.972  1.00  0.00     0.014 A 
ATOM     11  C   UNL A   1      39.394  25.656  28.645  1.00  0.00     0.010 A 
ATOM     12  C   UNL A   1      40.412  26.288  26.541  1.00  0.00     0.010 A 
ATOM     13  C   UNL A   1      40.101  26.593  27.875  1.00  0.00    -0.014 A 
BRANCH  13  14
ATOM     14  C   UNL A   1      40.562  27.857  28.499  1.00  0.00     0.031 A 
ATOM     15  C   UNL A   1      42.009  28.072  28.839  1.00  0.00     0.074 A 
ATOM     16  C   UNL A   1      39.658  28.824  28.746  1.00  0.00     0.049 A 
ATOM     17  N   UNL A   1      42.577  29.108  29.402  1.00  0.00    -0.248 NA
ATOM     18  C   UNL A   1      42.942  26.984  28.510  1.00  0.00     0.031 C 
ATOM     19  C   UNL A   1      38.226  28.725  28.458  1.00  0.00     0.029 A 
ATOM     20  N   UNL A   1      39.803  30.078  29.281  1.00  0.00    -0.354 N 
ATOM     21  C   UNL A   1      43.925  28.794  29.509  1.00  0.00     0.074 A 
ATOM     22  C   UNL A   1      44.089  27.459  28.976  1.00  0.00     0.031 C 
ATOM     23  C   UNL A   1      37.632  29.882  28.780  1.00  0.00     0.029 A 
ATOM     24  C   UNL A   1      38.627  30.780  29.356  1.00  0.00     0.049 A 
ATOM     25  H   UNL A   1      40.669  30.439  29.582  1.00  0.00     0.167 HD
ATOM     26  C   UNL A   1      44.931  29.558  30.000  1.00  0.00     0.037 A 
ATOM     27  C   UNL A   1      38.369  32.006  29.852  1.00  0.00     0.037 A 
ATOM     28  C   UNL A   1      44.759  30.892  30.516  1.00  0.00     0.049 A 
ATOM     29  C   UNL A   1      39.495  32.814  30.426  1.00  0.00     0.074 A 
ATOM     30  C   UNL A   1      45.723  31.755  31.006  1.00  0.00     0.029 A 
ATOM     31  N   UNL A   1      43.544  31.556  30.610  1.00  0.00    -0.354 N 
ATOM     32  N   UNL A   1      40.768  32.513  30.504  1.00  0.00    -0.248 NA
ATOM     33  C   UNL A   1      39.152  34.128  30.985  1.00  0.00     0.031 C 
ATOM     34  C   UNL A   1      45.087  32.920  31.443  1.00  0.00     0.029 A 
ATOM     35  C   UNL A   1      43.732  32.808  31.174  1.00  0.00     0.049 A 
ATOM     36  H   UNL A   1      42.677  31.191  30.320  1.00  0.00     0.167 HD
ATOM     37  C   UNL A   1      41.381  33.601  31.106  1.00  0.00     0.074 A 
ATOM     38  C   UNL A   1      40.343  34.578  31.360  1.00  0.00     0.031 C 
ATOM     39  C   UNL A   1      42.689  33.772  31.419  1.00  0.00     0.037 A 
BRANCH  26  40
ATOM     40  C   UNL A   1      46.314  28.975  30.016  1.00  0.00     0.064 A 
ATOM     41  C   UNL A   1      47.146  29.085  28.891  1.00  0.00     0.173 A 
ATOM     42  C   UNL A   1      46.790  28.240  31.112  1.00  0.00     0.173 A 
ATOM     43  F   UNL A   1      46.737  29.771  27.813  1.00  0.00    -0.203 F 
ATOM     44  C   UNL A   1      48.395  28.470  28.857  1.00  0.00     0.198 A 
ATOM     45  C   UNL A   1      48.050  27.648  31.086  1.00  0.00     0.198 A 
ATOM     46  F   UNL A   1      46.038  28.111  32.216  1.00  0.00    -0.203 F 
ATOM     47  F   UNL A   1      49.156  28.562  27.758  1.00  0.00    -0.200 F 
ATOM     48  C   UNL A   1      48.847  27.755  29.956  1.00  0.00     0.200 A 
ATOM     49  F   UNL A   1      48.495  26.974  32.156  1.00  0.00    -0.200 F 
ATOM     50  F   UNL A   1      50.052  27.169  29.925  1.00  0.00    -0.200 F 
ENDBRANCH  26  40
BRANCH  27  51
ATOM     51  C   UNL A   1      36.980  32.527  29.808  1.00  0.00     0.064 A 
ATOM     52  C   UNL A   1      36.505  33.242  28.697  1.00  0.00     0.173 A 
ATOM     53  C   UNL A   1      36.121  32.374  30.903  1.00  0.00     0.173 A 
ATOM     54  F   UNL A   1      37.294  33.422  27.628  1.00  0.00    -0.203 F 
ATOM     55  C   UNL A   1      35.234  33.810  28.698  1.00  0.00     0.198 A 
ATOM     56  C   UNL A   1      34.839  32.919  30.891  1.00  0.00     0.198 A 
ATOM     57  F   UNL A   1      36.525  31.684  31.979  1.00  0.00    -0.203 F 
ATOM     58  F   UNL A   1      34.823  34.529  27.644  1.00  0.00    -0.200 F 
ATOM     59  C   UNL A   1      34.400  33.646  29.794  1.00  0.00     0.200 A 
ATOM     60  F   UNL A   1      34.029  32.742  31.943  1.00  0.00    -0.200 F 
ATOM     61  F   UNL A   1      33.176  34.191  29.793  1.00  0.00    -0.200 F 
ENDBRANCH  27  51
BRANCH  39  62
ATOM     62  C   UNL A   1      43.086  35.071  32.054  1.00  0.00     0.064 A 
ATOM     63  C   UNL A   1      42.938  35.258  33.438  1.00  0.00     0.173 A 
ATOM     64  C   UNL A   1      43.534  36.156  31.287  1.00  0.00     0.173 A 
ATOM     65  F   UNL A   1      42.506  34.251  34.212  1.00  0.00    -0.203 F 
ATOM     66  C   UNL A   1      43.206  36.489  34.026  1.00  0.00     0.198 A 
ATOM     67  C   UNL A   1      43.827  37.379  31.884  1.00  0.00     0.198 A 
ATOM     68  F   UNL A   1      43.706  36.022  29.964  1.00  0.00    -0.203 F 
ATOM     69  F   UNL A   1      43.022  36.655  35.343  1.00  0.00    -0.200 F 
ATOM     70  C   UNL A   1      43.652  37.548  33.250  1.00  0.00     0.200 A 
ATOM     71  F   UNL A   1      44.281  38.394  31.137  1.00  0.00    -0.200 F 
ATOM     72  F   UNL A   1      43.915  38.732  33.819  1.00  0.00    -0.200 F 
ENDBRANCH  39  62
ENDBRANCH  13  14
ENDBRANCH   6   8
ENDBRANCH   3   4
ENDBRANCH   2   3
ENDBRANCH   1   2
BRANCH   1  73
ATOM     73  C   UNL A   1      33.345  23.392  26.682  1.00  0.00     0.002 C 
BRANCH  73  74
ATOM     74  C   UNL A   1      31.878  23.811  26.813  1.00  0.00     0.021 C 
BRANCH  74  75
ATOM     75  C   UNL A   1      31.616  25.311  26.714  1.00  0.00     0.116 C 
BRANCH  75  76
ATOM     76  N   UNL A   1      30.420  25.613  25.949  1.00  0.00    -0.352 N 
ATOM     77  C   UNL A   1      30.279  25.821  24.599  1.00  0.00     0.253 C 
ATOM     78  H   UNL A   1      29.590  25.679  26.474  1.00  0.00     0.163 HD
ATOM     79  O   UNL A   1      29.175  26.107  24.141  1.00  0.00    -0.269 OA
BRANCH  77  80
ATOM     80  C   UNL A   1      31.454  25.664  23.717  1.00  0.00     0.066 A 
ATOM     81  C   UNL A   1      31.648  24.403  23.128  1.00  0.00     0.055 A 
ATOM     82  C   UNL A   1      32.308  26.739  23.406  1.00  0.00     0.054 A 
ATOM     83  C   UNL A   1      32.737  24.190  22.297  1.00  0.00     0.124 A 
ATOM     84  C   UNL A   1      33.402  26.481  22.554  1.00  0.00     0.030 A 
ATOM     85  F   UNL A   1      32.933  22.977  21.766  1.00  0.00    -0.207 F 
ATOM     86  C   UNL A   1      33.627  25.214  22.013  1.00  0.00     0.041 A 
BRANCH  82  87
ATOM     87  N   UNL A   1      32.128  28.060  23.853  1.00  0.00    -0.341 N 
ATOM     88  C   UNL A   1      31.310  28.961  23.037  1.00  0.00     0.123 C 
ATOM     89  C   UNL A   1      32.698  28.624  25.019  1.00  0.00     0.044 A 
ATOM     90  C   UNL A   1      30.281  29.651  23.926  1.00  0.00     0.027 C 
ATOM     91  C   UNL A   1      32.156  29.783  25.609  1.00  0.00    -0.024 A 
ATOM     92  C   UNL A   1      33.824  28.038  25.624  1.00  0.00     0.026 A 
ATOM     93  C   UNL A   1      30.983  30.494  24.986  1.00  0.00     0.039 C 
ATOM     94  C   UNL A   1      32.736  30.319  26.772  1.00  0.00     0.006 A 
ATOM     95  C   UNL A   1      34.397  28.577  26.777  1.00  0.00     0.002 A 
ATOM     96  C   UNL A   1      33.848  29.715  27.355  1.00  0.00     0.000 A 
ENDBRANCH  82  87
ENDBRANCH  77  80
ENDBRANCH  75  76
ENDBRANCH  74  75
ENDBRANCH  73  74
ENDBRANCH   1  73
TORSDOF 14
ENDMDL
