MODEL 1
REMARK VINA RESULT:     -12.7      0.000      0.000
REMARK SMILES CC(C)[C@@H](ON1C(=O)c2ccccc2C1=O)C(=O)NCCCCCCNC(=O)c1ccc(-c2c3nc(c(-c4c(F)c(F)c(F)c(F)c4F)c4ccc([nH]4)c(-c4c(F)c(F)c(F)c(F)c4F)c4nc(c(-c5c(F)c(F)c(F)c(F)c5F)c5ccc2[nH]5)C=C4)C=C3)cc1
REMARK SMILES IDX 22 1 21 2 20 3 19 4 17 5 18 6 4 8 2 9 1 10 3 11 5 12 6 13
REMARK SMILES IDX 7 14 15 15 8 16 9 17 14 18 16 19 10 20 13 21 11 22 12 23
REMARK SMILES IDX 23 24 24 25 25 26 26 27 27 28 28 30 29 31 30 32 91 33 31 34
REMARK SMILES IDX 90 35 32 36 33 37 34 38 84 39 35 40 89 41 83 42 85 43 36 44
REMARK SMILES IDX 88 45 82 46 81 47 37 49 69 50 49 51 68 52 50 53 53 54 67 55
REMARK SMILES IDX 86 56 51 57 52 58 66 60 87 61 54 62 38 63 39 64 47 65 40 66
REMARK SMILES IDX 41 67 45 68 48 69 42 70 43 71 46 72 44 73 70 74 71 75 79 76
REMARK SMILES IDX 72 77 73 78 77 79 80 80 74 81 75 82 78 83 76 84 55 85 56 86
REMARK SMILES IDX 64 87 57 88 58 89 62 90 65 91 59 92 60 93 63 94 61 95
REMARK H PARENT 19 7 26 29 85 48 53 59
REMARK Flexibility Score: inf
ROOT
ATOM      1  C   UNL A   1      32.752  29.932  26.849  1.00  0.00     0.002 C 
ENDROOT
BRANCH   1   2
ATOM      2  C   UNL A   1      32.271  28.615  27.467  1.00  0.00     0.021 C 
BRANCH   2   3
ATOM      3  C   UNL A   1      32.348  27.416  26.518  1.00  0.00     0.116 C 
BRANCH   3   4
ATOM      4  N   UNL A   1      31.310  26.450  26.829  1.00  0.00    -0.354 N 
ATOM      5  C   UNL A   1      30.835  25.401  26.093  1.00  0.00     0.252 C 
ATOM      6  O   UNL A   1      29.887  24.763  26.562  1.00  0.00    -0.272 OA
ATOM      7  H   UNL A   1      30.881  26.569  27.706  1.00  0.00     0.163 HD
BRANCH   5   8
ATOM      8  C   UNL A   1      31.445  25.032  24.723  1.00  0.00     0.241 C 
BRANCH   8   9
ATOM      9  C   UNL A   1      32.125  23.633  24.768  1.00  0.00     0.024 C 
ATOM     10  C   UNL A   1      32.689  23.123  23.442  1.00  0.00     0.011 C 
ATOM     11  C   UNL A   1      33.248  23.624  25.813  1.00  0.00     0.011 C 
ENDBRANCH   8   9
BRANCH   8  12
ATOM     12  O   UNL A   1      30.329  25.190  23.833  1.00  0.00    -0.249 OA
BRANCH  12  13
ATOM     13  N   UNL A   1      30.019  26.506  23.502  1.00  0.00    -0.144 N 
ATOM     14  C   UNL A   1      28.737  26.928  23.707  1.00  0.00     0.285 C 
ATOM     15  C   UNL A   1      30.820  27.452  22.946  1.00  0.00     0.285 C 
ATOM     16  O   UNL A   1      27.776  26.352  24.187  1.00  0.00    -0.266 OA
ATOM     17  C   UNL A   1      28.677  28.277  23.147  1.00  0.00     0.055 A 
ATOM     18  C   UNL A   1      29.934  28.578  22.652  1.00  0.00     0.055 A 
ATOM     19  O   UNL A   1      31.997  27.446  22.655  1.00  0.00    -0.266 OA
ATOM     20  C   UNL A   1      27.603  29.128  22.984  1.00  0.00     0.015 A 
ATOM     21  C   UNL A   1      30.178  29.727  21.926  1.00  0.00     0.015 A 
ATOM     22  C   UNL A   1      27.828  30.304  22.263  1.00  0.00     0.001 A 
ATOM     23  C   UNL A   1      29.101  30.595  21.727  1.00  0.00     0.001 A 
ENDBRANCH  12  13
ENDBRANCH   8  12
ENDBRANCH   5   8
ENDBRANCH   3   4
ENDBRANCH   2   3
ENDBRANCH   1   2
BRANCH   1  24
ATOM     24  C   UNL A   1      31.681  30.710  26.080  1.00  0.00     0.002 C 
BRANCH  24  25
ATOM     25  C   UNL A   1      31.398  32.115  26.615  1.00  0.00     0.021 C 
BRANCH  25  26
ATOM     26  C   UNL A   1      32.561  32.752  27.371  1.00  0.00     0.116 C 
BRANCH  26  27
ATOM     27  N   UNL A   1      32.341  34.168  27.618  1.00  0.00    -0.352 N 
ATOM     28  C   UNL A   1      32.941  35.000  28.530  1.00  0.00     0.251 C 
ATOM     29  H   UNL A   1      31.662  34.593  27.047  1.00  0.00     0.163 HD
ATOM     30  O   UNL A   1      32.481  36.117  28.746  1.00  0.00    -0.269 OA
BRANCH  28  31
ATOM     31  C   UNL A   1      34.131  34.539  29.274  1.00  0.00     0.039 A 
ATOM     32  C   UNL A   1      33.966  34.035  30.566  1.00  0.00     0.014 A 
ATOM     33  C   UNL A   1      35.404  34.600  28.700  1.00  0.00     0.014 A 
ATOM     34  C   UNL A   1      35.066  33.519  31.252  1.00  0.00     0.010 A 
ATOM     35  C   UNL A   1      36.488  34.021  29.355  1.00  0.00     0.010 A 
ATOM     36  C   UNL A   1      36.326  33.463  30.633  1.00  0.00    -0.014 A 
BRANCH  36  37
ATOM     37  C   UNL A   1      37.470  32.777  31.286  1.00  0.00     0.031 A 
ATOM     38  C   UNL A   1      38.144  31.610  30.624  1.00  0.00     0.074 A 
ATOM     39  C   UNL A   1      37.852  33.168  32.518  1.00  0.00     0.049 A 
ATOM     40  N   UNL A   1      39.112  30.850  31.073  1.00  0.00    -0.248 NA
ATOM     41  C   UNL A   1      37.650  31.230  29.292  1.00  0.00     0.031 C 
ATOM     42  C   UNL A   1      37.243  34.256  33.284  1.00  0.00     0.029 A 
ATOM     43  N   UNL A   1      38.834  32.688  33.349  1.00  0.00    -0.354 N 
ATOM     44  C   UNL A   1      39.338  29.903  30.085  1.00  0.00     0.074 A 
ATOM     45  C   UNL A   1      38.373  30.149  29.035  1.00  0.00     0.031 C 
ATOM     46  C   UNL A   1      37.876  34.376  34.461  1.00  0.00     0.029 A 
ATOM     47  C   UNL A   1      38.904  33.343  34.554  1.00  0.00     0.049 A 
ATOM     48  H   UNL A   1      39.431  31.945  33.104  1.00  0.00     0.167 HD
ATOM     49  C   UNL A   1      40.280  28.930  30.049  1.00  0.00     0.037 A 
ATOM     50  C   UNL A   1      39.694  33.127  35.623  1.00  0.00     0.037 A 
ATOM     51  C   UNL A   1      41.244  28.698  31.094  1.00  0.00     0.049 A 
ATOM     52  C   UNL A   1      40.707  32.016  35.571  1.00  0.00     0.074 A 
ATOM     53  C   UNL A   1      42.284  27.784  31.120  1.00  0.00     0.029 A 
ATOM     54  N   UNL A   1      41.280  29.377  32.304  1.00  0.00    -0.354 N 
ATOM     55  N   UNL A   1      40.969  31.181  34.595  1.00  0.00    -0.248 NA
ATOM     56  C   UNL A   1      41.534  31.818  36.770  1.00  0.00     0.031 C 
ATOM     57  C   UNL A   1      42.906  27.864  32.370  1.00  0.00     0.029 A 
ATOM     58  C   UNL A   1      42.296  28.870  33.101  1.00  0.00     0.049 A 
ATOM     59  H   UNL A   1      40.673  30.109  32.558  1.00  0.00     0.167 HD
ATOM     60  C   UNL A   1      41.998  30.369  35.055  1.00  0.00     0.074 A 
ATOM     61  C   UNL A   1      42.331  30.831  36.386  1.00  0.00     0.031 C 
ATOM     62  C   UNL A   1      42.609  29.332  34.430  1.00  0.00     0.037 A 
BRANCH  49  63
ATOM     63  C   UNL A   1      40.312  28.033  28.844  1.00  0.00     0.064 A 
ATOM     64  C   UNL A   1      41.052  28.363  27.698  1.00  0.00     0.173 A 
ATOM     65  C   UNL A   1      39.632  26.805  28.852  1.00  0.00     0.173 A 
ATOM     66  F   UNL A   1      41.716  29.527  27.634  1.00  0.00    -0.203 F 
ATOM     67  C   UNL A   1      41.084  27.513  26.595  1.00  0.00     0.198 A 
ATOM     68  C   UNL A   1      39.693  25.943  27.760  1.00  0.00     0.198 A 
ATOM     69  F   UNL A   1      38.915  26.436  29.924  1.00  0.00    -0.203 F 
ATOM     70  F   UNL A   1      41.757  27.873  25.493  1.00  0.00    -0.200 F 
ATOM     71  C   UNL A   1      40.412  26.301  26.630  1.00  0.00     0.200 A 
ATOM     72  F   UNL A   1      39.056  24.764  27.803  1.00  0.00    -0.200 F 
ATOM     73  F   UNL A   1      40.451  25.479  25.572  1.00  0.00    -0.200 F 
ENDBRANCH  49  63
BRANCH  50  74
ATOM     74  C   UNL A   1      39.557  33.982  36.831  1.00  0.00     0.064 A 
ATOM     75  C   UNL A   1      38.779  33.570  37.922  1.00  0.00     0.173 A 
ATOM     76  C   UNL A   1      40.197  35.228  36.920  1.00  0.00     0.173 A 
ATOM     77  F   UNL A   1      38.129  32.398  37.875  1.00  0.00    -0.203 F 
ATOM     78  C   UNL A   1      38.633  34.378  39.048  1.00  0.00     0.198 A 
ATOM     79  C   UNL A   1      40.076  36.020  38.059  1.00  0.00     0.198 A 
ATOM     80  F   UNL A   1      40.956  35.668  35.906  1.00  0.00    -0.203 F 
ATOM     81  F   UNL A   1      37.845  33.981  40.056  1.00  0.00    -0.200 F 
ATOM     82  C   UNL A   1      39.286  35.598  39.119  1.00  0.00     0.200 A 
ATOM     83  F   UNL A   1      40.722  37.191  38.130  1.00  0.00    -0.200 F 
ATOM     84  F   UNL A   1      39.150  36.373  40.204  1.00  0.00    -0.200 F 
ENDBRANCH  50  74
BRANCH  62  85
ATOM     85  C   UNL A   1      43.702  28.626  35.179  1.00  0.00     0.064 A 
ATOM     86  C   UNL A   1      43.430  27.537  36.020  1.00  0.00     0.173 A 
ATOM     87  C   UNL A   1      45.042  29.015  35.023  1.00  0.00     0.173 A 
ATOM     88  F   UNL A   1      42.164  27.136  36.218  1.00  0.00    -0.203 F 
ATOM     89  C   UNL A   1      44.455  26.878  36.694  1.00  0.00     0.198 A 
ATOM     90  C   UNL A   1      46.068  28.333  35.671  1.00  0.00     0.198 A 
ATOM     91  F   UNL A   1      45.358  30.046  34.226  1.00  0.00    -0.203 F 
ATOM     92  F   UNL A   1      44.165  25.871  37.530  1.00  0.00    -0.200 F 
ATOM     93  C   UNL A   1      45.773  27.270  36.512  1.00  0.00     0.200 A 
ATOM     94  F   UNL A   1      47.341  28.703  35.482  1.00  0.00    -0.200 F 
ATOM     95  F   UNL A   1      46.759  26.628  37.153  1.00  0.00    -0.200 F 
ENDBRANCH  62  85
ENDBRANCH  36  37
ENDBRANCH  28  31
ENDBRANCH  26  27
ENDBRANCH  25  26
ENDBRANCH  24  25
ENDBRANCH   1  24
TORSDOF 16
ENDMDL
MODEL 2
REMARK VINA RESULT:     -12.6      0.428      2.178
REMARK SMILES CC(C)[C@@H](ON1C(=O)c2ccccc2C1=O)C(=O)NCCCCCCNC(=O)c1ccc(-c2c3nc(c(-c4c(F)c(F)c(F)c(F)c4F)c4ccc([nH]4)c(-c4c(F)c(F)c(F)c(F)c4F)c4nc(c(-c5c(F)c(F)c(F)c(F)c5F)c5ccc2[nH]5)C=C4)C=C3)cc1
REMARK SMILES IDX 22 1 21 2 20 3 19 4 17 5 18 6 4 8 2 9 1 10 3 11 5 12 6 13
REMARK SMILES IDX 7 14 15 15 8 16 9 17 14 18 16 19 10 20 13 21 11 22 12 23
REMARK SMILES IDX 23 24 24 25 25 26 26 27 27 28 28 30 29 31 30 32 91 33 31 34
REMARK SMILES IDX 90 35 32 36 33 37 34 38 84 39 35 40 89 41 83 42 85 43 36 44
REMARK SMILES IDX 88 45 82 46 81 47 37 49 69 50 49 51 68 52 50 53 53 54 67 55
REMARK SMILES IDX 86 56 51 57 52 58 66 60 87 61 54 62 38 63 39 64 47 65 40 66
REMARK SMILES IDX 41 67 45 68 48 69 42 70 43 71 46 72 44 73 70 74 71 75 79 76
REMARK SMILES IDX 72 77 73 78 77 79 80 80 74 81 75 82 78 83 76 84 55 85 56 86
REMARK SMILES IDX 64 87 57 88 58 89 62 90 65 91 59 92 60 93 63 94 61 95
REMARK H PARENT 19 7 26 29 85 48 53 59
REMARK Flexibility Score: inf
ROOT
ATOM      1  C   UNL A   1      32.814  29.808  26.985  1.00  0.00     0.002 C 
ENDROOT
BRANCH   1   2
ATOM      2  C   UNL A   1      32.523  28.323  27.225  1.00  0.00     0.021 C 
BRANCH   2   3
ATOM      3  C   UNL A   1      31.163  27.859  26.695  1.00  0.00     0.116 C 
BRANCH   3   4
ATOM      4  N   UNL A   1      30.995  26.431  26.896  1.00  0.00    -0.354 N 
ATOM      5  C   UNL A   1      31.300  25.384  26.073  1.00  0.00     0.252 C 
ATOM      6  O   UNL A   1      30.990  24.252  26.459  1.00  0.00    -0.272 OA
ATOM      7  H   UNL A   1      30.600  26.178  27.761  1.00  0.00     0.163 HD
BRANCH   5   8
ATOM      8  C   UNL A   1      31.988  25.602  24.708  1.00  0.00     0.241 C 
BRANCH   8   9
ATOM      9  C   UNL A   1      33.260  24.716  24.572  1.00  0.00     0.024 C 
ATOM     10  C   UNL A   1      33.758  24.478  23.146  1.00  0.00     0.011 C 
ATOM     11  C   UNL A   1      34.409  25.308  25.399  1.00  0.00     0.011 C 
ENDBRANCH   8   9
BRANCH   8  12
ATOM     12  O   UNL A   1      30.920  25.362  23.779  1.00  0.00    -0.249 OA
BRANCH  12  13
ATOM     13  N   UNL A   1      30.220  26.497  23.378  1.00  0.00    -0.144 N 
ATOM     14  C   UNL A   1      30.894  27.435  22.649  1.00  0.00     0.285 C 
ATOM     15  C   UNL A   1      28.935  26.842  23.651  1.00  0.00     0.285 C 
ATOM     16  O   UNL A   1      32.038  27.446  22.230  1.00  0.00    -0.266 OA
ATOM     17  C   UNL A   1      29.964  28.553  22.499  1.00  0.00     0.055 A 
ATOM     18  C   UNL A   1      28.787  28.204  23.140  1.00  0.00     0.055 A 
ATOM     19  O   UNL A   1      28.047  26.257  24.233  1.00  0.00    -0.266 OA
ATOM     20  C   UNL A   1      30.155  29.803  21.948  1.00  0.00     0.015 A 
ATOM     21  C   UNL A   1      27.751  29.102  23.306  1.00  0.00     0.015 A 
ATOM     22  C   UNL A   1      29.115  30.727  22.092  1.00  0.00     0.001 A 
ATOM     23  C   UNL A   1      27.930  30.383  22.777  1.00  0.00     0.001 A 
ENDBRANCH  12  13
ENDBRANCH   8  12
ENDBRANCH   5   8
ENDBRANCH   3   4
ENDBRANCH   2   3
ENDBRANCH   1   2
BRANCH   1  24
ATOM     24  C   UNL A   1      31.754  30.546  26.164  1.00  0.00     0.002 C 
BRANCH  24  25
ATOM     25  C   UNL A   1      31.487  31.987  26.604  1.00  0.00     0.021 C 
BRANCH  25  26
ATOM     26  C   UNL A   1      32.663  32.662  27.306  1.00  0.00     0.116 C 
BRANCH  26  27
ATOM     27  N   UNL A   1      32.401  34.068  27.576  1.00  0.00    -0.352 N 
ATOM     28  C   UNL A   1      32.960  34.895  28.518  1.00  0.00     0.251 C 
ATOM     29  H   UNL A   1      31.724  34.487  26.998  1.00  0.00     0.163 HD
ATOM     30  O   UNL A   1      32.467  35.996  28.746  1.00  0.00    -0.269 OA
BRANCH  28  31
ATOM     31  C   UNL A   1      34.144  34.448  29.280  1.00  0.00     0.039 A 
ATOM     32  C   UNL A   1      33.959  33.873  30.538  1.00  0.00     0.014 A 
ATOM     33  C   UNL A   1      35.431  34.594  28.754  1.00  0.00     0.014 A 
ATOM     34  C   UNL A   1      35.059  33.370  31.236  1.00  0.00     0.010 A 
ATOM     35  C   UNL A   1      36.518  34.029  29.417  1.00  0.00     0.010 A 
ATOM     36  C   UNL A   1      36.340  33.400  30.659  1.00  0.00    -0.014 A 
BRANCH  36  37
ATOM     37  C   UNL A   1      37.491  32.732  31.317  1.00  0.00     0.031 A 
ATOM     38  C   UNL A   1      38.183  31.573  30.660  1.00  0.00     0.074 A 
ATOM     39  C   UNL A   1      37.864  33.131  32.549  1.00  0.00     0.049 A 
ATOM     40  N   UNL A   1      39.160  30.828  31.113  1.00  0.00    -0.248 NA
ATOM     41  C   UNL A   1      37.698  31.183  29.327  1.00  0.00     0.031 C 
ATOM     42  C   UNL A   1      37.238  34.212  33.311  1.00  0.00     0.029 A 
ATOM     43  N   UNL A   1      38.851  32.666  33.384  1.00  0.00    -0.354 N 
ATOM     44  C   UNL A   1      39.402  29.881  30.128  1.00  0.00     0.074 A 
ATOM     45  C   UNL A   1      38.436  30.111  29.075  1.00  0.00     0.031 C 
ATOM     46  C   UNL A   1      37.866  34.343  34.489  1.00  0.00     0.029 A 
ATOM     47  C   UNL A   1      38.908  33.326  34.587  1.00  0.00     0.049 A 
ATOM     48  H   UNL A   1      39.459  31.931  33.143  1.00  0.00     0.167 HD
ATOM     49  C   UNL A   1      40.357  28.921  30.097  1.00  0.00     0.037 A 
ATOM     50  C   UNL A   1      39.698  33.123  35.659  1.00  0.00     0.037 A 
ATOM     51  C   UNL A   1      41.322  28.705  31.145  1.00  0.00     0.049 A 
ATOM     52  C   UNL A   1      40.727  32.026  35.613  1.00  0.00     0.074 A 
ATOM     53  C   UNL A   1      42.374  27.806  31.176  1.00  0.00     0.029 A 
ATOM     54  N   UNL A   1      41.345  29.387  32.353  1.00  0.00    -0.354 N 
ATOM     55  N   UNL A   1      41.003  31.192  34.640  1.00  0.00    -0.248 NA
ATOM     56  C   UNL A   1      41.552  31.842  36.814  1.00  0.00     0.031 C 
ATOM     57  C   UNL A   1      42.992  27.897  32.428  1.00  0.00     0.029 A 
ATOM     58  C   UNL A   1      42.365  28.897  33.155  1.00  0.00     0.049 A 
ATOM     59  H   UNL A   1      40.727  30.111  32.604  1.00  0.00     0.167 HD
ATOM     60  C   UNL A   1      42.042  30.396  35.104  1.00  0.00     0.074 A 
ATOM     61  C   UNL A   1      42.365  30.865  36.435  1.00  0.00     0.031 C 
ATOM     62  C   UNL A   1      42.668  29.366  34.484  1.00  0.00     0.037 A 
BRANCH  49  63
ATOM     63  C   UNL A   1      40.405  28.022  28.895  1.00  0.00     0.064 A 
ATOM     64  C   UNL A   1      39.687  26.817  28.844  1.00  0.00     0.173 A 
ATOM     65  C   UNL A   1      41.142  28.392  27.758  1.00  0.00     0.173 A 
ATOM     66  F   UNL A   1      38.971  26.412  29.904  1.00  0.00    -0.203 F 
ATOM     67  C   UNL A   1      39.729  26.003  27.714  1.00  0.00     0.198 A 
ATOM     68  C   UNL A   1      41.155  27.591  26.619  1.00  0.00     0.198 A 
ATOM     69  F   UNL A   1      41.841  29.537  27.749  1.00  0.00    -0.203 F 
ATOM     70  F   UNL A   1      39.075  24.832  27.710  1.00  0.00    -0.200 F 
ATOM     71  C   UNL A   1      40.457  26.393  26.602  1.00  0.00     0.200 A 
ATOM     72  F   UNL A   1      41.846  27.979  25.538  1.00  0.00    -0.200 F 
ATOM     73  F   UNL A   1      40.489  25.614  25.512  1.00  0.00    -0.200 F 
ENDBRANCH  49  63
BRANCH  50  74
ATOM     74  C   UNL A   1      39.546  33.979  36.865  1.00  0.00     0.064 A 
ATOM     75  C   UNL A   1      40.187  35.222  36.953  1.00  0.00     0.173 A 
ATOM     76  C   UNL A   1      38.761  33.571  37.955  1.00  0.00     0.173 A 
ATOM     77  F   UNL A   1      40.966  35.645  35.947  1.00  0.00    -0.203 F 
ATOM     78  C   UNL A   1      40.062  36.018  38.090  1.00  0.00     0.198 A 
ATOM     79  C   UNL A   1      38.612  34.382  39.078  1.00  0.00     0.198 A 
ATOM     80  F   UNL A   1      38.124  32.392  37.921  1.00  0.00    -0.203 F 
ATOM     81  F   UNL A   1      40.724  37.180  38.167  1.00  0.00    -0.200 F 
ATOM     82  C   UNL A   1      39.270  35.600  39.148  1.00  0.00     0.200 A 
ATOM     83  F   UNL A   1      37.832  33.982  40.091  1.00  0.00    -0.200 F 
ATOM     84  F   UNL A   1      39.146  36.368  40.240  1.00  0.00    -0.200 F 
ENDBRANCH  50  74
BRANCH  62  85
ATOM     85  C   UNL A   1      43.769  28.677  35.237  1.00  0.00     0.064 A 
ATOM     86  C   UNL A   1      45.101  29.109  35.148  1.00  0.00     0.173 A 
ATOM     87  C   UNL A   1      43.485  27.600  36.092  1.00  0.00     0.173 A 
ATOM     88  F   UNL A   1      45.428  30.123  34.332  1.00  0.00    -0.203 F 
ATOM     89  C   UNL A   1      46.110  28.474  35.867  1.00  0.00     0.198 A 
ATOM     90  C   UNL A   1      44.491  26.990  36.836  1.00  0.00     0.198 A 
ATOM     91  F   UNL A   1      42.228  27.151  36.220  1.00  0.00    -0.203 F 
ATOM     92  F   UNL A   1      47.382  28.874  35.728  1.00  0.00    -0.200 F 
ATOM     93  C   UNL A   1      45.803  27.422  36.718  1.00  0.00     0.200 A 
ATOM     94  F   UNL A   1      44.190  25.984  37.668  1.00  0.00    -0.200 F 
ATOM     95  F   UNL A   1      46.774  26.819  37.417  1.00  0.00    -0.200 F 
ENDBRANCH  62  85
ENDBRANCH  36  37
ENDBRANCH  28  31
ENDBRANCH  26  27
ENDBRANCH  25  26
ENDBRANCH  24  25
ENDBRANCH   1  24
TORSDOF 16
ENDMDL
MODEL 3
REMARK VINA RESULT:     -12.5      1.275      3.400
REMARK SMILES CC(C)[C@@H](ON1C(=O)c2ccccc2C1=O)C(=O)NCCCCCCNC(=O)c1ccc(-c2c3nc(c(-c4c(F)c(F)c(F)c(F)c4F)c4ccc([nH]4)c(-c4c(F)c(F)c(F)c(F)c4F)c4nc(c(-c5c(F)c(F)c(F)c(F)c5F)c5ccc2[nH]5)C=C4)C=C3)cc1
REMARK SMILES IDX 22 1 21 2 20 3 19 4 17 5 18 6 4 8 2 9 1 10 3 11 5 12 6 13
REMARK SMILES IDX 7 14 15 15 8 16 9 17 14 18 16 19 10 20 13 21 11 22 12 23
REMARK SMILES IDX 23 24 24 25 25 26 26 27 27 28 28 30 29 31 30 32 91 33 31 34
REMARK SMILES IDX 90 35 32 36 33 37 34 38 84 39 35 40 89 41 83 42 85 43 36 44
REMARK SMILES IDX 88 45 82 46 81 47 37 49 69 50 49 51 68 52 50 53 53 54 67 55
REMARK SMILES IDX 86 56 51 57 52 58 66 60 87 61 54 62 38 63 39 64 47 65 40 66
REMARK SMILES IDX 41 67 45 68 48 69 42 70 43 71 46 72 44 73 70 74 71 75 79 76
REMARK SMILES IDX 72 77 73 78 77 79 80 80 74 81 75 82 78 83 76 84 55 85 56 86
REMARK SMILES IDX 64 87 57 88 58 89 62 90 65 91 59 92 60 93 63 94 61 95
REMARK H PARENT 19 7 26 29 85 48 53 59
REMARK Flexibility Score: inf
ROOT
ATOM      1  C   UNL A   1      32.233  29.617  27.131  1.00  0.00     0.002 C 
ENDROOT
BRANCH   1   2
ATOM      2  C   UNL A   1      33.726  29.283  27.049  1.00  0.00     0.021 C 
BRANCH   2   3
ATOM      3  C   UNL A   1      34.030  27.947  26.364  1.00  0.00     0.116 C 
BRANCH   3   4
ATOM      4  N   UNL A   1      34.031  28.101  24.921  1.00  0.00    -0.354 N 
ATOM      5  C   UNL A   1      33.341  27.414  23.962  1.00  0.00     0.252 C 
ATOM      6  O   UNL A   1      33.575  27.699  22.783  1.00  0.00    -0.272 OA
ATOM      7  H   UNL A   1      34.621  28.811  24.579  1.00  0.00     0.163 HD
BRANCH   5   8
ATOM      8  C   UNL A   1      32.321  26.315  24.330  1.00  0.00     0.241 C 
BRANCH   8   9
ATOM      9  C   UNL A   1      30.934  26.928  24.677  1.00  0.00     0.024 C 
ATOM     10  C   UNL A   1      29.851  26.778  23.607  1.00  0.00     0.011 C 
ATOM     11  C   UNL A   1      30.408  26.338  25.992  1.00  0.00     0.011 C 
ENDBRANCH   8   9
BRANCH   8  12
ATOM     12  O   UNL A   1      32.385  25.438  23.195  1.00  0.00    -0.249 OA
BRANCH  12  13
ATOM     13  N   UNL A   1      32.802  24.139  23.475  1.00  0.00    -0.144 N 
ATOM     14  C   UNL A   1      31.854  23.239  23.870  1.00  0.00     0.285 C 
ATOM     15  C   UNL A   1      34.060  23.629  23.454  1.00  0.00     0.285 C 
ATOM     16  O   UNL A   1      30.647  23.355  23.991  1.00  0.00    -0.266 OA
ATOM     17  C   UNL A   1      32.592  22.027  24.223  1.00  0.00     0.055 A 
ATOM     18  C   UNL A   1      33.936  22.279  24.004  1.00  0.00     0.055 A 
ATOM     19  O   UNL A   1      35.124  24.114  23.133  1.00  0.00    -0.266 OA
ATOM     20  C   UNL A   1      32.151  20.847  24.784  1.00  0.00     0.015 A 
ATOM     21  C   UNL A   1      34.918  21.383  24.376  1.00  0.00     0.015 A 
ATOM     22  C   UNL A   1      33.126  19.917  25.158  1.00  0.00     0.001 A 
ATOM     23  C   UNL A   1      34.498  20.189  24.968  1.00  0.00     0.001 A 
ENDBRANCH  12  13
ENDBRANCH   8  12
ENDBRANCH   5   8
ENDBRANCH   3   4
ENDBRANCH   2   3
ENDBRANCH   1   2
BRANCH   1  24
ATOM     24  C   UNL A   1      31.757  30.684  26.142  1.00  0.00     0.002 C 
BRANCH  24  25
ATOM     25  C   UNL A   1      31.470  32.053  26.761  1.00  0.00     0.021 C 
BRANCH  25  26
ATOM     26  C   UNL A   1      32.699  32.764  27.323  1.00  0.00     0.116 C 
BRANCH  26  27
ATOM     27  N   UNL A   1      32.430  34.163  27.620  1.00  0.00    -0.352 N 
ATOM     28  C   UNL A   1      32.978  34.972  28.583  1.00  0.00     0.251 C 
ATOM     29  H   UNL A   1      31.756  34.591  27.046  1.00  0.00     0.163 HD
ATOM     30  O   UNL A   1      32.480  36.066  28.831  1.00  0.00    -0.269 OA
BRANCH  28  31
ATOM     31  C   UNL A   1      34.159  34.514  29.344  1.00  0.00     0.039 A 
ATOM     32  C   UNL A   1      33.974  33.992  30.627  1.00  0.00     0.014 A 
ATOM     33  C   UNL A   1      35.442  34.595  28.796  1.00  0.00     0.014 A 
ATOM     34  C   UNL A   1      35.067  33.479  31.327  1.00  0.00     0.010 A 
ATOM     35  C   UNL A   1      36.519  34.018  29.464  1.00  0.00     0.010 A 
ATOM     36  C   UNL A   1      36.338  33.443  30.732  1.00  0.00    -0.014 A 
BRANCH  36  37
ATOM     37  C   UNL A   1      37.476  32.761  31.398  1.00  0.00     0.031 A 
ATOM     38  C   UNL A   1      38.147  31.581  30.755  1.00  0.00     0.074 A 
ATOM     39  C   UNL A   1      37.856  33.166  32.626  1.00  0.00     0.049 A 
ATOM     40  N   UNL A   1      39.110  30.823  31.217  1.00  0.00    -0.248 NA
ATOM     41  C   UNL A   1      37.656  31.186  29.426  1.00  0.00     0.031 C 
ATOM     42  C   UNL A   1      37.249  34.267  33.376  1.00  0.00     0.029 A 
ATOM     43  N   UNL A   1      38.833  32.692  33.467  1.00  0.00    -0.354 N 
ATOM     44  C   UNL A   1      39.335  29.862  30.242  1.00  0.00     0.074 A 
ATOM     45  C   UNL A   1      38.375  30.098  29.186  1.00  0.00     0.031 C 
ATOM     46  C   UNL A   1      37.878  34.399  34.553  1.00  0.00     0.029 A 
ATOM     47  C   UNL A   1      38.901  33.364  34.663  1.00  0.00     0.049 A 
ATOM     48  H   UNL A   1      39.427  31.943  33.235  1.00  0.00     0.167 HD
ATOM     49  C   UNL A   1      40.272  28.883  30.223  1.00  0.00     0.037 A 
ATOM     50  C   UNL A   1      39.686  33.158  35.738  1.00  0.00     0.037 A 
ATOM     51  C   UNL A   1      41.232  28.661  31.274  1.00  0.00     0.049 A 
ATOM     52  C   UNL A   1      40.695  32.042  35.705  1.00  0.00     0.074 A 
ATOM     53  C   UNL A   1      42.267  27.743  31.317  1.00  0.00     0.029 A 
ATOM     54  N   UNL A   1      41.266  29.356  32.475  1.00  0.00    -0.354 N 
ATOM     55  N   UNL A   1      40.956  31.192  34.742  1.00  0.00    -0.248 NA
ATOM     56  C   UNL A   1      41.515  31.855  36.910  1.00  0.00     0.031 C 
ATOM     57  C   UNL A   1      42.885  27.837  32.568  1.00  0.00     0.029 A 
ATOM     58  C   UNL A   1      42.277  28.855  33.283  1.00  0.00     0.049 A 
ATOM     59  H   UNL A   1      40.662  30.094  32.718  1.00  0.00     0.167 HD
ATOM     60  C   UNL A   1      41.980  30.381  35.215  1.00  0.00     0.074 A 
ATOM     61  C   UNL A   1      42.310  30.860  36.542  1.00  0.00     0.031 C 
ATOM     62  C   UNL A   1      42.587  29.333  34.607  1.00  0.00     0.037 A 
BRANCH  49  63
ATOM     63  C   UNL A   1      40.304  27.971  29.031  1.00  0.00     0.064 A 
ATOM     64  C   UNL A   1      39.579  26.770  29.000  1.00  0.00     0.173 A 
ATOM     65  C   UNL A   1      41.033  28.323  27.884  1.00  0.00     0.173 A 
ATOM     66  F   UNL A   1      38.870  26.381  30.071  1.00  0.00    -0.203 F 
ATOM     67  C   UNL A   1      39.606  25.942  27.880  1.00  0.00     0.198 A 
ATOM     68  C   UNL A   1      41.032  27.510  26.754  1.00  0.00     0.198 A 
ATOM     69  F   UNL A   1      41.739  29.464  27.855  1.00  0.00    -0.203 F 
ATOM     70  F   UNL A   1      38.946  24.776  27.894  1.00  0.00    -0.200 F 
ATOM     71  C   UNL A   1      40.327  26.316  26.756  1.00  0.00     0.200 A 
ATOM     72  F   UNL A   1      41.715  27.881  25.662  1.00  0.00    -0.200 F 
ATOM     73  F   UNL A   1      40.345  25.524  25.675  1.00  0.00    -0.200 F 
ENDBRANCH  49  63
BRANCH  50  74
ATOM     74  C   UNL A   1      39.549  34.030  36.935  1.00  0.00     0.064 A 
ATOM     75  C   UNL A   1      40.203  35.268  37.004  1.00  0.00     0.173 A 
ATOM     76  C   UNL A   1      38.766  33.643  38.033  1.00  0.00     0.173 A 
ATOM     77  F   UNL A   1      40.981  35.671  35.989  1.00  0.00    -0.203 F 
ATOM     78  C   UNL A   1      40.092  36.078  38.132  1.00  0.00     0.198 A 
ATOM     79  C   UNL A   1      38.631  34.468  39.147  1.00  0.00     0.198 A 
ATOM     80  F   UNL A   1      38.117  32.470  38.017  1.00  0.00    -0.203 F 
ATOM     81  F   UNL A   1      40.766  37.234  38.192  1.00  0.00    -0.200 F 
ATOM     82  C   UNL A   1      39.302  35.681  39.199  1.00  0.00     0.200 A 
ATOM     83  F   UNL A   1      37.853  34.088  40.169  1.00  0.00    -0.200 F 
ATOM     84  F   UNL A   1      39.191  36.463  40.282  1.00  0.00    -0.200 F 
ENDBRANCH  50  74
BRANCH  62  85
ATOM     85  C   UNL A   1      43.674  28.632  35.370  1.00  0.00     0.064 A 
ATOM     86  C   UNL A   1      43.387  27.597  36.271  1.00  0.00     0.173 A 
ATOM     87  C   UNL A   1      45.022  28.969  35.166  1.00  0.00     0.173 A 
ATOM     88  F   UNL A   1      42.114  27.247  36.515  1.00  0.00    -0.203 F 
ATOM     89  C   UNL A   1      44.406  26.941  36.958  1.00  0.00     0.198 A 
ATOM     90  C   UNL A   1      46.040  28.289  35.828  1.00  0.00     0.198 A 
ATOM     91  F   UNL A   1      45.352  29.948  34.311  1.00  0.00    -0.203 F 
ATOM     92  F   UNL A   1      44.104  25.988  37.850  1.00  0.00    -0.200 F 
ATOM     93  C   UNL A   1      45.731  27.281  36.729  1.00  0.00     0.200 A 
ATOM     94  F   UNL A   1      47.320  28.609  35.594  1.00  0.00    -0.200 F 
ATOM     95  F   UNL A   1      46.711  26.642  37.382  1.00  0.00    -0.200 F 
ENDBRANCH  62  85
ENDBRANCH  36  37
ENDBRANCH  28  31
ENDBRANCH  26  27
ENDBRANCH  25  26
ENDBRANCH  24  25
ENDBRANCH   1  24
TORSDOF 16
ENDMDL
