MODEL 1
REMARK VINA RESULT:     -11.1      0.000      0.000
REMARK SMILES C#CCNC(=O)[C@H](C)S(=O)(=O)c1ccc(C(=O)NCCCCCCNC(=O)c2ccc(-c3c4nc(c(-c5c(F)c(F)c(F)c(F)c5F)c5ccc([nH]5)c(-c5c(F)c(F)c(F)c(F)c5F)c5nc(c(-c6c(F)c(F)c(F)c(F)c6F)c6ccc3[nH]6)C=C5)C=C4)cc2)cc1F
REMARK SMILES IDX 20 1 19 2 18 3 16 4 17 5 15 7 12 8 13 9 92 10 14 11 91 12
REMARK SMILES IDX 93 13 9 14 10 15 11 16 7 17 8 18 5 19 4 20 6 22 3 23 2 24
REMARK SMILES IDX 1 25 21 26 22 27 23 28 24 29 25 30 26 31 27 33 28 34 29 35
REMARK SMILES IDX 90 36 30 37 89 38 31 39 32 40 33 41 83 42 34 43 88 44 82 45
REMARK SMILES IDX 84 46 35 47 87 48 81 49 80 50 36 52 68 53 48 54 67 55 49 56
REMARK SMILES IDX 52 57 66 58 85 59 50 60 51 61 65 63 86 64 53 65 37 66 38 67
REMARK SMILES IDX 46 68 39 69 40 70 44 71 47 72 41 73 42 74 45 75 43 76 69 77
REMARK SMILES IDX 70 78 78 79 71 80 72 81 76 82 79 83 73 84 74 85 77 86 75 87
REMARK SMILES IDX 54 88 55 89 63 90 56 91 57 92 61 93 64 94 58 95 59 96 62 97
REMARK SMILES IDX 60 98
REMARK H PARENT 18 6 4 21 25 32 84 51 52 62
REMARK Flexibility Score: inf
ROOT
ATOM      1  C   UNL A   1      35.628  32.285  27.987  1.00  0.00     0.021 C 
ENDROOT
BRANCH   1   2
ATOM      2  C   UNL A   1      34.593  31.180  27.814  1.00  0.00     0.116 C 
BRANCH   2   3
ATOM      3  N   UNL A   1      33.268  31.709  27.552  1.00  0.00    -0.352 N 
ATOM      4  C   UNL A   1      32.242  31.141  26.846  1.00  0.00     0.251 C 
ATOM      5  O   UNL A   1      31.239  31.787  26.555  1.00  0.00    -0.269 OA
ATOM      6  H   UNL A   1      33.082  32.597  27.935  1.00  0.00     0.163 HD
BRANCH   4   7
ATOM      7  C   UNL A   1      32.330  29.729  26.428  1.00  0.00     0.042 A 
ATOM      8  C   UNL A   1      32.635  27.051  25.737  1.00  0.00     0.103 A 
ATOM      9  C   UNL A   1      31.904  27.399  26.886  1.00  0.00     0.024 A 
ATOM     10  C   UNL A   1      33.120  28.042  24.903  1.00  0.00     0.142 A 
ATOM     11  C   UNL A   1      31.770  28.742  27.243  1.00  0.00     0.015 A 
ATOM     12  C   UNL A   1      33.016  29.376  25.263  1.00  0.00     0.054 A 
ATOM     13  F   UNL A   1      33.678  27.761  23.727  1.00  0.00    -0.206 F 
BRANCH   8  14
ATOM     14  S   UNL A   1      33.064  25.358  25.460  1.00  0.00     0.192 S 
ATOM     15  O   UNL A   1      32.409  24.627  26.521  1.00  0.00    -0.223 OA
ATOM     16  O   UNL A   1      34.524  25.320  25.393  1.00  0.00    -0.223 OA
BRANCH  14  17
ATOM     17  C   UNL A   1      32.485  24.766  23.910  1.00  0.00     0.199 C 
ATOM     18  C   UNL A   1      33.408  23.736  23.244  1.00  0.00     0.036 C 
BRANCH  17  19
ATOM     19  C   UNL A   1      31.049  24.354  23.655  1.00  0.00     0.239 C 
ATOM     20  N   UNL A   1      29.882  24.984  23.854  1.00  0.00    -0.344 N 
ATOM     21  H   UNL A   1      29.120  24.409  23.610  1.00  0.00     0.164 HD
ATOM     22  O   UNL A   1      30.877  23.217  23.173  1.00  0.00    -0.274 OA
BRANCH  20  23
ATOM     23  C   UNL A   1      29.440  26.266  24.328  1.00  0.00     0.206 C 
BRANCH  23  24
ATOM     24  C   UNL A   1      29.846  27.364  23.359  1.00  0.00    -0.085 C 
ATOM     25  C   UNL A   1      30.193  28.306  22.527  1.00  0.00     0.006 C 
ENDBRANCH  23  24
ENDBRANCH  20  23
ENDBRANCH  17  19
ENDBRANCH  14  17
ENDBRANCH   8  14
ENDBRANCH   4   7
ENDBRANCH   2   3
ENDBRANCH   1   2
BRANCH   1  26
ATOM     26  C   UNL A   1      35.250  33.350  29.015  1.00  0.00     0.002 C 
BRANCH  26  27
ATOM     27  C   UNL A   1      34.738  34.678  28.443  1.00  0.00     0.002 C 
BRANCH  27  28
ATOM     28  C   UNL A   1      33.329  35.104  28.872  1.00  0.00     0.021 C 
BRANCH  28  29
ATOM     29  C   UNL A   1      33.247  36.418  29.641  1.00  0.00     0.116 C 
BRANCH  29  30
ATOM     30  N   UNL A   1      32.416  36.307  30.823  1.00  0.00    -0.352 N 
ATOM     31  C   UNL A   1      32.600  35.556  31.954  1.00  0.00     0.251 C 
ATOM     32  H   UNL A   1      31.598  36.853  30.812  1.00  0.00     0.163 HD
ATOM     33  O   UNL A   1      31.691  35.463  32.774  1.00  0.00    -0.269 OA
BRANCH  31  34
ATOM     34  C   UNL A   1      33.877  34.849  32.199  1.00  0.00     0.039 A 
ATOM     35  C   UNL A   1      33.834  33.475  32.455  1.00  0.00     0.014 A 
ATOM     36  C   UNL A   1      35.096  35.532  32.260  1.00  0.00     0.014 A 
ATOM     37  C   UNL A   1      35.009  32.782  32.756  1.00  0.00     0.010 A 
ATOM     38  C   UNL A   1      36.277  34.831  32.506  1.00  0.00     0.010 A 
ATOM     39  C   UNL A   1      36.241  33.455  32.780  1.00  0.00    -0.014 A 
BRANCH  39  40
ATOM     40  C   UNL A   1      37.487  32.744  33.157  1.00  0.00     0.031 A 
ATOM     41  C   UNL A   1      38.146  33.037  34.475  1.00  0.00     0.074 A 
ATOM     42  C   UNL A   1      38.036  31.854  32.310  1.00  0.00     0.049 A 
ATOM     43  N   UNL A   1      39.261  32.561  34.969  1.00  0.00    -0.248 NA
ATOM     44  C   UNL A   1      37.472  34.013  35.347  1.00  0.00     0.031 C 
ATOM     45  C   UNL A   1      37.503  31.501  30.993  1.00  0.00     0.029 A 
ATOM     46  N   UNL A   1      39.165  31.084  32.431  1.00  0.00    -0.354 N 
ATOM     47  C   UNL A   1      39.432  33.191  36.194  1.00  0.00     0.074 A 
ATOM     48  C   UNL A   1      38.327  34.113  36.355  1.00  0.00     0.031 C 
ATOM     49  C   UNL A   1      38.292  30.566  30.439  1.00  0.00     0.029 A 
ATOM     50  C   UNL A   1      39.397  30.273  31.348  1.00  0.00     0.049 A 
ATOM     51  H   UNL A   1      39.753  31.110  33.220  1.00  0.00     0.167 HD
ATOM     52  C   UNL A   1      40.410  33.005  37.110  1.00  0.00     0.037 A 
ATOM     53  C   UNL A   1      40.387  29.389  31.118  1.00  0.00     0.037 A 
ATOM     54  C   UNL A   1      41.486  32.061  36.967  1.00  0.00     0.049 A 
ATOM     55  C   UNL A   1      41.445  29.176  32.165  1.00  0.00     0.074 A 
ATOM     56  C   UNL A   1      42.511  31.779  37.853  1.00  0.00     0.029 A 
ATOM     57  N   UNL A   1      41.666  31.234  35.869  1.00  0.00    -0.354 N 
ATOM     58  N   UNL A   1      41.582  29.761  33.330  1.00  0.00    -0.248 NA
ATOM     59  C   UNL A   1      42.479  28.173  31.873  1.00  0.00     0.031 C 
ATOM     60  C   UNL A   1      43.325  30.796  37.281  1.00  0.00     0.029 A 
ATOM     61  C   UNL A   1      42.785  30.440  36.055  1.00  0.00     0.049 A 
ATOM     62  H   UNL A   1      41.084  31.214  35.074  1.00  0.00     0.167 HD
ATOM     63  C   UNL A   1      42.697  29.181  33.919  1.00  0.00     0.074 A 
ATOM     64  C   UNL A   1      43.197  28.192  32.987  1.00  0.00     0.031 C 
ATOM     65  C   UNL A   1      43.254  29.447  35.125  1.00  0.00     0.037 A 
BRANCH  52  66
ATOM     66  C   UNL A   1      40.359  33.831  38.361  1.00  0.00     0.064 A 
ATOM     67  C   UNL A   1      41.080  35.030  38.453  1.00  0.00     0.173 A 
ATOM     68  C   UNL A   1      39.633  33.411  39.486  1.00  0.00     0.173 A 
ATOM     69  F   UNL A   1      41.792  35.474  37.406  1.00  0.00    -0.203 F 
ATOM     70  C   UNL A   1      41.082  35.775  39.629  1.00  0.00     0.198 A 
ATOM     71  C   UNL A   1      39.617  34.172  40.652  1.00  0.00     0.198 A 
ATOM     72  F   UNL A   1      38.916  32.278  39.441  1.00  0.00    -0.203 F 
ATOM     73  F   UNL A   1      41.795  36.907  39.703  1.00  0.00    -0.200 F 
ATOM     74  C   UNL A   1      40.347  35.348  40.725  1.00  0.00     0.200 A 
ATOM     75  F   UNL A   1      38.888  33.769  41.701  1.00  0.00    -0.200 F 
ATOM     76  F   UNL A   1      40.338  36.074  41.851  1.00  0.00    -0.200 F 
ENDBRANCH  52  66
BRANCH  53  77
ATOM     77  C   UNL A   1      40.388  28.603  29.860  1.00  0.00     0.064 A 
ATOM     78  C   UNL A   1      41.079  29.043  28.723  1.00  0.00     0.173 A 
ATOM     79  C   UNL A   1      39.666  27.405  29.766  1.00  0.00     0.173 A 
ATOM     80  F   UNL A   1      41.778  30.187  28.763  1.00  0.00    -0.203 F 
ATOM     81  C   UNL A   1      41.037  28.320  27.532  1.00  0.00     0.198 A 
ATOM     82  C   UNL A   1      39.642  26.672  28.581  1.00  0.00     0.198 A 
ATOM     83  F   UNL A   1      39.006  26.937  30.834  1.00  0.00    -0.203 F 
ATOM     84  F   UNL A   1      41.684  28.774  26.451  1.00  0.00    -0.200 F 
ATOM     85  C   UNL A   1      40.322  27.133  27.464  1.00  0.00     0.200 A 
ATOM     86  F   UNL A   1      38.966  25.517  28.525  1.00  0.00    -0.200 F 
ATOM     87  F   UNL A   1      40.289  26.433  26.322  1.00  0.00    -0.200 F 
ENDBRANCH  53  77
BRANCH  65  88
ATOM     88  C   UNL A   1      44.446  28.634  35.532  1.00  0.00     0.064 A 
ATOM     89  C   UNL A   1      45.734  29.020  35.132  1.00  0.00     0.173 A 
ATOM     90  C   UNL A   1      44.306  27.436  36.245  1.00  0.00     0.173 A 
ATOM     91  F   UNL A   1      45.916  30.155  34.441  1.00  0.00    -0.203 F 
ATOM     92  C   UNL A   1      46.840  28.229  35.425  1.00  0.00     0.198 A 
ATOM     93  C   UNL A   1      45.418  26.658  36.554  1.00  0.00     0.198 A 
ATOM     94  F   UNL A   1      43.095  27.034  36.657  1.00  0.00    -0.203 F 
ATOM     95  F   UNL A   1      48.059  28.602  35.012  1.00  0.00    -0.200 F 
ATOM     96  C   UNL A   1      46.681  27.049  36.137  1.00  0.00     0.200 A 
ATOM     97  F   UNL A   1      45.266  25.527  37.259  1.00  0.00    -0.200 F 
ATOM     98  F   UNL A   1      47.748  26.290  36.424  1.00  0.00    -0.200 F 
ENDBRANCH  65  88
ENDBRANCH  39  40
ENDBRANCH  31  34
ENDBRANCH  29  30
ENDBRANCH  28  29
ENDBRANCH  27  28
ENDBRANCH  26  27
ENDBRANCH   1  26
TORSDOF 18
ENDMDL
MODEL 2
REMARK VINA RESULT:     -11.0      1.328      2.634
REMARK SMILES C#CCNC(=O)[C@H](C)S(=O)(=O)c1ccc(C(=O)NCCCCCCNC(=O)c2ccc(-c3c4nc(c(-c5c(F)c(F)c(F)c(F)c5F)c5ccc([nH]5)c(-c5c(F)c(F)c(F)c(F)c5F)c5nc(c(-c6c(F)c(F)c(F)c(F)c6F)c6ccc3[nH]6)C=C5)C=C4)cc2)cc1F
REMARK SMILES IDX 20 1 19 2 18 3 16 4 17 5 15 7 12 8 13 9 92 10 14 11 91 12
REMARK SMILES IDX 93 13 9 14 10 15 11 16 7 17 8 18 5 19 4 20 6 22 3 23 2 24
REMARK SMILES IDX 1 25 21 26 22 27 23 28 24 29 25 30 26 31 27 33 28 34 29 35
REMARK SMILES IDX 90 36 30 37 89 38 31 39 32 40 33 41 83 42 34 43 88 44 82 45
REMARK SMILES IDX 84 46 35 47 87 48 81 49 80 50 36 52 68 53 48 54 67 55 49 56
REMARK SMILES IDX 52 57 66 58 85 59 50 60 51 61 65 63 86 64 53 65 37 66 38 67
REMARK SMILES IDX 46 68 39 69 40 70 44 71 47 72 41 73 42 74 45 75 43 76 69 77
REMARK SMILES IDX 70 78 78 79 71 80 72 81 76 82 79 83 73 84 74 85 77 86 75 87
REMARK SMILES IDX 54 88 55 89 63 90 56 91 57 92 61 93 64 94 58 95 59 96 62 97
REMARK SMILES IDX 60 98
REMARK H PARENT 18 6 4 21 25 32 84 51 52 62
REMARK Flexibility Score: inf
ROOT
ATOM      1  C   UNL A   1      35.256  31.520  28.224  1.00  0.00     0.021 C 
ENDROOT
BRANCH   1   2
ATOM      2  C   UNL A   1      34.484  30.355  27.617  1.00  0.00     0.116 C 
BRANCH   2   3
ATOM      3  N   UNL A   1      33.172  30.756  27.146  1.00  0.00    -0.352 N 
ATOM      4  C   UNL A   1      32.392  30.173  26.183  1.00  0.00     0.251 C 
ATOM      5  O   UNL A   1      31.382  30.730  25.764  1.00  0.00    -0.269 OA
ATOM      6  H   UNL A   1      32.792  31.554  27.577  1.00  0.00     0.163 HD
BRANCH   4   7
ATOM      7  C   UNL A   1      32.760  28.852  25.639  1.00  0.00     0.042 A 
ATOM      8  C   UNL A   1      33.310  26.363  24.522  1.00  0.00     0.103 A 
ATOM      9  C   UNL A   1      33.719  27.535  23.860  1.00  0.00     0.024 A 
ATOM     10  C   UNL A   1      32.720  26.448  25.769  1.00  0.00     0.142 A 
ATOM     11  C   UNL A   1      33.423  28.782  24.411  1.00  0.00     0.015 A 
ATOM     12  C   UNL A   1      32.398  27.683  26.312  1.00  0.00     0.054 A 
ATOM     13  F   UNL A   1      32.462  25.365  26.501  1.00  0.00    -0.206 F 
BRANCH   8  14
ATOM     14  S   UNL A   1      33.407  24.811  23.680  1.00  0.00     0.192 S 
ATOM     15  O   UNL A   1      34.028  25.111  22.411  1.00  0.00    -0.223 OA
ATOM     16  O   UNL A   1      32.048  24.272  23.676  1.00  0.00    -0.223 OA
BRANCH  14  17
ATOM     17  C   UNL A   1      34.396  23.643  24.544  1.00  0.00     0.199 C 
ATOM     18  C   UNL A   1      35.557  24.261  25.334  1.00  0.00     0.036 C 
BRANCH  17  19
ATOM     19  C   UNL A   1      33.823  22.499  25.355  1.00  0.00     0.239 C 
ATOM     20  N   UNL A   1      33.076  21.437  25.017  1.00  0.00    -0.344 N 
ATOM     21  H   UNL A   1      32.841  20.899  25.807  1.00  0.00     0.164 HD
ATOM     22  O   UNL A   1      34.063  22.514  26.579  1.00  0.00    -0.274 OA
BRANCH  20  23
ATOM     23  C   UNL A   1      32.527  20.873  23.815  1.00  0.00     0.206 C 
BRANCH  23  24
ATOM     24  C   UNL A   1      32.529  19.354  23.887  1.00  0.00    -0.085 C 
ATOM     25  C   UNL A   1      32.531  18.052  23.947  1.00  0.00     0.006 C 
ENDBRANCH  23  24
ENDBRANCH  20  23
ENDBRANCH  17  19
ENDBRANCH  14  17
ENDBRANCH   8  14
ENDBRANCH   4   7
ENDBRANCH   2   3
ENDBRANCH   1   2
BRANCH   1  26
ATOM     26  C   UNL A   1      34.413  32.449  29.098  1.00  0.00     0.002 C 
BRANCH  26  27
ATOM     27  C   UNL A   1      34.617  33.952  28.865  1.00  0.00     0.002 C 
BRANCH  27  28
ATOM     28  C   UNL A   1      33.347  34.807  28.799  1.00  0.00     0.021 C 
BRANCH  28  29
ATOM     29  C   UNL A   1      33.433  36.164  29.488  1.00  0.00     0.116 C 
BRANCH  29  30
ATOM     30  N   UNL A   1      32.494  36.279  30.586  1.00  0.00    -0.352 N 
ATOM     31  C   UNL A   1      32.526  35.704  31.828  1.00  0.00     0.251 C 
ATOM     32  H   UNL A   1      31.717  36.857  30.412  1.00  0.00     0.163 HD
ATOM     33  O   UNL A   1      31.543  35.784  32.560  1.00  0.00    -0.269 OA
BRANCH  31  34
ATOM     34  C   UNL A   1      33.728  34.980  32.302  1.00  0.00     0.039 A 
ATOM     35  C   UNL A   1      34.964  35.630  32.233  1.00  0.00     0.014 A 
ATOM     36  C   UNL A   1      33.663  33.651  32.733  1.00  0.00     0.014 A 
ATOM     37  C   UNL A   1      36.129  34.959  32.608  1.00  0.00     0.010 A 
ATOM     38  C   UNL A   1      34.819  32.998  33.161  1.00  0.00     0.010 A 
ATOM     39  C   UNL A   1      36.065  33.638  33.079  1.00  0.00    -0.014 A 
BRANCH  39  40
ATOM     40  C   UNL A   1      37.302  32.895  33.423  1.00  0.00     0.031 A 
ATOM     41  C   UNL A   1      37.994  33.162  34.731  1.00  0.00     0.074 A 
ATOM     42  C   UNL A   1      37.814  32.002  32.557  1.00  0.00     0.049 A 
ATOM     43  N   UNL A   1      39.108  32.657  35.198  1.00  0.00    -0.248 NA
ATOM     44  C   UNL A   1      37.360  34.144  35.625  1.00  0.00     0.031 C 
ATOM     45  C   UNL A   1      37.247  31.674  31.249  1.00  0.00     0.029 A 
ATOM     46  N   UNL A   1      38.928  31.206  32.649  1.00  0.00    -0.354 N 
ATOM     47  C   UNL A   1      39.317  33.271  36.425  1.00  0.00     0.074 A 
ATOM     48  C   UNL A   1      38.236  34.215  36.617  1.00  0.00     0.031 C 
ATOM     49  C   UNL A   1      38.004  30.727  30.671  1.00  0.00     0.029 A 
ATOM     50  C   UNL A   1      39.120  30.400  31.554  1.00  0.00     0.049 A 
ATOM     51  H   UNL A   1      39.532  31.211  33.426  1.00  0.00     0.167 HD
ATOM     52  C   UNL A   1      40.309  33.054  37.319  1.00  0.00     0.037 A 
ATOM     53  C   UNL A   1      40.086  29.498  31.296  1.00  0.00     0.037 A 
ATOM     54  C   UNL A   1      41.361  32.089  37.146  1.00  0.00     0.049 A 
ATOM     55  C   UNL A   1      41.159  29.251  32.320  1.00  0.00     0.074 A 
ATOM     56  C   UNL A   1      42.397  31.776  38.007  1.00  0.00     0.029 A 
ATOM     57  N   UNL A   1      41.500  31.268  36.037  1.00  0.00    -0.354 N 
ATOM     58  N   UNL A   1      41.333  29.821  33.487  1.00  0.00    -0.248 NA
ATOM     59  C   UNL A   1      42.164  28.228  31.997  1.00  0.00     0.031 C 
ATOM     60  C   UNL A   1      43.177  30.780  37.410  1.00  0.00     0.029 A 
ATOM     61  C   UNL A   1      42.605  30.448  36.193  1.00  0.00     0.049 A 
ATOM     62  H   UNL A   1      40.902  31.269  35.254  1.00  0.00     0.167 HD
ATOM     63  C   UNL A   1      42.446  29.212  34.048  1.00  0.00     0.074 A 
ATOM     64  C   UNL A   1      42.905  28.221  33.097  1.00  0.00     0.031 C 
ATOM     65  C   UNL A   1      43.033  29.454  35.245  1.00  0.00     0.037 A 
BRANCH  52  66
ATOM     66  C   UNL A   1      40.301  33.869  38.578  1.00  0.00     0.064 A 
ATOM     67  C   UNL A   1      41.060  35.046  38.671  1.00  0.00     0.173 A 
ATOM     68  C   UNL A   1      39.579  33.461  39.709  1.00  0.00     0.173 A 
ATOM     69  F   UNL A   1      41.770  35.477  37.617  1.00  0.00    -0.203 F 
ATOM     70  C   UNL A   1      41.102  35.779  39.853  1.00  0.00     0.198 A 
ATOM     71  C   UNL A   1      39.604  34.211  40.882  1.00  0.00     0.198 A 
ATOM     72  F   UNL A   1      38.828  32.351  39.665  1.00  0.00    -0.203 F 
ATOM     73  F   UNL A   1      41.851  36.888  39.927  1.00  0.00    -0.200 F 
ATOM     74  C   UNL A   1      40.370  35.364  40.956  1.00  0.00     0.200 A 
ATOM     75  F   UNL A   1      38.878  33.821  41.939  1.00  0.00    -0.200 F 
ATOM     76  F   UNL A   1      40.401  36.079  42.089  1.00  0.00    -0.200 F 
ENDBRANCH  52  66
BRANCH  53  77
ATOM     77  C   UNL A   1      40.043  28.724  30.031  1.00  0.00     0.064 A 
ATOM     78  C   UNL A   1      39.450  27.456  29.969  1.00  0.00     0.173 A 
ATOM     79  C   UNL A   1      40.627  29.233  28.862  1.00  0.00     0.173 A 
ATOM     80  F   UNL A   1      38.884  26.925  31.063  1.00  0.00    -0.203 F 
ATOM     81  C   UNL A   1      39.454  26.718  28.787  1.00  0.00     0.198 A 
ATOM     82  C   UNL A   1      40.612  28.503  27.675  1.00  0.00     0.198 A 
ATOM     83  F   UNL A   1      41.189  30.449  28.871  1.00  0.00    -0.203 F 
ATOM     84  F   UNL A   1      38.904  25.497  28.759  1.00  0.00    -0.200 F 
ATOM     85  C   UNL A   1      40.031  27.244  27.640  1.00  0.00     0.200 A 
ATOM     86  F   UNL A   1      41.154  29.023  26.566  1.00  0.00    -0.200 F 
ATOM     87  F   UNL A   1      40.027  26.538  26.501  1.00  0.00    -0.200 F 
ENDBRANCH  53  77
BRANCH  65  88
ATOM     88  C   UNL A   1      44.214  28.611  35.620  1.00  0.00     0.064 A 
ATOM     89  C   UNL A   1      44.038  27.442  36.375  1.00  0.00     0.173 A 
ATOM     90  C   UNL A   1      45.522  29.002  35.302  1.00  0.00     0.173 A 
ATOM     91  F   UNL A   1      42.805  27.034  36.709  1.00  0.00    -0.203 F 
ATOM     92  C   UNL A   1      45.131  26.698  36.807  1.00  0.00     0.198 A 
ATOM     93  C   UNL A   1      46.613  28.243  35.718  1.00  0.00     0.198 A 
ATOM     94  F   UNL A   1      45.739  30.106  34.573  1.00  0.00    -0.203 F 
ATOM     95  F   UNL A   1      44.941  25.599  37.549  1.00  0.00    -0.200 F 
ATOM     96  C   UNL A   1      46.418  27.099  36.477  1.00  0.00     0.200 A 
ATOM     97  F   UNL A   1      47.855  28.620  35.383  1.00  0.00    -0.200 F 
ATOM     98  F   UNL A   1      47.470  26.378  36.888  1.00  0.00    -0.200 F 
ENDBRANCH  65  88
ENDBRANCH  39  40
ENDBRANCH  31  34
ENDBRANCH  29  30
ENDBRANCH  28  29
ENDBRANCH  27  28
ENDBRANCH  26  27
ENDBRANCH   1  26
TORSDOF 18
ENDMDL
MODEL 3
REMARK VINA RESULT:     -10.8      5.973     10.652
REMARK SMILES C#CCNC(=O)[C@H](C)S(=O)(=O)c1ccc(C(=O)NCCCCCCNC(=O)c2ccc(-c3c4nc(c(-c5c(F)c(F)c(F)c(F)c5F)c5ccc([nH]5)c(-c5c(F)c(F)c(F)c(F)c5F)c5nc(c(-c6c(F)c(F)c(F)c(F)c6F)c6ccc3[nH]6)C=C5)C=C4)cc2)cc1F
REMARK SMILES IDX 20 1 19 2 18 3 16 4 17 5 15 7 12 8 13 9 92 10 14 11 91 12
REMARK SMILES IDX 93 13 9 14 10 15 11 16 7 17 8 18 5 19 4 20 6 22 3 23 2 24
REMARK SMILES IDX 1 25 21 26 22 27 23 28 24 29 25 30 26 31 27 33 28 34 29 35
REMARK SMILES IDX 90 36 30 37 89 38 31 39 32 40 33 41 83 42 34 43 88 44 82 45
REMARK SMILES IDX 84 46 35 47 87 48 81 49 80 50 36 52 68 53 48 54 67 55 49 56
REMARK SMILES IDX 52 57 66 58 85 59 50 60 51 61 65 63 86 64 53 65 37 66 38 67
REMARK SMILES IDX 46 68 39 69 40 70 44 71 47 72 41 73 42 74 45 75 43 76 69 77
REMARK SMILES IDX 70 78 78 79 71 80 72 81 76 82 79 83 73 84 74 85 77 86 75 87
REMARK SMILES IDX 54 88 55 89 63 90 56 91 57 92 61 93 64 94 58 95 59 96 62 97
REMARK SMILES IDX 60 98
REMARK H PARENT 18 6 4 21 25 32 84 51 52 62
REMARK Flexibility Score: inf
ROOT
ATOM      1  C   UNL A   1      35.199  20.301  25.372  1.00  0.00     0.021 C 
ENDROOT
BRANCH   1   2
ATOM      2  C   UNL A   1      33.678  20.386  25.404  1.00  0.00     0.116 C 
BRANCH   2   3
ATOM      3  N   UNL A   1      33.188  20.936  26.654  1.00  0.00    -0.352 N 
ATOM      4  C   UNL A   1      32.826  22.225  26.940  1.00  0.00     0.251 C 
ATOM      5  O   UNL A   1      32.602  22.578  28.094  1.00  0.00    -0.269 OA
ATOM      6  H   UNL A   1      33.106  20.295  27.396  1.00  0.00     0.163 HD
BRANCH   4   7
ATOM      7  C   UNL A   1      32.693  23.211  25.850  1.00  0.00     0.042 A 
ATOM      8  C   UNL A   1      32.360  25.171  23.904  1.00  0.00     0.103 A 
ATOM      9  C   UNL A   1      33.473  25.217  24.761  1.00  0.00     0.024 A 
ATOM     10  C   UNL A   1      31.485  24.102  23.968  1.00  0.00     0.142 A 
ATOM     11  C   UNL A   1      33.628  24.245  25.751  1.00  0.00     0.015 A 
ATOM     12  C   UNL A   1      31.614  23.148  24.965  1.00  0.00     0.054 A 
ATOM     13  F   UNL A   1      30.511  23.935  23.076  1.00  0.00    -0.206 F 
BRANCH   8  14
ATOM     14  S   UNL A   1      32.003  26.559  22.868  1.00  0.00     0.192 S 
ATOM     15  O   UNL A   1      31.777  26.000  21.556  1.00  0.00    -0.223 OA
ATOM     16  O   UNL A   1      33.120  27.486  23.043  1.00  0.00    -0.223 OA
BRANCH  14  17
ATOM     17  C   UNL A   1      30.561  27.424  23.381  1.00  0.00     0.199 C 
ATOM     18  C   UNL A   1      29.803  26.756  24.536  1.00  0.00     0.036 C 
BRANCH  17  19
ATOM     19  C   UNL A   1      30.515  28.925  23.585  1.00  0.00     0.239 C 
ATOM     20  N   UNL A   1      31.202  29.748  24.391  1.00  0.00    -0.344 N 
ATOM     21  H   UNL A   1      30.894  30.679  24.298  1.00  0.00     0.164 HD
ATOM     22  O   UNL A   1      29.688  29.552  22.893  1.00  0.00    -0.274 OA
BRANCH  20  23
ATOM     23  C   UNL A   1      32.263  29.641  25.353  1.00  0.00     0.206 C 
BRANCH  23  24
ATOM     24  C   UNL A   1      31.801  28.867  26.577  1.00  0.00    -0.085 C 
ATOM     25  C   UNL A   1      31.403  28.203  27.627  1.00  0.00     0.006 C 
ENDBRANCH  23  24
ENDBRANCH  20  23
ENDBRANCH  17  19
ENDBRANCH  14  17
ENDBRANCH   8  14
ENDBRANCH   4   7
ENDBRANCH   2   3
ENDBRANCH   1   2
BRANCH   1  26
ATOM     26  C   UNL A   1      35.881  21.447  24.625  1.00  0.00     0.002 C 
BRANCH  26  27
ATOM     27  C   UNL A   1      37.403  21.332  24.472  1.00  0.00     0.002 C 
BRANCH  27  28
ATOM     28  C   UNL A   1      38.038  20.029  24.970  1.00  0.00     0.021 C 
BRANCH  28  29
ATOM     29  C   UNL A   1      39.017  20.178  26.129  1.00  0.00     0.116 C 
BRANCH  29  30
ATOM     30  N   UNL A   1      40.087  19.203  26.069  1.00  0.00    -0.352 N 
ATOM     31  C   UNL A   1      41.443  19.393  26.052  1.00  0.00     0.251 C 
ATOM     32  H   UNL A   1      39.796  18.264  26.035  1.00  0.00     0.163 HD
ATOM     33  O   UNL A   1      42.186  18.443  25.820  1.00  0.00    -0.269 OA
BRANCH  31  34
ATOM     34  C   UNL A   1      42.028  20.730  26.302  1.00  0.00     0.039 A 
ATOM     35  C   UNL A   1      42.269  21.110  27.626  1.00  0.00     0.014 A 
ATOM     36  C   UNL A   1      42.264  21.636  25.263  1.00  0.00     0.014 A 
ATOM     37  C   UNL A   1      42.759  22.387  27.909  1.00  0.00     0.010 A 
ATOM     38  C   UNL A   1      42.805  22.891  25.540  1.00  0.00     0.010 A 
ATOM     39  C   UNL A   1      43.034  23.287  26.867  1.00  0.00    -0.014 A 
BRANCH  39  40
ATOM     40  C   UNL A   1      43.498  24.666  27.158  1.00  0.00     0.031 A 
ATOM     41  C   UNL A   1      42.537  25.673  27.725  1.00  0.00     0.074 A 
ATOM     42  C   UNL A   1      44.769  25.018  26.895  1.00  0.00     0.049 A 
ATOM     43  N   UNL A   1      42.729  26.938  28.003  1.00  0.00    -0.248 NA
ATOM     44  C   UNL A   1      41.169  25.201  27.996  1.00  0.00     0.031 C 
ATOM     45  C   UNL A   1      45.788  24.137  26.324  1.00  0.00     0.029 A 
ATOM     46  N   UNL A   1      45.421  26.212  27.074  1.00  0.00    -0.354 N 
ATOM     47  C   UNL A   1      41.508  27.415  28.460  1.00  0.00     0.074 A 
ATOM     48  C   UNL A   1      40.569  26.316  28.388  1.00  0.00     0.031 C 
ATOM     49  C   UNL A   1      46.943  24.814  26.222  1.00  0.00     0.029 A 
ATOM     50  C   UNL A   1      46.740  26.181  26.695  1.00  0.00     0.049 A 
ATOM     51  H   UNL A   1      44.984  27.015  27.439  1.00  0.00     0.167 HD
ATOM     52  C   UNL A   1      41.203  28.651  28.917  1.00  0.00     0.037 A 
ATOM     53  C   UNL A   1      47.680  27.145  26.732  1.00  0.00     0.037 A 
ATOM     54  C   UNL A   1      42.146  29.732  29.025  1.00  0.00     0.049 A 
ATOM     55  C   UNL A   1      47.324  28.502  27.275  1.00  0.00     0.074 A 
ATOM     56  C   UNL A   1      41.940  31.015  29.501  1.00  0.00     0.029 A 
ATOM     57  N   UNL A   1      43.482  29.649  28.663  1.00  0.00    -0.354 N 
ATOM     58  N   UNL A   1      46.172  28.934  27.726  1.00  0.00    -0.248 NA
ATOM     59  C   UNL A   1      48.400  29.502  27.323  1.00  0.00     0.031 C 
ATOM     60  C   UNL A   1      43.146  31.716  29.407  1.00  0.00     0.029 A 
ATOM     61  C   UNL A   1      44.112  30.858  28.906  1.00  0.00     0.049 A 
ATOM     62  H   UNL A   1      43.918  28.849  28.288  1.00  0.00     0.167 HD
ATOM     63  C   UNL A   1      46.389  30.243  28.136  1.00  0.00     0.074 A 
ATOM     64  C   UNL A   1      47.785  30.534  27.886  1.00  0.00     0.031 C 
ATOM     65  C   UNL A   1      45.507  31.121  28.671  1.00  0.00     0.037 A 
BRANCH  52  66
ATOM     66  C   UNL A   1      39.790  28.904  29.348  1.00  0.00     0.064 A 
ATOM     67  C   UNL A   1      38.848  29.415  28.443  1.00  0.00     0.173 A 
ATOM     68  C   UNL A   1      39.378  28.685  30.672  1.00  0.00     0.173 A 
ATOM     69  F   UNL A   1      39.193  29.644  27.166  1.00  0.00    -0.203 F 
ATOM     70  C   UNL A   1      37.549  29.704  28.848  1.00  0.00     0.198 A 
ATOM     71  C   UNL A   1      38.070  28.952  31.067  1.00  0.00     0.198 A 
ATOM     72  F   UNL A   1      40.238  28.185  31.571  1.00  0.00    -0.203 F 
ATOM     73  F   UNL A   1      36.671  30.212  27.972  1.00  0.00    -0.200 F 
ATOM     74  C   UNL A   1      37.159  29.468  30.158  1.00  0.00     0.200 A 
ATOM     75  F   UNL A   1      37.690  28.702  32.327  1.00  0.00    -0.200 F 
ATOM     76  F   UNL A   1      35.904  29.733  30.544  1.00  0.00    -0.200 F 
ENDBRANCH  52  66
BRANCH  53  77
ATOM     77  C   UNL A   1      49.061  26.837  26.288  1.00  0.00     0.064 A 
ATOM     78  C   UNL A   1      50.032  26.374  27.186  1.00  0.00     0.173 A 
ATOM     79  C   UNL A   1      49.443  27.032  24.953  1.00  0.00     0.173 A 
ATOM     80  F   UNL A   1      49.715  26.178  28.474  1.00  0.00    -0.203 F 
ATOM     81  C   UNL A   1      51.338  26.129  26.768  1.00  0.00     0.198 A 
ATOM     82  C   UNL A   1      50.744  26.767  24.532  1.00  0.00     0.198 A 
ATOM     83  F   UNL A   1      48.542  27.456  24.055  1.00  0.00    -0.203 F 
ATOM     84  F   UNL A   1      52.256  25.712  27.651  1.00  0.00    -0.200 F 
ATOM     85  C   UNL A   1      51.692  26.322  25.441  1.00  0.00     0.200 A 
ATOM     86  F   UNL A   1      51.076  26.937  23.245  1.00  0.00    -0.200 F 
ATOM     87  F   UNL A   1      52.946  26.078  25.037  1.00  0.00    -0.200 F 
ENDBRANCH  53  77
BRANCH  65  88
ATOM     88  C   UNL A   1      46.027  32.472  29.062  1.00  0.00     0.064 A 
ATOM     89  C   UNL A   1      46.503  32.696  30.362  1.00  0.00     0.173 A 
ATOM     90  C   UNL A   1      45.978  33.559  28.179  1.00  0.00     0.173 A 
ATOM     91  F   UNL A   1      46.560  31.687  31.245  1.00  0.00    -0.203 F 
ATOM     92  C   UNL A   1      46.905  33.965  30.768  1.00  0.00     0.198 A 
ATOM     93  C   UNL A   1      46.400  34.822  28.582  1.00  0.00     0.198 A 
ATOM     94  F   UNL A   1      45.541  33.389  26.923  1.00  0.00    -0.203 F 
ATOM     95  F   UNL A   1      47.332  34.163  32.022  1.00  0.00    -0.200 F 
ATOM     96  C   UNL A   1      46.854  35.027  29.876  1.00  0.00     0.200 A 
ATOM     97  F   UNL A   1      46.370  35.845  27.715  1.00  0.00    -0.200 F 
ATOM     98  F   UNL A   1      47.247  36.248  30.266  1.00  0.00    -0.200 F 
ENDBRANCH  65  88
ENDBRANCH  39  40
ENDBRANCH  31  34
ENDBRANCH  29  30
ENDBRANCH  28  29
ENDBRANCH  27  28
ENDBRANCH  26  27
ENDBRANCH   1  26
TORSDOF 18
ENDMDL
