MODEL 1
REMARK VINA RESULT:     -13.7      0.000      0.000
REMARK SMILES NS(=O)(=O)c1ccc(-n2nc(C(=O)NCCCCCCNC(=O)c3ccc(-c4c5nc(c(-c6c(F)c(F)c(F)c(F)c6F)c6ccc([nH]6)c(-c6c(F)c(F)c(F)c(F)c6F)c6nc(c(-c7c(F)c(F)c(F)c(F)c7F)c7ccc4[nH]7)C=C6)C=C5)cc3)c(Cl)c2-c2ccc(Cl)cc2)cc1
REMARK SMILES IDX 17 1 16 2 15 3 14 4 12 5 13 6 11 8 9 9 10 10 89 11 87 12
REMARK SMILES IDX 88 13 8 14 5 15 6 16 98 17 7 18 97 19 2 20 3 21 4 22 1 23
REMARK SMILES IDX 90 26 91 27 96 28 92 29 95 30 93 31 94 32 18 33 19 34 20 35
REMARK SMILES IDX 21 36 22 37 23 39 24 40 25 41 86 42 26 43 85 44 27 45 28 46
REMARK SMILES IDX 29 47 79 48 30 49 84 50 78 51 80 52 31 53 83 54 77 55 76 56
REMARK SMILES IDX 32 58 64 59 44 60 63 61 45 62 48 63 62 64 81 65 46 66 47 67
REMARK SMILES IDX 61 69 82 70 49 71 33 72 34 73 42 74 35 75 36 76 40 77 43 78
REMARK SMILES IDX 37 79 38 80 41 81 39 82 65 83 66 84 74 85 67 86 68 87 72 88
REMARK SMILES IDX 75 89 69 90 70 91 73 92 71 93 50 94 51 95 59 96 52 97 53 98
REMARK SMILES IDX 57 99 60 100 54 101 55 102 58 103 56 104
REMARK H PARENT 14 7 1 24 1 25 21 38 80 57 48 68
REMARK Flexibility Score: inf
ROOT
ATOM      1  C   UNL A   1      36.713  23.346  24.859  1.00  0.00     0.002 C 
ENDROOT
BRANCH   1   2
ATOM      2  C   UNL A   1      36.030  22.116  24.257  1.00  0.00     0.021 C 
BRANCH   2   3
ATOM      3  C   UNL A   1      35.073  21.368  25.199  1.00  0.00     0.116 C 
BRANCH   3   4
ATOM      4  N   UNL A   1      33.878  20.936  24.494  1.00  0.00    -0.351 N 
ATOM      5  C   UNL A   1      32.734  21.588  24.084  1.00  0.00     0.273 C 
ATOM      6  O   UNL A   1      31.942  20.906  23.427  1.00  0.00    -0.267 OA
ATOM      7  H   UNL A   1      33.887  19.979  24.261  1.00  0.00     0.163 HD
BRANCH   5   8
ATOM      8  C   UNL A   1      32.493  23.023  24.339  1.00  0.00     0.169 A 
ATOM      9  N   UNL A   1      31.796  25.023  23.913  1.00  0.00    -0.231 N 
ATOM     10  N   UNL A   1      31.792  23.754  23.440  1.00  0.00    -0.160 NA
ATOM     11  C   UNL A   1      32.583  25.147  25.044  1.00  0.00     0.094 A 
ATOM     12  C   UNL A   1      32.783  23.842  25.454  1.00  0.00     0.100 A 
ATOM     13  Cl  UNL A   1      33.205  23.405  27.041  1.00  0.00    -0.079 Cl
BRANCH   9  14
ATOM     14  C   UNL A   1      30.912  26.005  23.392  1.00  0.00     0.065 A 
ATOM     15  C   UNL A   1      29.298  28.203  22.832  1.00  0.00     0.082 A 
ATOM     16  C   UNL A   1      28.780  27.135  23.577  1.00  0.00     0.024 A 
ATOM     17  C   UNL A   1      30.586  28.140  22.298  1.00  0.00     0.024 A 
ATOM     18  C   UNL A   1      29.582  26.020  23.839  1.00  0.00     0.030 A 
ATOM     19  C   UNL A   1      31.400  27.045  22.589  1.00  0.00     0.030 A 
BRANCH  15  20
ATOM     20  S   UNL A   1      28.306  29.656  22.638  1.00  0.00     0.238 S 
ATOM     21  O   UNL A   1      28.181  29.915  21.212  1.00  0.00    -0.207 OA
ATOM     22  O   UNL A   1      28.735  30.646  23.576  1.00  0.00    -0.207 OA
BRANCH  20  23
ATOM     23  N   UNL A   1      26.769  29.188  23.138  1.00  0.00    -0.225 NA
ATOM     24  H   UNL A   1      26.792  28.215  23.441  1.00  0.00     0.137 HD
ATOM     25  H   UNL A   1      26.114  29.288  22.362  1.00  0.00     0.137 HD
ENDBRANCH  20  23
ENDBRANCH  15  20
ENDBRANCH   9  14
BRANCH  11  26
ATOM     26  C   UNL A   1      32.845  26.345  25.832  1.00  0.00     0.002 A 
ATOM     27  C   UNL A   1      31.836  26.829  26.677  1.00  0.00     0.012 A 
ATOM     28  C   UNL A   1      33.995  27.111  25.611  1.00  0.00     0.012 A 
ATOM     29  C   UNL A   1      31.958  28.090  27.263  1.00  0.00     0.021 A 
ATOM     30  C   UNL A   1      34.114  28.372  26.198  1.00  0.00     0.021 A 
ATOM     31  C   UNL A   1      33.089  28.863  27.006  1.00  0.00     0.041 A 
ATOM     32  Cl  UNL A   1      33.199  30.451  27.655  1.00  0.00    -0.084 Cl
ENDBRANCH  11  26
ENDBRANCH   5   8
ENDBRANCH   3   4
ENDBRANCH   2   3
ENDBRANCH   1   2
BRANCH   1  33
ATOM     33  C   UNL A   1      37.889  23.057  25.803  1.00  0.00     0.002 C 
BRANCH  33  34
ATOM     34  C   UNL A   1      38.640  21.735  25.586  1.00  0.00     0.021 C 
BRANCH  34  35
ATOM     35  C   UNL A   1      39.755  21.471  26.592  1.00  0.00     0.116 C 
BRANCH  35  36
ATOM     36  N   UNL A   1      41.077  21.519  25.974  1.00  0.00    -0.352 N 
ATOM     37  C   UNL A   1      41.924  22.593  25.815  1.00  0.00     0.251 C 
ATOM     38  H   UNL A   1      41.411  20.662  25.621  1.00  0.00     0.163 HD
ATOM     39  O   UNL A   1      42.828  22.561  24.987  1.00  0.00    -0.269 OA
BRANCH  37  40
ATOM     40  C   UNL A   1      41.729  23.797  26.641  1.00  0.00     0.039 A 
ATOM     41  C   UNL A   1      42.315  23.889  27.907  1.00  0.00     0.014 A 
ATOM     42  C   UNL A   1      40.958  24.842  26.137  1.00  0.00     0.014 A 
ATOM     43  C   UNL A   1      42.193  25.075  28.625  1.00  0.00     0.010 A 
ATOM     44  C   UNL A   1      40.938  26.052  26.791  1.00  0.00     0.010 A 
ATOM     45  C   UNL A   1      41.523  26.167  28.051  1.00  0.00    -0.014 A 
BRANCH  45  46
ATOM     46  C   UNL A   1      41.542  27.470  28.715  1.00  0.00     0.031 A 
ATOM     47  C   UNL A   1      42.670  28.364  28.323  1.00  0.00     0.074 A 
ATOM     48  C   UNL A   1      40.501  27.942  29.434  1.00  0.00     0.049 A 
ATOM     49  N   UNL A   1      43.578  28.886  29.082  1.00  0.00    -0.248 NA
ATOM     50  C   UNL A   1      42.862  28.643  26.891  1.00  0.00     0.031 C 
ATOM     51  C   UNL A   1      39.186  27.317  29.626  1.00  0.00     0.029 A 
ATOM     52  N   UNL A   1      40.352  29.152  30.045  1.00  0.00    -0.354 N 
ATOM     53  C   UNL A   1      44.359  29.695  28.256  1.00  0.00     0.074 A 
ATOM     54  C   UNL A   1      43.971  29.387  26.906  1.00  0.00     0.031 C 
ATOM     55  C   UNL A   1      38.313  28.237  30.084  1.00  0.00     0.029 A 
ATOM     56  C   UNL A   1      39.040  29.457  30.383  1.00  0.00     0.049 A 
ATOM     57  H   UNL A   1      41.107  29.756  30.228  1.00  0.00     0.167 HD
ATOM     58  C   UNL A   1      45.099  30.719  28.768  1.00  0.00     0.037 A 
ATOM     59  C   UNL A   1      38.571  30.639  30.846  1.00  0.00     0.037 A 
ATOM     60  C   UNL A   1      45.264  30.569  30.192  1.00  0.00     0.049 A 
ATOM     61  C   UNL A   1      39.725  31.395  31.381  1.00  0.00     0.074 A 
ATOM     62  C   UNL A   1      45.871  29.653  31.024  1.00  0.00     0.029 A 
ATOM     63  N   UNL A   1      44.435  31.317  30.986  1.00  0.00    -0.354 N 
ATOM     64  N   UNL A   1      40.393  31.056  32.447  1.00  0.00    -0.248 NA
ATOM     65  C   UNL A   1      40.382  32.362  30.515  1.00  0.00     0.031 C 
ATOM     66  C   UNL A   1      45.066  29.623  32.202  1.00  0.00     0.029 A 
ATOM     67  C   UNL A   1      44.036  30.552  32.046  1.00  0.00     0.049 A 
ATOM     68  H   UNL A   1      44.172  32.251  30.820  1.00  0.00     0.167 HD
ATOM     69  C   UNL A   1      41.701  31.410  32.164  1.00  0.00     0.074 A 
ATOM     70  C   UNL A   1      41.604  32.344  31.049  1.00  0.00     0.031 C 
ATOM     71  C   UNL A   1      42.739  30.683  32.671  1.00  0.00     0.037 A 
BRANCH  58  72
ATOM     72  C   UNL A   1      45.318  32.063  28.092  1.00  0.00     0.064 A 
ATOM     73  C   UNL A   1      44.191  32.860  27.784  1.00  0.00     0.173 A 
ATOM     74  C   UNL A   1      46.513  32.442  27.444  1.00  0.00     0.173 A 
ATOM     75  F   UNL A   1      42.997  32.601  28.340  1.00  0.00    -0.203 F 
ATOM     76  C   UNL A   1      44.236  33.871  26.821  1.00  0.00     0.198 A 
ATOM     77  C   UNL A   1      46.564  33.488  26.521  1.00  0.00     0.198 A 
ATOM     78  F   UNL A   1      47.653  31.758  27.583  1.00  0.00    -0.203 F 
ATOM     79  F   UNL A   1      43.106  34.496  26.459  1.00  0.00    -0.200 F 
ATOM     80  C   UNL A   1      45.421  34.175  26.180  1.00  0.00     0.200 A 
ATOM     81  F   UNL A   1      47.721  33.760  25.901  1.00  0.00    -0.200 F 
ATOM     82  F   UNL A   1      45.452  35.092  25.202  1.00  0.00    -0.200 F 
ENDBRANCH  58  72
BRANCH  59  83
ATOM     83  C   UNL A   1      37.238  31.254  30.657  1.00  0.00     0.064 A 
ATOM     84  C   UNL A   1      36.406  31.526  31.756  1.00  0.00     0.173 A 
ATOM     85  C   UNL A   1      36.869  31.840  29.430  1.00  0.00     0.173 A 
ATOM     86  F   UNL A   1      36.706  31.036  32.966  1.00  0.00    -0.203 F 
ATOM     87  C   UNL A   1      35.292  32.364  31.642  1.00  0.00     0.198 A 
ATOM     88  C   UNL A   1      35.753  32.669  29.317  1.00  0.00     0.198 A 
ATOM     89  F   UNL A   1      37.640  31.698  28.343  1.00  0.00    -0.203 F 
ATOM     90  F   UNL A   1      34.564  32.657  32.727  1.00  0.00    -0.200 F 
ATOM     91  C   UNL A   1      34.974  32.945  30.425  1.00  0.00     0.200 A 
ATOM     92  F   UNL A   1      35.476  33.253  28.142  1.00  0.00    -0.200 F 
ATOM     93  F   UNL A   1      33.949  33.801  30.331  1.00  0.00    -0.200 F 
ENDBRANCH  59  83
BRANCH  71  94
ATOM     94  C   UNL A   1      42.450  29.777  33.834  1.00  0.00     0.064 A 
ATOM     95  C   UNL A   1      41.975  28.460  33.719  1.00  0.00     0.173 A 
ATOM     96  C   UNL A   1      42.778  30.236  35.117  1.00  0.00     0.173 A 
ATOM     97  F   UNL A   1      41.731  27.914  32.522  1.00  0.00    -0.203 F 
ATOM     98  C   UNL A   1      41.794  27.659  34.845  1.00  0.00     0.198 A 
ATOM     99  C   UNL A   1      42.635  29.420  36.235  1.00  0.00     0.198 A 
ATOM    100  F   UNL A   1      43.284  31.469  35.281  1.00  0.00    -0.203 F 
ATOM    101  F   UNL A   1      41.319  26.411  34.713  1.00  0.00    -0.200 F 
ATOM    102  C   UNL A   1      42.130  28.137  36.101  1.00  0.00     0.200 A 
ATOM    103  F   UNL A   1      43.009  29.871  37.440  1.00  0.00    -0.200 F 
ATOM    104  F   UNL A   1      41.994  27.354  37.179  1.00  0.00    -0.200 F 
ENDBRANCH  71  94
ENDBRANCH  45  46
ENDBRANCH  37  40
ENDBRANCH  35  36
ENDBRANCH  34  35
ENDBRANCH  33  34
ENDBRANCH   1  33
TORSDOF 17
ENDMDL
MODEL 2
REMARK VINA RESULT:     -13.3      3.397      8.926
REMARK SMILES NS(=O)(=O)c1ccc(-n2nc(C(=O)NCCCCCCNC(=O)c3ccc(-c4c5nc(c(-c6c(F)c(F)c(F)c(F)c6F)c6ccc([nH]6)c(-c6c(F)c(F)c(F)c(F)c6F)c6nc(c(-c7c(F)c(F)c(F)c(F)c7F)c7ccc4[nH]7)C=C6)C=C5)cc3)c(Cl)c2-c2ccc(Cl)cc2)cc1
REMARK SMILES IDX 17 1 16 2 15 3 14 4 12 5 13 6 11 8 9 9 10 10 89 11 87 12
REMARK SMILES IDX 88 13 8 14 5 15 6 16 98 17 7 18 97 19 2 20 3 21 4 22 1 23
REMARK SMILES IDX 90 26 91 27 96 28 92 29 95 30 93 31 94 32 18 33 19 34 20 35
REMARK SMILES IDX 21 36 22 37 23 39 24 40 25 41 86 42 26 43 85 44 27 45 28 46
REMARK SMILES IDX 29 47 79 48 30 49 84 50 78 51 80 52 31 53 83 54 77 55 76 56
REMARK SMILES IDX 32 58 64 59 44 60 63 61 45 62 48 63 62 64 81 65 46 66 47 67
REMARK SMILES IDX 61 69 82 70 49 71 33 72 34 73 42 74 35 75 36 76 40 77 43 78
REMARK SMILES IDX 37 79 38 80 41 81 39 82 65 83 66 84 74 85 67 86 68 87 72 88
REMARK SMILES IDX 75 89 69 90 70 91 73 92 71 93 50 94 51 95 59 96 52 97 53 98
REMARK SMILES IDX 57 99 60 100 54 101 55 102 58 103 56 104
REMARK H PARENT 14 7 1 24 1 25 21 38 80 57 48 68
REMARK Flexibility Score: inf
ROOT
ATOM      1  C   UNL A   1      33.099  27.854  26.837  1.00  0.00     0.002 C 
ENDROOT
BRANCH   1   2
ATOM      2  C   UNL A   1      31.716  28.261  26.324  1.00  0.00     0.021 C 
BRANCH   2   3
ATOM      3  C   UNL A   1      31.710  29.047  25.003  1.00  0.00     0.116 C 
BRANCH   3   4
ATOM      4  N   UNL A   1      30.726  28.508  24.079  1.00  0.00    -0.351 N 
ATOM      5  C   UNL A   1      30.561  27.272  23.489  1.00  0.00     0.273 C 
ATOM      6  O   UNL A   1      29.544  27.146  22.800  1.00  0.00    -0.267 OA
ATOM      7  H   UNL A   1      30.034  29.159  23.821  1.00  0.00     0.163 HD
BRANCH   5   8
ATOM      8  C   UNL A   1      31.487  26.144  23.716  1.00  0.00     0.169 A 
ATOM      9  N   UNL A   1      32.063  24.110  24.160  1.00  0.00    -0.231 N 
ATOM     10  N   UNL A   1      30.991  24.901  23.922  1.00  0.00    -0.160 NA
ATOM     11  C   UNL A   1      33.236  24.840  24.222  1.00  0.00     0.094 A 
ATOM     12  C   UNL A   1      32.897  26.061  23.668  1.00  0.00     0.100 A 
ATOM     13  Cl  UNL A   1      34.027  27.141  23.000  1.00  0.00    -0.079 Cl
BRANCH   9  14
ATOM     14  C   UNL A   1      31.955  22.694  24.126  1.00  0.00     0.065 A 
ATOM     15  C   UNL A   1      32.290  19.933  24.012  1.00  0.00     0.082 A 
ATOM     16  C   UNL A   1      32.151  20.663  22.824  1.00  0.00     0.024 A 
ATOM     17  C   UNL A   1      32.179  20.563  25.253  1.00  0.00     0.024 A 
ATOM     18  C   UNL A   1      31.960  22.047  22.881  1.00  0.00     0.030 A 
ATOM     19  C   UNL A   1      32.025  21.949  25.310  1.00  0.00     0.030 A 
BRANCH  15  20
ATOM     20  S   UNL A   1      32.671  18.208  23.902  1.00  0.00     0.238 S 
ATOM     21  O   UNL A   1      31.793  17.505  24.825  1.00  0.00    -0.207 OA
ATOM     22  O   UNL A   1      34.091  18.040  23.895  1.00  0.00    -0.207 OA
BRANCH  20  23
ATOM     23  N   UNL A   1      32.150  17.757  22.367  1.00  0.00    -0.225 NA
ATOM     24  H   UNL A   1      32.445  18.460  21.688  1.00  0.00     0.137 HD
ATOM     25  H   UNL A   1      31.133  17.685  22.361  1.00  0.00     0.137 HD
ENDBRANCH  20  23
ENDBRANCH  15  20
ENDBRANCH   9  14
BRANCH  11  26
ATOM     26  C   UNL A   1      34.589  24.354  24.467  1.00  0.00     0.002 A 
ATOM     27  C   UNL A   1      35.238  23.632  23.455  1.00  0.00     0.012 A 
ATOM     28  C   UNL A   1      35.157  24.428  25.743  1.00  0.00     0.012 A 
ATOM     29  C   UNL A   1      36.426  22.954  23.731  1.00  0.00     0.021 A 
ATOM     30  C   UNL A   1      36.345  23.749  26.016  1.00  0.00     0.021 A 
ATOM     31  C   UNL A   1      36.965  23.001  25.015  1.00  0.00     0.041 A 
ATOM     32  Cl  UNL A   1      38.380  22.094  25.377  1.00  0.00    -0.084 Cl
ENDBRANCH  11  26
ENDBRANCH   5   8
ENDBRANCH   3   4
ENDBRANCH   2   3
ENDBRANCH   1   2
BRANCH   1  33
ATOM     33  C   UNL A   1      34.097  29.004  27.036  1.00  0.00     0.002 C 
BRANCH  33  34
ATOM     34  C   UNL A   1      33.540  30.307  27.628  1.00  0.00     0.021 C 
BRANCH  34  35
ATOM     35  C   UNL A   1      34.537  31.460  27.662  1.00  0.00     0.116 C 
BRANCH  35  36
ATOM     36  N   UNL A   1      34.547  32.143  28.953  1.00  0.00    -0.352 N 
ATOM     37  C   UNL A   1      35.322  31.892  30.063  1.00  0.00     0.251 C 
ATOM     38  H   UNL A   1      33.909  32.888  29.042  1.00  0.00     0.163 HD
ATOM     39  O   UNL A   1      34.986  32.307  31.167  1.00  0.00    -0.269 OA
BRANCH  37  40
ATOM     40  C   UNL A   1      36.557  31.104  29.920  1.00  0.00     0.039 A 
ATOM     41  C   UNL A   1      37.791  31.745  29.765  1.00  0.00     0.014 A 
ATOM     42  C   UNL A   1      36.478  29.714  29.949  1.00  0.00     0.014 A 
ATOM     43  C   UNL A   1      38.952  30.979  29.727  1.00  0.00     0.010 A 
ATOM     44  C   UNL A   1      37.630  28.967  30.033  1.00  0.00     0.010 A 
ATOM     45  C   UNL A   1      38.870  29.587  29.888  1.00  0.00    -0.014 A 
BRANCH  45  46
ATOM     46  C   UNL A   1      40.089  28.791  30.030  1.00  0.00     0.031 A 
ATOM     47  C   UNL A   1      40.550  28.586  31.434  1.00  0.00     0.074 A 
ATOM     48  C   UNL A   1      40.627  28.085  29.013  1.00  0.00     0.049 A 
ATOM     49  N   UNL A   1      41.686  28.912  31.959  1.00  0.00    -0.248 NA
ATOM     50  C   UNL A   1      39.592  28.022  32.398  1.00  0.00     0.031 C 
ATOM     51  C   UNL A   1      40.092  27.917  27.656  1.00  0.00     0.029 A 
ATOM     52  N   UNL A   1      41.708  27.254  29.016  1.00  0.00    -0.354 N 
ATOM     53  C   UNL A   1      41.656  28.446  33.274  1.00  0.00     0.074 A 
ATOM     54  C   UNL A   1      40.298  28.050  33.531  1.00  0.00     0.031 C 
ATOM     55  C   UNL A   1      40.699  26.871  27.059  1.00  0.00     0.029 A 
ATOM     56  C   UNL A   1      41.776  26.410  27.915  1.00  0.00     0.049 A 
ATOM     57  H   UNL A   1      42.380  27.252  29.735  1.00  0.00     0.167 HD
ATOM     58  C   UNL A   1      42.808  28.212  33.965  1.00  0.00     0.037 A 
ATOM     59  C   UNL A   1      42.635  25.381  27.729  1.00  0.00     0.037 A 
ATOM     60  C   UNL A   1      43.925  28.867  33.333  1.00  0.00     0.049 A 
ATOM     61  C   UNL A   1      43.780  25.588  28.642  1.00  0.00     0.074 A 
ATOM     62  C   UNL A   1      44.290  30.172  33.077  1.00  0.00     0.029 A 
ATOM     63  N   UNL A   1      44.726  28.084  32.544  1.00  0.00    -0.354 N 
ATOM     64  N   UNL A   1      44.651  26.550  28.521  1.00  0.00    -0.248 NA
ATOM     65  C   UNL A   1      43.765  24.920  29.935  1.00  0.00     0.031 C 
ATOM     66  C   UNL A   1      45.002  30.128  31.841  1.00  0.00     0.029 A 
ATOM     67  C   UNL A   1      45.074  28.796  31.430  1.00  0.00     0.049 A 
ATOM     68  H   UNL A   1      45.005  27.162  32.746  1.00  0.00     0.167 HD
ATOM     69  C   UNL A   1      44.968  26.896  29.823  1.00  0.00     0.074 A 
ATOM     70  C   UNL A   1      44.526  25.766  30.631  1.00  0.00     0.031 C 
ATOM     71  C   UNL A   1      45.288  28.186  30.137  1.00  0.00     0.037 A 
BRANCH  58  72
ATOM     72  C   UNL A   1      43.021  27.073  34.948  1.00  0.00     0.064 A 
ATOM     73  C   UNL A   1      43.300  27.385  36.298  1.00  0.00     0.173 A 
ATOM     74  C   UNL A   1      43.294  25.740  34.574  1.00  0.00     0.173 A 
ATOM     75  F   UNL A   1      43.080  28.620  36.775  1.00  0.00    -0.203 F 
ATOM     76  C   UNL A   1      43.910  26.472  37.163  1.00  0.00     0.198 A 
ATOM     77  C   UNL A   1      43.855  24.815  35.456  1.00  0.00     0.198 A 
ATOM     78  F   UNL A   1      43.139  25.300  33.322  1.00  0.00    -0.203 F 
ATOM     79  F   UNL A   1      44.290  26.865  38.387  1.00  0.00    -0.200 F 
ATOM     80  C   UNL A   1      44.200  25.191  36.736  1.00  0.00     0.200 A 
ATOM     81  F   UNL A   1      44.140  23.579  35.020  1.00  0.00    -0.200 F 
ATOM     82  F   UNL A   1      44.853  24.336  37.536  1.00  0.00    -0.200 F 
ENDBRANCH  58  72
BRANCH  59  83
ATOM     83  C   UNL A   1      42.432  24.119  26.983  1.00  0.00     0.064 A 
ATOM     84  C   UNL A   1      43.164  23.844  25.816  1.00  0.00     0.173 A 
ATOM     85  C   UNL A   1      41.724  23.041  27.548  1.00  0.00     0.173 A 
ATOM     86  F   UNL A   1      43.894  24.807  25.236  1.00  0.00    -0.203 F 
ATOM     87  C   UNL A   1      43.215  22.558  25.268  1.00  0.00     0.198 A 
ATOM     88  C   UNL A   1      41.769  21.760  26.995  1.00  0.00     0.198 A 
ATOM     89  F   UNL A   1      41.057  23.186  28.701  1.00  0.00    -0.203 F 
ATOM     90  F   UNL A   1      43.981  22.320  24.195  1.00  0.00    -0.200 F 
ATOM     91  C   UNL A   1      42.527  21.515  25.866  1.00  0.00     0.200 A 
ATOM     92  F   UNL A   1      41.127  20.752  27.603  1.00  0.00    -0.200 F 
ATOM     93  F   UNL A   1      42.630  20.270  25.381  1.00  0.00    -0.200 F 
ENDBRANCH  59  83
BRANCH  71  94
ATOM     94  C   UNL A   1      45.676  29.099  29.010  1.00  0.00     0.064 A 
ATOM     95  C   UNL A   1      44.770  29.864  28.255  1.00  0.00     0.173 A 
ATOM     96  C   UNL A   1      47.042  29.288  28.762  1.00  0.00     0.173 A 
ATOM     97  F   UNL A   1      43.455  29.815  28.496  1.00  0.00    -0.203 F 
ATOM     98  C   UNL A   1      45.215  30.740  27.267  1.00  0.00     0.198 A 
ATOM     99  C   UNL A   1      47.485  30.194  27.804  1.00  0.00     0.198 A 
ATOM    100  F   UNL A   1      47.955  28.622  29.488  1.00  0.00    -0.203 F 
ATOM    101  F   UNL A   1      44.330  31.443  26.545  1.00  0.00    -0.200 F 
ATOM    102  C   UNL A   1      46.572  30.909  27.047  1.00  0.00     0.200 A 
ATOM    103  F   UNL A   1      48.800  30.390  27.630  1.00  0.00    -0.200 F 
ATOM    104  F   UNL A   1      47.001  31.781  26.124  1.00  0.00    -0.200 F 
ENDBRANCH  71  94
ENDBRANCH  45  46
ENDBRANCH  37  40
ENDBRANCH  35  36
ENDBRANCH  34  35
ENDBRANCH  33  34
ENDBRANCH   1  33
TORSDOF 17
ENDMDL
MODEL 3
REMARK VINA RESULT:     -13.1      3.395      8.973
REMARK SMILES NS(=O)(=O)c1ccc(-n2nc(C(=O)NCCCCCCNC(=O)c3ccc(-c4c5nc(c(-c6c(F)c(F)c(F)c(F)c6F)c6ccc([nH]6)c(-c6c(F)c(F)c(F)c(F)c6F)c6nc(c(-c7c(F)c(F)c(F)c(F)c7F)c7ccc4[nH]7)C=C6)C=C5)cc3)c(Cl)c2-c2ccc(Cl)cc2)cc1
REMARK SMILES IDX 17 1 16 2 15 3 14 4 12 5 13 6 11 8 9 9 10 10 89 11 87 12
REMARK SMILES IDX 88 13 8 14 5 15 6 16 98 17 7 18 97 19 2 20 3 21 4 22 1 23
REMARK SMILES IDX 90 26 91 27 96 28 92 29 95 30 93 31 94 32 18 33 19 34 20 35
REMARK SMILES IDX 21 36 22 37 23 39 24 40 25 41 86 42 26 43 85 44 27 45 28 46
REMARK SMILES IDX 29 47 79 48 30 49 84 50 78 51 80 52 31 53 83 54 77 55 76 56
REMARK SMILES IDX 32 58 64 59 44 60 63 61 45 62 48 63 62 64 81 65 46 66 47 67
REMARK SMILES IDX 61 69 82 70 49 71 33 72 34 73 42 74 35 75 36 76 40 77 43 78
REMARK SMILES IDX 37 79 38 80 41 81 39 82 65 83 66 84 74 85 67 86 68 87 72 88
REMARK SMILES IDX 75 89 69 90 70 91 73 92 71 93 50 94 51 95 59 96 52 97 53 98
REMARK SMILES IDX 57 99 60 100 54 101 55 102 58 103 56 104
REMARK H PARENT 14 7 1 24 1 25 21 38 80 57 48 68
REMARK Flexibility Score: inf
ROOT
ATOM      1  C   UNL A   1      31.790  28.250  27.607  1.00  0.00     0.002 C 
ENDROOT
BRANCH   1   2
ATOM      2  C   UNL A   1      31.068  27.363  26.590  1.00  0.00     0.021 C 
BRANCH   2   3
ATOM      3  C   UNL A   1      31.194  27.807  25.124  1.00  0.00     0.116 C 
BRANCH   3   4
ATOM      4  N   UNL A   1      30.245  27.099  24.281  1.00  0.00    -0.351 N 
ATOM      5  C   UNL A   1      30.218  25.826  23.749  1.00  0.00     0.273 C 
ATOM      6  O   UNL A   1      29.193  25.534  23.126  1.00  0.00    -0.267 OA
ATOM      7  H   UNL A   1      29.458  27.639  24.039  1.00  0.00     0.163 HD
BRANCH   5   8
ATOM      8  C   UNL A   1      31.301  24.844  23.964  1.00  0.00     0.169 A 
ATOM      9  N   UNL A   1      32.171  22.922  24.430  1.00  0.00    -0.231 N 
ATOM     10  N   UNL A   1      30.990  23.550  24.216  1.00  0.00    -0.160 NA
ATOM     11  C   UNL A   1      33.232  23.809  24.430  1.00  0.00     0.094 A 
ATOM     12  C   UNL A   1      32.706  24.956  23.863  1.00  0.00     0.100 A 
ATOM     13  Cl  UNL A   1      33.650  26.164  23.129  1.00  0.00    -0.079 Cl
BRANCH   9  14
ATOM     14  C   UNL A   1      32.260  21.505  24.430  1.00  0.00     0.065 A 
ATOM     15  C   UNL A   1      32.959  18.814  24.293  1.00  0.00     0.082 A 
ATOM     16  C   UNL A   1      32.528  19.476  23.137  1.00  0.00     0.024 A 
ATOM     17  C   UNL A   1      32.962  19.466  25.529  1.00  0.00     0.024 A 
ATOM     18  C   UNL A   1      32.154  20.822  23.208  1.00  0.00     0.030 A 
ATOM     19  C   UNL A   1      32.625  20.817  25.595  1.00  0.00     0.030 A 
BRANCH  15  20
ATOM     20  S   UNL A   1      33.557  17.155  24.142  1.00  0.00     0.238 S 
ATOM     21  O   UNL A   1      33.921  16.945  22.749  1.00  0.00    -0.207 OA
ATOM     22  O   UNL A   1      32.690  16.275  24.863  1.00  0.00    -0.207 OA
BRANCH  20  23
ATOM     23  N   UNL A   1      35.014  17.152  24.984  1.00  0.00    -0.225 NA
ATOM     24  H   UNL A   1      35.087  16.295  25.532  1.00  0.00     0.137 HD
ATOM     25  H   UNL A   1      35.047  17.958  25.608  1.00  0.00     0.137 HD
ENDBRANCH  20  23
ENDBRANCH  15  20
ENDBRANCH   9  14
BRANCH  11  26
ATOM     26  C   UNL A   1      34.647  23.522  24.632  1.00  0.00     0.002 A 
ATOM     27  C   UNL A   1      35.365  22.912  23.594  1.00  0.00     0.012 A 
ATOM     28  C   UNL A   1      35.234  23.666  25.894  1.00  0.00     0.012 A 
ATOM     29  C   UNL A   1      36.646  22.411  23.829  1.00  0.00     0.021 A 
ATOM     30  C   UNL A   1      36.515  23.163  26.126  1.00  0.00     0.021 A 
ATOM     31  C   UNL A   1      37.207  22.523  25.099  1.00  0.00     0.041 A 
ATOM     32  Cl  UNL A   1      38.748  21.827  25.412  1.00  0.00    -0.084 Cl
ENDBRANCH  11  26
ENDBRANCH   5   8
ENDBRANCH   3   4
ENDBRANCH   2   3
ENDBRANCH   1   2
BRANCH   1  33
ATOM     33  C   UNL A   1      33.230  28.638  27.245  1.00  0.00     0.002 C 
BRANCH  33  34
ATOM     34  C   UNL A   1      33.502  30.130  27.001  1.00  0.00     0.021 C 
BRANCH  34  35
ATOM     35  C   UNL A   1      34.794  30.645  27.625  1.00  0.00     0.116 C 
BRANCH  35  36
ATOM     36  N   UNL A   1      34.543  31.613  28.690  1.00  0.00    -0.352 N 
ATOM     37  C   UNL A   1      35.135  31.715  29.929  1.00  0.00     0.251 C 
ATOM     38  H   UNL A   1      33.854  32.288  28.494  1.00  0.00     0.163 HD
ATOM     39  O   UNL A   1      34.593  32.344  30.832  1.00  0.00    -0.269 OA
BRANCH  37  40
ATOM     40  C   UNL A   1      36.425  31.048  30.172  1.00  0.00     0.039 A 
ATOM     41  C   UNL A   1      36.465  29.704  30.558  1.00  0.00     0.014 A 
ATOM     42  C   UNL A   1      37.602  31.774  30.004  1.00  0.00     0.014 A 
ATOM     43  C   UNL A   1      37.699  29.074  30.688  1.00  0.00     0.010 A 
ATOM     44  C   UNL A   1      38.813  31.122  30.014  1.00  0.00     0.010 A 
ATOM     45  C   UNL A   1      38.874  29.781  30.390  1.00  0.00    -0.014 A 
BRANCH  45  46
ATOM     46  C   UNL A   1      40.159  29.084  30.348  1.00  0.00     0.031 A 
ATOM     47  C   UNL A   1      40.825  28.904  31.671  1.00  0.00     0.074 A 
ATOM     48  C   UNL A   1      40.605  28.433  29.253  1.00  0.00     0.049 A 
ATOM     49  N   UNL A   1      41.993  29.315  32.041  1.00  0.00    -0.248 NA
ATOM     50  C   UNL A   1      40.056  28.256  32.746  1.00  0.00     0.031 C 
ATOM     51  C   UNL A   1      39.903  28.235  27.978  1.00  0.00     0.029 A 
ATOM     52  N   UNL A   1      41.738  27.692  29.091  1.00  0.00    -0.354 N 
ATOM     53  C   UNL A   1      42.183  28.836  33.339  1.00  0.00     0.074 A 
ATOM     54  C   UNL A   1      40.908  28.330  33.771  1.00  0.00     0.031 C 
ATOM     55  C   UNL A   1      40.501  27.246  27.283  1.00  0.00     0.029 A 
ATOM     56  C   UNL A   1      41.719  26.866  27.974  1.00  0.00     0.049 A 
ATOM     57  H   UNL A   1      42.501  27.737  29.711  1.00  0.00     0.167 HD
ATOM     58  C   UNL A   1      43.433  28.689  33.860  1.00  0.00     0.037 A 
ATOM     59  C   UNL A   1      42.622  25.911  27.651  1.00  0.00     0.037 A 
ATOM     60  C   UNL A   1      44.398  29.438  33.095  1.00  0.00     0.049 A 
ATOM     61  C   UNL A   1      43.863  26.201  28.403  1.00  0.00     0.074 A 
ATOM     62  C   UNL A   1      44.621  30.770  32.818  1.00  0.00     0.029 A 
ATOM     63  N   UNL A   1      45.141  28.729  32.187  1.00  0.00    -0.354 N 
ATOM     64  N   UNL A   1      44.630  27.231  28.182  1.00  0.00    -0.248 NA
ATOM     65  C   UNL A   1      44.079  25.522  29.671  1.00  0.00     0.031 C 
ATOM     66  C   UNL A   1      45.156  30.795  31.495  1.00  0.00     0.029 A 
ATOM     67  C   UNL A   1      45.275  29.477  31.051  1.00  0.00     0.049 A 
ATOM     68  H   UNL A   1      45.516  27.830  32.331  1.00  0.00     0.167 HD
ATOM     69  C   UNL A   1      45.097  27.590  29.435  1.00  0.00     0.074 A 
ATOM     70  C   UNL A   1      44.860  26.420  30.274  1.00  0.00     0.031 C 
ATOM     71  C   UNL A   1      45.354  28.897  29.729  1.00  0.00     0.037 A 
BRANCH  58  72
ATOM     72  C   UNL A   1      43.869  27.562  34.782  1.00  0.00     0.064 A 
ATOM     73  C   UNL A   1      43.672  26.227  34.361  1.00  0.00     0.173 A 
ATOM     74  C   UNL A   1      44.147  27.720  36.156  1.00  0.00     0.173 A 
ATOM     75  F   UNL A   1      43.404  25.946  33.076  1.00  0.00    -0.203 F 
ATOM     76  C   UNL A   1      43.640  25.159  35.262  1.00  0.00     0.198 A 
ATOM     77  C   UNL A   1      44.166  26.644  37.045  1.00  0.00     0.198 A 
ATOM     78  F   UNL A   1      44.302  28.921  36.723  1.00  0.00    -0.203 F 
ATOM     79  F   UNL A   1      43.301  23.935  34.833  1.00  0.00    -0.200 F 
ATOM     80  C   UNL A   1      43.873  25.371  36.607  1.00  0.00     0.200 A 
ATOM     81  F   UNL A   1      44.383  26.872  38.348  1.00  0.00    -0.200 F 
ATOM     82  F   UNL A   1      43.769  24.364  37.485  1.00  0.00    -0.200 F 
ENDBRANCH  58  72
BRANCH  59  83
ATOM     83  C   UNL A   1      42.418  24.643  26.914  1.00  0.00     0.064 A 
ATOM     84  C   UNL A   1      43.042  24.418  25.676  1.00  0.00     0.173 A 
ATOM     85  C   UNL A   1      41.833  23.523  27.535  1.00  0.00     0.173 A 
ATOM     86  F   UNL A   1      43.654  25.425  25.037  1.00  0.00    -0.203 F 
ATOM     87  C   UNL A   1      43.111  23.141  25.111  1.00  0.00     0.198 A 
ATOM     88  C   UNL A   1      41.895  22.250  26.966  1.00  0.00     0.198 A 
ATOM     89  F   UNL A   1      41.279  23.622  28.751  1.00  0.00    -0.203 F 
ATOM     90  F   UNL A   1      43.777  22.954  23.964  1.00  0.00    -0.200 F 
ATOM     91  C   UNL A   1      42.548  22.056  25.763  1.00  0.00     0.200 A 
ATOM     92  F   UNL A   1      41.377  21.203  27.623  1.00  0.00    -0.200 F 
ATOM     93  F   UNL A   1      42.673  20.822  25.256  1.00  0.00    -0.200 F 
ENDBRANCH  59  83
BRANCH  71  94
ATOM     94  C   UNL A   1      45.510  29.849  28.578  1.00  0.00     0.064 A 
ATOM     95  C   UNL A   1      44.447  30.509  27.939  1.00  0.00     0.173 A 
ATOM     96  C   UNL A   1      46.811  30.190  28.182  1.00  0.00     0.173 A 
ATOM     97  F   UNL A   1      43.180  30.314  28.324  1.00  0.00    -0.203 F 
ATOM     98  C   UNL A   1      44.678  31.431  26.919  1.00  0.00     0.198 A 
ATOM     99  C   UNL A   1      47.041  31.140  27.192  1.00  0.00     0.198 A 
ATOM    100  F   UNL A   1      47.868  29.629  28.793  1.00  0.00    -0.203 F 
ATOM    101  F   UNL A   1      43.646  32.031  26.309  1.00  0.00    -0.200 F 
ATOM    102  C   UNL A   1      45.975  31.750  26.552  1.00  0.00     0.200 A 
ATOM    103  F   UNL A   1      48.298  31.481  26.876  1.00  0.00    -0.200 F 
ATOM    104  F   UNL A   1      46.199  32.665  25.598  1.00  0.00    -0.200 F 
ENDBRANCH  71  94
ENDBRANCH  45  46
ENDBRANCH  37  40
ENDBRANCH  35  36
ENDBRANCH  34  35
ENDBRANCH  33  34
ENDBRANCH   1  33
TORSDOF 17
ENDMDL
