MODEL 1
REMARK VINA RESULT:     -12.2      0.000      0.000
REMARK SMILES Cc1ccccc1SCC(=O)N[C@H]1C=C[C@H](C(=O)NCCCCCCNC(=O)c2ccc(-c3c4nc(c(-c5c(F)c(F)c(F)c(F)c5F)c5ccc([nH]5)c(-c5c(F)c(F)c(F)c(F)c5F)c5nc(c(-c6c(F)c(F)c(F)c(F)c6F)c6ccc3[nH]6)C=C5)C=C4)cc2)C1
REMARK SMILES IDX 21 1 20 2 19 3 17 4 18 5 16 7 13 8 14 9 92 10 15 11 12 12
REMARK SMILES IDX 10 13 11 14 9 16 8 17 7 18 1 19 2 20 3 21 4 22 6 23 5 24
REMARK SMILES IDX 22 25 23 26 24 27 25 28 26 29 27 30 28 32 29 33 30 34 91 35
REMARK SMILES IDX 31 36 90 37 32 38 33 39 34 40 84 41 35 42 89 43 83 44 85 45
REMARK SMILES IDX 36 46 88 47 82 48 81 49 37 51 69 52 49 53 68 54 50 55 53 56
REMARK SMILES IDX 67 57 86 58 51 59 52 60 66 62 87 63 54 64 38 65 39 66 47 67
REMARK SMILES IDX 40 68 41 69 45 70 48 71 42 72 43 73 46 74 44 75 70 76 71 77
REMARK SMILES IDX 79 78 72 79 73 80 77 81 80 82 74 83 75 84 78 85 76 86 55 87
REMARK SMILES IDX 56 88 64 89 57 90 58 91 62 92 65 93 59 94 60 95 63 96 61 97
REMARK H PARENT 19 6 12 15 26 31 85 50 53 61
REMARK Flexibility Score: inf
ROOT
ATOM      1  C   UNL A   1      38.818  19.513  25.499  1.00  0.00     0.021 C 
ENDROOT
BRANCH   1   2
ATOM      2  C   UNL A   1      37.710  20.416  24.958  1.00  0.00     0.116 C 
BRANCH   2   3
ATOM      3  N   UNL A   1      38.025  21.816  25.122  1.00  0.00    -0.356 N 
ATOM      4  C   UNL A   1      37.189  22.881  25.281  1.00  0.00     0.227 C 
ATOM      5  O   UNL A   1      37.693  23.991  25.460  1.00  0.00    -0.274 OA
ATOM      6  H   UNL A   1      38.985  22.034  25.120  1.00  0.00     0.163 HD
BRANCH   4   7
ATOM      7  C   UNL A   1      35.676  22.655  25.275  1.00  0.00     0.103 C 
ATOM      8  C   UNL A   1      34.713  24.222  23.664  1.00  0.00     0.106 C 
ATOM      9  C   UNL A   1      34.486  24.668  25.079  1.00  0.00    -0.006 C 
ATOM     10  C   UNL A   1      35.105  22.753  23.858  1.00  0.00     0.047 C 
ATOM     11  C   UNL A   1      35.001  23.805  25.963  1.00  0.00    -0.016 C 
BRANCH   8  12
ATOM     12  N   UNL A   1      33.480  24.407  22.937  1.00  0.00    -0.349 N 
ATOM     13  C   UNL A   1      32.970  25.518  22.345  1.00  0.00     0.230 C 
ATOM     14  O   UNL A   1      31.856  25.406  21.820  1.00  0.00    -0.274 OA
ATOM     15  H   UNL A   1      32.918  23.601  22.860  1.00  0.00     0.164 HD
BRANCH  13  16
ATOM     16  C   UNL A   1      33.775  26.785  22.167  1.00  0.00     0.174 C 
BRANCH  16  17
ATOM     17  S   UNL A   1      33.114  28.311  22.880  1.00  0.00    -0.116 SA
BRANCH  17  18
ATOM     18  C   UNL A   1      32.787  28.062  24.623  1.00  0.00     0.011 A 
ATOM     19  C   UNL A   1      30.393  27.092  24.573  1.00  0.00     0.045 C 
ATOM     20  C   UNL A   1      31.631  27.582  25.262  1.00  0.00    -0.038 A 
ATOM     21  C   UNL A   1      31.597  27.540  26.677  1.00  0.00     0.004 A 
ATOM     22  C   UNL A   1      32.647  28.025  27.452  1.00  0.00     0.000 A 
ATOM     23  C   UNL A   1      33.836  28.553  25.434  1.00  0.00     0.015 A 
ATOM     24  C   UNL A   1      33.768  28.544  26.829  1.00  0.00     0.001 A 
ENDBRANCH  17  18
ENDBRANCH  16  17
ENDBRANCH  13  16
ENDBRANCH   8  12
ENDBRANCH   4   7
ENDBRANCH   2   3
ENDBRANCH   1   2
BRANCH   1  25
ATOM     25  C   UNL A   1      40.172  20.194  25.740  1.00  0.00     0.002 C 
BRANCH  25  26
ATOM     26  C   UNL A   1      40.720  20.163  27.175  1.00  0.00     0.002 C 
BRANCH  26  27
ATOM     27  C   UNL A   1      41.030  21.515  27.823  1.00  0.00     0.021 C 
BRANCH  27  28
ATOM     28  C   UNL A   1      40.666  22.720  26.971  1.00  0.00     0.116 C 
BRANCH  28  29
ATOM     29  N   UNL A   1      41.775  23.266  26.198  1.00  0.00    -0.352 N 
ATOM     30  C   UNL A   1      42.035  24.590  25.884  1.00  0.00     0.251 C 
ATOM     31  H   UNL A   1      42.422  22.609  25.854  1.00  0.00     0.163 HD
ATOM     32  O   UNL A   1      43.006  24.900  25.217  1.00  0.00    -0.269 OA
BRANCH  30  33
ATOM     33  C   UNL A   1      41.170  25.639  26.480  1.00  0.00     0.039 A 
ATOM     34  C   UNL A   1      41.144  26.895  25.868  1.00  0.00     0.014 A 
ATOM     35  C   UNL A   1      40.572  25.446  27.723  1.00  0.00     0.014 A 
ATOM     36  C   UNL A   1      40.731  28.002  26.607  1.00  0.00     0.010 A 
ATOM     37  C   UNL A   1      40.249  26.551  28.488  1.00  0.00     0.010 A 
ATOM     38  C   UNL A   1      40.397  27.835  27.953  1.00  0.00    -0.014 A 
BRANCH  38  39
ATOM     39  C   UNL A   1      40.312  28.950  28.892  1.00  0.00     0.031 A 
ATOM     40  C   UNL A   1      39.213  29.932  28.812  1.00  0.00     0.074 A 
ATOM     41  C   UNL A   1      41.234  29.062  29.874  1.00  0.00     0.049 A 
ATOM     42  N   UNL A   1      39.279  31.137  29.274  1.00  0.00    -0.248 NA
ATOM     43  C   UNL A   1      37.943  29.632  28.166  1.00  0.00     0.031 C 
ATOM     44  C   UNL A   1      41.208  29.966  31.020  1.00  0.00     0.029 A 
ATOM     45  N   UNL A   1      42.529  28.517  29.892  1.00  0.00    -0.354 N 
ATOM     46  C   UNL A   1      38.022  31.690  29.205  1.00  0.00     0.074 A 
ATOM     47  C   UNL A   1      37.234  30.725  28.469  1.00  0.00     0.031 C 
ATOM     48  C   UNL A   1      42.468  30.177  31.429  1.00  0.00     0.029 A 
ATOM     49  C   UNL A   1      43.343  29.517  30.476  1.00  0.00     0.049 A 
ATOM     50  H   UNL A   1      42.809  27.630  29.567  1.00  0.00     0.167 HD
ATOM     51  C   UNL A   1      37.761  32.853  29.871  1.00  0.00     0.037 A 
ATOM     52  C   UNL A   1      44.336  30.118  29.760  1.00  0.00     0.037 A 
ATOM     53  C   UNL A   1      38.960  33.396  30.507  1.00  0.00     0.049 A 
ATOM     54  C   UNL A   1      44.201  31.619  29.617  1.00  0.00     0.074 A 
ATOM     55  C   UNL A   1      39.472  33.359  31.794  1.00  0.00     0.029 A 
ATOM     56  N   UNL A   1      39.980  33.875  29.705  1.00  0.00    -0.354 N 
ATOM     57  N   UNL A   1      43.166  32.308  30.009  1.00  0.00    -0.248 NA
ATOM     58  C   UNL A   1      45.180  32.439  28.902  1.00  0.00     0.031 C 
ATOM     59  C   UNL A   1      40.821  33.814  31.750  1.00  0.00     0.029 A 
ATOM     60  C   UNL A   1      41.124  34.122  30.437  1.00  0.00     0.049 A 
ATOM     61  H   UNL A   1      39.899  34.023  28.734  1.00  0.00     0.167 HD
ATOM     62  C   UNL A   1      43.294  33.597  29.566  1.00  0.00     0.074 A 
ATOM     63  C   UNL A   1      44.568  33.633  28.877  1.00  0.00     0.031 C 
ATOM     64  C   UNL A   1      42.328  34.540  29.747  1.00  0.00     0.037 A 
BRANCH  51  65
ATOM     65  C   UNL A   1      36.372  33.385  30.140  1.00  0.00     0.064 A 
ATOM     66  C   UNL A   1      35.572  33.886  29.089  1.00  0.00     0.173 A 
ATOM     67  C   UNL A   1      35.785  33.474  31.416  1.00  0.00     0.173 A 
ATOM     68  F   UNL A   1      35.941  33.762  27.808  1.00  0.00    -0.203 F 
ATOM     69  C   UNL A   1      34.359  34.541  29.314  1.00  0.00     0.198 A 
ATOM     70  C   UNL A   1      34.601  34.183  31.649  1.00  0.00     0.198 A 
ATOM     71  F   UNL A   1      36.303  32.826  32.466  1.00  0.00    -0.203 F 
ATOM     72  F   UNL A   1      33.651  35.002  28.273  1.00  0.00    -0.200 F 
ATOM     73  C   UNL A   1      33.895  34.730  30.598  1.00  0.00     0.200 A 
ATOM     74  F   UNL A   1      34.151  34.329  32.904  1.00  0.00    -0.200 F 
ATOM     75  F   UNL A   1      32.762  35.409  30.820  1.00  0.00    -0.200 F 
ENDBRANCH  51  65
BRANCH  52  76
ATOM     76  C   UNL A   1      44.933  29.230  28.725  1.00  0.00     0.064 A 
ATOM     77  C   UNL A   1      45.869  28.256  29.122  1.00  0.00     0.173 A 
ATOM     78  C   UNL A   1      44.363  29.100  27.454  1.00  0.00     0.173 A 
ATOM     79  F   UNL A   1      46.443  28.331  30.335  1.00  0.00    -0.203 F 
ATOM     80  C   UNL A   1      46.131  27.140  28.333  1.00  0.00     0.198 A 
ATOM     81  C   UNL A   1      44.649  27.994  26.653  1.00  0.00     0.198 A 
ATOM     82  F   UNL A   1      43.446  29.978  27.023  1.00  0.00    -0.203 F 
ATOM     83  F   UNL A   1      46.933  26.168  28.793  1.00  0.00    -0.200 F 
ATOM     84  C   UNL A   1      45.503  26.999  27.107  1.00  0.00     0.200 A 
ATOM     85  F   UNL A   1      44.019  27.845  25.479  1.00  0.00    -0.200 F 
ATOM     86  F   UNL A   1      45.684  25.887  26.383  1.00  0.00    -0.200 F 
ENDBRANCH  52  76
BRANCH  64  87
ATOM     87  C   UNL A   1      42.472  35.950  29.266  1.00  0.00     0.064 A 
ATOM     88  C   UNL A   1      41.911  36.384  28.056  1.00  0.00     0.173 A 
ATOM     89  C   UNL A   1      43.269  36.881  29.960  1.00  0.00     0.173 A 
ATOM     90  F   UNL A   1      41.175  35.548  27.306  1.00  0.00    -0.203 F 
ATOM     91  C   UNL A   1      42.102  37.684  27.587  1.00  0.00     0.198 A 
ATOM     92  C   UNL A   1      43.499  38.163  29.467  1.00  0.00     0.198 A 
ATOM     93  F   UNL A   1      43.822  36.575  31.144  1.00  0.00    -0.203 F 
ATOM     94  F   UNL A   1      41.507  38.077  26.452  1.00  0.00    -0.200 F 
ATOM     95  C   UNL A   1      42.906  38.568  28.287  1.00  0.00     0.200 A 
ATOM     96  F   UNL A   1      44.291  39.005  30.146  1.00  0.00    -0.200 F 
ATOM     97  F   UNL A   1      43.103  39.812  27.826  1.00  0.00    -0.200 F 
ENDBRANCH  64  87
ENDBRANCH  38  39
ENDBRANCH  30  33
ENDBRANCH  28  29
ENDBRANCH  27  28
ENDBRANCH  26  27
ENDBRANCH  25  26
ENDBRANCH   1  25
TORSDOF 17
ENDMDL
MODEL 2
REMARK VINA RESULT:     -12.1      2.852      4.677
REMARK SMILES Cc1ccccc1SCC(=O)N[C@H]1C=C[C@H](C(=O)NCCCCCCNC(=O)c2ccc(-c3c4nc(c(-c5c(F)c(F)c(F)c(F)c5F)c5ccc([nH]5)c(-c5c(F)c(F)c(F)c(F)c5F)c5nc(c(-c6c(F)c(F)c(F)c(F)c6F)c6ccc3[nH]6)C=C5)C=C4)cc2)C1
REMARK SMILES IDX 21 1 20 2 19 3 17 4 18 5 16 7 13 8 14 9 92 10 15 11 12 12
REMARK SMILES IDX 10 13 11 14 9 16 8 17 7 18 1 19 2 20 3 21 4 22 6 23 5 24
REMARK SMILES IDX 22 25 23 26 24 27 25 28 26 29 27 30 28 32 29 33 30 34 91 35
REMARK SMILES IDX 31 36 90 37 32 38 33 39 34 40 84 41 35 42 89 43 83 44 85 45
REMARK SMILES IDX 36 46 88 47 82 48 81 49 37 51 69 52 49 53 68 54 50 55 53 56
REMARK SMILES IDX 67 57 86 58 51 59 52 60 66 62 87 63 54 64 38 65 39 66 47 67
REMARK SMILES IDX 40 68 41 69 45 70 48 71 42 72 43 73 46 74 44 75 70 76 71 77
REMARK SMILES IDX 79 78 72 79 73 80 77 81 80 82 74 83 75 84 78 85 76 86 55 87
REMARK SMILES IDX 56 88 64 89 57 90 58 91 62 92 65 93 59 94 60 95 63 96 61 97
REMARK H PARENT 19 6 12 15 26 31 85 50 53 61
REMARK Flexibility Score: inf
ROOT
ATOM      1  C   UNL A   1      38.623  23.629  26.514  1.00  0.00     0.021 C 
ENDROOT
BRANCH   1   2
ATOM      2  C   UNL A   1      37.591  22.869  25.681  1.00  0.00     0.116 C 
BRANCH   2   3
ATOM      3  N   UNL A   1      36.288  22.863  26.308  1.00  0.00    -0.356 N 
ATOM      4  C   UNL A   1      35.070  22.567  25.774  1.00  0.00     0.227 C 
ATOM      5  O   UNL A   1      34.092  22.577  26.523  1.00  0.00    -0.274 OA
ATOM      6  H   UNL A   1      36.280  23.110  27.261  1.00  0.00     0.163 HD
BRANCH   4   7
ATOM      7  C   UNL A   1      34.969  22.194  24.293  1.00  0.00     0.103 C 
ATOM      8  C   UNL A   1      33.447  23.795  23.243  1.00  0.00     0.106 C 
ATOM      9  C   UNL A   1      32.791  22.463  23.464  1.00  0.00    -0.006 C 
ATOM     10  C   UNL A   1      34.930  23.443  23.408  1.00  0.00     0.047 C 
ATOM     11  C   UNL A   1      33.626  21.582  24.027  1.00  0.00    -0.016 C 
BRANCH   8  12
ATOM     12  N   UNL A   1      33.096  24.247  21.918  1.00  0.00    -0.349 N 
ATOM     13  C   UNL A   1      32.806  25.494  21.466  1.00  0.00     0.230 C 
ATOM     14  O   UNL A   1      32.493  25.594  20.275  1.00  0.00    -0.274 OA
ATOM     15  H   UNL A   1      33.061  23.539  21.234  1.00  0.00     0.164 HD
BRANCH  13  16
ATOM     16  C   UNL A   1      33.018  26.732  22.307  1.00  0.00     0.174 C 
BRANCH  16  17
ATOM     17  S   UNL A   1      31.722  27.184  23.485  1.00  0.00    -0.116 SA
BRANCH  17  18
ATOM     18  C   UNL A   1      32.458  28.004  24.897  1.00  0.00     0.011 A 
ATOM     19  C   UNL A   1      33.751  26.066  26.013  1.00  0.00     0.045 C 
ATOM     20  C   UNL A   1      33.263  27.481  25.923  1.00  0.00    -0.038 A 
ATOM     21  C   UNL A   1      33.671  28.333  26.977  1.00  0.00     0.004 A 
ATOM     22  C   UNL A   1      33.241  29.654  27.062  1.00  0.00     0.000 A 
ATOM     23  C   UNL A   1      32.030  29.347  25.011  1.00  0.00     0.015 A 
ATOM     24  C   UNL A   1      32.407  30.162  26.081  1.00  0.00     0.001 A 
ENDBRANCH  17  18
ENDBRANCH  16  17
ENDBRANCH  13  16
ENDBRANCH   8  12
ENDBRANCH   4   7
ENDBRANCH   2   3
ENDBRANCH   1   2
BRANCH   1  25
ATOM     25  C   UNL A   1      39.757  22.778  27.103  1.00  0.00     0.002 C 
BRANCH  25  26
ATOM     26  C   UNL A   1      40.840  22.292  26.128  1.00  0.00     0.002 C 
BRANCH  26  27
ATOM     27  C   UNL A   1      41.214  20.809  26.198  1.00  0.00     0.021 C 
BRANCH  27  28
ATOM     28  C   UNL A   1      42.691  20.542  26.442  1.00  0.00     0.116 C 
BRANCH  28  29
ATOM     29  N   UNL A   1      43.441  20.174  25.248  1.00  0.00    -0.352 N 
ATOM     30  C   UNL A   1      44.349  20.939  24.533  1.00  0.00     0.251 C 
ATOM     31  H   UNL A   1      43.282  19.266  24.905  1.00  0.00     0.163 HD
ATOM     32  O   UNL A   1      44.899  20.498  23.541  1.00  0.00    -0.269 OA
BRANCH  30  33
ATOM     33  C   UNL A   1      44.727  22.269  25.072  1.00  0.00     0.039 A 
ATOM     34  C   UNL A   1      45.527  22.311  26.218  1.00  0.00     0.014 A 
ATOM     35  C   UNL A   1      44.134  23.430  24.582  1.00  0.00     0.014 A 
ATOM     36  C   UNL A   1      45.533  23.464  27.000  1.00  0.00     0.010 A 
ATOM     37  C   UNL A   1      44.065  24.542  25.401  1.00  0.00     0.010 A 
ATOM     38  C   UNL A   1      44.706  24.532  26.643  1.00  0.00    -0.014 A 
BRANCH  38  39
ATOM     39  C   UNL A   1      44.364  25.610  27.567  1.00  0.00     0.031 A 
ATOM     40  C   UNL A   1      43.052  26.284  27.499  1.00  0.00     0.074 A 
ATOM     41  C   UNL A   1      45.247  25.969  28.524  1.00  0.00     0.049 A 
ATOM     42  N   UNL A   1      42.824  27.477  27.941  1.00  0.00    -0.248 NA
ATOM     43  C   UNL A   1      41.885  25.663  26.890  1.00  0.00     0.031 C 
ATOM     44  C   UNL A   1      45.019  26.862  29.657  1.00  0.00     0.029 A 
ATOM     45  N   UNL A   1      46.638  25.766  28.518  1.00  0.00    -0.354 N 
ATOM     46  C   UNL A   1      41.467  27.696  27.896  1.00  0.00     0.074 A 
ATOM     47  C   UNL A   1      40.931  26.549  27.194  1.00  0.00     0.031 C 
ATOM     48  C   UNL A   1      46.195  27.389  30.031  1.00  0.00     0.029 A 
ATOM     49  C   UNL A   1      47.187  26.949  29.067  1.00  0.00     0.049 A 
ATOM     50  H   UNL A   1      47.125  24.971  28.199  1.00  0.00     0.167 HD
ATOM     51  C   UNL A   1      40.937  28.770  28.551  1.00  0.00     0.037 A 
ATOM     52  C   UNL A   1      47.983  27.765  28.318  1.00  0.00     0.037 A 
ATOM     53  C   UNL A   1      41.974  29.609  29.149  1.00  0.00     0.049 A 
ATOM     54  C   UNL A   1      47.473  29.181  28.155  1.00  0.00     0.074 A 
ATOM     55  C   UNL A   1      42.505  29.728  30.423  1.00  0.00     0.029 A 
ATOM     56  N   UNL A   1      42.824  30.311  28.314  1.00  0.00    -0.354 N 
ATOM     57  N   UNL A   1      46.307  29.598  28.563  1.00  0.00    -0.248 NA
ATOM     58  C   UNL A   1      48.202  30.205  27.404  1.00  0.00     0.031 C 
ATOM     59  C   UNL A   1      43.695  30.504  30.338  1.00  0.00     0.029 A 
ATOM     60  C   UNL A   1      43.885  30.851  29.014  1.00  0.00     0.049 A 
ATOM     61  H   UNL A   1      42.690  30.414  27.344  1.00  0.00     0.167 HD
ATOM     62  C   UNL A   1      46.099  30.867  28.097  1.00  0.00     0.074 A 
ATOM     63  C   UNL A   1      47.310  31.207  27.377  1.00  0.00     0.031 C 
ATOM     64  C   UNL A   1      44.931  31.543  28.288  1.00  0.00     0.037 A 
BRANCH  51  65
ATOM     65  C   UNL A   1      39.464  28.943  28.846  1.00  0.00     0.064 A 
ATOM     66  C   UNL A   1      38.585  29.456  27.867  1.00  0.00     0.173 A 
ATOM     67  C   UNL A   1      38.861  28.668  30.088  1.00  0.00     0.173 A 
ATOM     68  F   UNL A   1      38.981  29.654  26.604  1.00  0.00    -0.203 F 
ATOM     69  C   UNL A   1      37.258  29.792  28.150  1.00  0.00     0.198 A 
ATOM     70  C   UNL A   1      37.553  29.060  30.390  1.00  0.00     0.198 A 
ATOM     71  F   UNL A   1      39.498  27.956  31.025  1.00  0.00    -0.203 F 
ATOM     72  F   UNL A   1      36.476  30.284  27.178  1.00  0.00    -0.200 F 
ATOM     73  C   UNL A   1      36.755  29.636  29.424  1.00  0.00     0.200 A 
ATOM     74  F   UNL A   1      37.073  28.872  31.628  1.00  0.00    -0.200 F 
ATOM     75  F   UNL A   1      35.502  30.012  29.711  1.00  0.00    -0.200 F 
ENDBRANCH  51  65
BRANCH  52  76
ATOM     76  C   UNL A   1      48.762  27.034  27.282  1.00  0.00     0.064 A 
ATOM     77  C   UNL A   1      48.247  26.956  25.973  1.00  0.00     0.173 A 
ATOM     78  C   UNL A   1      50.113  26.719  27.465  1.00  0.00     0.173 A 
ATOM     79  F   UNL A   1      46.957  27.251  25.740  1.00  0.00    -0.203 F 
ATOM     80  C   UNL A   1      49.075  26.694  24.884  1.00  0.00     0.198 A 
ATOM     81  C   UNL A   1      50.933  26.430  26.375  1.00  0.00     0.198 A 
ATOM     82  F   UNL A   1      50.674  26.798  28.680  1.00  0.00    -0.203 F 
ATOM     83  F   UNL A   1      48.579  26.749  23.639  1.00  0.00    -0.200 F 
ATOM     84  C   UNL A   1      50.423  26.452  25.085  1.00  0.00     0.200 A 
ATOM     85  F   UNL A   1      52.244  26.224  26.567  1.00  0.00    -0.200 F 
ATOM     86  F   UNL A   1      51.239  26.286  24.035  1.00  0.00    -0.200 F 
ENDBRANCH  52  76
BRANCH  64  87
ATOM     87  C   UNL A   1      44.708  32.934  27.783  1.00  0.00     0.064 A 
ATOM     88  C   UNL A   1      44.983  34.063  28.568  1.00  0.00     0.173 A 
ATOM     89  C   UNL A   1      44.114  33.169  26.529  1.00  0.00     0.173 A 
ATOM     90  F   UNL A   1      45.508  33.930  29.797  1.00  0.00    -0.203 F 
ATOM     91  C   UNL A   1      44.715  35.354  28.110  1.00  0.00     0.198 A 
ATOM     92  C   UNL A   1      43.802  34.455  26.093  1.00  0.00     0.198 A 
ATOM     93  F   UNL A   1      43.843  32.158  25.688  1.00  0.00    -0.203 F 
ATOM     94  F   UNL A   1      45.039  36.410  28.868  1.00  0.00    -0.200 F 
ATOM     95  C   UNL A   1      44.114  35.548  26.878  1.00  0.00     0.200 A 
ATOM     96  F   UNL A   1      43.205  34.628  24.904  1.00  0.00    -0.200 F 
ATOM     97  F   UNL A   1      43.840  36.787  26.447  1.00  0.00    -0.200 F 
ENDBRANCH  64  87
ENDBRANCH  38  39
ENDBRANCH  30  33
ENDBRANCH  28  29
ENDBRANCH  27  28
ENDBRANCH  26  27
ENDBRANCH  25  26
ENDBRANCH   1  25
TORSDOF 17
ENDMDL
MODEL 3
REMARK VINA RESULT:     -11.7      1.367      2.165
REMARK SMILES Cc1ccccc1SCC(=O)N[C@H]1C=C[C@H](C(=O)NCCCCCCNC(=O)c2ccc(-c3c4nc(c(-c5c(F)c(F)c(F)c(F)c5F)c5ccc([nH]5)c(-c5c(F)c(F)c(F)c(F)c5F)c5nc(c(-c6c(F)c(F)c(F)c(F)c6F)c6ccc3[nH]6)C=C5)C=C4)cc2)C1
REMARK SMILES IDX 21 1 20 2 19 3 17 4 18 5 16 7 13 8 14 9 92 10 15 11 12 12
REMARK SMILES IDX 10 13 11 14 9 16 8 17 7 18 1 19 2 20 3 21 4 22 6 23 5 24
REMARK SMILES IDX 22 25 23 26 24 27 25 28 26 29 27 30 28 32 29 33 30 34 91 35
REMARK SMILES IDX 31 36 90 37 32 38 33 39 34 40 84 41 35 42 89 43 83 44 85 45
REMARK SMILES IDX 36 46 88 47 82 48 81 49 37 51 69 52 49 53 68 54 50 55 53 56
REMARK SMILES IDX 67 57 86 58 51 59 52 60 66 62 87 63 54 64 38 65 39 66 47 67
REMARK SMILES IDX 40 68 41 69 45 70 48 71 42 72 43 73 46 74 44 75 70 76 71 77
REMARK SMILES IDX 79 78 72 79 73 80 77 81 80 82 74 83 75 84 78 85 76 86 55 87
REMARK SMILES IDX 56 88 64 89 57 90 58 91 62 92 65 93 59 94 60 95 63 96 61 97
REMARK H PARENT 19 6 12 15 26 31 85 50 53 61
REMARK Flexibility Score: inf
ROOT
ATOM      1  C   UNL A   1      37.133  20.738  25.027  1.00  0.00     0.021 C 
ENDROOT
BRANCH   1   2
ATOM      2  C   UNL A   1      35.785  20.017  24.997  1.00  0.00     0.116 C 
BRANCH   2   3
ATOM      3  N   UNL A   1      34.778  20.720  25.758  1.00  0.00    -0.356 N 
ATOM      4  C   UNL A   1      33.721  21.461  25.321  1.00  0.00     0.227 C 
ATOM      5  O   UNL A   1      32.953  21.927  26.165  1.00  0.00    -0.274 OA
ATOM      6  H   UNL A   1      34.868  20.654  26.736  1.00  0.00     0.163 HD
BRANCH   4   7
ATOM      7  C   UNL A   1      33.503  21.647  23.819  1.00  0.00     0.103 C 
ATOM      8  C   UNL A   1      33.211  24.041  23.418  1.00  0.00     0.106 C 
ATOM      9  C   UNL A   1      31.906  23.303  23.359  1.00  0.00    -0.006 C 
ATOM     10  C   UNL A   1      34.224  22.896  23.304  1.00  0.00     0.047 C 
ATOM     11  C   UNL A   1      32.065  21.990  23.565  1.00  0.00    -0.016 C 
BRANCH   8  12
ATOM     12  N   UNL A   1      33.247  24.966  22.310  1.00  0.00    -0.349 N 
ATOM     13  C   UNL A   1      33.448  26.309  22.297  1.00  0.00     0.230 C 
ATOM     14  O   UNL A   1      33.384  26.869  21.196  1.00  0.00    -0.274 OA
ATOM     15  H   UNL A   1      33.102  24.560  21.425  1.00  0.00     0.164 HD
BRANCH  13  16
ATOM     16  C   UNL A   1      33.902  27.075  23.518  1.00  0.00     0.174 C 
BRANCH  16  17
ATOM     17  S   UNL A   1      32.857  27.004  24.994  1.00  0.00    -0.116 SA
BRANCH  17  18
ATOM     18  C   UNL A   1      31.135  27.092  24.511  1.00  0.00     0.011 A 
ATOM     19  C   UNL A   1      30.128  25.086  25.790  1.00  0.00     0.045 C 
ATOM     20  C   UNL A   1      30.060  26.252  24.850  1.00  0.00    -0.038 A 
ATOM     21  C   UNL A   1      28.790  26.499  24.278  1.00  0.00     0.004 A 
ATOM     22  C   UNL A   1      28.590  27.506  23.337  1.00  0.00     0.000 A 
ATOM     23  C   UNL A   1      30.906  28.103  23.549  1.00  0.00     0.015 A 
ATOM     24  C   UNL A   1      29.655  28.306  22.962  1.00  0.00     0.001 A 
ENDBRANCH  17  18
ENDBRANCH  16  17
ENDBRANCH  13  16
ENDBRANCH   8  12
ENDBRANCH   4   7
ENDBRANCH   2   3
ENDBRANCH   1   2
BRANCH   1  25
ATOM     25  C   UNL A   1      37.066  22.265  25.165  1.00  0.00     0.002 C 
BRANCH  25  26
ATOM     26  C   UNL A   1      38.235  22.949  25.891  1.00  0.00     0.002 C 
BRANCH  26  27
ATOM     27  C   UNL A   1      39.363  22.040  26.387  1.00  0.00     0.021 C 
BRANCH  27  28
ATOM     28  C   UNL A   1      40.492  22.769  27.099  1.00  0.00     0.116 C 
BRANCH  28  29
ATOM     29  N   UNL A   1      41.505  23.324  26.210  1.00  0.00    -0.352 N 
ATOM     30  C   UNL A   1      41.774  24.656  25.938  1.00  0.00     0.251 C 
ATOM     31  H   UNL A   1      42.071  22.668  25.743  1.00  0.00     0.163 HD
ATOM     32  O   UNL A   1      42.655  24.973  25.160  1.00  0.00    -0.269 OA
BRANCH  30  33
ATOM     33  C   UNL A   1      41.043  25.693  26.706  1.00  0.00     0.039 A 
ATOM     34  C   UNL A   1      40.876  26.951  26.119  1.00  0.00     0.014 A 
ATOM     35  C   UNL A   1      40.722  25.492  28.047  1.00  0.00     0.014 A 
ATOM     36  C   UNL A   1      40.618  28.052  26.933  1.00  0.00     0.010 A 
ATOM     37  C   UNL A   1      40.556  26.593  28.867  1.00  0.00     0.010 A 
ATOM     38  C   UNL A   1      40.576  27.879  28.318  1.00  0.00    -0.014 A 
BRANCH  38  39
ATOM     39  C   UNL A   1      40.679  28.991  29.258  1.00  0.00     0.031 A 
ATOM     40  C   UNL A   1      39.571  29.952  29.428  1.00  0.00     0.074 A 
ATOM     41  C   UNL A   1      41.793  29.120  30.013  1.00  0.00     0.049 A 
ATOM     42  N   UNL A   1      39.715  31.157  29.870  1.00  0.00    -0.248 NA
ATOM     43  C   UNL A   1      38.196  29.628  29.077  1.00  0.00     0.031 C 
ATOM     44  C   UNL A   1      42.003  30.023  31.142  1.00  0.00     0.029 A 
ATOM     45  N   UNL A   1      43.069  28.600  29.742  1.00  0.00    -0.354 N 
ATOM     46  C   UNL A   1      38.464  31.685  30.083  1.00  0.00     0.074 A 
ATOM     47  C   UNL A   1      37.551  30.706  29.535  1.00  0.00     0.031 C 
ATOM     48  C   UNL A   1      43.319  30.257  31.263  1.00  0.00     0.029 A 
ATOM     49  C   UNL A   1      43.974  29.616  30.137  1.00  0.00     0.049 A 
ATOM     50  H   UNL A   1      43.288  27.720  29.358  1.00  0.00     0.167 HD
ATOM     51  C   UNL A   1      38.334  32.843  30.797  1.00  0.00     0.037 A 
ATOM     52  C   UNL A   1      44.773  30.237  29.223  1.00  0.00     0.037 A 
ATOM     53  C   UNL A   1      39.633  33.408  31.155  1.00  0.00     0.049 A 
ATOM     54  C   UNL A   1      44.581  31.735  29.120  1.00  0.00     0.074 A 
ATOM     55  C   UNL A   1      40.418  33.380  32.297  1.00  0.00     0.029 A 
ATOM     56  N   UNL A   1      40.441  33.908  30.150  1.00  0.00    -0.354 N 
ATOM     57  N   UNL A   1      43.645  32.404  29.735  1.00  0.00    -0.248 NA
ATOM     58  C   UNL A   1      45.362  32.575  28.211  1.00  0.00     0.031 C 
ATOM     59  C   UNL A   1      41.714  33.862  31.958  1.00  0.00     0.029 A 
ATOM     60  C   UNL A   1      41.714  34.177  30.613  1.00  0.00     0.049 A 
ATOM     61  H   UNL A   1      40.146  34.055  29.222  1.00  0.00     0.167 HD
ATOM     62  C   UNL A   1      43.648  33.695  29.281  1.00  0.00     0.074 A 
ATOM     63  C   UNL A   1      44.738  33.756  28.328  1.00  0.00     0.031 C 
ATOM     64  C   UNL A   1      42.728  34.619  29.676  1.00  0.00     0.037 A 
BRANCH  51  65
ATOM     65  C   UNL A   1      37.029  33.347  31.369  1.00  0.00     0.064 A 
ATOM     66  C   UNL A   1      36.752  33.235  32.749  1.00  0.00     0.173 A 
ATOM     67  C   UNL A   1      35.986  33.906  30.606  1.00  0.00     0.173 A 
ATOM     68  F   UNL A   1      37.686  32.835  33.621  1.00  0.00    -0.203 F 
ATOM     69  C   UNL A   1      35.497  33.528  33.291  1.00  0.00     0.198 A 
ATOM     70  C   UNL A   1      34.713  34.141  31.135  1.00  0.00     0.198 A 
ATOM     71  F   UNL A   1      36.186  34.301  29.343  1.00  0.00    -0.203 F 
ATOM     72  F   UNL A   1      35.296  33.392  34.610  1.00  0.00    -0.200 F 
ATOM     73  C   UNL A   1      34.464  33.937  32.476  1.00  0.00     0.200 A 
ATOM     74  F   UNL A   1      33.728  34.568  30.330  1.00  0.00    -0.200 F 
ATOM     75  F   UNL A   1      33.245  34.162  32.984  1.00  0.00    -0.200 F 
ENDBRANCH  51  65
BRANCH  52  76
ATOM     76  C   UNL A   1      45.143  29.362  28.077  1.00  0.00     0.064 A 
ATOM     77  C   UNL A   1      46.187  28.431  28.241  1.00  0.00     0.173 A 
ATOM     78  C   UNL A   1      44.293  29.194  26.978  1.00  0.00     0.173 A 
ATOM     79  F   UNL A   1      47.029  28.543  29.282  1.00  0.00    -0.203 F 
ATOM     80  C   UNL A   1      46.300  27.317  27.414  1.00  0.00     0.198 A 
ATOM     81  C   UNL A   1      44.426  28.091  26.135  1.00  0.00     0.198 A 
ATOM     82  F   UNL A   1      43.263  30.028  26.776  1.00  0.00    -0.203 F 
ATOM     83  F   UNL A   1      47.228  26.384  27.672  1.00  0.00    -0.200 F 
ATOM     84  C   UNL A   1      45.405  27.137  26.373  1.00  0.00     0.200 A 
ATOM     85  F   UNL A   1      43.542  27.903  25.144  1.00  0.00    -0.200 F 
ATOM     86  F   UNL A   1      45.455  26.024  25.629  1.00  0.00    -0.200 F 
ENDBRANCH  52  76
BRANCH  64  87
ATOM     87  C   UNL A   1      42.736  36.032  29.182  1.00  0.00     0.064 A 
ATOM     88  C   UNL A   1      42.141  36.398  27.966  1.00  0.00     0.173 A 
ATOM     89  C   UNL A   1      43.433  37.042  29.871  1.00  0.00     0.173 A 
ATOM     90  F   UNL A   1      41.496  35.487  27.220  1.00  0.00    -0.203 F 
ATOM     91  C   UNL A   1      42.206  37.706  27.486  1.00  0.00     0.198 A 
ATOM     92  C   UNL A   1      43.539  38.337  29.367  1.00  0.00     0.198 A 
ATOM     93  F   UNL A   1      44.007  36.803  31.061  1.00  0.00    -0.203 F 
ATOM     94  F   UNL A   1      41.583  38.028  26.344  1.00  0.00    -0.200 F 
ATOM     95  C   UNL A   1      42.915  38.671  28.180  1.00  0.00     0.200 A 
ATOM     96  F   UNL A   1      44.241  39.259  30.042  1.00  0.00    -0.200 F 
ATOM     97  F   UNL A   1      42.993  39.924  27.709  1.00  0.00    -0.200 F 
ENDBRANCH  64  87
ENDBRANCH  38  39
ENDBRANCH  30  33
ENDBRANCH  28  29
ENDBRANCH  27  28
ENDBRANCH  26  27
ENDBRANCH  25  26
ENDBRANCH   1  25
TORSDOF 17
ENDMDL
