MODEL 1
REMARK VINA RESULT:     -11.7      0.000      0.000
REMARK SMILES O=C(NCCCCCCNC(=O)c1cc(NC(=S)NC(=O)c2ccccc2F)ccc1Cl)c1ccc(-c2c3nc(c(-c4c(F)c(F)c(F)c(F)c4F)c4ccc([nH]4)c(-c4c(F)c(F)c(F)c(F)c4F)c4nc(c(-c5c(F)c(F)c(F)c(F)c5F)c5ccc2[nH]5)C=C4)C=C3)cc1
REMARK SMILES IDX 7 1 6 2 5 3 4 4 3 5 1 6 2 7 33 9 34 10 95 11 35 12 94 13
REMARK SMILES IDX 36 14 37 15 38 16 88 17 39 18 93 19 87 20 89 21 40 22 92 23
REMARK SMILES IDX 86 24 85 25 41 27 73 28 53 29 72 30 54 31 57 32 71 33 90 34
REMARK SMILES IDX 55 35 56 36 70 38 91 39 58 40 42 41 43 42 51 43 44 44 45 45
REMARK SMILES IDX 49 46 52 47 46 48 47 49 50 50 48 51 74 52 75 53 83 54 76 55
REMARK SMILES IDX 77 56 81 57 84 58 78 59 79 60 82 61 80 62 59 63 60 64 68 65
REMARK SMILES IDX 61 66 62 67 66 68 69 69 63 70 64 71 67 72 65 73 8 74 9 75
REMARK SMILES IDX 10 76 11 77 12 79 13 80 14 81 31 82 15 83 30 84 32 85 29 86
REMARK SMILES IDX 16 87 17 89 18 90 19 91 20 92 21 94 22 95 23 96 27 97 24 98
REMARK SMILES IDX 26 99 28 100 25 101
REMARK H PARENT 3 8 89 26 57 37 10 78 16 88 19 93
REMARK Flexibility Score: inf
ROOT
ATOM      1  C   UNL A   1      39.727  21.670  26.037  1.00  0.00     0.002 C 
ENDROOT
BRANCH   1   2
ATOM      2  C   UNL A   1      40.816  20.879  26.770  1.00  0.00     0.002 C 
BRANCH   2   3
ATOM      3  C   UNL A   1      41.233  19.559  26.120  1.00  0.00     0.021 C 
BRANCH   3   4
ATOM      4  C   UNL A   1      42.577  19.013  26.578  1.00  0.00     0.116 C 
BRANCH   4   5
ATOM      5  N   UNL A   1      43.442  18.671  25.463  1.00  0.00    -0.352 N 
ATOM      6  O   UNL A   1      44.757  19.072  23.675  1.00  0.00    -0.269 OA
ATOM      7  C   UNL A   1      44.220  19.494  24.693  1.00  0.00     0.251 C 
ATOM      8  H   UNL A   1      43.472  17.716  25.228  1.00  0.00     0.163 HD
BRANCH   7   9
ATOM      9  C   UNL A   1      44.394  20.906  25.086  1.00  0.00     0.039 A 
ATOM     10  C   UNL A   1      45.202  21.253  26.173  1.00  0.00     0.014 A 
ATOM     11  C   UNL A   1      43.751  21.895  24.338  1.00  0.00     0.014 A 
ATOM     12  C   UNL A   1      45.288  22.581  26.575  1.00  0.00     0.010 A 
ATOM     13  C   UNL A   1      43.895  23.232  24.699  1.00  0.00     0.010 A 
ATOM     14  C   UNL A   1      44.654  23.583  25.827  1.00  0.00    -0.014 A 
BRANCH  14  15
ATOM     15  C   UNL A   1      44.846  25.011  26.172  1.00  0.00     0.031 A 
ATOM     16  C   UNL A   1      46.195  25.651  26.065  1.00  0.00     0.074 A 
ATOM     17  C   UNL A   1      43.793  25.710  26.637  1.00  0.00     0.049 A 
ATOM     18  N   UNL A   1      46.572  26.848  26.435  1.00  0.00    -0.248 NA
ATOM     19  C   UNL A   1      47.268  24.837  25.473  1.00  0.00     0.031 C 
ATOM     20  C   UNL A   1      42.435  25.184  26.778  1.00  0.00     0.029 A 
ATOM     21  N   UNL A   1      43.701  27.001  27.090  1.00  0.00    -0.354 N 
ATOM     22  C   UNL A   1      47.928  26.923  26.148  1.00  0.00     0.074 A 
ATOM     23  C   UNL A   1      48.314  25.645  25.588  1.00  0.00     0.031 C 
ATOM     24  C   UNL A   1      41.643  26.144  27.273  1.00  0.00     0.029 A 
ATOM     25  C   UNL A   1      42.450  27.328  27.548  1.00  0.00     0.049 A 
ATOM     26  H   UNL A   1      44.459  27.630  27.088  1.00  0.00     0.167 HD
ATOM     27  C   UNL A   1      48.767  27.968  26.341  1.00  0.00     0.037 A 
ATOM     28  C   UNL A   1      42.007  28.443  28.158  1.00  0.00     0.037 A 
ATOM     29  C   UNL A   1      48.360  29.238  26.886  1.00  0.00     0.049 A 
ATOM     30  C   UNL A   1      42.964  29.572  28.404  1.00  0.00     0.074 A 
ATOM     31  C   UNL A   1      49.119  30.381  27.061  1.00  0.00     0.029 A 
ATOM     32  N   UNL A   1      47.086  29.525  27.357  1.00  0.00    -0.354 N 
ATOM     33  N   UNL A   1      44.235  29.649  28.099  1.00  0.00    -0.248 NA
ATOM     34  C   UNL A   1      42.434  30.760  29.084  1.00  0.00     0.031 C 
ATOM     35  C   UNL A   1      48.322  31.339  27.695  1.00  0.00     0.029 A 
ATOM     36  C   UNL A   1      47.049  30.817  27.857  1.00  0.00     0.049 A 
ATOM     37  H   UNL A   1      46.322  28.904  27.338  1.00  0.00     0.167 HD
ATOM     38  C   UNL A   1      44.657  30.898  28.530  1.00  0.00     0.074 A 
ATOM     39  C   UNL A   1      43.503  31.547  29.118  1.00  0.00     0.031 C 
ATOM     40  C   UNL A   1      45.889  31.452  28.437  1.00  0.00     0.037 A 
BRANCH  27  41
ATOM     41  C   UNL A   1      50.215  27.783  25.989  1.00  0.00     0.064 A 
ATOM     42  C   UNL A   1      50.625  27.819  24.646  1.00  0.00     0.173 A 
ATOM     43  C   UNL A   1      51.187  27.514  26.963  1.00  0.00     0.173 A 
ATOM     44  F   UNL A   1      49.734  28.061  23.673  1.00  0.00    -0.203 F 
ATOM     45  C   UNL A   1      51.952  27.589  24.295  1.00  0.00     0.198 A 
ATOM     46  C   UNL A   1      52.520  27.316  26.609  1.00  0.00     0.198 A 
ATOM     47  F   UNL A   1      50.850  27.477  28.262  1.00  0.00    -0.203 F 
ATOM     48  F   UNL A   1      52.313  27.602  23.003  1.00  0.00    -0.200 F 
ATOM     49  C   UNL A   1      52.899  27.345  25.276  1.00  0.00     0.200 A 
ATOM     50  F   UNL A   1      53.439  27.104  27.562  1.00  0.00    -0.200 F 
ATOM     51  F   UNL A   1      54.180  27.142  24.938  1.00  0.00    -0.200 F 
ENDBRANCH  27  41
BRANCH  28  52
ATOM     52  C   UNL A   1      40.581  28.512  28.564  1.00  0.00     0.064 A 
ATOM     53  C   UNL A   1      39.601  29.011  27.693  1.00  0.00     0.173 A 
ATOM     54  C   UNL A   1      40.194  28.188  29.870  1.00  0.00     0.173 A 
ATOM     55  F   UNL A   1      39.928  29.348  26.436  1.00  0.00    -0.203 F 
ATOM     56  C   UNL A   1      38.294  29.223  28.126  1.00  0.00     0.198 A 
ATOM     57  C   UNL A   1      38.880  28.376  30.295  1.00  0.00     0.198 A 
ATOM     58  F   UNL A   1      41.095  27.697  30.732  1.00  0.00    -0.203 F 
ATOM     59  F   UNL A   1      37.391  29.756  27.293  1.00  0.00    -0.200 F 
ATOM     60  C   UNL A   1      37.935  28.907  29.428  1.00  0.00     0.200 A 
ATOM     61  F   UNL A   1      38.534  28.059  31.549  1.00  0.00    -0.200 F 
ATOM     62  F   UNL A   1      36.682  29.120  29.850  1.00  0.00    -0.200 F 
ENDBRANCH  28  52
BRANCH  40  63
ATOM     63  C   UNL A   1      46.075  32.845  28.959  1.00  0.00     0.064 A 
ATOM     64  C   UNL A   1      45.888  33.947  28.108  1.00  0.00     0.173 A 
ATOM     65  C   UNL A   1      46.565  33.084  30.250  1.00  0.00     0.173 A 
ATOM     66  F   UNL A   1      45.427  33.767  26.862  1.00  0.00    -0.203 F 
ATOM     67  C   UNL A   1      46.220  35.233  28.521  1.00  0.00     0.198 A 
ATOM     68  C   UNL A   1      46.872  34.376  30.667  1.00  0.00     0.198 A 
ATOM     69  F   UNL A   1      46.746  32.064  31.102  1.00  0.00    -0.203 F 
ATOM     70  F   UNL A   1      46.084  36.262  27.673  1.00  0.00    -0.200 F 
ATOM     71  C   UNL A   1      46.714  35.446  29.799  1.00  0.00     0.200 A 
ATOM     72  F   UNL A   1      47.334  34.586  31.909  1.00  0.00    -0.200 F 
ATOM     73  F   UNL A   1      47.045  36.685  30.190  1.00  0.00    -0.200 F 
ENDBRANCH  40  63
ENDBRANCH  14  15
ENDBRANCH   7   9
ENDBRANCH   4   5
ENDBRANCH   3   4
ENDBRANCH   2   3
ENDBRANCH   1   2
BRANCH   1  74
ATOM     74  C   UNL A   1      39.202  22.915  26.756  1.00  0.00     0.021 C 
BRANCH  74  75
ATOM     75  C   UNL A   1      38.026  23.603  26.078  1.00  0.00     0.116 C 
BRANCH  75  76
ATOM     76  N   UNL A   1      37.772  23.105  24.742  1.00  0.00    -0.352 N 
ATOM     77  C   UNL A   1      36.686  23.290  23.914  1.00  0.00     0.252 C 
ATOM     78  H   UNL A   1      38.489  22.545  24.365  1.00  0.00     0.163 HD
ATOM     79  O   UNL A   1      36.787  22.933  22.745  1.00  0.00    -0.269 OA
BRANCH  77  80
ATOM     80  C   UNL A   1      35.338  23.886  24.544  1.00  0.00     0.060 A 
ATOM     81  C   UNL A   1      34.556  25.482  25.473  1.00  0.00     0.041 A 
ATOM     82  C   UNL A   1      34.495  23.335  25.034  1.00  0.00     0.053 A 
ATOM     83  C   UNL A   1      33.595  26.354  26.044  1.00  0.00     0.041 A 
ATOM     84  C   UNL A   1      33.159  24.324  26.172  1.00  0.00     0.023 A 
ATOM     85  Cl  UNL A   1      34.910  21.278  24.763  1.00  0.00    -0.083 Cl
ATOM     86  C   UNL A   1      32.666  25.605  26.508  1.00  0.00     0.028 A 
BRANCH  83  87
ATOM     87  N   UNL A   1      33.812  27.725  26.098  1.00  0.00    -0.332 N 
ATOM     88  H   UNL A   1      34.283  28.038  26.903  1.00  0.00     0.169 HD
BRANCH  87  89
ATOM     89  C   UNL A   1      33.475  28.705  25.211  1.00  0.00     0.177 C 
ATOM     90  S   UNL A   1      32.567  29.985  25.805  1.00  0.00    -0.040 S 
BRANCH  89  91
ATOM     91  N   UNL A   1      33.834  28.762  23.860  1.00  0.00    -0.299 N 
ATOM     92  C   UNL A   1      33.715  28.164  22.564  1.00  0.00     0.260 C 
ATOM     93  H   UNL A   1      34.419  29.548  23.756  1.00  0.00     0.172 HD
ATOM     94  O   UNL A   1      34.399  28.570  21.629  1.00  0.00    -0.269 OA
BRANCH  92  95
ATOM     95  C   UNL A   1      32.773  27.040  22.329  1.00  0.00     0.075 A 
ATOM     96  C   UNL A   1      33.328  25.105  21.988  1.00  0.00     0.017 A 
ATOM     97  C   UNL A   1      31.075  27.008  23.416  1.00  0.00     0.135 A 
ATOM     98  C   UNL A   1      32.327  23.451  22.494  1.00  0.00     0.001 A 
ATOM     99  C   UNL A   1      30.049  25.378  23.899  1.00  0.00     0.040 A 
ATOM    100  F   UNL A   1      30.641  28.176  23.924  1.00  0.00    -0.206 F 
ATOM    101  C   UNL A   1      30.499  23.485  23.389  1.00  0.00     0.003 A 
ENDBRANCH  92  95
ENDBRANCH  89  91
ENDBRANCH  87  89
ENDBRANCH  83  87
ENDBRANCH  77  80
ENDBRANCH  75  76
ENDBRANCH  74  75
ENDBRANCH   1  74
TORSDOF 17
ENDMDL
MODEL 2
REMARK VINA RESULT:     -11.7      5.706     11.214
REMARK SMILES O=C(NCCCCCCNC(=O)c1cc(NC(=S)NC(=O)c2ccccc2F)ccc1Cl)c1ccc(-c2c3nc(c(-c4c(F)c(F)c(F)c(F)c4F)c4ccc([nH]4)c(-c4c(F)c(F)c(F)c(F)c4F)c4nc(c(-c5c(F)c(F)c(F)c(F)c5F)c5ccc2[nH]5)C=C4)C=C3)cc1
REMARK SMILES IDX 7 1 6 2 5 3 4 4 3 5 1 6 2 7 33 9 34 10 95 11 35 12 94 13
REMARK SMILES IDX 36 14 37 15 38 16 88 17 39 18 93 19 87 20 89 21 40 22 92 23
REMARK SMILES IDX 86 24 85 25 41 27 73 28 53 29 72 30 54 31 57 32 71 33 90 34
REMARK SMILES IDX 55 35 56 36 70 38 91 39 58 40 42 41 43 42 51 43 44 44 45 45
REMARK SMILES IDX 49 46 52 47 46 48 47 49 50 50 48 51 74 52 75 53 83 54 76 55
REMARK SMILES IDX 77 56 81 57 84 58 78 59 79 60 82 61 80 62 59 63 60 64 68 65
REMARK SMILES IDX 61 66 62 67 66 68 69 69 63 70 64 71 67 72 65 73 8 74 9 75
REMARK SMILES IDX 10 76 11 77 12 79 13 80 14 81 31 82 15 83 30 84 32 85 29 86
REMARK SMILES IDX 16 87 17 89 18 90 19 91 20 92 21 94 22 95 23 96 27 97 24 98
REMARK SMILES IDX 26 99 28 100 25 101
REMARK H PARENT 3 8 89 26 57 37 10 78 16 88 19 93
REMARK Flexibility Score: inf
ROOT
ATOM      1  C   UNL A   1      33.150  34.421  28.646  1.00  0.00     0.002 C 
ENDROOT
BRANCH   1   2
ATOM      2  C   UNL A   1      34.073  33.768  29.680  1.00  0.00     0.002 C 
BRANCH   2   3
ATOM      3  C   UNL A   1      35.464  33.376  29.180  1.00  0.00     0.021 C 
BRANCH   3   4
ATOM      4  C   UNL A   1      35.495  32.741  27.797  1.00  0.00     0.116 C 
BRANCH   4   5
ATOM      5  N   UNL A   1      34.620  31.587  27.701  1.00  0.00    -0.352 N 
ATOM      6  O   UNL A   1      34.106  29.404  27.461  1.00  0.00    -0.269 OA
ATOM      7  C   UNL A   1      34.944  30.256  27.731  1.00  0.00     0.251 C 
ATOM      8  H   UNL A   1      33.663  31.789  27.600  1.00  0.00     0.163 HD
BRANCH   7   9
ATOM      9  C   UNL A   1      36.322  29.851  28.074  1.00  0.00     0.039 A 
ATOM     10  C   UNL A   1      37.358  29.976  27.144  1.00  0.00     0.014 A 
ATOM     11  C   UNL A   1      36.576  29.358  29.356  1.00  0.00     0.014 A 
ATOM     12  C   UNL A   1      38.631  29.515  27.461  1.00  0.00     0.010 A 
ATOM     13  C   UNL A   1      37.867  28.962  29.696  1.00  0.00     0.010 A 
ATOM     14  C   UNL A   1      38.900  29.025  28.747  1.00  0.00    -0.014 A 
BRANCH  14  15
ATOM     15  C   UNL A   1      40.281  28.653  29.134  1.00  0.00     0.031 A 
ATOM     16  C   UNL A   1      41.136  29.594  29.923  1.00  0.00     0.074 A 
ATOM     17  C   UNL A   1      40.772  27.472  28.714  1.00  0.00     0.049 A 
ATOM     18  N   UNL A   1      42.400  29.487  30.247  1.00  0.00    -0.248 NA
ATOM     19  C   UNL A   1      40.493  30.826  30.407  1.00  0.00     0.031 C 
ATOM     20  C   UNL A   1      40.023  26.479  27.942  1.00  0.00     0.029 A 
ATOM     21  N   UNL A   1      42.015  26.912  28.861  1.00  0.00    -0.354 N 
ATOM     22  C   UNL A   1      42.711  30.645  30.945  1.00  0.00     0.074 A 
ATOM     23  C   UNL A   1      41.509  31.451  30.986  1.00  0.00     0.031 C 
ATOM     24  C   UNL A   1      40.816  25.429  27.692  1.00  0.00     0.029 A 
ATOM     25  C   UNL A   1      42.146  25.704  28.225  1.00  0.00     0.049 A 
ATOM     26  H   UNL A   1      42.742  27.337  29.372  1.00  0.00     0.167 HD
ATOM     27  C   UNL A   1      43.897  30.996  31.497  1.00  0.00     0.037 A 
ATOM     28  C   UNL A   1      43.227  24.920  28.054  1.00  0.00     0.037 A 
ATOM     29  C   UNL A   1      45.078  30.172  31.458  1.00  0.00     0.049 A 
ATOM     30  C   UNL A   1      44.542  25.349  28.633  1.00  0.00     0.074 A 
ATOM     31  C   UNL A   1      46.310  30.407  32.043  1.00  0.00     0.029 A 
ATOM     32  N   UNL A   1      45.177  28.961  30.786  1.00  0.00    -0.354 N 
ATOM     33  N   UNL A   1      44.821  26.428  29.322  1.00  0.00    -0.248 NA
ATOM     34  C   UNL A   1      45.692  24.464  28.407  1.00  0.00     0.031 C 
ATOM     35  C   UNL A   1      47.172  29.372  31.672  1.00  0.00     0.029 A 
ATOM     36  C   UNL A   1      46.461  28.457  30.911  1.00  0.00     0.049 A 
ATOM     37  H   UNL A   1      44.444  28.525  30.295  1.00  0.00     0.167 HD
ATOM     38  C   UNL A   1      46.170  26.347  29.630  1.00  0.00     0.074 A 
ATOM     39  C   UNL A   1      46.656  25.110  29.053  1.00  0.00     0.031 C 
ATOM     40  C   UNL A   1      46.930  27.220  30.333  1.00  0.00     0.037 A 
BRANCH  27  41
ATOM     41  C   UNL A   1      43.993  32.336  32.167  1.00  0.00     0.064 A 
ATOM     42  C   UNL A   1      43.824  32.444  33.557  1.00  0.00     0.173 A 
ATOM     43  C   UNL A   1      44.193  33.517  31.438  1.00  0.00     0.173 A 
ATOM     44  F   UNL A   1      43.618  31.347  34.301  1.00  0.00    -0.203 F 
ATOM     45  C   UNL A   1      43.848  33.684  34.189  1.00  0.00     0.198 A 
ATOM     46  C   UNL A   1      44.249  34.753  32.079  1.00  0.00     0.198 A 
ATOM     47  F   UNL A   1      44.368  33.470  30.109  1.00  0.00    -0.203 F 
ATOM     48  F   UNL A   1      43.657  33.763  35.514  1.00  0.00    -0.200 F 
ATOM     49  C   UNL A   1      44.068  34.836  33.451  1.00  0.00     0.200 A 
ATOM     50  F   UNL A   1      44.485  35.864  31.367  1.00  0.00    -0.200 F 
ATOM     51  F   UNL A   1      44.109  36.028  34.063  1.00  0.00    -0.200 F 
ENDBRANCH  27  41
BRANCH  28  52
ATOM     52  C   UNL A   1      43.072  23.654  27.294  1.00  0.00     0.064 A 
ATOM     53  C   UNL A   1      42.568  22.496  27.907  1.00  0.00     0.173 A 
ATOM     54  C   UNL A   1      43.533  23.550  25.976  1.00  0.00     0.173 A 
ATOM     55  F   UNL A   1      42.127  22.544  29.172  1.00  0.00    -0.203 F 
ATOM     56  C   UNL A   1      42.570  21.272  27.242  1.00  0.00     0.198 A 
ATOM     57  C   UNL A   1      43.512  22.330  25.303  1.00  0.00     0.198 A 
ATOM     58  F   UNL A   1      44.012  24.634  25.348  1.00  0.00    -0.203 F 
ATOM     59  F   UNL A   1      42.139  20.170  27.869  1.00  0.00    -0.200 F 
ATOM     60  C   UNL A   1      43.044  21.190  25.941  1.00  0.00     0.200 A 
ATOM     61  F   UNL A   1      43.958  22.256  24.043  1.00  0.00    -0.200 F 
ATOM     62  F   UNL A   1      43.057  20.011  25.305  1.00  0.00    -0.200 F 
ENDBRANCH  28  52
BRANCH  40  63
ATOM     63  C   UNL A   1      48.373  26.877  30.554  1.00  0.00     0.064 A 
ATOM     64  C   UNL A   1      49.351  27.333  29.655  1.00  0.00     0.173 A 
ATOM     65  C   UNL A   1      48.768  25.993  31.567  1.00  0.00     0.173 A 
ATOM     66  F   UNL A   1      49.018  28.175  28.666  1.00  0.00    -0.203 F 
ATOM     67  C   UNL A   1      50.665  26.887  29.742  1.00  0.00     0.198 A 
ATOM     68  C   UNL A   1      50.091  25.569  31.666  1.00  0.00     0.198 A 
ATOM     69  F   UNL A   1      47.872  25.542  32.456  1.00  0.00    -0.203 F 
ATOM     70  F   UNL A   1      51.570  27.293  28.841  1.00  0.00    -0.200 F 
ATOM     71  C   UNL A   1      51.034  26.003  30.745  1.00  0.00     0.200 A 
ATOM     72  F   UNL A   1      50.452  24.728  32.646  1.00  0.00    -0.200 F 
ATOM     73  F   UNL A   1      52.298  25.565  30.820  1.00  0.00    -0.200 F 
ENDBRANCH  40  63
ENDBRANCH  14  15
ENDBRANCH   7   9
ENDBRANCH   4   5
ENDBRANCH   3   4
ENDBRANCH   2   3
ENDBRANCH   1   2
BRANCH   1  74
ATOM     74  C   UNL A   1      32.732  35.865  28.934  1.00  0.00     0.021 C 
BRANCH  74  75
ATOM     75  C   UNL A   1      33.841  36.764  29.462  1.00  0.00     0.116 C 
BRANCH  75  76
ATOM     76  N   UNL A   1      33.390  37.670  30.498  1.00  0.00    -0.352 N 
ATOM     77  C   UNL A   1      33.558  37.613  31.865  1.00  0.00     0.252 C 
ATOM     78  H   UNL A   1      32.883  38.450  30.175  1.00  0.00     0.163 HD
ATOM     79  O   UNL A   1      33.258  38.605  32.522  1.00  0.00    -0.269 OA
BRANCH  77  80
ATOM     80  C   UNL A   1      34.058  36.238  32.517  1.00  0.00     0.060 A 
ATOM     81  C   UNL A   1      35.574  34.926  32.558  1.00  0.00     0.041 A 
ATOM     82  C   UNL A   1      33.445  35.360  32.848  1.00  0.00     0.053 A 
ATOM     83  C   UNL A   1      36.372  33.823  32.953  1.00  0.00     0.041 A 
ATOM     84  C   UNL A   1      34.319  33.575  33.176  1.00  0.00     0.023 A 
ATOM     85  Cl  UNL A   1      31.424  35.961  32.666  1.00  0.00    -0.083 Cl
ATOM     86  C   UNL A   1      35.559  32.924  33.365  1.00  0.00     0.028 A 
BRANCH  83  87
ATOM     87  N   UNL A   1      37.750  33.833  32.774  1.00  0.00    -0.332 N 
ATOM     88  H   UNL A   1      38.046  33.767  31.837  1.00  0.00     0.169 HD
BRANCH  87  89
ATOM     89  C   UNL A   1      38.756  33.919  33.691  1.00  0.00     0.177 C 
ATOM     90  S   UNL A   1      40.221  34.537  33.152  1.00  0.00    -0.040 S 
BRANCH  89  91
ATOM     91  N   UNL A   1      38.681  33.569  35.043  1.00  0.00    -0.299 N 
ATOM     92  C   UNL A   1      38.672  32.508  36.005  1.00  0.00     0.260 C 
ATOM     93  H   UNL A   1      38.597  34.410  35.548  1.00  0.00     0.172 HD
ATOM     94  O   UNL A   1      38.435  32.744  37.186  1.00  0.00    -0.269 OA
BRANCH  92  95
ATOM     95  C   UNL A   1      38.939  31.106  35.593  1.00  0.00     0.075 A 
ATOM     96  C   UNL A   1      38.137  30.202  33.947  1.00  0.00     0.017 A 
ATOM     97  C   UNL A   1      40.819  30.413  35.818  1.00  0.00     0.135 A 
ATOM     98  C   UNL A   1      38.972  28.778  32.821  1.00  0.00     0.001 A 
ATOM     99  C   UNL A   1      41.653  28.975  34.731  1.00  0.00     0.040 A 
ATOM    100  F   UNL A   1      41.601  31.024  36.725  1.00  0.00    -0.206 F 
ATOM    101  C   UNL A   1      40.785  27.950  33.234  1.00  0.00     0.003 A 
ENDBRANCH  92  95
ENDBRANCH  89  91
ENDBRANCH  87  89
ENDBRANCH  83  87
ENDBRANCH  77  80
ENDBRANCH  75  76
ENDBRANCH  74  75
ENDBRANCH   1  74
TORSDOF 17
ENDMDL
MODEL 3
REMARK VINA RESULT:     -11.6      1.579      7.429
REMARK SMILES O=C(NCCCCCCNC(=O)c1cc(NC(=S)NC(=O)c2ccccc2F)ccc1Cl)c1ccc(-c2c3nc(c(-c4c(F)c(F)c(F)c(F)c4F)c4ccc([nH]4)c(-c4c(F)c(F)c(F)c(F)c4F)c4nc(c(-c5c(F)c(F)c(F)c(F)c5F)c5ccc2[nH]5)C=C4)C=C3)cc1
REMARK SMILES IDX 7 1 6 2 5 3 4 4 3 5 1 6 2 7 33 9 34 10 95 11 35 12 94 13
REMARK SMILES IDX 36 14 37 15 38 16 88 17 39 18 93 19 87 20 89 21 40 22 92 23
REMARK SMILES IDX 86 24 85 25 41 27 73 28 53 29 72 30 54 31 57 32 71 33 90 34
REMARK SMILES IDX 55 35 56 36 70 38 91 39 58 40 42 41 43 42 51 43 44 44 45 45
REMARK SMILES IDX 49 46 52 47 46 48 47 49 50 50 48 51 74 52 75 53 83 54 76 55
REMARK SMILES IDX 77 56 81 57 84 58 78 59 79 60 82 61 80 62 59 63 60 64 68 65
REMARK SMILES IDX 61 66 62 67 66 68 69 69 63 70 64 71 67 72 65 73 8 74 9 75
REMARK SMILES IDX 10 76 11 77 12 79 13 80 14 81 31 82 15 83 30 84 32 85 29 86
REMARK SMILES IDX 16 87 17 89 18 90 19 91 20 92 21 94 22 95 23 96 27 97 24 98
REMARK SMILES IDX 26 99 28 100 25 101
REMARK H PARENT 3 8 89 26 57 37 10 78 16 88 19 93
REMARK Flexibility Score: inf
ROOT
ATOM      1  C   UNL A   1      39.249  23.410  26.113  1.00  0.00     0.002 C 
ENDROOT
BRANCH   1   2
ATOM      2  C   UNL A   1      39.806  22.216  26.894  1.00  0.00     0.002 C 
BRANCH   2   3
ATOM      3  C   UNL A   1      39.858  20.889  26.136  1.00  0.00     0.021 C 
BRANCH   3   4
ATOM      4  C   UNL A   1      40.557  19.754  26.871  1.00  0.00     0.116 C 
BRANCH   4   5
ATOM      5  N   UNL A   1      41.615  19.154  26.079  1.00  0.00    -0.352 N 
ATOM      6  O   UNL A   1      43.445  19.133  24.760  1.00  0.00    -0.269 OA
ATOM      7  C   UNL A   1      42.738  19.740  25.556  1.00  0.00     0.251 C 
ATOM      8  H   UNL A   1      41.511  18.194  25.891  1.00  0.00     0.163 HD
BRANCH   7   9
ATOM      9  C   UNL A   1      43.084  21.122  25.944  1.00  0.00     0.039 A 
ATOM     10  C   UNL A   1      43.077  22.154  25.001  1.00  0.00     0.014 A 
ATOM     11  C   UNL A   1      43.399  21.384  27.279  1.00  0.00     0.014 A 
ATOM     12  C   UNL A   1      43.483  23.432  25.371  1.00  0.00     0.010 A 
ATOM     13  C   UNL A   1      43.738  22.680  27.663  1.00  0.00     0.010 A 
ATOM     14  C   UNL A   1      43.795  23.709  26.710  1.00  0.00    -0.014 A 
BRANCH  14  15
ATOM     15  C   UNL A   1      44.103  25.093  27.136  1.00  0.00     0.031 A 
ATOM     16  C   UNL A   1      43.027  25.990  27.667  1.00  0.00     0.074 A 
ATOM     17  C   UNL A   1      45.360  25.550  26.986  1.00  0.00     0.049 A 
ATOM     18  N   UNL A   1      43.088  27.260  27.974  1.00  0.00    -0.248 NA
ATOM     19  C   UNL A   1      41.702  25.384  27.871  1.00  0.00     0.031 C 
ATOM     20  C   UNL A   1      46.484  24.760  26.482  1.00  0.00     0.029 A 
ATOM     21  N   UNL A   1      45.901  26.787  27.226  1.00  0.00    -0.354 N 
ATOM     22  C   UNL A   1      41.809  27.613  28.379  1.00  0.00     0.074 A 
ATOM     23  C   UNL A   1      40.986  26.428  28.265  1.00  0.00     0.031 C 
ATOM     24  C   UNL A   1      47.583  25.526  26.460  1.00  0.00     0.029 A 
ATOM     25  C   UNL A   1      47.226  26.877  26.881  1.00  0.00     0.049 A 
ATOM     26  H   UNL A   1      45.389  27.537  27.608  1.00  0.00     0.167 HD
ATOM     27  C   UNL A   1      41.371  28.822  28.806  1.00  0.00     0.037 A 
ATOM     28  C   UNL A   1      48.055  27.937  26.867  1.00  0.00     0.037 A 
ATOM     29  C   UNL A   1      42.211  29.986  28.927  1.00  0.00     0.049 A 
ATOM     30  C   UNL A   1      47.537  29.277  27.298  1.00  0.00     0.074 A 
ATOM     31  C   UNL A   1      41.878  31.239  29.410  1.00  0.00     0.029 A 
ATOM     32  N   UNL A   1      43.545  30.042  28.549  1.00  0.00    -0.354 N 
ATOM     33  N   UNL A   1      46.337  29.596  27.714  1.00  0.00    -0.248 NA
ATOM     34  C   UNL A   1      48.478  30.403  27.252  1.00  0.00     0.031 C 
ATOM     35  C   UNL A   1      42.992  32.071  29.266  1.00  0.00     0.029 A 
ATOM     36  C   UNL A   1      44.039  31.321  28.753  1.00  0.00     0.049 A 
ATOM     37  H   UNL A   1      44.064  29.287  28.189  1.00  0.00     0.167 HD
ATOM     38  C   UNL A   1      46.378  30.952  27.998  1.00  0.00     0.074 A 
ATOM     39  C   UNL A   1      47.726  31.398  27.708  1.00  0.00     0.031 C 
ATOM     40  C   UNL A   1      45.387  31.749  28.463  1.00  0.00     0.037 A 
BRANCH  27  41
ATOM     41  C   UNL A   1      39.916  28.962  29.148  1.00  0.00     0.064 A 
ATOM     42  C   UNL A   1      38.987  29.307  28.154  1.00  0.00     0.173 A 
ATOM     43  C   UNL A   1      39.445  28.813  30.461  1.00  0.00     0.173 A 
ATOM     44  F   UNL A   1      39.385  29.472  26.884  1.00  0.00    -0.203 F 
ATOM     45  C   UNL A   1      37.643  29.502  28.463  1.00  0.00     0.198 A 
ATOM     46  C   UNL A   1      38.095  28.978  30.760  1.00  0.00     0.198 A 
ATOM     47  F   UNL A   1      40.290  28.476  31.448  1.00  0.00    -0.203 F 
ATOM     48  F   UNL A   1      36.781  29.858  27.500  1.00  0.00    -0.200 F 
ATOM     49  C   UNL A   1      37.197  29.330  29.764  1.00  0.00     0.200 A 
ATOM     50  F   UNL A   1      37.661  28.788  32.014  1.00  0.00    -0.200 F 
ATOM     51  F   UNL A   1      35.900  29.500  30.057  1.00  0.00    -0.200 F 
ENDBRANCH  27  41
BRANCH  28  52
ATOM     52  C   UNL A   1      49.457  27.736  26.422  1.00  0.00     0.064 A 
ATOM     53  C   UNL A   1      49.781  27.640  25.060  1.00  0.00     0.173 A 
ATOM     54  C   UNL A   1      50.479  27.520  27.355  1.00  0.00     0.173 A 
ATOM     55  F   UNL A   1      48.832  27.825  24.130  1.00  0.00    -0.203 F 
ATOM     56  C   UNL A   1      51.066  27.295  24.649  1.00  0.00     0.198 A 
ATOM     57  C   UNL A   1      51.771  27.201  26.943  1.00  0.00     0.198 A 
ATOM     58  F   UNL A   1      50.217  27.613  28.667  1.00  0.00    -0.203 F 
ATOM     59  F   UNL A   1      51.335  27.153  23.345  1.00  0.00    -0.200 F 
ATOM     60  C   UNL A   1      52.060  27.074  25.590  1.00  0.00     0.200 A 
ATOM     61  F   UNL A   1      52.731  26.999  27.854  1.00  0.00    -0.200 F 
ATOM     62  F   UNL A   1      53.293  26.731  25.197  1.00  0.00    -0.200 F 
ENDBRANCH  28  52
BRANCH  40  63
ATOM     63  C   UNL A   1      45.705  33.192  28.719  1.00  0.00     0.064 A 
ATOM     64  C   UNL A   1      46.135  33.603  29.991  1.00  0.00     0.173 A 
ATOM     65  C   UNL A   1      45.458  34.178  27.755  1.00  0.00     0.173 A 
ATOM     66  F   UNL A   1      46.378  32.696  30.948  1.00  0.00    -0.203 F 
ATOM     67  C   UNL A   1      46.269  34.953  30.297  1.00  0.00     0.198 A 
ATOM     68  C   UNL A   1      45.619  35.527  28.058  1.00  0.00     0.198 A 
ATOM     69  F   UNL A   1      45.060  33.831  26.522  1.00  0.00    -0.203 F 
ATOM     70  F   UNL A   1      46.628  35.325  31.534  1.00  0.00    -0.200 F 
ATOM     71  C   UNL A   1      46.009  35.914  29.332  1.00  0.00     0.200 A 
ATOM     72  F   UNL A   1      45.383  36.456  27.120  1.00  0.00    -0.200 F 
ATOM     73  F   UNL A   1      46.127  37.215  29.633  1.00  0.00    -0.200 F 
ENDBRANCH  40  63
ENDBRANCH  14  15
ENDBRANCH   7   9
ENDBRANCH   4   5
ENDBRANCH   3   4
ENDBRANCH   2   3
ENDBRANCH   1   2
BRANCH   1  74
ATOM     74  C   UNL A   1      38.004  24.078  26.703  1.00  0.00     0.021 C 
BRANCH  74  75
ATOM     75  C   UNL A   1      36.768  24.036  25.816  1.00  0.00     0.116 C 
BRANCH  75  76
ATOM     76  N   UNL A   1      37.055  23.604  24.464  1.00  0.00    -0.352 N 
ATOM     77  C   UNL A   1      36.240  23.008  23.528  1.00  0.00     0.252 C 
ATOM     78  H   UNL A   1      37.981  23.763  24.166  1.00  0.00     0.163 HD
ATOM     79  O   UNL A   1      36.655  22.918  22.377  1.00  0.00    -0.269 OA
BRANCH  77  80
ATOM     80  C   UNL A   1      34.838  22.400  24.011  1.00  0.00     0.060 A 
ATOM     81  C   UNL A   1      32.952  22.878  24.499  1.00  0.00     0.041 A 
ATOM     82  C   UNL A   1      34.652  21.503  24.655  1.00  0.00     0.053 A 
ATOM     83  C   UNL A   1      31.585  22.727  24.841  1.00  0.00     0.041 A 
ATOM     84  C   UNL A   1      32.855  21.227  25.522  1.00  0.00     0.023 A 
ATOM     85  Cl  UNL A   1      36.540  20.588  24.935  1.00  0.00    -0.083 Cl
ATOM     86  C   UNL A   1      31.503  21.642  25.515  1.00  0.00     0.028 A 
BRANCH  83  87
ATOM     87  N   UNL A   1      30.652  23.705  24.517  1.00  0.00    -0.332 N 
ATOM     88  H   UNL A   1      29.746  23.545  24.868  1.00  0.00     0.169 HD
BRANCH  87  89
ATOM     89  C   UNL A   1      30.793  24.850  23.791  1.00  0.00     0.177 C 
ATOM     90  S   UNL A   1      29.538  25.961  23.876  1.00  0.00    -0.040 S 
BRANCH  89  91
ATOM     91  N   UNL A   1      31.893  25.203  23.002  1.00  0.00    -0.299 N 
ATOM     92  C   UNL A   1      32.900  26.183  22.722  1.00  0.00     0.260 C 
ATOM     93  H   UNL A   1      32.035  24.463  22.368  1.00  0.00     0.172 HD
ATOM     94  O   UNL A   1      33.630  26.059  21.744  1.00  0.00    -0.269 OA
BRANCH  92  95
ATOM     95  C   UNL A   1      33.073  27.367  23.603  1.00  0.00     0.075 A 
ATOM     96  C   UNL A   1      31.838  28.993  23.624  1.00  0.00     0.017 A 
ATOM     97  C   UNL A   1      33.686  27.037  25.495  1.00  0.00     0.135 A 
ATOM     98  C   UNL A   1      31.405  30.162  25.186  1.00  0.00     0.001 A 
ATOM     99  C   UNL A   1      33.293  28.206  27.052  1.00  0.00     0.040 A 
ATOM    100  F   UNL A   1      34.349  25.893  25.742  1.00  0.00    -0.206 F 
ATOM    101  C   UNL A   1      32.237  29.918  27.027  1.00  0.00     0.003 A 
ENDBRANCH  92  95
ENDBRANCH  89  91
ENDBRANCH  87  89
ENDBRANCH  83  87
ENDBRANCH  77  80
ENDBRANCH  75  76
ENDBRANCH  74  75
ENDBRANCH   1  74
TORSDOF 17
ENDMDL
