MODEL 1
REMARK VINA RESULT:     -11.7      0.000      0.000
REMARK SMILES Cc1cc(C)n2ncc(C(=O)N(C)CCCC(=O)NCCCCCCNC(=O)c3ccc(-c4c5nc(c(-c6c(F)c(F)c(F)c(F)c6F)c6ccc([nH]6)c(-c6c(F)c(F)c(F)c(F)c6F)c6nc(c(-c7c(F)c(F)c(F)c(F)c7F)c7ccc4[nH]7)C=C6)C=C5)cc3)c2n1
REMARK SMILES IDX 21 1 20 2 19 3 17 4 18 5 16 7 15 8 14 9 12 10 13 11 10 12
REMARK SMILES IDX 11 13 9 14 1 15 2 16 3 17 93 18 4 19 92 20 5 21 6 22 7 23
REMARK SMILES IDX 8 24 22 25 23 26 24 27 25 28 26 29 27 30 28 32 29 33 30 34
REMARK SMILES IDX 91 35 31 36 90 37 32 38 33 39 34 40 84 41 35 42 89 43 83 44
REMARK SMILES IDX 85 45 36 46 88 47 82 48 81 49 37 51 69 52 49 53 68 54 50 55
REMARK SMILES IDX 53 56 67 57 86 58 51 59 52 60 66 62 87 63 54 64 38 65 39 66
REMARK SMILES IDX 47 67 40 68 41 69 45 70 48 71 42 72 43 73 46 74 44 75 70 76
REMARK SMILES IDX 71 77 79 78 72 79 73 80 77 81 80 82 74 83 75 84 78 85 76 86
REMARK SMILES IDX 55 87 56 88 64 89 57 90 58 91 62 92 65 93 59 94 60 95 63 96
REMARK SMILES IDX 61 97
REMARK H PARENT 19 6 26 31 85 50 53 61
REMARK Flexibility Score: inf
ROOT
ATOM      1  C   UNL A   1      38.860  21.431  25.896  1.00  0.00     0.021 C 
ENDROOT
BRANCH   1   2
ATOM      2  C   UNL A   1      37.641  22.344  25.731  1.00  0.00     0.116 C 
BRANCH   2   3
ATOM      3  N   UNL A   1      37.449  22.692  24.345  1.00  0.00    -0.356 N 
ATOM      4  C   UNL A   1      36.348  22.708  23.557  1.00  0.00     0.220 C 
ATOM      5  O   UNL A   1      36.524  23.108  22.398  1.00  0.00    -0.275 OA
ATOM      6  H   UNL A   1      38.273  22.970  23.884  1.00  0.00     0.163 HD
BRANCH   4   7
ATOM      7  C   UNL A   1      34.939  22.394  24.031  1.00  0.00     0.102 C 
BRANCH   7   8
ATOM      8  C   UNL A   1      33.972  23.431  24.623  1.00  0.00     0.031 C 
BRANCH   8   9
ATOM      9  C   UNL A   1      32.474  23.212  24.890  1.00  0.00     0.120 C 
BRANCH   9  10
ATOM     10  N   UNL A   1      31.783  23.430  26.189  1.00  0.00    -0.342 N 
ATOM     11  C   UNL A   1      32.515  22.849  27.308  1.00  0.00     0.147 C 
BRANCH  10  12
ATOM     12  C   UNL A   1      30.625  24.222  26.301  1.00  0.00     0.259 C 
ATOM     13  O   UNL A   1      29.811  23.966  27.180  1.00  0.00    -0.269 OA
BRANCH  12  14
ATOM     14  C   UNL A   1      30.315  25.350  25.416  1.00  0.00     0.104 A 
ATOM     15  C   UNL A   1      33.178  28.908  27.305  1.00  0.00     0.067 C 
ATOM     16  C   UNL A   1      32.200  28.332  26.310  1.00  0.00     0.042 A 
ATOM     17  C   UNL A   1      31.909  29.164  25.103  1.00  0.00     0.047 A 
ATOM     18  N   UNL A   1      31.696  27.153  26.535  1.00  0.00    -0.233 NA
ATOM     19  C   UNL A   1      31.037  28.649  24.220  1.00  0.00     0.043 A 
ATOM     20  C   UNL A   1      30.865  26.626  25.576  1.00  0.00     0.168 A 
ATOM     21  C   UNL A   1      30.654  29.363  22.962  1.00  0.00     0.067 C 
ATOM     22  N   UNL A   1      30.496  27.374  24.452  1.00  0.00    -0.219 N 
ATOM     23  N   UNL A   1      29.631  26.684  23.669  1.00  0.00    -0.174 NA
ATOM     24  C   UNL A   1      29.594  25.467  24.212  1.00  0.00     0.151 A 
ENDBRANCH  12  14
ENDBRANCH  10  12
ENDBRANCH   9  10
ENDBRANCH   8   9
ENDBRANCH   7   8
ENDBRANCH   4   7
ENDBRANCH   2   3
ENDBRANCH   1   2
BRANCH   1  25
ATOM     25  C   UNL A   1      40.032  22.092  26.631  1.00  0.00     0.002 C 
BRANCH  25  26
ATOM     26  C   UNL A   1      41.084  21.125  27.200  1.00  0.00     0.002 C 
BRANCH  26  27
ATOM     27  C   UNL A   1      41.646  20.073  26.231  1.00  0.00     0.021 C 
BRANCH  27  28
ATOM     28  C   UNL A   1      43.015  19.548  26.630  1.00  0.00     0.116 C 
BRANCH  28  29
ATOM     29  N   UNL A   1      43.960  19.513  25.510  1.00  0.00    -0.352 N 
ATOM     30  C   UNL A   1      44.408  20.560  24.720  1.00  0.00     0.251 C 
ATOM     31  H   UNL A   1      44.327  18.626  25.290  1.00  0.00     0.163 HD
ATOM     32  O   UNL A   1      44.943  20.371  23.647  1.00  0.00    -0.269 OA
BRANCH  30  33
ATOM     33  C   UNL A   1      44.216  21.929  25.231  1.00  0.00     0.039 A 
ATOM     34  C   UNL A   1      43.304  22.816  24.657  1.00  0.00     0.014 A 
ATOM     35  C   UNL A   1      44.945  22.281  26.358  1.00  0.00     0.014 A 
ATOM     36  C   UNL A   1      43.085  24.041  25.285  1.00  0.00     0.010 A 
ATOM     37  C   UNL A   1      44.559  23.366  27.091  1.00  0.00     0.010 A 
ATOM     38  C   UNL A   1      43.712  24.301  26.512  1.00  0.00    -0.014 A 
BRANCH  38  39
ATOM     39  C   UNL A   1      43.507  25.550  27.232  1.00  0.00     0.031 A 
ATOM     40  C   UNL A   1      44.462  26.648  26.923  1.00  0.00     0.074 A 
ATOM     41  C   UNL A   1      42.404  25.761  27.984  1.00  0.00     0.049 A 
ATOM     42  N   UNL A   1      45.310  27.207  27.722  1.00  0.00    -0.248 NA
ATOM     43  C   UNL A   1      44.545  27.127  25.534  1.00  0.00     0.031 C 
ATOM     44  C   UNL A   1      41.220  24.904  28.158  1.00  0.00     0.029 A 
ATOM     45  N   UNL A   1      42.070  26.867  28.697  1.00  0.00    -0.354 N 
ATOM     46  C   UNL A   1      45.937  28.210  26.987  1.00  0.00     0.074 A 
ATOM     47  C   UNL A   1      45.520  28.036  25.619  1.00  0.00     0.031 C 
ATOM     48  C   UNL A   1      40.218  25.614  28.717  1.00  0.00     0.029 A 
ATOM     49  C   UNL A   1      40.752  26.895  29.130  1.00  0.00     0.049 A 
ATOM     50  H   UNL A   1      42.710  27.590  28.892  1.00  0.00     0.167 HD
ATOM     51  C   UNL A   1      46.606  29.228  27.598  1.00  0.00     0.037 A 
ATOM     52  C   UNL A   1      40.142  27.911  29.779  1.00  0.00     0.037 A 
ATOM     53  C   UNL A   1      46.858  28.939  28.983  1.00  0.00     0.049 A 
ATOM     54  C   UNL A   1      41.215  28.731  30.391  1.00  0.00     0.074 A 
ATOM     55  C   UNL A   1      47.631  28.019  29.662  1.00  0.00     0.029 A 
ATOM     56  N   UNL A   1      45.961  29.425  29.901  1.00  0.00    -0.354 N 
ATOM     57  N   UNL A   1      42.003  28.307  31.339  1.00  0.00    -0.248 NA
ATOM     58  C   UNL A   1      41.696  29.880  29.643  1.00  0.00     0.031 C 
ATOM     59  C   UNL A   1      46.861  27.663  30.810  1.00  0.00     0.029 A 
ATOM     60  C   UNL A   1      45.689  28.422  30.796  1.00  0.00     0.049 A 
ATOM     61  H   UNL A   1      45.580  30.332  29.914  1.00  0.00     0.167 HD
ATOM     62  C   UNL A   1      43.243  28.854  31.040  1.00  0.00     0.074 A 
ATOM     63  C   UNL A   1      42.966  29.896  30.055  1.00  0.00     0.031 C 
ATOM     64  C   UNL A   1      44.396  28.226  31.415  1.00  0.00     0.037 A 
BRANCH  51  65
ATOM     65  C   UNL A   1      46.747  30.616  27.036  1.00  0.00     0.064 A 
ATOM     66  C   UNL A   1      48.017  31.221  26.966  1.00  0.00     0.173 A 
ATOM     67  C   UNL A   1      45.646  31.474  26.831  1.00  0.00     0.173 A 
ATOM     68  F   UNL A   1      49.128  30.502  27.181  1.00  0.00    -0.203 F 
ATOM     69  C   UNL A   1      48.167  32.594  26.750  1.00  0.00     0.198 A 
ATOM     70  C   UNL A   1      45.802  32.833  26.564  1.00  0.00     0.198 A 
ATOM     71  F   UNL A   1      44.385  31.053  26.991  1.00  0.00    -0.203 F 
ATOM     72  F   UNL A   1      49.388  33.147  26.798  1.00  0.00    -0.200 F 
ATOM     73  C   UNL A   1      47.060  33.399  26.550  1.00  0.00     0.200 A 
ATOM     74  F   UNL A   1      44.716  33.602  26.399  1.00  0.00    -0.200 F 
ATOM     75  F   UNL A   1      47.198  34.722  26.394  1.00  0.00    -0.200 F 
ENDBRANCH  51  65
BRANCH  52  76
ATOM     76  C   UNL A   1      38.770  28.418  29.559  1.00  0.00     0.064 A 
ATOM     77  C   UNL A   1      37.932  28.703  30.646  1.00  0.00     0.173 A 
ATOM     78  C   UNL A   1      38.370  28.920  28.303  1.00  0.00     0.173 A 
ATOM     79  F   UNL A   1      38.266  28.289  31.877  1.00  0.00    -0.203 F 
ATOM     80  C   UNL A   1      36.784  29.489  30.498  1.00  0.00     0.198 A 
ATOM     81  C   UNL A   1      37.223  29.700  28.157  1.00  0.00     0.198 A 
ATOM     82  F   UNL A   1      39.139  28.754  27.218  1.00  0.00    -0.203 F 
ATOM     83  F   UNL A   1      36.050  29.805  31.573  1.00  0.00    -0.200 F 
ATOM     84  C   UNL A   1      36.439  29.999  29.257  1.00  0.00     0.200 A 
ATOM     85  F   UNL A   1      36.922  30.221  26.959  1.00  0.00    -0.200 F 
ATOM     86  F   UNL A   1      35.385  30.815  29.129  1.00  0.00    -0.200 F 
ENDBRANCH  52  76
BRANCH  64  87
ATOM     87  C   UNL A   1      44.278  27.083  32.390  1.00  0.00     0.064 A 
ATOM     88  C   UNL A   1      44.229  25.727  32.018  1.00  0.00     0.173 A 
ATOM     89  C   UNL A   1      44.354  27.366  33.759  1.00  0.00     0.173 A 
ATOM     90  F   UNL A   1      44.250  25.364  30.732  1.00  0.00    -0.203 F 
ATOM     91  C   UNL A   1      44.216  24.710  32.973  1.00  0.00     0.198 A 
ATOM     92  C   UNL A   1      44.378  26.348  34.710  1.00  0.00     0.198 A 
ATOM     93  F   UNL A   1      44.458  28.639  34.176  1.00  0.00    -0.203 F 
ATOM     94  F   UNL A   1      44.158  23.426  32.588  1.00  0.00    -0.200 F 
ATOM     95  C   UNL A   1      44.299  25.022  34.319  1.00  0.00     0.200 A 
ATOM     96  F   UNL A   1      44.506  26.654  36.009  1.00  0.00    -0.200 F 
ATOM     97  F   UNL A   1      44.329  24.045  35.236  1.00  0.00    -0.200 F 
ENDBRANCH  64  87
ENDBRANCH  38  39
ENDBRANCH  30  33
ENDBRANCH  28  29
ENDBRANCH  27  28
ENDBRANCH  26  27
ENDBRANCH  25  26
ENDBRANCH   1  25
TORSDOF 18
ENDMDL
MODEL 2
REMARK VINA RESULT:     -11.2      1.303      2.230
REMARK SMILES Cc1cc(C)n2ncc(C(=O)N(C)CCCC(=O)NCCCCCCNC(=O)c3ccc(-c4c5nc(c(-c6c(F)c(F)c(F)c(F)c6F)c6ccc([nH]6)c(-c6c(F)c(F)c(F)c(F)c6F)c6nc(c(-c7c(F)c(F)c(F)c(F)c7F)c7ccc4[nH]7)C=C6)C=C5)cc3)c2n1
REMARK SMILES IDX 21 1 20 2 19 3 17 4 18 5 16 7 15 8 14 9 12 10 13 11 10 12
REMARK SMILES IDX 11 13 9 14 1 15 2 16 3 17 93 18 4 19 92 20 5 21 6 22 7 23
REMARK SMILES IDX 8 24 22 25 23 26 24 27 25 28 26 29 27 30 28 32 29 33 30 34
REMARK SMILES IDX 91 35 31 36 90 37 32 38 33 39 34 40 84 41 35 42 89 43 83 44
REMARK SMILES IDX 85 45 36 46 88 47 82 48 81 49 37 51 69 52 49 53 68 54 50 55
REMARK SMILES IDX 53 56 67 57 86 58 51 59 52 60 66 62 87 63 54 64 38 65 39 66
REMARK SMILES IDX 47 67 40 68 41 69 45 70 48 71 42 72 43 73 46 74 44 75 70 76
REMARK SMILES IDX 71 77 79 78 72 79 73 80 77 81 80 82 74 83 75 84 78 85 76 86
REMARK SMILES IDX 55 87 56 88 64 89 57 90 58 91 62 92 65 93 59 94 60 95 63 96
REMARK SMILES IDX 61 97
REMARK H PARENT 19 6 26 31 85 50 53 61
REMARK Flexibility Score: inf
ROOT
ATOM      1  C   UNL A   1      40.500  21.920  26.249  1.00  0.00     0.021 C 
ENDROOT
BRANCH   1   2
ATOM      2  C   UNL A   1      39.018  22.290  26.115  1.00  0.00     0.116 C 
BRANCH   2   3
ATOM      3  N   UNL A   1      38.249  21.158  25.662  1.00  0.00    -0.356 N 
ATOM      4  C   UNL A   1      36.957  21.033  25.279  1.00  0.00     0.220 C 
ATOM      5  O   UNL A   1      36.617  19.904  24.897  1.00  0.00    -0.275 OA
ATOM      6  H   UNL A   1      38.759  20.316  25.625  1.00  0.00     0.163 HD
BRANCH   4   7
ATOM      7  C   UNL A   1      35.970  22.184  25.174  1.00  0.00     0.102 C 
BRANCH   7   8
ATOM      8  C   UNL A   1      35.819  23.087  23.940  1.00  0.00     0.031 C 
BRANCH   8   9
ATOM      9  C   UNL A   1      34.898  24.313  23.833  1.00  0.00     0.120 C 
BRANCH   9  10
ATOM     10  N   UNL A   1      33.907  24.562  22.751  1.00  0.00    -0.342 N 
ATOM     11  C   UNL A   1      33.272  23.334  22.289  1.00  0.00     0.147 C 
BRANCH  10  12
ATOM     12  C   UNL A   1      33.558  25.861  22.337  1.00  0.00     0.259 C 
ATOM     13  O   UNL A   1      33.432  26.092  21.140  1.00  0.00    -0.269 OA
BRANCH  12  14
ATOM     14  C   UNL A   1      33.336  26.983  23.257  1.00  0.00     0.104 A 
ATOM     15  C   UNL A   1      29.958  25.092  26.328  1.00  0.00     0.067 C 
ATOM     16  C   UNL A   1      30.907  26.159  25.838  1.00  0.00     0.042 A 
ATOM     17  C   UNL A   1      31.120  27.329  26.742  1.00  0.00     0.047 A 
ATOM     18  N   UNL A   1      31.501  25.991  24.691  1.00  0.00    -0.233 NA
ATOM     19  C   UNL A   1      31.964  28.277  26.302  1.00  0.00     0.043 A 
ATOM     20  C   UNL A   1      32.413  26.945  24.306  1.00  0.00     0.168 A 
ATOM     21  C   UNL A   1      32.281  29.502  27.101  1.00  0.00     0.067 C 
ATOM     22  N   UNL A   1      32.615  28.099  25.071  1.00  0.00    -0.219 N 
ATOM     23  N   UNL A   1      33.514  28.925  24.479  1.00  0.00    -0.174 NA
ATOM     24  C   UNL A   1      33.984  28.217  23.451  1.00  0.00     0.151 A 
ENDBRANCH  12  14
ENDBRANCH  10  12
ENDBRANCH   9  10
ENDBRANCH   8   9
ENDBRANCH   7   8
ENDBRANCH   4   7
ENDBRANCH   2   3
ENDBRANCH   1   2
BRANCH   1  25
ATOM     25  C   UNL A   1      40.818  21.090  27.498  1.00  0.00     0.002 C 
BRANCH  25  26
ATOM     26  C   UNL A   1      41.447  19.712  27.233  1.00  0.00     0.002 C 
BRANCH  26  27
ATOM     27  C   UNL A   1      42.098  19.506  25.856  1.00  0.00     0.021 C 
BRANCH  27  28
ATOM     28  C   UNL A   1      43.597  19.273  25.921  1.00  0.00     0.116 C 
BRANCH  28  29
ATOM     29  N   UNL A   1      44.293  19.698  24.703  1.00  0.00    -0.352 N 
ATOM     30  C   UNL A   1      44.446  20.978  24.193  1.00  0.00     0.251 C 
ATOM     31  H   UNL A   1      44.708  18.978  24.176  1.00  0.00     0.163 HD
ATOM     32  O   UNL A   1      44.770  21.176  23.041  1.00  0.00    -0.269 OA
BRANCH  30  33
ATOM     33  C   UNL A   1      44.204  22.108  25.108  1.00  0.00     0.039 A 
ATOM     34  C   UNL A   1      44.959  22.303  26.266  1.00  0.00     0.014 A 
ATOM     35  C   UNL A   1      43.223  23.016  24.733  1.00  0.00     0.014 A 
ATOM     36  C   UNL A   1      44.757  23.469  27.002  1.00  0.00     0.010 A 
ATOM     37  C   UNL A   1      43.196  24.250  25.316  1.00  0.00     0.010 A 
ATOM     38  C   UNL A   1      43.878  24.444  26.509  1.00  0.00    -0.014 A 
BRANCH  38  39
ATOM     39  C   UNL A   1      43.641  25.695  27.216  1.00  0.00     0.031 A 
ATOM     40  C   UNL A   1      44.565  26.814  26.894  1.00  0.00     0.074 A 
ATOM     41  C   UNL A   1      42.533  25.884  27.968  1.00  0.00     0.049 A 
ATOM     42  N   UNL A   1      45.399  27.404  27.686  1.00  0.00    -0.248 NA
ATOM     43  C   UNL A   1      44.634  27.281  25.501  1.00  0.00     0.031 C 
ATOM     44  C   UNL A   1      41.372  24.997  28.152  1.00  0.00     0.029 A 
ATOM     45  N   UNL A   1      42.171  26.987  28.670  1.00  0.00    -0.354 N 
ATOM     46  C   UNL A   1      45.997  28.416  26.940  1.00  0.00     0.074 A 
ATOM     47  C   UNL A   1      45.584  28.217  25.575  1.00  0.00     0.031 C 
ATOM     48  C   UNL A   1      40.352  25.685  28.706  1.00  0.00     0.029 A 
ATOM     49  C   UNL A   1      40.853  26.984  29.104  1.00  0.00     0.049 A 
ATOM     50  H   UNL A   1      42.791  27.729  28.856  1.00  0.00     0.167 HD
ATOM     51  C   UNL A   1      46.640  29.458  27.539  1.00  0.00     0.037 A 
ATOM     52  C   UNL A   1      40.216  27.990  29.744  1.00  0.00     0.037 A 
ATOM     53  C   UNL A   1      46.901  29.190  28.927  1.00  0.00     0.049 A 
ATOM     54  C   UNL A   1      41.268  28.845  30.345  1.00  0.00     0.074 A 
ATOM     55  C   UNL A   1      47.700  28.299  29.614  1.00  0.00     0.029 A 
ATOM     56  N   UNL A   1      45.993  29.661  29.841  1.00  0.00    -0.354 N 
ATOM     57  N   UNL A   1      42.068  28.452  31.297  1.00  0.00    -0.248 NA
ATOM     58  C   UNL A   1      41.717  30.000  29.585  1.00  0.00     0.031 C 
ATOM     59  C   UNL A   1      46.941  27.934  30.767  1.00  0.00     0.029 A 
ATOM     60  C   UNL A   1      45.748  28.661  30.747  1.00  0.00     0.049 A 
ATOM     61  H   UNL A   1      45.588  30.559  29.845  1.00  0.00     0.167 HD
ATOM     62  C   UNL A   1      43.292  29.030  30.990  1.00  0.00     0.074 A 
ATOM     63  C   UNL A   1      42.987  30.053  29.995  1.00  0.00     0.031 C 
ATOM     64  C   UNL A   1      44.462  28.436  31.370  1.00  0.00     0.037 A 
BRANCH  51  65
ATOM     65  C   UNL A   1      46.743  30.843  26.963  1.00  0.00     0.064 A 
ATOM     66  C   UNL A   1      47.994  31.486  26.895  1.00  0.00     0.173 A 
ATOM     67  C   UNL A   1      45.618  31.666  26.740  1.00  0.00     0.173 A 
ATOM     68  F   UNL A   1      49.125  30.803  27.126  1.00  0.00    -0.203 F 
ATOM     69  C   UNL A   1      48.104  32.861  26.665  1.00  0.00     0.198 A 
ATOM     70  C   UNL A   1      45.735  33.026  26.460  1.00  0.00     0.198 A 
ATOM     71  F   UNL A   1      44.369  31.208  26.896  1.00  0.00    -0.203 F 
ATOM     72  F   UNL A   1      49.307  33.451  26.715  1.00  0.00    -0.200 F 
ATOM     73  C   UNL A   1      46.975  33.629  26.448  1.00  0.00     0.200 A 
ATOM     74  F   UNL A   1      44.627  33.759  26.278  1.00  0.00    -0.200 F 
ATOM     75  F   UNL A   1      47.074  34.954  26.278  1.00  0.00    -0.200 F 
ENDBRANCH  51  65
BRANCH  52  76
ATOM     76  C   UNL A   1      38.830  28.458  29.520  1.00  0.00     0.064 A 
ATOM     77  C   UNL A   1      37.979  28.709  30.605  1.00  0.00     0.173 A 
ATOM     78  C   UNL A   1      38.422  28.959  28.267  1.00  0.00     0.173 A 
ATOM     79  F   UNL A   1      38.319  28.296  31.835  1.00  0.00    -0.203 F 
ATOM     80  C   UNL A   1      36.809  29.461  30.458  1.00  0.00     0.198 A 
ATOM     81  C   UNL A   1      37.253  29.705  28.120  1.00  0.00     0.198 A 
ATOM     82  F   UNL A   1      39.202  28.824  27.184  1.00  0.00    -0.203 F 
ATOM     83  F   UNL A   1      36.060  29.747  31.531  1.00  0.00    -0.200 F 
ATOM     84  C   UNL A   1      36.456  29.971  29.219  1.00  0.00     0.200 A 
ATOM     85  F   UNL A   1      36.943  30.226  26.925  1.00  0.00    -0.200 F 
ATOM     86  F   UNL A   1      35.378  30.757  29.092  1.00  0.00    -0.200 F 
ENDBRANCH  52  76
BRANCH  64  87
ATOM     87  C   UNL A   1      44.376  27.302  32.357  1.00  0.00     0.064 A 
ATOM     88  C   UNL A   1      44.196  27.470  33.743  1.00  0.00     0.173 A 
ATOM     89  C   UNL A   1      44.338  25.992  31.865  1.00  0.00     0.173 A 
ATOM     90  F   UNL A   1      44.124  28.690  34.285  1.00  0.00    -0.203 F 
ATOM     91  C   UNL A   1      44.027  26.378  34.593  1.00  0.00     0.198 A 
ATOM     92  C   UNL A   1      44.133  24.904  32.710  1.00  0.00     0.198 A 
ATOM     93  F   UNL A   1      44.450  25.769  30.545  1.00  0.00    -0.203 F 
ATOM     94  F   UNL A   1      43.868  26.570  35.912  1.00  0.00    -0.200 F 
ATOM     95  C   UNL A   1      43.988  25.095  34.075  1.00  0.00     0.200 A 
ATOM     96  F   UNL A   1      44.048  23.669  32.197  1.00  0.00    -0.200 F 
ATOM     97  F   UNL A   1      43.783  24.047  34.885  1.00  0.00    -0.200 F 
ENDBRANCH  64  87
ENDBRANCH  38  39
ENDBRANCH  30  33
ENDBRANCH  28  29
ENDBRANCH  27  28
ENDBRANCH  26  27
ENDBRANCH  25  26
ENDBRANCH   1  25
TORSDOF 18
ENDMDL
MODEL 3
REMARK VINA RESULT:     -11.2      2.806      8.909
REMARK SMILES Cc1cc(C)n2ncc(C(=O)N(C)CCCC(=O)NCCCCCCNC(=O)c3ccc(-c4c5nc(c(-c6c(F)c(F)c(F)c(F)c6F)c6ccc([nH]6)c(-c6c(F)c(F)c(F)c(F)c6F)c6nc(c(-c7c(F)c(F)c(F)c(F)c7F)c7ccc4[nH]7)C=C6)C=C5)cc3)c2n1
REMARK SMILES IDX 21 1 20 2 19 3 17 4 18 5 16 7 15 8 14 9 12 10 13 11 10 12
REMARK SMILES IDX 11 13 9 14 1 15 2 16 3 17 93 18 4 19 92 20 5 21 6 22 7 23
REMARK SMILES IDX 8 24 22 25 23 26 24 27 25 28 26 29 27 30 28 32 29 33 30 34
REMARK SMILES IDX 91 35 31 36 90 37 32 38 33 39 34 40 84 41 35 42 89 43 83 44
REMARK SMILES IDX 85 45 36 46 88 47 82 48 81 49 37 51 69 52 49 53 68 54 50 55
REMARK SMILES IDX 53 56 67 57 86 58 51 59 52 60 66 62 87 63 54 64 38 65 39 66
REMARK SMILES IDX 47 67 40 68 41 69 45 70 48 71 42 72 43 73 46 74 44 75 70 76
REMARK SMILES IDX 71 77 79 78 72 79 73 80 77 81 80 82 74 83 75 84 78 85 76 86
REMARK SMILES IDX 55 87 56 88 64 89 57 90 58 91 62 92 65 93 59 94 60 95 63 96
REMARK SMILES IDX 61 97
REMARK H PARENT 19 6 26 31 85 50 53 61
REMARK Flexibility Score: inf
ROOT
ATOM      1  C   UNL A   1      31.402  30.331  25.837  1.00  0.00     0.021 C 
ENDROOT
BRANCH   1   2
ATOM      2  C   UNL A   1      31.751  29.052  25.068  1.00  0.00     0.116 C 
BRANCH   2   3
ATOM      3  N   UNL A   1      31.381  27.884  25.828  1.00  0.00    -0.356 N 
ATOM      4  C   UNL A   1      32.064  26.764  26.162  1.00  0.00     0.220 C 
ATOM      5  O   UNL A   1      31.454  25.956  26.876  1.00  0.00    -0.275 OA
ATOM      6  H   UNL A   1      30.457  27.903  26.167  1.00  0.00     0.163 HD
BRANCH   4   7
ATOM      7  C   UNL A   1      33.525  26.509  25.828  1.00  0.00     0.102 C 
BRANCH   7   8
ATOM      8  C   UNL A   1      34.007  25.604  24.684  1.00  0.00     0.031 C 
BRANCH   8   9
ATOM      9  C   UNL A   1      33.241  24.403  24.106  1.00  0.00     0.120 C 
BRANCH   9  10
ATOM     10  N   UNL A   1      32.513  23.375  24.899  1.00  0.00    -0.342 N 
ATOM     11  C   UNL A   1      31.093  23.330  24.575  1.00  0.00     0.147 C 
BRANCH  10  12
ATOM     12  C   UNL A   1      33.177  22.481  25.760  1.00  0.00     0.259 C 
ATOM     13  O   UNL A   1      32.848  22.433  26.938  1.00  0.00    -0.269 OA
BRANCH  12  14
ATOM     14  C   UNL A   1      34.264  21.590  25.336  1.00  0.00     0.104 A 
ATOM     15  C   UNL A   1      38.251  24.267  26.501  1.00  0.00     0.067 C 
ATOM     16  C   UNL A   1      37.537  23.039  25.991  1.00  0.00     0.042 A 
ATOM     17  C   UNL A   1      38.381  21.831  25.746  1.00  0.00     0.047 A 
ATOM     18  N   UNL A   1      36.247  23.086  25.825  1.00  0.00    -0.233 NA
ATOM     19  C   UNL A   1      37.743  20.739  25.292  1.00  0.00     0.043 A 
ATOM     20  C   UNL A   1      35.617  21.931  25.429  1.00  0.00     0.168 A 
ATOM     21  C   UNL A   1      38.455  19.454  25.007  1.00  0.00     0.067 C 
ATOM     22  N   UNL A   1      36.350  20.780  25.118  1.00  0.00    -0.219 N 
ATOM     23  N   UNL A   1      35.535  19.781  24.699  1.00  0.00    -0.174 NA
ATOM     24  C   UNL A   1      34.305  20.251  24.906  1.00  0.00     0.151 A 
ENDBRANCH  12  14
ENDBRANCH  10  12
ENDBRANCH   9  10
ENDBRANCH   8   9
ENDBRANCH   7   8
ENDBRANCH   4   7
ENDBRANCH   2   3
ENDBRANCH   1   2
BRANCH   1  25
ATOM     25  C   UNL A   1      32.523  30.822  26.760  1.00  0.00     0.002 C 
BRANCH  25  26
ATOM     26  C   UNL A   1      33.875  30.108  26.593  1.00  0.00     0.002 C 
BRANCH  26  27
ATOM     27  C   UNL A   1      34.886  30.272  27.739  1.00  0.00     0.021 C 
BRANCH  27  28
ATOM     28  C   UNL A   1      35.501  31.658  27.815  1.00  0.00     0.116 C 
BRANCH  28  29
ATOM     29  N   UNL A   1      35.197  32.349  29.072  1.00  0.00    -0.352 N 
ATOM     30  C   UNL A   1      35.625  32.044  30.355  1.00  0.00     0.251 C 
ATOM     31  H   UNL A   1      34.610  33.134  28.995  1.00  0.00     0.163 HD
ATOM     32  O   UNL A   1      35.074  32.491  31.339  1.00  0.00    -0.269 OA
BRANCH  30  33
ATOM     33  C   UNL A   1      36.789  31.150  30.490  1.00  0.00     0.039 A 
ATOM     34  C   UNL A   1      36.653  29.776  30.694  1.00  0.00     0.014 A 
ATOM     35  C   UNL A   1      38.041  31.730  30.341  1.00  0.00     0.014 A 
ATOM     36  C   UNL A   1      37.800  28.984  30.673  1.00  0.00     0.010 A 
ATOM     37  C   UNL A   1      39.120  30.934  30.087  1.00  0.00     0.010 A 
ATOM     38  C   UNL A   1      39.031  29.575  30.355  1.00  0.00    -0.014 A 
BRANCH  38  39
ATOM     39  C   UNL A   1      40.263  28.801  30.292  1.00  0.00     0.031 A 
ATOM     40  C   UNL A   1      40.941  28.543  31.590  1.00  0.00     0.074 A 
ATOM     41  C   UNL A   1      40.658  28.191  29.152  1.00  0.00     0.049 A 
ATOM     42  N   UNL A   1      42.108  28.949  31.966  1.00  0.00    -0.248 NA
ATOM     43  C   UNL A   1      40.198  27.815  32.631  1.00  0.00     0.031 C 
ATOM     44  C   UNL A   1      39.957  28.091  27.861  1.00  0.00     0.029 A 
ATOM     45  N   UNL A   1      41.764  27.433  28.943  1.00  0.00    -0.354 N 
ATOM     46  C   UNL A   1      42.320  28.412  33.233  1.00  0.00     0.074 A 
ATOM     47  C   UNL A   1      41.068  27.828  33.644  1.00  0.00     0.031 C 
ATOM     48  C   UNL A   1      40.530  27.134  27.101  1.00  0.00     0.029 A 
ATOM     49  C   UNL A   1      41.749  26.710  27.758  1.00  0.00     0.049 A 
ATOM     50  H   UNL A   1      42.514  27.397  29.578  1.00  0.00     0.167 HD
ATOM     51  C   UNL A   1      43.569  28.322  33.770  1.00  0.00     0.037 A 
ATOM     52  C   UNL A   1      42.679  25.818  27.350  1.00  0.00     0.037 A 
ATOM     53  C   UNL A   1      44.514  29.130  33.048  1.00  0.00     0.049 A 
ATOM     54  C   UNL A   1      43.921  26.125  28.099  1.00  0.00     0.074 A 
ATOM     55  C   UNL A   1      44.691  30.485  32.854  1.00  0.00     0.029 A 
ATOM     56  N   UNL A   1      45.253  28.511  32.072  1.00  0.00    -0.354 N 
ATOM     57  N   UNL A   1      44.600  27.230  27.959  1.00  0.00    -0.248 NA
ATOM     58  C   UNL A   1      44.170  25.388  29.326  1.00  0.00     0.031 C 
ATOM     59  C   UNL A   1      45.139  30.611  31.505  1.00  0.00     0.029 A 
ATOM     60  C   UNL A   1      45.260  29.327  30.968  1.00  0.00     0.049 A 
ATOM     61  H   UNL A   1      45.699  27.638  32.149  1.00  0.00     0.167 HD
ATOM     62  C   UNL A   1      45.037  27.542  29.238  1.00  0.00     0.074 A 
ATOM     63  C   UNL A   1      44.836  26.320  30.013  1.00  0.00     0.031 C 
ATOM     64  C   UNL A   1      45.260  28.838  29.607  1.00  0.00     0.037 A 
BRANCH  51  65
ATOM     65  C   UNL A   1      44.008  27.261  34.741  1.00  0.00     0.064 A 
ATOM     66  C   UNL A   1      43.983  25.905  34.361  1.00  0.00     0.173 A 
ATOM     67  C   UNL A   1      44.181  27.509  36.120  1.00  0.00     0.173 A 
ATOM     68  F   UNL A   1      43.789  25.560  33.080  1.00  0.00    -0.203 F 
ATOM     69  C   UNL A   1      44.079  24.875  35.301  1.00  0.00     0.198 A 
ATOM     70  C   UNL A   1      44.329  26.479  37.047  1.00  0.00     0.198 A 
ATOM     71  F   UNL A   1      44.101  28.745  36.629  1.00  0.00    -0.203 F 
ATOM     72  F   UNL A   1      43.943  23.600  34.910  1.00  0.00    -0.200 F 
ATOM     73  C   UNL A   1      44.251  25.162  36.643  1.00  0.00     0.200 A 
ATOM     74  F   UNL A   1      44.469  26.778  38.347  1.00  0.00    -0.200 F 
ATOM     75  F   UNL A   1      44.292  24.179  37.552  1.00  0.00    -0.200 F 
ENDBRANCH  51  65
BRANCH  52  76
ATOM     76  C   UNL A   1      42.440  24.517  26.688  1.00  0.00     0.064 A 
ATOM     77  C   UNL A   1      43.136  24.173  25.520  1.00  0.00     0.173 A 
ATOM     78  C   UNL A   1      41.765  23.473  27.352  1.00  0.00     0.173 A 
ATOM     79  F   UNL A   1      43.832  25.106  24.855  1.00  0.00    -0.203 F 
ATOM     80  C   UNL A   1      43.196  22.851  25.068  1.00  0.00     0.198 A 
ATOM     81  C   UNL A   1      41.822  22.155  26.897  1.00  0.00     0.198 A 
ATOM     82  F   UNL A   1      41.127  23.692  28.511  1.00  0.00    -0.203 F 
ATOM     83  F   UNL A   1      43.934  22.548  23.992  1.00  0.00    -0.200 F 
ATOM     84  C   UNL A   1      42.552  21.842  25.765  1.00  0.00     0.200 A 
ATOM     85  F   UNL A   1      41.228  21.182  27.602  1.00  0.00    -0.200 F 
ATOM     86  F   UNL A   1      42.674  20.566  25.376  1.00  0.00    -0.200 F 
ENDBRANCH  52  76
BRANCH  64  87
ATOM     87  C   UNL A   1      45.287  29.875  28.514  1.00  0.00     0.064 A 
ATOM     88  C   UNL A   1      44.163  30.612  28.095  1.00  0.00     0.173 A 
ATOM     89  C   UNL A   1      46.524  30.231  27.964  1.00  0.00     0.173 A 
ATOM     90  F   UNL A   1      42.960  30.401  28.638  1.00  0.00    -0.203 F 
ATOM     91  C   UNL A   1      44.272  31.626  27.145  1.00  0.00     0.198 A 
ATOM     92  C   UNL A   1      46.636  31.269  27.042  1.00  0.00     0.198 A 
ATOM     93  F   UNL A   1      47.641  29.601  28.364  1.00  0.00    -0.203 F 
ATOM     94  F   UNL A   1      43.181  32.305  26.757  1.00  0.00    -0.200 F 
ATOM     95  C   UNL A   1      45.510  31.959  26.624  1.00  0.00     0.200 A 
ATOM     96  F   UNL A   1      47.844  31.618  26.577  1.00  0.00    -0.200 F 
ATOM     97  F   UNL A   1      45.623  32.962  25.741  1.00  0.00    -0.200 F 
ENDBRANCH  64  87
ENDBRANCH  38  39
ENDBRANCH  30  33
ENDBRANCH  28  29
ENDBRANCH  27  28
ENDBRANCH  26  27
ENDBRANCH  25  26
ENDBRANCH   1  25
TORSDOF 18
ENDMDL
