MODEL 1
REMARK VINA RESULT:     -13.3      0.000      0.000
REMARK SMILES O=C(NCCCCCCNC(=O)c1ccc(-n2cc(CSc3nc4ccccc4c(=O)n3-c3ccc(Br)cc3)nn2)cc1)c1ccc(-c2c3nc(c(-c4c(F)c(F)c(F)c(F)c4F)c4ccc([nH]4)c(-c4c(F)c(F)c(F)c(F)c4F)c4nc(c(-c5c(F)c(F)c(F)c(F)c5F)c5ccc2[nH]5)C=C4)C=C3)cc1
REMARK SMILES IDX 8 1 7 2 6 3 5 4 4 5 3 6 1 7 2 8 44 10 45 11 106 12 46 13
REMARK SMILES IDX 105 14 47 15 48 16 49 17 99 18 50 19 104 20 98 21 100 22
REMARK SMILES IDX 51 23 103 24 97 25 96 26 52 28 84 29 64 30 83 31 65 32 68 33
REMARK SMILES IDX 82 34 101 35 66 36 67 37 81 39 102 40 69 41 53 42 54 43
REMARK SMILES IDX 62 44 55 45 56 46 60 47 63 48 57 49 58 50 61 51 59 52 85 53
REMARK SMILES IDX 86 54 94 55 87 56 88 57 92 58 95 59 89 60 90 61 93 62 91 63
REMARK SMILES IDX 70 64 71 65 79 66 72 67 73 68 77 69 80 70 74 71 75 72 78 73
REMARK SMILES IDX 76 74 9 75 10 76 11 77 12 79 13 80 14 81 43 82 15 83 42 84
REMARK SMILES IDX 16 85 17 86 18 87 41 88 19 89 40 90 20 91 21 92 22 93 23 94
REMARK SMILES IDX 32 95 24 96 30 97 25 98 29 99 31 100 26 101 28 102 27 103
REMARK SMILES IDX 33 104 34 105 39 106 35 107 38 108 36 109 37 110
REMARK H PARENT 3 9 100 27 68 38 10 78
REMARK Flexibility Score: inf
ROOT
ATOM      1  C   UNL A   1      40.659  22.133  26.572  1.00  0.00     0.021 C 
ENDROOT
BRANCH   1   2
ATOM      2  C   UNL A   1      40.867  21.246  27.803  1.00  0.00     0.002 C 
BRANCH   2   3
ATOM      3  C   UNL A   1      41.794  20.040  27.605  1.00  0.00     0.002 C 
BRANCH   3   4
ATOM      4  C   UNL A   1      41.945  19.540  26.164  1.00  0.00     0.021 C 
BRANCH   4   5
ATOM      5  C   UNL A   1      43.334  19.014  25.808  1.00  0.00     0.116 C 
BRANCH   5   6
ATOM      6  N   UNL A   1      43.914  19.605  24.621  1.00  0.00    -0.352 N 
ATOM      7  O   UNL A   1      44.935  20.957  23.197  1.00  0.00    -0.269 OA
ATOM      8  C   UNL A   1      44.393  20.842  24.299  1.00  0.00     0.251 C 
ATOM      9  H   UNL A   1      43.978  18.968  23.873  1.00  0.00     0.163 HD
BRANCH   8  10
ATOM     10  C   UNL A   1      44.240  22.056  25.144  1.00  0.00     0.039 A 
ATOM     11  C   UNL A   1      44.769  22.236  26.423  1.00  0.00     0.014 A 
ATOM     12  C   UNL A   1      43.492  23.102  24.570  1.00  0.00     0.014 A 
ATOM     13  C   UNL A   1      44.485  23.392  27.147  1.00  0.00     0.010 A 
ATOM     14  C   UNL A   1      43.220  24.264  25.278  1.00  0.00     0.010 A 
ATOM     15  C   UNL A   1      43.691  24.394  26.582  1.00  0.00    -0.014 A 
BRANCH  15  16
ATOM     16  C   UNL A   1      43.506  25.640  27.321  1.00  0.00     0.031 A 
ATOM     17  C   UNL A   1      44.503  26.708  27.007  1.00  0.00     0.074 A 
ATOM     18  C   UNL A   1      42.427  25.887  28.091  1.00  0.00     0.049 A 
ATOM     19  N   UNL A   1      45.293  27.334  27.818  1.00  0.00    -0.248 NA
ATOM     20  C   UNL A   1      44.699  27.066  25.592  1.00  0.00     0.031 C 
ATOM     21  C   UNL A   1      41.227  25.061  28.245  1.00  0.00     0.029 A 
ATOM     22  N   UNL A   1      42.129  26.998  28.822  1.00  0.00    -0.354 N 
ATOM     23  C   UNL A   1      45.981  28.272  27.046  1.00  0.00     0.074 A 
ATOM     24  C   UNL A   1      45.667  27.980  25.673  1.00  0.00     0.031 C 
ATOM     25  C   UNL A   1      40.252  25.796  28.829  1.00  0.00     0.029 A 
ATOM     26  C   UNL A   1      40.795  27.092  29.200  1.00  0.00     0.049 A 
ATOM     27  H   UNL A   1      42.801  27.677  29.061  1.00  0.00     0.167 HD
ATOM     28  C   UNL A   1      46.604  29.346  27.606  1.00  0.00     0.037 A 
ATOM     29  C   UNL A   1      40.170  28.181  29.715  1.00  0.00     0.037 A 
ATOM     30  C   UNL A   1      46.827  29.153  29.012  1.00  0.00     0.049 A 
ATOM     31  C   UNL A   1      41.214  29.100  30.230  1.00  0.00     0.074 A 
ATOM     32  C   UNL A   1      47.557  28.262  29.771  1.00  0.00     0.029 A 
ATOM     33  N   UNL A   1      45.973  29.773  29.889  1.00  0.00    -0.354 N 
ATOM     34  N   UNL A   1      41.953  28.853  31.274  1.00  0.00    -0.248 NA
ATOM     35  C   UNL A   1      41.729  30.115  29.324  1.00  0.00     0.031 C 
ATOM     36  C   UNL A   1      46.771  28.044  30.941  1.00  0.00     0.029 A 
ATOM     37  C   UNL A   1      45.639  28.853  30.845  1.00  0.00     0.049 A 
ATOM     38  H   UNL A   1      45.660  30.706  29.840  1.00  0.00     0.167 HD
ATOM     39  C   UNL A   1      43.206  29.339  30.935  1.00  0.00     0.074 A 
ATOM     40  C   UNL A   1      42.985  30.189  29.768  1.00  0.00     0.031 C 
ATOM     41  C   UNL A   1      44.337  28.783  31.458  1.00  0.00     0.037 A 
BRANCH  28  42
ATOM     42  C   UNL A   1      46.698  30.713  26.972  1.00  0.00     0.064 A 
ATOM     43  C   UNL A   1      47.943  31.376  26.943  1.00  0.00     0.173 A 
ATOM     44  C   UNL A   1      45.574  31.519  26.693  1.00  0.00     0.173 A 
ATOM     45  F   UNL A   1      49.078  30.712  27.206  1.00  0.00    -0.203 F 
ATOM     46  C   UNL A   1      48.040  32.757  26.746  1.00  0.00     0.198 A 
ATOM     47  C   UNL A   1      45.680  32.887  26.444  1.00  0.00     0.198 A 
ATOM     48  F   UNL A   1      44.324  31.046  26.769  1.00  0.00    -0.203 F 
ATOM     49  F   UNL A   1      49.230  33.363  26.864  1.00  0.00    -0.200 F 
ATOM     50  C   UNL A   1      46.908  33.512  26.506  1.00  0.00     0.200 A 
ATOM     51  F   UNL A   1      44.569  33.605  26.231  1.00  0.00    -0.200 F 
ATOM     52  F   UNL A   1      46.990  34.843  26.386  1.00  0.00    -0.200 F 
ENDBRANCH  28  42
BRANCH  29  53
ATOM     53  C   UNL A   1      38.769  28.628  29.512  1.00  0.00     0.064 A 
ATOM     54  C   UNL A   1      37.922  28.886  30.603  1.00  0.00     0.173 A 
ATOM     55  C   UNL A   1      38.325  29.082  28.256  1.00  0.00     0.173 A 
ATOM     56  F   UNL A   1      38.290  28.531  31.843  1.00  0.00    -0.203 F 
ATOM     57  C   UNL A   1      36.716  29.580  30.449  1.00  0.00     0.198 A 
ATOM     58  C   UNL A   1      37.118  29.766  28.102  1.00  0.00     0.198 A 
ATOM     59  F   UNL A   1      39.099  28.961  27.169  1.00  0.00    -0.203 F 
ATOM     60  F   UNL A   1      35.966  29.864  31.523  1.00  0.00    -0.200 F 
ATOM     61  C   UNL A   1      36.320  30.028  29.200  1.00  0.00     0.200 A 
ATOM     62  F   UNL A   1      36.766  30.229  26.894  1.00  0.00    -0.200 F 
ATOM     63  F   UNL A   1      35.198  30.746  29.060  1.00  0.00    -0.200 F 
ENDBRANCH  29  53
BRANCH  41  64
ATOM     64  C   UNL A   1      44.181  27.833  32.609  1.00  0.00     0.064 A 
ATOM     65  C   UNL A   1      44.041  26.441  32.469  1.00  0.00     0.173 A 
ATOM     66  C   UNL A   1      44.323  28.339  33.908  1.00  0.00     0.173 A 
ATOM     67  F   UNL A   1      44.005  25.869  31.259  1.00  0.00    -0.203 F 
ATOM     68  C   UNL A   1      44.000  25.604  33.582  1.00  0.00     0.198 A 
ATOM     69  C   UNL A   1      44.321  27.496  35.015  1.00  0.00     0.198 A 
ATOM     70  F   UNL A   1      44.517  29.653  34.099  1.00  0.00    -0.203 F 
ATOM     71  F   UNL A   1      43.857  24.279  33.422  1.00  0.00    -0.200 F 
ATOM     72  C   UNL A   1      44.149  26.132  34.853  1.00  0.00     0.200 A 
ATOM     73  F   UNL A   1      44.518  28.007  36.239  1.00  0.00    -0.200 F 
ATOM     74  F   UNL A   1      44.156  25.322  35.922  1.00  0.00    -0.200 F 
ENDBRANCH  41  64
ENDBRANCH  15  16
ENDBRANCH   8  10
ENDBRANCH   5   6
ENDBRANCH   4   5
ENDBRANCH   3   4
ENDBRANCH   2   3
ENDBRANCH   1   2
BRANCH   1  75
ATOM     75  C   UNL A   1      39.206  22.301  26.139  1.00  0.00     0.116 C 
BRANCH  75  76
ATOM     76  N   UNL A   1      38.701  21.129  25.441  1.00  0.00    -0.352 N 
ATOM     77  C   UNL A   1      37.405  20.781  25.172  1.00  0.00     0.251 C 
ATOM     78  H   UNL A   1      39.386  20.500  25.118  1.00  0.00     0.163 HD
ATOM     79  O   UNL A   1      37.138  19.674  24.695  1.00  0.00    -0.269 OA
BRANCH  77  80
ATOM     80  C   UNL A   1      36.316  21.727  25.471  1.00  0.00     0.039 A 
ATOM     81  C   UNL A   1      35.190  21.270  26.159  1.00  0.00     0.016 A 
ATOM     82  C   UNL A   1      36.408  23.062  25.063  1.00  0.00     0.016 A 
ATOM     83  C   UNL A   1      34.172  22.164  26.502  1.00  0.00     0.029 A 
ATOM     84  C   UNL A   1      35.385  23.952  25.383  1.00  0.00     0.029 A 
ATOM     85  C   UNL A   1      34.262  23.502  26.100  1.00  0.00     0.066 A 
BRANCH  85  86
ATOM     86  N   UNL A   1      33.187  24.381  26.363  1.00  0.00    -0.220 N 
ATOM     87  C   UNL A   1      33.229  25.750  26.374  1.00  0.00     0.141 A 
ATOM     88  N   UNL A   1      31.925  23.974  26.630  1.00  0.00    -0.062 NA
ATOM     89  C   UNL A   1      31.933  26.163  26.575  1.00  0.00     0.093 A 
ATOM     90  N   UNL A   1      31.162  25.052  26.794  1.00  0.00    -0.134 NA
BRANCH  89  91
ATOM     91  C   UNL A   1      31.423  27.538  26.769  1.00  0.00     0.138 C 
BRANCH  91  92
ATOM     92  S   UNL A   1      31.939  28.917  25.741  1.00  0.00    -0.081 SA
BRANCH  92  93
ATOM     93  C   UNL A   1      30.819  29.223  24.439  1.00  0.00     0.176 A 
ATOM     94  N   UNL A   1      30.545  30.491  24.330  1.00  0.00    -0.223 NA
ATOM     95  N   UNL A   1      30.288  28.279  23.567  1.00  0.00    -0.255 N 
ATOM     96  C   UNL A   1      29.600  30.899  23.386  1.00  0.00     0.079 A 
ATOM     97  C   UNL A   1      28.984  28.570  23.130  1.00  0.00     0.266 A 
ATOM     98  C   UNL A   1      29.488  32.239  23.015  1.00  0.00     0.029 A 
ATOM     99  C   UNL A   1      28.684  29.989  22.885  1.00  0.00     0.066 A 
ATOM    100  O   UNL A   1      28.082  27.754  22.953  1.00  0.00    -0.268 OA
ATOM    101  C   UNL A   1      28.422  32.664  22.213  1.00  0.00     0.002 A 
ATOM    102  C   UNL A   1      27.582  30.403  22.129  1.00  0.00     0.016 A 
ATOM    103  C   UNL A   1      27.447  31.752  21.803  1.00  0.00     0.001 A 
BRANCH  95 104
ATOM    104  C   UNL A   1      30.901  27.037  23.117  1.00  0.00     0.051 A 
ATOM    105  C   UNL A   1      30.271  25.801  23.382  1.00  0.00     0.028 A 
ATOM    106  C   UNL A   1      32.099  26.951  22.397  1.00  0.00     0.028 A 
ATOM    107  C   UNL A   1      30.909  24.572  23.178  1.00  0.00     0.018 A 
ATOM    108  C   UNL A   1      32.779  25.730  22.242  1.00  0.00     0.018 A 
ATOM    109  C   UNL A   1      32.198  24.551  22.679  1.00  0.00     0.018 A 
ATOM    110  Br  UNL A   1      33.164  22.933  22.621  1.00  0.00    -0.051 Br
ENDBRANCH  95 104
ENDBRANCH  92  93
ENDBRANCH  91  92
ENDBRANCH  89  91
ENDBRANCH  85  86
ENDBRANCH  77  80
ENDBRANCH  75  76
ENDBRANCH   1  75
TORSDOF 18
ENDMDL
MODEL 2
REMARK VINA RESULT:     -13.0      1.258      2.075
REMARK SMILES O=C(NCCCCCCNC(=O)c1ccc(-n2cc(CSc3nc4ccccc4c(=O)n3-c3ccc(Br)cc3)nn2)cc1)c1ccc(-c2c3nc(c(-c4c(F)c(F)c(F)c(F)c4F)c4ccc([nH]4)c(-c4c(F)c(F)c(F)c(F)c4F)c4nc(c(-c5c(F)c(F)c(F)c(F)c5F)c5ccc2[nH]5)C=C4)C=C3)cc1
REMARK SMILES IDX 8 1 7 2 6 3 5 4 4 5 3 6 1 7 2 8 44 10 45 11 106 12 46 13
REMARK SMILES IDX 105 14 47 15 48 16 49 17 99 18 50 19 104 20 98 21 100 22
REMARK SMILES IDX 51 23 103 24 97 25 96 26 52 28 84 29 64 30 83 31 65 32 68 33
REMARK SMILES IDX 82 34 101 35 66 36 67 37 81 39 102 40 69 41 53 42 54 43
REMARK SMILES IDX 62 44 55 45 56 46 60 47 63 48 57 49 58 50 61 51 59 52 85 53
REMARK SMILES IDX 86 54 94 55 87 56 88 57 92 58 95 59 89 60 90 61 93 62 91 63
REMARK SMILES IDX 70 64 71 65 79 66 72 67 73 68 77 69 80 70 74 71 75 72 78 73
REMARK SMILES IDX 76 74 9 75 10 76 11 77 12 79 13 80 14 81 43 82 15 83 42 84
REMARK SMILES IDX 16 85 17 86 18 87 41 88 19 89 40 90 20 91 21 92 22 93 23 94
REMARK SMILES IDX 32 95 24 96 30 97 25 98 29 99 31 100 26 101 28 102 27 103
REMARK SMILES IDX 33 104 34 105 39 106 35 107 38 108 36 109 37 110
REMARK H PARENT 3 9 100 27 68 38 10 78
REMARK Flexibility Score: inf
ROOT
ATOM      1  C   UNL A   1      40.381  22.574  26.925  1.00  0.00     0.021 C 
ENDROOT
BRANCH   1   2
ATOM      2  C   UNL A   1      40.917  21.543  27.922  1.00  0.00     0.002 C 
BRANCH   2   3
ATOM      3  C   UNL A   1      42.222  20.845  27.520  1.00  0.00     0.002 C 
BRANCH   3   4
ATOM      4  C   UNL A   1      42.153  19.963  26.268  1.00  0.00     0.021 C 
BRANCH   4   5
ATOM      5  C   UNL A   1      43.422  19.167  25.972  1.00  0.00     0.116 C 
BRANCH   5   6
ATOM      6  N   UNL A   1      44.173  19.636  24.826  1.00  0.00    -0.352 N 
ATOM      7  O   UNL A   1      45.388  20.846  23.428  1.00  0.00    -0.269 OA
ATOM      8  C   UNL A   1      44.685  20.841  24.441  1.00  0.00     0.251 C 
ATOM      9  H   UNL A   1      44.357  18.920  24.176  1.00  0.00     0.163 HD
BRANCH   8  10
ATOM     10  C   UNL A   1      44.392  22.138  25.107  1.00  0.00     0.039 A 
ATOM     11  C   UNL A   1      43.485  23.101  24.661  1.00  0.00     0.014 A 
ATOM     12  C   UNL A   1      45.107  22.383  26.295  1.00  0.00     0.014 A 
ATOM     13  C   UNL A   1      43.361  24.316  25.333  1.00  0.00     0.010 A 
ATOM     14  C   UNL A   1      44.975  23.583  26.979  1.00  0.00     0.010 A 
ATOM     15  C   UNL A   1      44.124  24.564  26.477  1.00  0.00    -0.014 A 
BRANCH  15  16
ATOM     16  C   UNL A   1      43.887  25.798  27.221  1.00  0.00     0.031 A 
ATOM     17  C   UNL A   1      44.833  26.912  26.905  1.00  0.00     0.074 A 
ATOM     18  C   UNL A   1      42.803  25.994  27.998  1.00  0.00     0.049 A 
ATOM     19  N   UNL A   1      45.599  27.570  27.714  1.00  0.00    -0.248 NA
ATOM     20  C   UNL A   1      45.006  27.282  25.491  1.00  0.00     0.031 C 
ATOM     21  C   UNL A   1      41.642  25.115  28.156  1.00  0.00     0.029 A 
ATOM     22  N   UNL A   1      42.459  27.089  28.735  1.00  0.00    -0.354 N 
ATOM     23  C   UNL A   1      46.240  28.540  26.941  1.00  0.00     0.074 A 
ATOM     24  C   UNL A   1      45.931  28.239  25.569  1.00  0.00     0.031 C 
ATOM     25  C   UNL A   1      40.639  25.803  28.748  1.00  0.00     0.029 A 
ATOM     26  C   UNL A   1      41.125  27.121  29.120  1.00  0.00     0.049 A 
ATOM     27  H   UNL A   1      43.101  27.796  28.973  1.00  0.00     0.167 HD
ATOM     28  C   UNL A   1      46.817  29.640  27.501  1.00  0.00     0.037 A 
ATOM     29  C   UNL A   1      40.454  28.179  29.642  1.00  0.00     0.037 A 
ATOM     30  C   UNL A   1      47.056  29.452  28.906  1.00  0.00     0.049 A 
ATOM     31  C   UNL A   1      41.458  29.143  30.155  1.00  0.00     0.074 A 
ATOM     32  C   UNL A   1      47.830  28.593  29.658  1.00  0.00     0.029 A 
ATOM     33  N   UNL A   1      46.180  30.031  29.789  1.00  0.00    -0.354 N 
ATOM     34  N   UNL A   1      42.214  28.926  31.194  1.00  0.00    -0.248 NA
ATOM     35  C   UNL A   1      41.922  30.183  29.249  1.00  0.00     0.031 C 
ATOM     36  C   UNL A   1      47.062  28.336  30.831  1.00  0.00     0.029 A 
ATOM     37  C   UNL A   1      45.894  29.093  30.744  1.00  0.00     0.049 A 
ATOM     38  H   UNL A   1      45.826  30.949  29.745  1.00  0.00     0.167 HD
ATOM     39  C   UNL A   1      43.442  29.469  30.849  1.00  0.00     0.074 A 
ATOM     40  C   UNL A   1      43.176  30.312  29.687  1.00  0.00     0.031 C 
ATOM     41  C   UNL A   1      44.600  28.962  31.364  1.00  0.00     0.037 A 
BRANCH  28  42
ATOM     42  C   UNL A   1      46.845  31.012  26.871  1.00  0.00     0.064 A 
ATOM     43  C   UNL A   1      48.052  31.742  26.863  1.00  0.00     0.173 A 
ATOM     44  C   UNL A   1      45.683  31.755  26.577  1.00  0.00     0.173 A 
ATOM     45  F   UNL A   1      49.218  31.140  27.142  1.00  0.00    -0.203 F 
ATOM     46  C   UNL A   1      48.078  33.126  26.670  1.00  0.00     0.198 A 
ATOM     47  C   UNL A   1      45.719  33.128  26.332  1.00  0.00     0.198 A 
ATOM     48  F   UNL A   1      44.460  31.214  26.632  1.00  0.00    -0.203 F 
ATOM     49  F   UNL A   1      49.230  33.796  26.807  1.00  0.00    -0.200 F 
ATOM     50  C   UNL A   1      46.909  33.819  26.414  1.00  0.00     0.200 A 
ATOM     51  F   UNL A   1      44.573  33.785  26.103  1.00  0.00    -0.200 F 
ATOM     52  F   UNL A   1      46.920  35.153  26.298  1.00  0.00    -0.200 F 
ENDBRANCH  28  42
BRANCH  29  53
ATOM     53  C   UNL A   1      39.034  28.563  29.449  1.00  0.00     0.064 A 
ATOM     54  C   UNL A   1      38.174  28.752  30.545  1.00  0.00     0.173 A 
ATOM     55  C   UNL A   1      38.568  29.027  28.204  1.00  0.00     0.173 A 
ATOM     56  F   UNL A   1      38.559  28.384  31.776  1.00  0.00    -0.203 F 
ATOM     57  C   UNL A   1      36.937  29.391  30.406  1.00  0.00     0.198 A 
ATOM     58  C   UNL A   1      37.330  29.656  28.065  1.00  0.00     0.198 A 
ATOM     59  F   UNL A   1      39.347  28.971  27.115  1.00  0.00    -0.203 F 
ATOM     60  F   UNL A   1      36.173  29.612  31.486  1.00  0.00    -0.200 F 
ATOM     61  C   UNL A   1      36.520  29.851  29.169  1.00  0.00     0.200 A 
ATOM     62  F   UNL A   1      36.956  30.131  26.869  1.00  0.00    -0.200 F 
ATOM     63  F   UNL A   1      35.364  30.518  29.045  1.00  0.00    -0.200 F 
ENDBRANCH  29  53
BRANCH  41  64
ATOM     64  C   UNL A   1      44.493  28.003  32.513  1.00  0.00     0.064 A 
ATOM     65  C   UNL A   1      44.375  28.395  33.858  1.00  0.00     0.173 A 
ATOM     66  C   UNL A   1      44.361  26.638  32.225  1.00  0.00     0.173 A 
ATOM     67  F   UNL A   1      44.385  29.688  34.205  1.00  0.00    -0.203 F 
ATOM     68  C   UNL A   1      44.179  27.455  34.869  1.00  0.00     0.198 A 
ATOM     69  C   UNL A   1      44.126  25.708  33.232  1.00  0.00     0.198 A 
ATOM     70  F   UNL A   1      44.407  26.213  30.953  1.00  0.00    -0.203 F 
ATOM     71  F   UNL A   1      44.079  27.854  36.146  1.00  0.00    -0.200 F 
ATOM     72  C   UNL A   1      44.047  26.114  34.553  1.00  0.00     0.200 A 
ATOM     73  F   UNL A   1      43.946  24.418  32.915  1.00  0.00    -0.200 F 
ATOM     74  F   UNL A   1      43.813  25.215  35.520  1.00  0.00    -0.200 F 
ENDBRANCH  41  64
ENDBRANCH  15  16
ENDBRANCH   8  10
ENDBRANCH   5   6
ENDBRANCH   4   5
ENDBRANCH   3   4
ENDBRANCH   2   3
ENDBRANCH   1   2
BRANCH   1  75
ATOM     75  C   UNL A   1      39.037  22.220  26.295  1.00  0.00     0.116 C 
BRANCH  75  76
ATOM     76  N   UNL A   1      38.991  20.841  25.836  1.00  0.00    -0.352 N 
ATOM     77  C   UNL A   1      37.984  20.187  25.178  1.00  0.00     0.251 C 
ATOM     78  H   UNL A   1      39.794  20.304  26.025  1.00  0.00     0.163 HD
ATOM     79  O   UNL A   1      38.046  18.969  24.988  1.00  0.00    -0.269 OA
BRANCH  77  80
ATOM     80  C   UNL A   1      36.808  20.939  24.709  1.00  0.00     0.039 A 
ATOM     81  C   UNL A   1      35.534  20.514  25.092  1.00  0.00     0.016 A 
ATOM     82  C   UNL A   1      36.967  22.059  23.885  1.00  0.00     0.016 A 
ATOM     83  C   UNL A   1      34.408  21.246  24.704  1.00  0.00     0.029 A 
ATOM     84  C   UNL A   1      35.847  22.779  23.477  1.00  0.00     0.029 A 
ATOM     85  C   UNL A   1      34.564  22.370  23.884  1.00  0.00     0.066 A 
BRANCH  85  86
ATOM     86  N   UNL A   1      33.418  23.052  23.413  1.00  0.00    -0.220 N 
ATOM     87  C   UNL A   1      33.393  24.135  22.575  1.00  0.00     0.141 A 
ATOM     88  N   UNL A   1      32.149  22.701  23.723  1.00  0.00    -0.062 NA
ATOM     89  C   UNL A   1      32.064  24.380  22.321  1.00  0.00     0.093 A 
ATOM     90  N   UNL A   1      31.319  23.526  23.089  1.00  0.00    -0.134 NA
BRANCH  89  91
ATOM     91  C   UNL A   1      31.462  25.494  21.555  1.00  0.00     0.138 C 
BRANCH  91  92
ATOM     92  S   UNL A   1      32.112  27.167  21.607  1.00  0.00    -0.081 SA
BRANCH  92  93
ATOM     93  C   UNL A   1      31.105  28.236  22.550  1.00  0.00     0.176 A 
ATOM     94  N   UNL A   1      30.346  28.973  21.791  1.00  0.00    -0.223 NA
ATOM     95  N   UNL A   1      31.046  28.304  23.937  1.00  0.00    -0.255 N 
ATOM     96  C   UNL A   1      29.536  29.943  22.386  1.00  0.00     0.079 A 
ATOM     97  C   UNL A   1      30.774  29.590  24.437  1.00  0.00     0.266 A 
ATOM     98  C   UNL A   1      28.495  30.542  21.675  1.00  0.00     0.029 A 
ATOM     99  C   UNL A   1      29.825  30.401  23.660  1.00  0.00     0.066 A 
ATOM    100  O   UNL A   1      31.266  30.092  25.446  1.00  0.00    -0.268 OA
ATOM    101  C   UNL A   1      27.811  31.638  22.215  1.00  0.00     0.002 A 
ATOM    102  C   UNL A   1      29.190  31.529  24.192  1.00  0.00     0.016 A 
ATOM    103  C   UNL A   1      28.185  32.155  23.457  1.00  0.00     0.001 A 
BRANCH  95 104
ATOM    104  C   UNL A   1      31.279  27.232  24.893  1.00  0.00     0.051 A 
ATOM    105  C   UNL A   1      32.589  26.963  25.349  1.00  0.00     0.028 A 
ATOM    106  C   UNL A   1      30.281  26.418  25.443  1.00  0.00     0.028 A 
ATOM    107  C   UNL A   1      32.910  25.816  26.084  1.00  0.00     0.018 A 
ATOM    108  C   UNL A   1      30.592  25.231  26.129  1.00  0.00     0.018 A 
ATOM    109  C   UNL A   1      31.913  24.913  26.403  1.00  0.00     0.018 A 
ATOM    110  Br  UNL A   1      32.352  23.253  27.180  1.00  0.00    -0.051 Br
ENDBRANCH  95 104
ENDBRANCH  92  93
ENDBRANCH  91  92
ENDBRANCH  89  91
ENDBRANCH  85  86
ENDBRANCH  77  80
ENDBRANCH  75  76
ENDBRANCH   1  75
TORSDOF 18
ENDMDL
MODEL 3
REMARK VINA RESULT:     -12.2      3.600      9.293
REMARK SMILES O=C(NCCCCCCNC(=O)c1ccc(-n2cc(CSc3nc4ccccc4c(=O)n3-c3ccc(Br)cc3)nn2)cc1)c1ccc(-c2c3nc(c(-c4c(F)c(F)c(F)c(F)c4F)c4ccc([nH]4)c(-c4c(F)c(F)c(F)c(F)c4F)c4nc(c(-c5c(F)c(F)c(F)c(F)c5F)c5ccc2[nH]5)C=C4)C=C3)cc1
REMARK SMILES IDX 8 1 7 2 6 3 5 4 4 5 3 6 1 7 2 8 44 10 45 11 106 12 46 13
REMARK SMILES IDX 105 14 47 15 48 16 49 17 99 18 50 19 104 20 98 21 100 22
REMARK SMILES IDX 51 23 103 24 97 25 96 26 52 28 84 29 64 30 83 31 65 32 68 33
REMARK SMILES IDX 82 34 101 35 66 36 67 37 81 39 102 40 69 41 53 42 54 43
REMARK SMILES IDX 62 44 55 45 56 46 60 47 63 48 57 49 58 50 61 51 59 52 85 53
REMARK SMILES IDX 86 54 94 55 87 56 88 57 92 58 95 59 89 60 90 61 93 62 91 63
REMARK SMILES IDX 70 64 71 65 79 66 72 67 73 68 77 69 80 70 74 71 75 72 78 73
REMARK SMILES IDX 76 74 9 75 10 76 11 77 12 79 13 80 14 81 43 82 15 83 42 84
REMARK SMILES IDX 16 85 17 86 18 87 41 88 19 89 40 90 20 91 21 92 22 93 23 94
REMARK SMILES IDX 32 95 24 96 30 97 25 98 29 99 31 100 26 101 28 102 27 103
REMARK SMILES IDX 33 104 34 105 39 106 35 107 38 108 36 109 37 110
REMARK H PARENT 3 9 100 27 68 38 10 78
REMARK Flexibility Score: inf
ROOT
ATOM      1  C   UNL A   1      33.493  22.943  22.462  1.00  0.00     0.021 C 
ENDROOT
BRANCH   1   2
ATOM      2  C   UNL A   1      34.258  22.470  23.702  1.00  0.00     0.002 C 
BRANCH   2   3
ATOM      3  C   UNL A   1      35.418  23.367  24.149  1.00  0.00     0.002 C 
BRANCH   3   4
ATOM      4  C   UNL A   1      35.965  23.104  25.557  1.00  0.00     0.021 C 
BRANCH   4   5
ATOM      5  C   UNL A   1      37.481  23.236  25.693  1.00  0.00     0.116 C 
BRANCH   5   6
ATOM      6  N   UNL A   1      38.202  21.983  25.629  1.00  0.00    -0.352 N 
ATOM      7  O   UNL A   1      39.662  20.349  25.939  1.00  0.00    -0.269 OA
ATOM      8  C   UNL A   1      39.417  21.550  26.077  1.00  0.00     0.251 C 
ATOM      9  H   UNL A   1      37.701  21.281  25.154  1.00  0.00     0.163 HD
BRANCH   8  10
ATOM     10  C   UNL A   1      40.476  22.429  26.639  1.00  0.00     0.039 A 
ATOM     11  C   UNL A   1      40.265  23.580  27.400  1.00  0.00     0.014 A 
ATOM     12  C   UNL A   1      41.799  22.034  26.365  1.00  0.00     0.014 A 
ATOM     13  C   UNL A   1      41.344  24.366  27.802  1.00  0.00     0.010 A 
ATOM     14  C   UNL A   1      42.879  22.803  26.778  1.00  0.00     0.010 A 
ATOM     15  C   UNL A   1      42.647  23.989  27.469  1.00  0.00    -0.014 A 
BRANCH  15  16
ATOM     16  C   UNL A   1      43.759  24.771  28.000  1.00  0.00     0.031 A 
ATOM     17  C   UNL A   1      43.936  24.683  29.482  1.00  0.00     0.074 A 
ATOM     18  C   UNL A   1      44.671  25.383  27.217  1.00  0.00     0.049 A 
ATOM     19  N   UNL A   1      43.954  25.645  30.348  1.00  0.00    -0.248 NA
ATOM     20  C   UNL A   1      44.022  23.342  30.082  1.00  0.00     0.031 C 
ATOM     21  C   UNL A   1      44.803  25.299  25.761  1.00  0.00     0.029 A 
ATOM     22  N   UNL A   1      45.751  26.133  27.579  1.00  0.00    -0.354 N 
ATOM     23  C   UNL A   1      44.205  25.049  31.586  1.00  0.00     0.074 A 
ATOM     24  C   UNL A   1      44.116  23.628  31.381  1.00  0.00     0.031 C 
ATOM     25  C   UNL A   1      46.016  25.775  25.395  1.00  0.00     0.029 A 
ATOM     26  C   UNL A   1      46.687  26.309  26.568  1.00  0.00     0.049 A 
ATOM     27  H   UNL A   1      45.859  26.515  28.480  1.00  0.00     0.167 HD
ATOM     28  C   UNL A   1      44.663  25.767  32.649  1.00  0.00     0.037 A 
ATOM     29  C   UNL A   1      47.948  26.793  26.703  1.00  0.00     0.037 A 
ATOM     30  C   UNL A   1      44.438  27.175  32.472  1.00  0.00     0.049 A 
ATOM     31  C   UNL A   1      48.018  27.521  27.993  1.00  0.00     0.074 A 
ATOM     32  C   UNL A   1      43.322  27.976  32.340  1.00  0.00     0.029 A 
ATOM     33  N   UNL A   1      45.499  27.950  32.079  1.00  0.00    -0.354 N 
ATOM     34  N   UNL A   1      47.406  28.646  28.231  1.00  0.00    -0.248 NA
ATOM     35  C   UNL A   1      48.431  26.772  29.170  1.00  0.00     0.031 C 
ATOM     36  C   UNL A   1      43.707  28.996  31.421  1.00  0.00     0.029 A 
ATOM     37  C   UNL A   1      45.045  28.782  31.091  1.00  0.00     0.049 A 
ATOM     38  H   UNL A   1      46.414  27.917  32.440  1.00  0.00     0.167 HD
ATOM     39  C   UNL A   1      46.970  28.533  29.542  1.00  0.00     0.074 A 
ATOM     40  C   UNL A   1      47.711  27.405  30.098  1.00  0.00     0.031 C 
ATOM     41  C   UNL A   1      45.846  29.185  29.963  1.00  0.00     0.037 A 
BRANCH  28  42
ATOM     42  C   UNL A   1      45.629  25.246  33.686  1.00  0.00     0.064 A 
ATOM     43  C   UNL A   1      46.970  25.006  33.321  1.00  0.00     0.173 A 
ATOM     44  C   UNL A   1      45.220  24.673  34.909  1.00  0.00     0.173 A 
ATOM     45  F   UNL A   1      47.463  25.490  32.171  1.00  0.00    -0.203 F 
ATOM     46  C   UNL A   1      47.805  24.176  34.076  1.00  0.00     0.198 A 
ATOM     47  C   UNL A   1      46.073  23.891  35.687  1.00  0.00     0.198 A 
ATOM     48  F   UNL A   1      43.956  24.746  35.341  1.00  0.00    -0.203 F 
ATOM     49  F   UNL A   1      49.026  23.867  33.617  1.00  0.00    -0.200 F 
ATOM     50  C   UNL A   1      47.352  23.613  35.254  1.00  0.00     0.200 A 
ATOM     51  F   UNL A   1      45.611  23.338  36.817  1.00  0.00    -0.200 F 
ATOM     52  F   UNL A   1      48.125  22.763  35.942  1.00  0.00    -0.200 F 
ENDBRANCH  28  42
BRANCH  29  53
ATOM     53  C   UNL A   1      49.173  26.411  25.957  1.00  0.00     0.064 A 
ATOM     54  C   UNL A   1      49.521  27.045  24.752  1.00  0.00     0.173 A 
ATOM     55  C   UNL A   1      50.171  25.617  26.555  1.00  0.00     0.173 A 
ATOM     56  F   UNL A   1      48.647  27.858  24.141  1.00  0.00    -0.203 F 
ATOM     57  C   UNL A   1      50.798  26.913  24.195  1.00  0.00     0.198 A 
ATOM     58  C   UNL A   1      51.441  25.479  25.994  1.00  0.00     0.198 A 
ATOM     59  F   UNL A   1      49.966  25.040  27.747  1.00  0.00    -0.203 F 
ATOM     60  F   UNL A   1      51.113  27.586  23.078  1.00  0.00    -0.200 F 
ATOM     61  C   UNL A   1      51.759  26.139  24.821  1.00  0.00     0.200 A 
ATOM     62  F   UNL A   1      52.374  24.758  26.631  1.00  0.00    -0.200 F 
ATOM     63  F   UNL A   1      53.001  26.061  24.322  1.00  0.00    -0.200 F 
ENDBRANCH  29  53
BRANCH  41  64
ATOM     64  C   UNL A   1      45.266  30.234  29.060  1.00  0.00     0.064 A 
ATOM     65  C   UNL A   1      45.717  31.565  29.008  1.00  0.00     0.173 A 
ATOM     66  C   UNL A   1      44.315  29.837  28.111  1.00  0.00     0.173 A 
ATOM     67  F   UNL A   1      46.699  31.994  29.810  1.00  0.00    -0.203 F 
ATOM     68  C   UNL A   1      45.203  32.464  28.076  1.00  0.00     0.198 A 
ATOM     69  C   UNL A   1      43.833  30.727  27.157  1.00  0.00     0.198 A 
ATOM     70  F   UNL A   1      43.892  28.564  28.076  1.00  0.00    -0.203 F 
ATOM     71  F   UNL A   1      45.642  33.732  28.052  1.00  0.00    -0.200 F 
ATOM     72  C   UNL A   1      44.268  32.042  27.147  1.00  0.00     0.200 A 
ATOM     73  F   UNL A   1      42.968  30.300  26.227  1.00  0.00    -0.200 F 
ATOM     74  F   UNL A   1      43.806  32.895  26.221  1.00  0.00    -0.200 F 
ENDBRANCH  41  64
ENDBRANCH  15  16
ENDBRANCH   8  10
ENDBRANCH   5   6
ENDBRANCH   4   5
ENDBRANCH   3   4
ENDBRANCH   2   3
ENDBRANCH   1   2
BRANCH   1  75
ATOM     75  C   UNL A   1      32.099  23.498  22.741  1.00  0.00     0.116 C 
BRANCH  75  76
ATOM     76  N   UNL A   1      31.445  22.814  23.845  1.00  0.00    -0.352 N 
ATOM     77  C   UNL A   1      31.185  23.275  25.108  1.00  0.00     0.251 C 
ATOM     78  H   UNL A   1      31.150  21.894  23.659  1.00  0.00     0.163 HD
ATOM     79  O   UNL A   1      30.751  22.513  25.977  1.00  0.00    -0.269 OA
BRANCH  77  80
ATOM     80  C   UNL A   1      31.443  24.686  25.439  1.00  0.00     0.039 A 
ATOM     81  C   UNL A   1      32.682  25.042  25.978  1.00  0.00     0.016 A 
ATOM     82  C   UNL A   1      30.457  25.655  25.224  1.00  0.00     0.016 A 
ATOM     83  C   UNL A   1      32.967  26.384  26.247  1.00  0.00     0.029 A 
ATOM     84  C   UNL A   1      30.728  26.991  25.511  1.00  0.00     0.029 A 
ATOM     85  C   UNL A   1      31.984  27.356  26.027  1.00  0.00     0.066 A 
BRANCH  85  86
ATOM     86  N   UNL A   1      32.240  28.699  26.391  1.00  0.00    -0.220 N 
ATOM     87  C   UNL A   1      33.179  29.142  27.284  1.00  0.00     0.141 A 
ATOM     88  N   UNL A   1      31.581  29.761  25.876  1.00  0.00    -0.062 NA
ATOM     89  C   UNL A   1      33.125  30.516  27.231  1.00  0.00     0.093 A 
ATOM     90  N   UNL A   1      32.091  30.869  26.408  1.00  0.00    -0.134 NA
BRANCH  89  91
ATOM     91  C   UNL A   1      33.856  31.499  28.061  1.00  0.00     0.138 C 
BRANCH  91  92
ATOM     92  S   UNL A   1      35.570  31.940  27.757  1.00  0.00    -0.081 SA
BRANCH  92  93
ATOM     93  C   UNL A   1      36.675  30.980  28.708  1.00  0.00     0.176 A 
ATOM     94  N   UNL A   1      37.513  30.327  27.955  1.00  0.00    -0.223 NA
ATOM     95  N   UNL A   1      36.729  30.916  30.096  1.00  0.00    -0.255 N 
ATOM     96  C   UNL A   1      38.414  29.446  28.557  1.00  0.00     0.079 A 
ATOM     97  C   UNL A   1      37.129  29.666  30.597  1.00  0.00     0.266 A 
ATOM     98  C   UNL A   1      39.518  28.959  27.855  1.00  0.00     0.029 A 
ATOM     99  C   UNL A   1      38.163  28.958  29.828  1.00  0.00     0.066 A 
ATOM    100  O   UNL A   1      36.683  29.113  31.601  1.00  0.00    -0.268 OA
ATOM    101  C   UNL A   1      40.308  27.940  28.400  1.00  0.00     0.002 A 
ATOM    102  C   UNL A   1      38.908  27.902  30.365  1.00  0.00     0.016 A 
ATOM    103  C   UNL A   1      39.979  27.384  29.638  1.00  0.00     0.001 A 
BRANCH  95 104
ATOM    104  C   UNL A   1      36.377  31.957  31.050  1.00  0.00     0.051 A 
ATOM    105  C   UNL A   1      35.073  32.010  31.591  1.00  0.00     0.028 A 
ATOM    106  C   UNL A   1      37.254  32.943  31.519  1.00  0.00     0.028 A 
ATOM    107  C   UNL A   1      34.608  33.103  32.331  1.00  0.00     0.018 A 
ATOM    108  C   UNL A   1      36.788  34.077  32.208  1.00  0.00     0.018 A 
ATOM    109  C   UNL A   1      35.453  34.171  32.568  1.00  0.00     0.018 A 
ATOM    110  Br  UNL A   1      34.786  35.752  33.350  1.00  0.00    -0.051 Br
ENDBRANCH  95 104
ENDBRANCH  92  93
ENDBRANCH  91  92
ENDBRANCH  89  91
ENDBRANCH  85  86
ENDBRANCH  77  80
ENDBRANCH  75  76
ENDBRANCH   1  75
TORSDOF 18
ENDMDL
