MODEL 1
REMARK VINA RESULT:     -11.0      0.000      0.000
REMARK SMILES CCC[NH2+][C@@]1(C(=O)NCCCCCCNC(=O)c2ccc(-c3c4nc(c(-c5c(F)c(F)c(F)c(F)c5F)c5ccc([nH]5)c(-c5c(F)c(F)c(F)c(F)c5F)c5nc(c(-c6c(F)c(F)c(F)c(F)c6F)c6ccc3[nH]6)C=C5)C=C4)cc2)CC[C@@H](Sc2ccc(OC)cc2)C1
REMARK SMILES IDX 11 1 10 2 9 3 8 4 6 5 7 6 5 8 81 9 93 10 82 11 83 12 4 13
REMARK SMILES IDX 3 16 2 17 1 18 84 19 85 20 86 21 92 22 87 23 91 24 88 25
REMARK SMILES IDX 89 26 90 27 12 28 13 29 14 30 15 31 16 32 17 34 18 35 19 36
REMARK SMILES IDX 80 37 20 38 79 39 21 40 22 41 23 42 73 43 24 44 78 45 72 46
REMARK SMILES IDX 74 47 25 48 77 49 71 50 70 51 26 53 58 54 38 55 57 56 39 57
REMARK SMILES IDX 42 58 56 59 75 60 40 61 41 62 55 64 76 65 43 66 27 67 28 68
REMARK SMILES IDX 36 69 29 70 30 71 34 72 37 73 31 74 32 75 35 76 33 77 59 78
REMARK SMILES IDX 60 79 68 80 61 81 62 82 66 83 69 84 63 85 64 86 67 87 65 88
REMARK SMILES IDX 44 89 45 90 53 91 46 92 47 93 51 94 54 95 48 96 49 97 52 98
REMARK SMILES IDX 50 99
REMARK H PARENT 8 7 4 14 4 15 15 33 74 52 42 63
REMARK Flexibility Score: inf
ROOT
ATOM      1  C   UNL A   1      39.551  21.541  26.119  1.00  0.00     0.002 C 
ENDROOT
BRANCH   1   2
ATOM      2  C   UNL A   1      39.263  22.994  26.504  1.00  0.00     0.021 C 
BRANCH   2   3
ATOM      3  C   UNL A   1      37.921  23.489  25.988  1.00  0.00     0.116 C 
BRANCH   3   4
ATOM      4  N   UNL A   1      37.618  23.014  24.669  1.00  0.00    -0.351 N 
ATOM      5  C   UNL A   1      36.462  23.061  23.969  1.00  0.00     0.281 C 
ATOM      6  O   UNL A   1      36.611  23.060  22.737  1.00  0.00    -0.268 OA
ATOM      7  H   UNL A   1      38.371  22.585  24.201  1.00  0.00     0.163 HD
BRANCH   5   8
ATOM      8  C   UNL A   1      35.012  23.156  24.603  1.00  0.00     0.176 C 
ATOM      9  C   UNL A   1      33.949  23.302  23.498  1.00  0.00     0.080 C 
ATOM     10  C   UNL A   1      34.707  24.295  25.594  1.00  0.00     0.094 C 
ATOM     11  C   UNL A   1      33.415  24.732  23.528  1.00  0.00     0.022 C 
ATOM     12  C   UNL A   1      33.891  25.357  24.842  1.00  0.00     0.058 C 
BRANCH   8  13
ATOM     13  N   UNL A   1      34.750  21.826  25.253  1.00  0.00    -0.334 N 
ATOM     14  H   UNL A   1      35.212  21.105  24.698  1.00  0.00     0.347 HD
ATOM     15  H   UNL A   1      35.109  21.899  26.205  1.00  0.00     0.347 HD
BRANCH  13  16
ATOM     16  C   UNL A   1      33.329  21.464  25.376  1.00  0.00     0.261 C 
BRANCH  16  17
ATOM     17  C   UNL A   1      33.140  19.942  25.313  1.00  0.00     0.058 C 
ATOM     18  C   UNL A   1      34.273  19.194  24.620  1.00  0.00     0.010 C 
ENDBRANCH  16  17
ENDBRANCH  13  16
ENDBRANCH   8  13
BRANCH  12  19
ATOM     19  S   UNL A   1      32.638  26.265  25.828  1.00  0.00    -0.122 SA
BRANCH  19  20
ATOM     20  C   UNL A   1      31.774  27.184  24.578  1.00  0.00     0.008 A 
ATOM     21  C   UNL A   1      32.425  28.210  23.887  1.00  0.00     0.019 A 
ATOM     22  C   UNL A   1      30.441  26.903  24.286  1.00  0.00     0.019 A 
ATOM     23  C   UNL A   1      31.753  28.920  22.889  1.00  0.00     0.047 A 
ATOM     24  C   UNL A   1      29.770  27.613  23.289  1.00  0.00     0.047 A 
ATOM     25  C   UNL A   1      30.424  28.622  22.583  1.00  0.00     0.118 A 
BRANCH  25  26
ATOM     26  O   UNL A   1      29.874  29.384  21.589  1.00  0.00    -0.497 OA
ATOM     27  C   UNL A   1      28.618  29.985  21.878  1.00  0.00     0.278 C 
ENDBRANCH  25  26
ENDBRANCH  19  20
ENDBRANCH  12  19
ENDBRANCH   5   8
ENDBRANCH   3   4
ENDBRANCH   2   3
ENDBRANCH   1   2
BRANCH   1  28
ATOM     28  C   UNL A   1      40.948  21.041  26.510  1.00  0.00     0.002 C 
BRANCH  28  29
ATOM     29  C   UNL A   1      41.247  19.593  26.111  1.00  0.00     0.021 C 
BRANCH  29  30
ATOM     30  C   UNL A   1      42.578  19.072  26.637  1.00  0.00     0.116 C 
BRANCH  30  31
ATOM     31  N   UNL A   1      43.456  18.667  25.550  1.00  0.00    -0.352 N 
ATOM     32  C   UNL A   1      44.197  19.446  24.705  1.00  0.00     0.251 C 
ATOM     33  H   UNL A   1      43.526  17.696  25.402  1.00  0.00     0.163 HD
ATOM     34  O   UNL A   1      44.683  18.970  23.681  1.00  0.00    -0.269 OA
BRANCH  32  35
ATOM     35  C   UNL A   1      44.407  20.867  25.033  1.00  0.00     0.039 A 
ATOM     36  C   UNL A   1      43.816  21.847  24.233  1.00  0.00     0.014 A 
ATOM     37  C   UNL A   1      45.194  21.225  26.131  1.00  0.00     0.014 A 
ATOM     38  C   UNL A   1      43.979  23.192  24.564  1.00  0.00     0.010 A 
ATOM     39  C   UNL A   1      45.286  22.558  26.506  1.00  0.00     0.010 A 
ATOM     40  C   UNL A   1      44.694  23.555  25.718  1.00  0.00    -0.014 A 
BRANCH  40  41
ATOM     41  C   UNL A   1      44.866  24.975  26.107  1.00  0.00     0.031 A 
ATOM     42  C   UNL A   1      46.223  25.613  26.009  1.00  0.00     0.074 A 
ATOM     43  C   UNL A   1      43.823  25.663  26.612  1.00  0.00     0.049 A 
ATOM     44  N   UNL A   1      46.613  26.798  26.403  1.00  0.00    -0.248 NA
ATOM     45  C   UNL A   1      47.294  24.795  25.415  1.00  0.00     0.031 C 
ATOM     46  C   UNL A   1      42.470  25.137  26.791  1.00  0.00     0.029 A 
ATOM     47  N   UNL A   1      43.746  26.948  27.086  1.00  0.00    -0.354 N 
ATOM     48  C   UNL A   1      47.969  26.861  26.116  1.00  0.00     0.074 A 
ATOM     49  C   UNL A   1      48.352  25.576  25.576  1.00  0.00     0.031 C 
ATOM     50  C   UNL A   1      41.693  26.093  27.325  1.00  0.00     0.029 A 
ATOM     51  C   UNL A   1      42.505  27.283  27.568  1.00  0.00     0.049 A 
ATOM     52  H   UNL A   1      44.509  27.571  27.082  1.00  0.00     0.167 HD
ATOM     53  C   UNL A   1      48.815  27.909  26.263  1.00  0.00     0.037 A 
ATOM     54  C   UNL A   1      42.076  28.416  28.157  1.00  0.00     0.037 A 
ATOM     55  C   UNL A   1      48.423  29.191  26.787  1.00  0.00     0.049 A 
ATOM     56  C   UNL A   1      43.043  29.558  28.332  1.00  0.00     0.074 A 
ATOM     57  C   UNL A   1      49.193  30.329  26.946  1.00  0.00     0.029 A 
ATOM     58  N   UNL A   1      47.149  29.501  27.238  1.00  0.00    -0.354 N 
ATOM     59  N   UNL A   1      44.311  29.627  28.007  1.00  0.00    -0.248 NA
ATOM     60  C   UNL A   1      42.516  30.783  28.950  1.00  0.00     0.031 C 
ATOM     61  C   UNL A   1      48.397  31.314  27.540  1.00  0.00     0.029 A 
ATOM     62  C   UNL A   1      47.115  30.810  27.691  1.00  0.00     0.049 A 
ATOM     63  H   UNL A   1      46.382  28.883  27.237  1.00  0.00     0.167 HD
ATOM     64  C   UNL A   1      44.722  30.910  28.343  1.00  0.00     0.074 A 
ATOM     65  C   UNL A   1      43.567  31.589  28.888  1.00  0.00     0.031 C 
ATOM     66  C   UNL A   1      45.947  31.476  28.210  1.00  0.00     0.037 A 
BRANCH  53  67
ATOM     67  C   UNL A   1      50.245  27.714  25.846  1.00  0.00     0.064 A 
ATOM     68  C   UNL A   1      50.633  27.786  24.499  1.00  0.00     0.173 A 
ATOM     69  C   UNL A   1      51.245  27.493  26.805  1.00  0.00     0.173 A 
ATOM     70  F   UNL A   1      49.715  27.983  23.540  1.00  0.00    -0.203 F 
ATOM     71  C   UNL A   1      51.963  27.614  24.126  1.00  0.00     0.198 A 
ATOM     72  C   UNL A   1      52.579  27.356  26.430  1.00  0.00     0.198 A 
ATOM     73  F   UNL A   1      50.931  27.421  28.107  1.00  0.00    -0.203 F 
ATOM     74  F   UNL A   1      52.301  27.634  22.828  1.00  0.00    -0.200 F 
ATOM     75  C   UNL A   1      52.936  27.408  25.092  1.00  0.00     0.200 A 
ATOM     76  F   UNL A   1      53.520  27.174  27.367  1.00  0.00    -0.200 F 
ATOM     77  F   UNL A   1      54.218  27.255  24.731  1.00  0.00    -0.200 F 
ENDBRANCH  53  67
BRANCH  54  78
ATOM     78  C   UNL A   1      40.667  28.531  28.620  1.00  0.00     0.064 A 
ATOM     79  C   UNL A   1      39.660  28.996  27.764  1.00  0.00     0.173 A 
ATOM     80  C   UNL A   1      40.302  28.197  29.933  1.00  0.00     0.173 A 
ATOM     81  F   UNL A   1      39.960  29.344  26.504  1.00  0.00    -0.203 F 
ATOM     82  C   UNL A   1      38.350  29.155  28.212  1.00  0.00     0.198 A 
ATOM     83  C   UNL A   1      38.985  28.323  30.369  1.00  0.00     0.198 A 
ATOM     84  F   UNL A   1      41.225  27.737  30.792  1.00  0.00    -0.203 F 
ATOM     85  F   UNL A   1      37.421  29.660  27.389  1.00  0.00    -0.200 F 
ATOM     86  C   UNL A   1      38.013  28.815  29.512  1.00  0.00     0.200 A 
ATOM     87  F   UNL A   1      38.660  27.976  31.622  1.00  0.00    -0.200 F 
ATOM     88  F   UNL A   1      36.753  28.969  29.943  1.00  0.00    -0.200 F 
ENDBRANCH  54  78
BRANCH  66  89
ATOM     89  C   UNL A   1      46.091  32.918  28.602  1.00  0.00     0.064 A 
ATOM     90  C   UNL A   1      45.865  33.960  27.692  1.00  0.00     0.173 A 
ATOM     91  C   UNL A   1      46.402  33.260  29.928  1.00  0.00     0.173 A 
ATOM     92  F   UNL A   1      45.577  33.687  26.410  1.00  0.00    -0.203 F 
ATOM     93  C   UNL A   1      45.969  35.291  28.089  1.00  0.00     0.198 A 
ATOM     94  C   UNL A   1      46.471  34.591  30.328  1.00  0.00     0.198 A 
ATOM     95  F   UNL A   1      46.619  32.301  30.840  1.00  0.00    -0.203 F 
ATOM     96  F   UNL A   1      45.795  36.271  27.191  1.00  0.00    -0.200 F 
ATOM     97  C   UNL A   1      46.262  35.605  29.407  1.00  0.00     0.200 A 
ATOM     98  F   UNL A   1      46.736  34.890  31.608  1.00  0.00    -0.200 F 
ATOM     99  F   UNL A   1      46.347  36.886  29.790  1.00  0.00    -0.200 F 
ENDBRANCH  66  89
ENDBRANCH  40  41
ENDBRANCH  32  35
ENDBRANCH  30  31
ENDBRANCH  29  30
ENDBRANCH  28  29
ENDBRANCH   1  28
TORSDOF 19
ENDMDL
MODEL 2
REMARK VINA RESULT:     -10.9      3.745      6.662
REMARK SMILES CCC[NH2+][C@@]1(C(=O)NCCCCCCNC(=O)c2ccc(-c3c4nc(c(-c5c(F)c(F)c(F)c(F)c5F)c5ccc([nH]5)c(-c5c(F)c(F)c(F)c(F)c5F)c5nc(c(-c6c(F)c(F)c(F)c(F)c6F)c6ccc3[nH]6)C=C5)C=C4)cc2)CC[C@@H](Sc2ccc(OC)cc2)C1
REMARK SMILES IDX 11 1 10 2 9 3 8 4 6 5 7 6 5 8 81 9 93 10 82 11 83 12 4 13
REMARK SMILES IDX 3 16 2 17 1 18 84 19 85 20 86 21 92 22 87 23 91 24 88 25
REMARK SMILES IDX 89 26 90 27 12 28 13 29 14 30 15 31 16 32 17 34 18 35 19 36
REMARK SMILES IDX 80 37 20 38 79 39 21 40 22 41 23 42 73 43 24 44 78 45 72 46
REMARK SMILES IDX 74 47 25 48 77 49 71 50 70 51 26 53 58 54 38 55 57 56 39 57
REMARK SMILES IDX 42 58 56 59 75 60 40 61 41 62 55 64 76 65 43 66 27 67 28 68
REMARK SMILES IDX 36 69 29 70 30 71 34 72 37 73 31 74 32 75 35 76 33 77 59 78
REMARK SMILES IDX 60 79 68 80 61 81 62 82 66 83 69 84 63 85 64 86 67 87 65 88
REMARK SMILES IDX 44 89 45 90 53 91 46 92 47 93 51 94 54 95 48 96 49 97 52 98
REMARK SMILES IDX 50 99
REMARK H PARENT 8 7 4 14 4 15 15 33 74 52 42 63
REMARK Flexibility Score: inf
ROOT
ATOM      1  C   UNL A   1      34.275  25.907  25.343  1.00  0.00     0.002 C 
ENDROOT
BRANCH   1   2
ATOM      2  C   UNL A   1      33.647  27.204  25.859  1.00  0.00     0.021 C 
BRANCH   2   3
ATOM      3  C   UNL A   1      34.010  28.415  25.012  1.00  0.00     0.116 C 
BRANCH   3   4
ATOM      4  N   UNL A   1      33.042  29.469  25.100  1.00  0.00    -0.351 N 
ATOM      5  C   UNL A   1      31.820  29.582  24.530  1.00  0.00     0.281 C 
ATOM      6  O   UNL A   1      31.028  30.301  25.159  1.00  0.00    -0.268 OA
ATOM      7  H   UNL A   1      33.310  30.231  25.663  1.00  0.00     0.163 HD
BRANCH   5   8
ATOM      8  C   UNL A   1      31.360  28.851  23.201  1.00  0.00     0.176 C 
ATOM      9  C   UNL A   1      30.089  28.018  23.455  1.00  0.00     0.080 C 
ATOM     10  C   UNL A   1      32.336  27.878  22.512  1.00  0.00     0.094 C 
ATOM     11  C   UNL A   1      30.470  26.540  23.439  1.00  0.00     0.022 C 
ATOM     12  C   UNL A   1      31.880  26.450  22.849  1.00  0.00     0.058 C 
BRANCH   8  13
ATOM     13  N   UNL A   1      30.956  29.936  22.242  1.00  0.00    -0.334 N 
ATOM     14  H   UNL A   1      31.191  30.835  22.664  1.00  0.00     0.347 HD
ATOM     15  H   UNL A   1      31.459  29.751  21.374  1.00  0.00     0.347 HD
BRANCH  13  16
ATOM     16  C   UNL A   1      29.527  29.956  21.893  1.00  0.00     0.261 C 
BRANCH  16  17
ATOM     17  C   UNL A   1      28.888  31.304  22.257  1.00  0.00     0.058 C 
ATOM     18  C   UNL A   1      28.008  31.268  23.501  1.00  0.00     0.010 C 
ENDBRANCH  16  17
ENDBRANCH  13  16
ENDBRANCH   8  13
BRANCH  12  19
ATOM     19  S   UNL A   1      32.153  25.184  21.548  1.00  0.00    -0.122 SA
BRANCH  19  20
ATOM     20  C   UNL A   1      32.686  23.781  22.499  1.00  0.00     0.008 A 
ATOM     21  C   UNL A   1      31.753  23.032  23.222  1.00  0.00     0.019 A 
ATOM     22  C   UNL A   1      34.032  23.427  22.544  1.00  0.00     0.019 A 
ATOM     23  C   UNL A   1      32.167  21.916  23.954  1.00  0.00     0.047 A 
ATOM     24  C   UNL A   1      34.444  22.312  23.276  1.00  0.00     0.047 A 
ATOM     25  C   UNL A   1      33.515  21.549  23.981  1.00  0.00     0.118 A 
BRANCH  25  26
ATOM     26  O   UNL A   1      33.797  20.440  24.730  1.00  0.00    -0.497 OA
ATOM     27  C   UNL A   1      35.172  20.197  25.001  1.00  0.00     0.278 C 
ENDBRANCH  25  26
ENDBRANCH  19  20
ENDBRANCH  12  19
ENDBRANCH   5   8
ENDBRANCH   3   4
ENDBRANCH   2   3
ENDBRANCH   1   2
BRANCH   1  28
ATOM     28  C   UNL A   1      33.863  24.647  26.118  1.00  0.00     0.002 C 
BRANCH  28  29
ATOM     29  C   UNL A   1      35.021  23.717  26.491  1.00  0.00     0.021 C 
BRANCH  29  30
ATOM     30  C   UNL A   1      36.335  24.063  25.804  1.00  0.00     0.116 C 
BRANCH  30  31
ATOM     31  N   UNL A   1      37.303  22.985  25.937  1.00  0.00    -0.352 N 
ATOM     32  C   UNL A   1      38.623  23.050  26.288  1.00  0.00     0.251 C 
ATOM     33  H   UNL A   1      36.959  22.082  25.748  1.00  0.00     0.163 HD
ATOM     34  O   UNL A   1      39.367  22.089  26.107  1.00  0.00    -0.269 OA
BRANCH  32  35
ATOM     35  C   UNL A   1      39.149  24.291  26.886  1.00  0.00     0.039 A 
ATOM     36  C   UNL A   1      39.904  25.161  26.099  1.00  0.00     0.014 A 
ATOM     37  C   UNL A   1      38.895  24.584  28.229  1.00  0.00     0.014 A 
ATOM     38  C   UNL A   1      40.369  26.355  26.651  1.00  0.00     0.010 A 
ATOM     39  C   UNL A   1      39.287  25.808  28.752  1.00  0.00     0.010 A 
ATOM     40  C   UNL A   1      40.042  26.699  27.973  1.00  0.00    -0.014 A 
BRANCH  40  41
ATOM     41  C   UNL A   1      40.503  27.970  28.580  1.00  0.00     0.031 A 
ATOM     42  C   UNL A   1      41.940  28.117  28.994  1.00  0.00     0.074 A 
ATOM     43  C   UNL A   1      39.619  28.957  28.820  1.00  0.00     0.049 A 
ATOM     44  N   UNL A   1      42.521  29.093  29.643  1.00  0.00    -0.248 NA
ATOM     45  C   UNL A   1      42.840  26.998  28.661  1.00  0.00     0.031 C 
ATOM     46  C   UNL A   1      38.193  28.913  28.497  1.00  0.00     0.029 A 
ATOM     47  N   UNL A   1      39.789  30.184  29.411  1.00  0.00    -0.354 N 
ATOM     48  C   UNL A   1      43.843  28.703  29.803  1.00  0.00     0.074 A 
ATOM     49  C   UNL A   1      43.967  27.375  29.246  1.00  0.00     0.031 C 
ATOM     50  C   UNL A   1      37.619  30.064  28.883  1.00  0.00     0.029 A 
ATOM     51  C   UNL A   1      38.626  30.907  29.521  1.00  0.00     0.049 A 
ATOM     52  H   UNL A   1      40.661  30.514  29.726  1.00  0.00     0.167 HD
ATOM     53  C   UNL A   1      44.870  29.402  30.343  1.00  0.00     0.037 A 
ATOM     54  C   UNL A   1      38.397  32.106  30.091  1.00  0.00     0.037 A 
ATOM     55  C   UNL A   1      44.742  30.730  30.883  1.00  0.00     0.049 A 
ATOM     56  C   UNL A   1      39.552  32.853  30.707  1.00  0.00     0.074 A 
ATOM     57  C   UNL A   1      45.725  31.541  31.422  1.00  0.00     0.029 A 
ATOM     58  N   UNL A   1      43.553  31.442  30.951  1.00  0.00    -0.354 N 
ATOM     59  N   UNL A   1      40.810  32.498  30.806  1.00  0.00    -0.248 NA
ATOM     60  C   UNL A   1      39.255  34.171  31.285  1.00  0.00     0.031 C 
ATOM     61  C   UNL A   1      45.122  32.723  31.862  1.00  0.00     0.029 A 
ATOM     62  C   UNL A   1      43.775  32.676  31.538  1.00  0.00     0.049 A 
ATOM     63  H   UNL A   1      42.680  31.118  30.629  1.00  0.00     0.167 HD
ATOM     64  C   UNL A   1      41.460  33.562  31.419  1.00  0.00     0.074 A 
ATOM     65  C   UNL A   1      40.459  34.578  31.661  1.00  0.00     0.031 C 
ATOM     66  C   UNL A   1      42.769  33.685  31.750  1.00  0.00     0.037 A 
BRANCH  53  67
ATOM     67  C   UNL A   1      46.221  28.747  30.371  1.00  0.00     0.064 A 
ATOM     68  C   UNL A   1      46.636  27.967  31.462  1.00  0.00     0.173 A 
ATOM     69  C   UNL A   1      47.096  28.866  29.281  1.00  0.00     0.173 A 
ATOM     70  F   UNL A   1      45.844  27.830  32.536  1.00  0.00    -0.203 F 
ATOM     71  C   UNL A   1      47.887  27.356  31.472  1.00  0.00     0.198 A 
ATOM     72  C   UNL A   1      48.331  28.224  29.280  1.00  0.00     0.198 A 
ATOM     73  F   UNL A   1      46.748  29.595  28.210  1.00  0.00    -0.203 F 
ATOM     74  F   UNL A   1      48.282  26.659  32.548  1.00  0.00    -0.200 F 
ATOM     75  C   UNL A   1      48.730  27.478  30.378  1.00  0.00     0.200 A 
ATOM     76  F   UNL A   1      49.138  28.330  28.215  1.00  0.00    -0.200 F 
ATOM     77  F   UNL A   1      49.928  26.879  30.385  1.00  0.00    -0.200 F 
ENDBRANCH  53  67
BRANCH  54  78
ATOM     78  C   UNL A   1      37.025  32.678  30.102  1.00  0.00     0.064 A 
ATOM     79  C   UNL A   1      36.577  33.505  29.063  1.00  0.00     0.173 A 
ATOM     80  C   UNL A   1      36.139  32.426  31.161  1.00  0.00     0.173 A 
ATOM     81  F   UNL A   1      37.391  33.790  28.036  1.00  0.00    -0.203 F 
ATOM     82  C   UNL A   1      35.311  34.085  29.099  1.00  0.00     0.198 A 
ATOM     83  C   UNL A   1      34.860  32.979  31.178  1.00  0.00     0.198 A 
ATOM     84  F   UNL A   1      36.513  31.634  32.177  1.00  0.00    -0.203 F 
ATOM     85  F   UNL A   1      34.932  34.921  28.121  1.00  0.00    -0.200 F 
ATOM     86  C   UNL A   1      34.452  33.819  30.153  1.00  0.00     0.200 A 
ATOM     87  F   UNL A   1      34.028  32.704  32.191  1.00  0.00    -0.200 F 
ATOM     88  F   UNL A   1      33.234  34.377  30.188  1.00  0.00    -0.200 F 
ENDBRANCH  54  78
BRANCH  66  89
ATOM     89  C   UNL A   1      43.211  34.987  32.353  1.00  0.00     0.064 A 
ATOM     90  C   UNL A   1      43.614  36.073  31.562  1.00  0.00     0.173 A 
ATOM     91  C   UNL A   1      43.173  35.168  33.746  1.00  0.00     0.173 A 
ATOM     92  F   UNL A   1      43.680  35.948  30.228  1.00  0.00    -0.203 F 
ATOM     93  C   UNL A   1      43.985  37.282  32.144  1.00  0.00     0.198 A 
ATOM     94  C   UNL A   1      43.511  36.389  34.320  1.00  0.00     0.198 A 
ATOM     95  F   UNL A   1      42.786  34.163  34.546  1.00  0.00    -0.203 F 
ATOM     96  F   UNL A   1      44.412  38.291  31.372  1.00  0.00    -0.200 F 
ATOM     97  C   UNL A   1      43.924  37.442  33.520  1.00  0.00     0.200 A 
ATOM     98  F   UNL A   1      43.433  36.546  35.649  1.00  0.00    -0.200 F 
ATOM     99  F   UNL A   1      44.267  38.612  34.076  1.00  0.00    -0.200 F 
ENDBRANCH  66  89
ENDBRANCH  40  41
ENDBRANCH  32  35
ENDBRANCH  30  31
ENDBRANCH  29  30
ENDBRANCH  28  29
ENDBRANCH   1  28
TORSDOF 19
ENDMDL
MODEL 3
REMARK VINA RESULT:     -10.9      2.128      8.426
REMARK SMILES CCC[NH2+][C@@]1(C(=O)NCCCCCCNC(=O)c2ccc(-c3c4nc(c(-c5c(F)c(F)c(F)c(F)c5F)c5ccc([nH]5)c(-c5c(F)c(F)c(F)c(F)c5F)c5nc(c(-c6c(F)c(F)c(F)c(F)c6F)c6ccc3[nH]6)C=C5)C=C4)cc2)CC[C@@H](Sc2ccc(OC)cc2)C1
REMARK SMILES IDX 11 1 10 2 9 3 8 4 6 5 7 6 5 8 81 9 93 10 82 11 83 12 4 13
REMARK SMILES IDX 3 16 2 17 1 18 84 19 85 20 86 21 92 22 87 23 91 24 88 25
REMARK SMILES IDX 89 26 90 27 12 28 13 29 14 30 15 31 16 32 17 34 18 35 19 36
REMARK SMILES IDX 80 37 20 38 79 39 21 40 22 41 23 42 73 43 24 44 78 45 72 46
REMARK SMILES IDX 74 47 25 48 77 49 71 50 70 51 26 53 58 54 38 55 57 56 39 57
REMARK SMILES IDX 42 58 56 59 75 60 40 61 41 62 55 64 76 65 43 66 27 67 28 68
REMARK SMILES IDX 36 69 29 70 30 71 34 72 37 73 31 74 32 75 35 76 33 77 59 78
REMARK SMILES IDX 60 79 68 80 61 81 62 82 66 83 69 84 63 85 64 86 67 87 65 88
REMARK SMILES IDX 44 89 45 90 53 91 46 92 47 93 51 94 54 95 48 96 49 97 52 98
REMARK SMILES IDX 50 99
REMARK H PARENT 8 7 4 14 4 15 15 33 74 52 42 63
REMARK Flexibility Score: inf
ROOT
ATOM      1  C   UNL A   1      36.772  21.717  24.554  1.00  0.00     0.002 C 
ENDROOT
BRANCH   1   2
ATOM      2  C   UNL A   1      35.993  22.738  25.386  1.00  0.00     0.021 C 
BRANCH   2   3
ATOM      3  C   UNL A   1      35.825  24.073  24.679  1.00  0.00     0.116 C 
BRANCH   3   4
ATOM      4  N   UNL A   1      34.948  24.969  25.376  1.00  0.00    -0.351 N 
ATOM      5  C   UNL A   1      33.596  25.028  25.394  1.00  0.00     0.281 C 
ATOM      6  O   UNL A   1      33.120  25.523  26.429  1.00  0.00    -0.268 OA
ATOM      7  H   UNL A   1      35.401  25.647  25.927  1.00  0.00     0.163 HD
BRANCH   5   8
ATOM      8  C   UNL A   1      32.642  24.491  24.249  1.00  0.00     0.176 C 
ATOM      9  C   UNL A   1      31.303  24.012  24.842  1.00  0.00     0.080 C 
ATOM     10  C   UNL A   1      33.122  23.321  23.369  1.00  0.00     0.094 C 
ATOM     11  C   UNL A   1      31.266  22.487  24.779  1.00  0.00     0.022 C 
ATOM     12  C   UNL A   1      32.407  22.051  23.856  1.00  0.00     0.058 C 
BRANCH   8  13
ATOM     13  N   UNL A   1      32.309  25.677  23.387  1.00  0.00    -0.334 N 
ATOM     14  H   UNL A   1      31.391  25.518  22.970  1.00  0.00     0.347 HD
ATOM     15  H   UNL A   1      32.341  26.492  24.000  1.00  0.00     0.347 HD
BRANCH  13  16
ATOM     16  C   UNL A   1      33.263  25.943  22.299  1.00  0.00     0.261 C 
BRANCH  16  17
ATOM     17  C   UNL A   1      33.588  27.440  22.203  1.00  0.00     0.058 C 
ATOM     18  C   UNL A   1      33.720  28.144  23.549  1.00  0.00     0.010 C 
ENDBRANCH  16  17
ENDBRANCH  13  16
ENDBRANCH   8  13
BRANCH  12  19
ATOM     19  S   UNL A   1      32.002  20.805  22.571  1.00  0.00    -0.122 SA
BRANCH  19  20
ATOM     20  C   UNL A   1      32.505  19.290  23.350  1.00  0.00     0.008 A 
ATOM     21  C   UNL A   1      32.844  18.181  22.569  1.00  0.00     0.019 A 
ATOM     22  C   UNL A   1      32.550  19.188  24.738  1.00  0.00     0.019 A 
ATOM     23  C   UNL A   1      33.259  16.995  23.179  1.00  0.00     0.047 A 
ATOM     24  C   UNL A   1      32.965  18.003  25.347  1.00  0.00     0.047 A 
ATOM     25  C   UNL A   1      33.325  16.901  24.571  1.00  0.00     0.118 A 
BRANCH  25  26
ATOM     26  O   UNL A   1      33.745  15.692  25.051  1.00  0.00    -0.497 OA
ATOM     27  C   UNL A   1      32.726  14.794  25.474  1.00  0.00     0.278 C 
ENDBRANCH  25  26
ENDBRANCH  19  20
ENDBRANCH  12  19
ENDBRANCH   5   8
ENDBRANCH   3   4
ENDBRANCH   2   3
ENDBRANCH   1   2
BRANCH   1  28
ATOM     28  C   UNL A   1      36.539  20.254  24.956  1.00  0.00     0.002 C 
BRANCH  28  29
ATOM     29  C   UNL A   1      37.796  19.380  24.957  1.00  0.00     0.021 C 
BRANCH  29  30
ATOM     30  C   UNL A   1      38.992  20.023  25.647  1.00  0.00     0.116 C 
BRANCH  30  31
ATOM     31  N   UNL A   1      40.064  19.062  25.854  1.00  0.00    -0.352 N 
ATOM     32  C   UNL A   1      41.395  19.289  26.075  1.00  0.00     0.251 C 
ATOM     33  H   UNL A   1      39.794  18.115  25.832  1.00  0.00     0.163 HD
ATOM     34  O   UNL A   1      42.210  18.375  25.975  1.00  0.00    -0.269 OA
BRANCH  32  35
ATOM     35  C   UNL A   1      41.844  20.647  26.433  1.00  0.00     0.039 A 
ATOM     36  C   UNL A   1      42.158  20.933  27.763  1.00  0.00     0.014 A 
ATOM     37  C   UNL A   1      41.947  21.633  25.449  1.00  0.00     0.014 A 
ATOM     38  C   UNL A   1      42.621  22.205  28.098  1.00  0.00     0.010 A 
ATOM     39  C   UNL A   1      42.486  22.872  25.770  1.00  0.00     0.010 A 
ATOM     40  C   UNL A   1      42.813  23.175  27.100  1.00  0.00    -0.014 A 
BRANCH  40  41
ATOM     41  C   UNL A   1      43.324  24.528  27.423  1.00  0.00     0.031 A 
ATOM     42  C   UNL A   1      42.384  25.568  27.965  1.00  0.00     0.074 A 
ATOM     43  C   UNL A   1      44.609  24.839  27.163  1.00  0.00     0.049 A 
ATOM     44  N   UNL A   1      42.598  26.836  28.203  1.00  0.00    -0.248 NA
ATOM     45  C   UNL A   1      41.007  25.128  28.248  1.00  0.00     0.031 C 
ATOM     46  C   UNL A   1      45.604  23.924  26.602  1.00  0.00     0.029 A 
ATOM     47  N   UNL A   1      45.293  26.019  27.320  1.00  0.00    -0.354 N 
ATOM     48  C   UNL A   1      41.386  27.344  28.651  1.00  0.00     0.074 A 
ATOM     49  C   UNL A   1      40.424  26.266  28.589  1.00  0.00     0.031 C 
ATOM     50  C   UNL A   1      46.773  24.572  26.471  1.00  0.00     0.029 A 
ATOM     51  C   UNL A   1      46.597  25.958  26.896  1.00  0.00     0.049 A 
ATOM     52  H   UNL A   1      44.886  26.831  27.700  1.00  0.00     0.167 HD
ATOM     53  C   UNL A   1      41.108  28.591  29.100  1.00  0.00     0.037 A 
ATOM     54  C   UNL A   1      47.539  26.920  26.839  1.00  0.00     0.037 A 
ATOM     55  C   UNL A   1      42.075  29.654  29.172  1.00  0.00     0.049 A 
ATOM     56  C   UNL A   1      47.197  28.306  27.321  1.00  0.00     0.074 A 
ATOM     57  C   UNL A   1      41.906  30.943  29.644  1.00  0.00     0.029 A 
ATOM     58  N   UNL A   1      43.396  29.547  28.760  1.00  0.00    -0.354 N 
ATOM     59  N   UNL A   1      46.062  28.762  27.794  1.00  0.00    -0.248 NA
ATOM     60  C   UNL A   1      48.269  29.309  27.269  1.00  0.00     0.031 C 
ATOM     61  C   UNL A   1      43.111  31.632  29.470  1.00  0.00     0.029 A 
ATOM     62  C   UNL A   1      44.048  30.753  28.952  1.00  0.00     0.049 A 
ATOM     63  H   UNL A   1      43.808  28.733  28.387  1.00  0.00     0.167 HD
ATOM     64  C   UNL A   1      46.294  30.089  28.131  1.00  0.00     0.074 A 
ATOM     65  C   UNL A   1      47.680  30.362  27.818  1.00  0.00     0.031 C 
ATOM     66  C   UNL A   1      45.437  30.999  28.655  1.00  0.00     0.037 A 
BRANCH  53  67
ATOM     67  C   UNL A   1      39.704  28.871  29.553  1.00  0.00     0.064 A 
ATOM     68  C   UNL A   1      38.734  29.376  28.671  1.00  0.00     0.173 A 
ATOM     69  C   UNL A   1      39.309  28.595  30.871  1.00  0.00     0.173 A 
ATOM     70  F   UNL A   1      39.061  29.669  27.404  1.00  0.00    -0.203 F 
ATOM     71  C   UNL A   1      37.433  29.622  29.101  1.00  0.00     0.198 A 
ATOM     72  C   UNL A   1      37.998  28.810  31.286  1.00  0.00     0.198 A 
ATOM     73  F   UNL A   1      40.193  28.106  31.754  1.00  0.00    -0.203 F 
ATOM     74  F   UNL A   1      36.540  30.154  28.255  1.00  0.00    -0.200 F 
ATOM     75  C   UNL A   1      37.064  29.331  30.405  1.00  0.00     0.200 A 
ATOM     76  F   UNL A   1      37.639  28.512  32.543  1.00  0.00    -0.200 F 
ATOM     77  F   UNL A   1      35.807  29.557  30.813  1.00  0.00    -0.200 F 
ENDBRANCH  53  67
BRANCH  54  78
ATOM     78  C   UNL A   1      48.894  26.608  26.311  1.00  0.00     0.064 A 
ATOM     79  C   UNL A   1      49.881  26.050  27.136  1.00  0.00     0.173 A 
ATOM     80  C   UNL A   1      49.237  26.880  24.978  1.00  0.00     0.173 A 
ATOM     81  F   UNL A   1      49.608  25.787  28.423  1.00  0.00    -0.203 F 
ATOM     82  C   UNL A   1      51.167  25.808  26.658  1.00  0.00     0.198 A 
ATOM     83  C   UNL A   1      50.513  26.604  24.492  1.00  0.00     0.198 A 
ATOM     84  F   UNL A   1      48.328  27.405  24.143  1.00  0.00    -0.203 F 
ATOM     85  F   UNL A   1      52.107  25.330  27.485  1.00  0.00    -0.200 F 
ATOM     86  C   UNL A   1      51.481  26.081  25.336  1.00  0.00     0.200 A 
ATOM     87  F   UNL A   1      50.807  26.853  23.209  1.00  0.00    -0.200 F 
ATOM     88  F   UNL A   1      52.718  25.848  24.876  1.00  0.00    -0.200 F 
ENDBRANCH  54  78
BRANCH  66  89
ATOM     89  C   UNL A   1      45.984  32.359  28.982  1.00  0.00     0.064 A 
ATOM     90  C   UNL A   1      46.576  32.641  30.221  1.00  0.00     0.173 A 
ATOM     91  C   UNL A   1      45.966  33.377  28.014  1.00  0.00     0.173 A 
ATOM     92  F   UNL A   1      46.607  31.708  31.184  1.00  0.00    -0.203 F 
ATOM     93  C   UNL A   1      47.109  33.900  30.488  1.00  0.00     0.198 A 
ATOM     94  C   UNL A   1      46.530  34.622  28.273  1.00  0.00     0.198 A 
ATOM     95  F   UNL A   1      45.419  33.155  26.810  1.00  0.00    -0.203 F 
ATOM     96  F   UNL A   1      47.628  34.163  31.695  1.00  0.00    -0.200 F 
ATOM     97  C   UNL A   1      47.095  34.885  29.511  1.00  0.00     0.200 A 
ATOM     98  F   UNL A   1      46.532  35.565  27.321  1.00  0.00    -0.200 F 
ATOM     99  F   UNL A   1      47.621  36.090  29.765  1.00  0.00    -0.200 F 
ENDBRANCH  66  89
ENDBRANCH  40  41
ENDBRANCH  32  35
ENDBRANCH  30  31
ENDBRANCH  29  30
ENDBRANCH  28  29
ENDBRANCH   1  28
TORSDOF 19
ENDMDL
