MODEL 1
REMARK VINA RESULT:     -13.5      0.000      0.000
REMARK SMILES CC(C)c1nc(C(=O)NCCCCCCNC(=O)c2ccc(-c3c4nc(c(-c5c(F)c(F)c(F)c(F)c5F)c5ccc([nH]5)c(-c5c(F)c(F)c(F)c(F)c5F)c5nc(c(-c6c(F)c(F)c(F)c(F)c6F)c6ccc3[nH]6)C=C5)C=C4)cc2)nn1-c1ccccc1F
REMARK SMILES IDX 13 1 12 2 11 3 10 4 9 5 7 6 8 7 6 9 4 10 5 11 83 12 82 13
REMARK SMILES IDX 2 14 1 15 3 16 84 17 85 18 89 19 86 20 88 21 90 22 87 23
REMARK SMILES IDX 14 24 15 25 16 26 17 27 18 29 19 30 20 31 81 32 21 33 80 34
REMARK SMILES IDX 22 35 23 36 24 37 74 38 25 39 79 40 73 41 75 42 26 43 78 44
REMARK SMILES IDX 72 45 71 46 27 48 59 49 39 50 58 51 40 52 43 53 57 54 76 55
REMARK SMILES IDX 41 56 42 57 56 59 77 60 44 61 28 62 29 63 37 64 30 65 31 66
REMARK SMILES IDX 35 67 38 68 32 69 33 70 36 71 34 72 60 73 61 74 69 75 62 76
REMARK SMILES IDX 63 77 67 78 70 79 64 80 65 81 68 82 66 83 45 84 46 85 54 86
REMARK SMILES IDX 47 87 48 88 52 89 55 90 49 91 50 92 53 93 51 94
REMARK H PARENT 9 8 16 28 75 47 43 58
REMARK Flexibility Score: inf
ROOT
ATOM      1  C   UNL A   1      33.432  27.751  26.197  1.00  0.00     0.002 C 
ENDROOT
BRANCH   1   2
ATOM      2  C   UNL A   1      32.367  26.684  26.498  1.00  0.00     0.002 C 
BRANCH   2   3
ATOM      3  C   UNL A   1      30.988  26.894  25.870  1.00  0.00     0.021 C 
BRANCH   3   4
ATOM      4  C   UNL A   1      30.275  25.629  25.394  1.00  0.00     0.116 C 
BRANCH   4   5
ATOM      5  N   UNL A   1      29.881  24.758  26.488  1.00  0.00    -0.349 N 
ATOM      6  C   UNL A   1      30.274  23.460  26.769  1.00  0.00     0.290 C 
ATOM      7  O   UNL A   1      29.726  22.901  27.727  1.00  0.00    -0.266 OA
ATOM      8  H   UNL A   1      29.239  25.148  27.124  1.00  0.00     0.163 HD
BRANCH   6   9
ATOM      9  C   UNL A   1      31.289  22.782  25.930  1.00  0.00     0.239 A 
ATOM     10  C   UNL A   1      33.175  22.316  25.026  1.00  0.00     0.136 A 
ATOM     11  N   UNL A   1      32.596  23.219  25.801  1.00  0.00    -0.207 NA
ATOM     12  N   UNL A   1      32.272  21.278  24.847  1.00  0.00    -0.214 N 
ATOM     13  N   UNL A   1      31.031  21.711  25.160  1.00  0.00    -0.140 NA
BRANCH  10  14
ATOM     14  C   UNL A   1      34.418  22.538  24.190  1.00  0.00     0.051 C 
ATOM     15  C   UNL A   1      34.050  23.104  22.811  1.00  0.00     0.016 C 
ATOM     16  C   UNL A   1      35.476  23.437  24.813  1.00  0.00     0.016 C 
ENDBRANCH  10  14
BRANCH  12  17
ATOM     17  C   UNL A   1      32.446  19.928  24.501  1.00  0.00     0.102 A 
ATOM     18  C   UNL A   1      32.916  19.023  25.461  1.00  0.00     0.031 A 
ATOM     19  C   UNL A   1      32.300  19.513  23.180  1.00  0.00     0.148 A 
ATOM     20  C   UNL A   1      33.130  17.689  25.108  1.00  0.00     0.002 A 
ATOM     21  C   UNL A   1      32.516  18.185  22.826  1.00  0.00     0.041 A 
ATOM     22  F   UNL A   1      32.050  20.395  22.203  1.00  0.00    -0.205 F 
ATOM     23  C   UNL A   1      32.915  17.266  23.795  1.00  0.00     0.003 A 
ENDBRANCH  12  17
ENDBRANCH   6   9
ENDBRANCH   4   5
ENDBRANCH   3   4
ENDBRANCH   2   3
ENDBRANCH   1   2
BRANCH   1  24
ATOM     24  C   UNL A   1      33.026  29.222  26.371  1.00  0.00     0.021 C 
BRANCH  24  25
ATOM     25  C   UNL A   1      33.665  29.919  27.562  1.00  0.00     0.116 C 
BRANCH  25  26
ATOM     26  N   UNL A   1      34.111  31.285  27.271  1.00  0.00    -0.352 N 
ATOM     27  C   UNL A   1      35.278  31.899  27.676  1.00  0.00     0.251 C 
ATOM     28  H   UNL A   1      33.504  31.830  26.719  1.00  0.00     0.163 HD
ATOM     29  O   UNL A   1      35.386  33.129  27.679  1.00  0.00    -0.269 OA
BRANCH  27  30
ATOM     30  C   UNL A   1      36.405  31.062  28.110  1.00  0.00     0.039 A 
ATOM     31  C   UNL A   1      36.570  29.743  27.677  1.00  0.00     0.014 A 
ATOM     32  C   UNL A   1      37.346  31.657  28.942  1.00  0.00     0.014 A 
ATOM     33  C   UNL A   1      37.736  29.062  28.021  1.00  0.00     0.010 A 
ATOM     34  C   UNL A   1      38.568  31.065  29.106  1.00  0.00     0.010 A 
ATOM     35  C   UNL A   1      38.743  29.740  28.725  1.00  0.00    -0.014 A 
BRANCH  35  36
ATOM     36  C   UNL A   1      40.020  29.108  29.038  1.00  0.00     0.031 A 
ATOM     37  C   UNL A   1      40.308  28.894  30.485  1.00  0.00     0.074 A 
ATOM     38  C   UNL A   1      40.776  28.526  28.079  1.00  0.00     0.049 A 
ATOM     39  N   UNL A   1      41.305  29.341  31.176  1.00  0.00    -0.248 NA
ATOM     40  C   UNL A   1      39.320  28.150  31.284  1.00  0.00     0.031 C 
ATOM     41  C   UNL A   1      40.473  28.352  26.650  1.00  0.00     0.029 A 
ATOM     42  N   UNL A   1      41.944  27.845  28.215  1.00  0.00    -0.354 N 
ATOM     43  C   UNL A   1      41.165  28.810  32.459  1.00  0.00     0.074 A 
ATOM     44  C   UNL A   1      39.860  28.203  32.504  1.00  0.00     0.031 C 
ATOM     45  C   UNL A   1      41.291  27.416  26.123  1.00  0.00     0.029 A 
ATOM     46  C   UNL A   1      42.289  27.072  27.116  1.00  0.00     0.049 A 
ATOM     47  H   UNL A   1      42.499  27.896  29.026  1.00  0.00     0.167 HD
ATOM     48  C   UNL A   1      42.221  28.739  33.319  1.00  0.00     0.037 A 
ATOM     49  C   UNL A   1      43.311  26.187  27.039  1.00  0.00     0.037 A 
ATOM     50  C   UNL A   1      43.291  29.610  32.903  1.00  0.00     0.049 A 
ATOM     51  C   UNL A   1      44.258  26.515  28.133  1.00  0.00     0.074 A 
ATOM     52  C   UNL A   1      43.411  30.973  32.714  1.00  0.00     0.029 A 
ATOM     53  N   UNL A   1      44.366  29.055  32.253  1.00  0.00    -0.354 N 
ATOM     54  N   UNL A   1      44.963  27.611  28.179  1.00  0.00    -0.248 NA
ATOM     55  C   UNL A   1      44.070  25.837  29.407  1.00  0.00     0.031 C 
ATOM     56  C   UNL A   1      44.228  31.111  31.552  1.00  0.00     0.029 A 
ATOM     57  C   UNL A   1      44.606  29.829  31.147  1.00  0.00     0.049 A 
ATOM     58  H   UNL A   1      44.869  28.255  32.529  1.00  0.00     0.167 HD
ATOM     59  C   UNL A   1      44.945  27.988  29.515  1.00  0.00     0.074 A 
ATOM     60  C   UNL A   1      44.457  26.813  30.233  1.00  0.00     0.031 C 
ATOM     61  C   UNL A   1      45.052  29.299  29.881  1.00  0.00     0.037 A 
BRANCH  48  62
ATOM     62  C   UNL A   1      42.433  27.648  34.343  1.00  0.00     0.064 A 
ATOM     63  C   UNL A   1      43.016  26.427  33.939  1.00  0.00     0.173 A 
ATOM     64  C   UNL A   1      41.823  27.634  35.615  1.00  0.00     0.173 A 
ATOM     65  F   UNL A   1      43.616  26.317  32.745  1.00  0.00    -0.203 F 
ATOM     66  C   UNL A   1      42.913  25.266  34.711  1.00  0.00     0.198 A 
ATOM     67  C   UNL A   1      41.770  26.487  36.406  1.00  0.00     0.198 A 
ATOM     68  F   UNL A   1      41.158  28.689  36.098  1.00  0.00    -0.203 F 
ATOM     69  F   UNL A   1      43.365  24.102  34.225  1.00  0.00    -0.200 F 
ATOM     70  C   UNL A   1      42.283  25.294  35.940  1.00  0.00     0.200 A 
ATOM     71  F   UNL A   1      41.141  26.532  37.590  1.00  0.00    -0.200 F 
ATOM     72  F   UNL A   1      42.124  24.171  36.653  1.00  0.00    -0.200 F 
ENDBRANCH  48  62
BRANCH  49  73
ATOM     73  C   UNL A   1      43.359  24.914  26.287  1.00  0.00     0.064 A 
ATOM     74  C   UNL A   1      44.303  24.707  25.272  1.00  0.00     0.173 A 
ATOM     75  C   UNL A   1      42.658  23.776  26.738  1.00  0.00     0.173 A 
ATOM     76  F   UNL A   1      45.040  25.731  24.820  1.00  0.00    -0.203 F 
ATOM     77  C   UNL A   1      44.554  23.432  24.755  1.00  0.00     0.198 A 
ATOM     78  C   UNL A   1      42.905  22.506  26.216  1.00  0.00     0.198 A 
ATOM     79  F   UNL A   1      41.793  23.860  27.758  1.00  0.00    -0.203 F 
ATOM     80  F   UNL A   1      45.509  23.261  23.829  1.00  0.00    -0.200 F 
ATOM     81  C   UNL A   1      43.863  22.331  25.234  1.00  0.00     0.200 A 
ATOM     82  F   UNL A   1      42.257  21.445  26.717  1.00  0.00    -0.200 F 
ATOM     83  F   UNL A   1      44.149  21.101  24.786  1.00  0.00    -0.200 F 
ENDBRANCH  49  73
BRANCH  61  84
ATOM     84  C   UNL A   1      45.426  30.298  28.820  1.00  0.00     0.064 A 
ATOM     85  C   UNL A   1      44.493  30.973  28.012  1.00  0.00     0.173 A 
ATOM     86  C   UNL A   1      46.764  30.700  28.723  1.00  0.00     0.173 A 
ATOM     87  F   UNL A   1      43.183  30.727  28.118  1.00  0.00    -0.203 F 
ATOM     88  C   UNL A   1      44.889  31.967  27.118  1.00  0.00     0.198 A 
ATOM     89  C   UNL A   1      47.153  31.718  27.856  1.00  0.00     0.198 A 
ATOM     90  F   UNL A   1      47.693  30.135  29.511  1.00  0.00    -0.203 F 
ATOM     91  F   UNL A   1      43.977  32.585  26.353  1.00  0.00    -0.200 F 
ATOM     92  C   UNL A   1      46.218  32.343  27.046  1.00  0.00     0.200 A 
ATOM     93  F   UNL A   1      48.432  32.114  27.827  1.00  0.00    -0.200 F 
ATOM     94  F   UNL A   1      46.596  33.327  26.218  1.00  0.00    -0.200 F 
ENDBRANCH  61  84
ENDBRANCH  35  36
ENDBRANCH  27  30
ENDBRANCH  25  26
ENDBRANCH  24  25
ENDBRANCH   1  24
TORSDOF 15
ENDMDL
MODEL 2
REMARK VINA RESULT:     -13.4      1.577      2.605
REMARK SMILES CC(C)c1nc(C(=O)NCCCCCCNC(=O)c2ccc(-c3c4nc(c(-c5c(F)c(F)c(F)c(F)c5F)c5ccc([nH]5)c(-c5c(F)c(F)c(F)c(F)c5F)c5nc(c(-c6c(F)c(F)c(F)c(F)c6F)c6ccc3[nH]6)C=C5)C=C4)cc2)nn1-c1ccccc1F
REMARK SMILES IDX 13 1 12 2 11 3 10 4 9 5 7 6 8 7 6 9 4 10 5 11 83 12 82 13
REMARK SMILES IDX 2 14 1 15 3 16 84 17 85 18 89 19 86 20 88 21 90 22 87 23
REMARK SMILES IDX 14 24 15 25 16 26 17 27 18 29 19 30 20 31 81 32 21 33 80 34
REMARK SMILES IDX 22 35 23 36 24 37 74 38 25 39 79 40 73 41 75 42 26 43 78 44
REMARK SMILES IDX 72 45 71 46 27 48 59 49 39 50 58 51 40 52 43 53 57 54 76 55
REMARK SMILES IDX 41 56 42 57 56 59 77 60 44 61 28 62 29 63 37 64 30 65 31 66
REMARK SMILES IDX 35 67 38 68 32 69 33 70 36 71 34 72 60 73 61 74 69 75 62 76
REMARK SMILES IDX 63 77 67 78 70 79 64 80 65 81 68 82 66 83 45 84 46 85 54 86
REMARK SMILES IDX 47 87 48 88 52 89 55 90 49 91 50 92 53 93 51 94
REMARK H PARENT 9 8 16 28 75 47 43 58
REMARK Flexibility Score: inf
ROOT
ATOM      1  C   UNL A   1      34.347  28.757  27.026  1.00  0.00     0.002 C 
ENDROOT
BRANCH   1   2
ATOM      2  C   UNL A   1      33.562  27.774  26.144  1.00  0.00     0.002 C 
BRANCH   2   3
ATOM      3  C   UNL A   1      32.212  27.296  26.682  1.00  0.00     0.021 C 
BRANCH   3   4
ATOM      4  C   UNL A   1      31.506  26.226  25.850  1.00  0.00     0.116 C 
BRANCH   4   5
ATOM      5  N   UNL A   1      30.696  25.329  26.657  1.00  0.00    -0.349 N 
ATOM      6  C   UNL A   1      30.722  23.946  26.737  1.00  0.00     0.290 C 
ATOM      7  O   UNL A   1      29.865  23.407  27.448  1.00  0.00    -0.266 OA
ATOM      8  H   UNL A   1      30.029  25.769  27.232  1.00  0.00     0.163 HD
BRANCH   6   9
ATOM      9  C   UNL A   1      31.727  23.167  25.977  1.00  0.00     0.239 A 
ATOM     10  C   UNL A   1      32.649  22.079  24.379  1.00  0.00     0.136 A 
ATOM     11  N   UNL A   1      31.498  22.637  24.720  1.00  0.00    -0.207 NA
ATOM     12  N   UNL A   1      33.584  22.426  25.343  1.00  0.00    -0.214 N 
ATOM     13  N   UNL A   1      32.941  22.841  26.455  1.00  0.00    -0.140 NA
BRANCH  10  14
ATOM     14  C   UNL A   1      32.824  20.975  23.358  1.00  0.00     0.051 C 
ATOM     15  C   UNL A   1      32.685  19.597  24.020  1.00  0.00     0.016 C 
ATOM     16  C   UNL A   1      31.886  21.031  22.161  1.00  0.00     0.016 C 
ENDBRANCH  10  14
BRANCH  12  17
ATOM     17  C   UNL A   1      34.987  22.490  25.314  1.00  0.00     0.102 A 
ATOM     18  C   UNL A   1      35.735  21.310  25.413  1.00  0.00     0.031 A 
ATOM     19  C   UNL A   1      35.638  23.720  25.338  1.00  0.00     0.148 A 
ATOM     20  C   UNL A   1      37.130  21.375  25.426  1.00  0.00     0.002 A 
ATOM     21  C   UNL A   1      37.028  23.787  25.355  1.00  0.00     0.041 A 
ATOM     22  F   UNL A   1      34.950  24.864  25.450  1.00  0.00    -0.205 F 
ATOM     23  C   UNL A   1      37.777  22.612  25.382  1.00  0.00     0.003 A 
ENDBRANCH  12  17
ENDBRANCH   6   9
ENDBRANCH   4   5
ENDBRANCH   3   4
ENDBRANCH   2   3
ENDBRANCH   1   2
BRANCH   1  24
ATOM     24  C   UNL A   1      33.688  30.110  27.335  1.00  0.00     0.021 C 
BRANCH  24  25
ATOM     25  C   UNL A   1      34.660  31.271  27.478  1.00  0.00     0.116 C 
BRANCH  25  26
ATOM     26  N   UNL A   1      34.582  31.943  28.778  1.00  0.00    -0.352 N 
ATOM     27  C   UNL A   1      35.329  31.687  29.909  1.00  0.00     0.251 C 
ATOM     28  H   UNL A   1      33.915  32.663  28.853  1.00  0.00     0.163 HD
ATOM     29  O   UNL A   1      34.946  32.054  31.025  1.00  0.00    -0.269 OA
BRANCH  27  30
ATOM     30  C   UNL A   1      36.600  30.964  29.771  1.00  0.00     0.039 A 
ATOM     31  C   UNL A   1      37.813  31.617  29.532  1.00  0.00     0.014 A 
ATOM     32  C   UNL A   1      36.560  29.585  29.939  1.00  0.00     0.014 A 
ATOM     33  C   UNL A   1      38.992  30.875  29.553  1.00  0.00     0.010 A 
ATOM     34  C   UNL A   1      37.723  28.900  30.159  1.00  0.00     0.010 A 
ATOM     35  C   UNL A   1      38.940  29.513  29.886  1.00  0.00    -0.014 A 
BRANCH  35  36
ATOM     36  C   UNL A   1      40.149  28.706  30.009  1.00  0.00     0.031 A 
ATOM     37  C   UNL A   1      40.643  28.473  31.396  1.00  0.00     0.074 A 
ATOM     38  C   UNL A   1      40.642  28.006  28.961  1.00  0.00     0.049 A 
ATOM     39  N   UNL A   1      41.795  28.780  31.896  1.00  0.00    -0.248 NA
ATOM     40  C   UNL A   1      39.709  27.893  32.375  1.00  0.00     0.031 C 
ATOM     41  C   UNL A   1      40.083  27.858  27.609  1.00  0.00     0.029 A 
ATOM     42  N   UNL A   1      41.709  27.165  28.930  1.00  0.00    -0.354 N 
ATOM     43  C   UNL A   1      41.800  28.294  33.204  1.00  0.00     0.074 A 
ATOM     44  C   UNL A   1      40.448  27.884  33.486  1.00  0.00     0.031 C 
ATOM     45  C   UNL A   1      40.660  26.806  26.992  1.00  0.00     0.029 A 
ATOM     46  C   UNL A   1      41.752  26.335  27.819  1.00  0.00     0.049 A 
ATOM     47  H   UNL A   1      42.394  27.147  29.636  1.00  0.00     0.167 HD
ATOM     48  C   UNL A   1      42.964  28.082  33.881  1.00  0.00     0.037 A 
ATOM     49  C   UNL A   1      42.611  25.310  27.610  1.00  0.00     0.037 A 
ATOM     50  C   UNL A   1      44.061  28.782  33.261  1.00  0.00     0.049 A 
ATOM     51  C   UNL A   1      43.765  25.512  28.520  1.00  0.00     0.074 A 
ATOM     52  C   UNL A   1      44.339  30.110  33.003  1.00  0.00     0.029 A 
ATOM     53  N   UNL A   1      44.922  28.067  32.465  1.00  0.00    -0.354 N 
ATOM     54  N   UNL A   1      44.615  26.494  28.407  1.00  0.00    -0.248 NA
ATOM     55  C   UNL A   1      43.701  24.887  29.832  1.00  0.00     0.031 C 
ATOM     56  C   UNL A   1      44.960  30.111  31.718  1.00  0.00     0.029 A 
ATOM     57  C   UNL A   1      45.079  28.782  31.306  1.00  0.00     0.049 A 
ATOM     58  H   UNL A   1      45.347  27.207  32.685  1.00  0.00     0.167 HD
ATOM     59  C   UNL A   1      44.876  26.888  29.712  1.00  0.00     0.074 A 
ATOM     60  C   UNL A   1      44.355  25.807  30.546  1.00  0.00     0.031 C 
ATOM     61  C   UNL A   1      45.227  28.175  30.005  1.00  0.00     0.037 A 
BRANCH  48  62
ATOM     62  C   UNL A   1      43.189  26.986  34.897  1.00  0.00     0.064 A 
ATOM     63  C   UNL A   1      43.383  27.331  36.252  1.00  0.00     0.173 A 
ATOM     64  C   UNL A   1      43.520  25.657  34.558  1.00  0.00     0.173 A 
ATOM     65  F   UNL A   1      43.112  28.570  36.688  1.00  0.00    -0.203 F 
ATOM     66  C   UNL A   1      43.949  26.440  37.169  1.00  0.00     0.198 A 
ATOM     67  C   UNL A   1      44.034  24.755  35.490  1.00  0.00     0.198 A 
ATOM     68  F   UNL A   1      43.470  25.208  33.300  1.00  0.00    -0.203 F 
ATOM     69  F   UNL A   1      44.236  26.857  38.410  1.00  0.00    -0.200 F 
ATOM     70  C   UNL A   1      44.282  25.156  36.786  1.00  0.00     0.200 A 
ATOM     71  F   UNL A   1      44.364  23.517  35.094  1.00  0.00    -0.200 F 
ATOM     72  F   UNL A   1      44.884  24.321  37.643  1.00  0.00    -0.200 F 
ENDBRANCH  48  62
BRANCH  49  73
ATOM     73  C   UNL A   1      42.351  24.032  26.910  1.00  0.00     0.064 A 
ATOM     74  C   UNL A   1      43.312  23.462  26.062  1.00  0.00     0.173 A 
ATOM     75  C   UNL A   1      41.266  23.210  27.275  1.00  0.00     0.173 A 
ATOM     76  F   UNL A   1      44.395  24.165  25.704  1.00  0.00    -0.203 F 
ATOM     77  C   UNL A   1      43.209  22.137  25.626  1.00  0.00     0.198 A 
ATOM     78  C   UNL A   1      41.161  21.890  26.834  1.00  0.00     0.198 A 
ATOM     79  F   UNL A   1      40.340  23.638  28.144  1.00  0.00    -0.203 F 
ATOM     80  F   UNL A   1      44.179  21.605  24.868  1.00  0.00    -0.200 F 
ATOM     81  C   UNL A   1      42.140  21.349  26.020  1.00  0.00     0.200 A 
ATOM     82  F   UNL A   1      40.142  21.128  27.255  1.00  0.00    -0.200 F 
ATOM     83  F   UNL A   1      42.075  20.061  25.656  1.00  0.00    -0.200 F 
ENDBRANCH  49  73
BRANCH  61  84
ATOM     84  C   UNL A   1      45.554  29.094  28.860  1.00  0.00     0.064 A 
ATOM     85  C   UNL A   1      44.604  29.890  28.195  1.00  0.00     0.173 A 
ATOM     86  C   UNL A   1      46.899  29.289  28.524  1.00  0.00     0.173 A 
ATOM     87  F   UNL A   1      43.310  29.845  28.529  1.00  0.00    -0.203 F 
ATOM     88  C   UNL A   1      44.981  30.803  27.210  1.00  0.00     0.198 A 
ATOM     89  C   UNL A   1      47.277  30.227  27.566  1.00  0.00     0.198 A 
ATOM     90  F   UNL A   1      47.858  28.602  29.165  1.00  0.00    -0.203 F 
ATOM     91  F   UNL A   1      44.051  31.541  26.586  1.00  0.00    -0.200 F 
ATOM     92  C   UNL A   1      46.319  30.975  26.902  1.00  0.00     0.200 A 
ATOM     93  F   UNL A   1      48.577  30.427  27.308  1.00  0.00    -0.200 F 
ATOM     94  F   UNL A   1      46.687  31.881  25.986  1.00  0.00    -0.200 F 
ENDBRANCH  61  84
ENDBRANCH  35  36
ENDBRANCH  27  30
ENDBRANCH  25  26
ENDBRANCH  24  25
ENDBRANCH   1  24
TORSDOF 15
ENDMDL
MODEL 3
REMARK VINA RESULT:     -13.1      3.518      8.849
REMARK SMILES CC(C)c1nc(C(=O)NCCCCCCNC(=O)c2ccc(-c3c4nc(c(-c5c(F)c(F)c(F)c(F)c5F)c5ccc([nH]5)c(-c5c(F)c(F)c(F)c(F)c5F)c5nc(c(-c6c(F)c(F)c(F)c(F)c6F)c6ccc3[nH]6)C=C5)C=C4)cc2)nn1-c1ccccc1F
REMARK SMILES IDX 13 1 12 2 11 3 10 4 9 5 7 6 8 7 6 9 4 10 5 11 83 12 82 13
REMARK SMILES IDX 2 14 1 15 3 16 84 17 85 18 89 19 86 20 88 21 90 22 87 23
REMARK SMILES IDX 14 24 15 25 16 26 17 27 18 29 19 30 20 31 81 32 21 33 80 34
REMARK SMILES IDX 22 35 23 36 24 37 74 38 25 39 79 40 73 41 75 42 26 43 78 44
REMARK SMILES IDX 72 45 71 46 27 48 59 49 39 50 58 51 40 52 43 53 57 54 76 55
REMARK SMILES IDX 41 56 42 57 56 59 77 60 44 61 28 62 29 63 37 64 30 65 31 66
REMARK SMILES IDX 35 67 38 68 32 69 33 70 36 71 34 72 60 73 61 74 69 75 62 76
REMARK SMILES IDX 63 77 67 78 70 79 64 80 65 81 68 82 66 83 45 84 46 85 54 86
REMARK SMILES IDX 47 87 48 88 52 89 55 90 49 91 50 92 53 93 51 94
REMARK H PARENT 9 8 16 28 75 47 43 58
REMARK Flexibility Score: inf
ROOT
ATOM      1  C   UNL A   1      36.052  23.313  23.671  1.00  0.00     0.002 C 
ENDROOT
BRANCH   1   2
ATOM      2  C   UNL A   1      34.571  23.500  24.034  1.00  0.00     0.002 C 
BRANCH   2   3
ATOM      3  C   UNL A   1      33.584  22.499  23.430  1.00  0.00     0.021 C 
BRANCH   3   4
ATOM      4  C   UNL A   1      32.434  23.103  22.624  1.00  0.00     0.116 C 
BRANCH   4   5
ATOM      5  N   UNL A   1      32.887  23.810  21.439  1.00  0.00    -0.349 N 
ATOM      6  C   UNL A   1      32.760  25.149  21.106  1.00  0.00     0.290 C 
ATOM      7  O   UNL A   1      33.165  25.492  19.988  1.00  0.00    -0.266 OA
ATOM      8  H   UNL A   1      33.353  23.256  20.773  1.00  0.00     0.163 HD
BRANCH   6   9
ATOM      9  C   UNL A   1      32.142  26.105  22.053  1.00  0.00     0.239 A 
ATOM     10  C   UNL A   1      31.942  27.528  23.642  1.00  0.00     0.136 A 
ATOM     11  N   UNL A   1      32.830  26.720  23.084  1.00  0.00    -0.207 NA
ATOM     12  N   UNL A   1      30.806  27.514  22.847  1.00  0.00    -0.214 N 
ATOM     13  N   UNL A   1      30.836  26.425  22.050  1.00  0.00    -0.140 NA
BRANCH  10  14
ATOM     14  C   UNL A   1      32.004  28.060  25.058  1.00  0.00     0.051 C 
ATOM     15  C   UNL A   1      31.187  27.171  26.007  1.00  0.00     0.016 C 
ATOM     16  C   UNL A   1      33.401  28.227  25.638  1.00  0.00     0.016 C 
ENDBRANCH  10  14
BRANCH  12  17
ATOM     17  C   UNL A   1      29.754  28.432  22.692  1.00  0.00     0.102 A 
ATOM     18  C   UNL A   1      30.018  29.705  22.172  1.00  0.00     0.031 A 
ATOM     19  C   UNL A   1      28.486  28.143  23.190  1.00  0.00     0.148 A 
ATOM     20  C   UNL A   1      28.981  30.634  22.056  1.00  0.00     0.002 A 
ATOM     21  C   UNL A   1      27.453  29.068  23.079  1.00  0.00     0.041 A 
ATOM     22  F   UNL A   1      28.254  27.015  23.875  1.00  0.00    -0.205 F 
ATOM     23  C   UNL A   1      27.696  30.311  22.496  1.00  0.00     0.003 A 
ENDBRANCH  12  17
ENDBRANCH   6   9
ENDBRANCH   4   5
ENDBRANCH   3   4
ENDBRANCH   2   3
ENDBRANCH   1   2
BRANCH   1  24
ATOM     24  C   UNL A   1      36.866  22.319  24.513  1.00  0.00     0.021 C 
BRANCH  24  25
ATOM     25  C   UNL A   1      37.580  22.936  25.706  1.00  0.00     0.116 C 
BRANCH  25  26
ATOM     26  N   UNL A   1      38.526  22.025  26.358  1.00  0.00    -0.352 N 
ATOM     27  C   UNL A   1      39.764  22.325  26.886  1.00  0.00     0.251 C 
ATOM     28  H   UNL A   1      38.242  21.084  26.426  1.00  0.00     0.163 HD
ATOM     29  O   UNL A   1      40.607  21.443  27.081  1.00  0.00    -0.269 OA
BRANCH  27  30
ATOM     30  C   UNL A   1      40.074  23.722  27.217  1.00  0.00     0.039 A 
ATOM     31  C   UNL A   1      39.200  24.774  26.923  1.00  0.00     0.014 A 
ATOM     32  C   UNL A   1      41.265  23.960  27.891  1.00  0.00     0.014 A 
ATOM     33  C   UNL A   1      39.501  26.051  27.393  1.00  0.00     0.010 A 
ATOM     34  C   UNL A   1      41.455  25.159  28.519  1.00  0.00     0.010 A 
ATOM     35  C   UNL A   1      40.628  26.232  28.210  1.00  0.00    -0.014 A 
BRANCH  35  36
ATOM     36  C   UNL A   1      40.945  27.527  28.802  1.00  0.00     0.031 A 
ATOM     37  C   UNL A   1      42.162  28.208  28.274  1.00  0.00     0.074 A 
ATOM     38  C   UNL A   1      40.062  28.181  29.590  1.00  0.00     0.049 A 
ATOM     39  N   UNL A   1      43.213  28.584  28.925  1.00  0.00    -0.248 NA
ATOM     40  C   UNL A   1      42.254  28.432  26.822  1.00  0.00     0.031 C 
ATOM     41  C   UNL A   1      38.683  27.802  29.937  1.00  0.00     0.029 A 
ATOM     42  N   UNL A   1      40.179  29.409  30.158  1.00  0.00    -0.354 N 
ATOM     43  C   UNL A   1      44.037  29.234  28.004  1.00  0.00     0.074 A 
ATOM     44  C   UNL A   1      43.462  28.989  26.707  1.00  0.00     0.031 C 
ATOM     45  C   UNL A   1      38.028  28.876  30.427  1.00  0.00     0.029 A 
ATOM     46  C   UNL A   1      38.983  29.949  30.610  1.00  0.00     0.049 A 
ATOM     47  H   UNL A   1      41.041  29.878  30.242  1.00  0.00     0.167 HD
ATOM     48  C   UNL A   1      45.016  30.093  28.407  1.00  0.00     0.037 A 
ATOM     49  C   UNL A   1      38.788  31.205  31.076  1.00  0.00     0.037 A 
ATOM     50  C   UNL A   1      45.329  29.908  29.801  1.00  0.00     0.049 A 
ATOM     51  C   UNL A   1      40.118  31.745  31.453  1.00  0.00     0.074 A 
ATOM     52  C   UNL A   1      45.810  28.854  30.553  1.00  0.00     0.029 A 
ATOM     53  N   UNL A   1      44.806  30.795  30.710  1.00  0.00    -0.354 N 
ATOM     54  N   UNL A   1      40.832  31.287  32.443  1.00  0.00    -0.248 NA
ATOM     55  C   UNL A   1      40.854  32.482  30.437  1.00  0.00     0.031 C 
ATOM     56  C   UNL A   1      45.092  28.924  31.784  1.00  0.00     0.029 A 
ATOM     57  C   UNL A   1      44.270  30.051  31.729  1.00  0.00     0.049 A 
ATOM     58  H   UNL A   1      44.816  31.777  30.643  1.00  0.00     0.167 HD
ATOM     59  C   UNL A   1      42.138  31.303  31.974  1.00  0.00     0.074 A 
ATOM     60  C   UNL A   1      42.099  32.129  30.769  1.00  0.00     0.031 C 
ATOM     61  C   UNL A   1      43.067  30.416  32.439  1.00  0.00     0.037 A 
BRANCH  48  62
ATOM     62  C   UNL A   1      45.457  31.322  27.647  1.00  0.00     0.064 A 
ATOM     63  C   UNL A   1      46.794  31.414  27.201  1.00  0.00     0.173 A 
ATOM     64  C   UNL A   1      44.721  32.525  27.602  1.00  0.00     0.173 A 
ATOM     65  F   UNL A   1      47.593  30.338  27.208  1.00  0.00    -0.203 F 
ATOM     66  C   UNL A   1      47.368  32.634  26.829  1.00  0.00     0.198 A 
ATOM     67  C   UNL A   1      45.283  33.729  27.178  1.00  0.00     0.198 A 
ATOM     68  F   UNL A   1      43.471  32.614  28.069  1.00  0.00    -0.203 F 
ATOM     69  F   UNL A   1      48.675  32.693  26.541  1.00  0.00    -0.200 F 
ATOM     70  C   UNL A   1      46.614  33.792  26.825  1.00  0.00     0.200 A 
ATOM     71  F   UNL A   1      44.538  34.845  27.195  1.00  0.00    -0.200 F 
ATOM     72  F   UNL A   1      47.177  34.972  26.532  1.00  0.00    -0.200 F 
ENDBRANCH  48  62
BRANCH  49  73
ATOM     73  C   UNL A   1      37.587  32.057  30.924  1.00  0.00     0.064 A 
ATOM     74  C   UNL A   1      37.284  32.670  29.700  1.00  0.00     0.173 A 
ATOM     75  C   UNL A   1      36.570  32.061  31.901  1.00  0.00     0.173 A 
ATOM     76  F   UNL A   1      38.182  32.669  28.706  1.00  0.00    -0.203 F 
ATOM     77  C   UNL A   1      36.026  33.231  29.455  1.00  0.00     0.198 A 
ATOM     78  C   UNL A   1      35.318  32.627  31.657  1.00  0.00     0.198 A 
ATOM     79  F   UNL A   1      36.738  31.432  33.072  1.00  0.00    -0.203 F 
ATOM     80  F   UNL A   1      35.749  33.751  28.251  1.00  0.00    -0.200 F 
ATOM     81  C   UNL A   1      35.041  33.200  30.429  1.00  0.00     0.200 A 
ATOM     82  F   UNL A   1      34.363  32.555  32.595  1.00  0.00    -0.200 F 
ATOM     83  F   UNL A   1      33.816  33.678  30.172  1.00  0.00    -0.200 F 
ENDBRANCH  49  73
BRANCH  61  84
ATOM     84  C   UNL A   1      42.705  29.580  33.636  1.00  0.00     0.064 A 
ATOM     85  C   UNL A   1      42.084  28.321  33.558  1.00  0.00     0.173 A 
ATOM     86  C   UNL A   1      43.142  30.001  34.899  1.00  0.00     0.173 A 
ATOM     87  F   UNL A   1      41.733  27.797  32.379  1.00  0.00    -0.203 F 
ATOM     88  C   UNL A   1      41.868  27.544  34.696  1.00  0.00     0.198 A 
ATOM     89  C   UNL A   1      42.958  29.207  36.029  1.00  0.00     0.198 A 
ATOM     90  F   UNL A   1      43.794  31.166  35.030  1.00  0.00    -0.203 F 
ATOM     91  F   UNL A   1      41.263  26.352  34.591  1.00  0.00    -0.200 F 
ATOM     92  C   UNL A   1      42.312  27.986  35.929  1.00  0.00     0.200 A 
ATOM     93  F   UNL A   1      43.435  29.616  37.213  1.00  0.00    -0.200 F 
ATOM     94  F   UNL A   1      42.144  27.222  37.018  1.00  0.00    -0.200 F 
ENDBRANCH  61  84
ENDBRANCH  35  36
ENDBRANCH  27  30
ENDBRANCH  25  26
ENDBRANCH  24  25
ENDBRANCH   1  24
TORSDOF 15
ENDMDL
