MODEL 1
REMARK VINA RESULT:     -13.4      0.000      0.000
REMARK SMILES Cc1cc2nc(NC(=O)[C@H]3[C@@H](C(=O)NCCCCCCNC(=O)c4ccc(-c5c6nc(c(-c7c(F)c(F)c(F)c(F)c7F)c7ccc([nH]7)c(-c7c(F)c(F)c(F)c(F)c7F)c7nc(c(-c8c(F)c(F)c(F)c(F)c8F)c8ccc5[nH]8)C=C7)C=C6)cc4)[C@@H]4C=C[C@H]3C4)sc2cc1C
REMARK SMILES IDX 17 1 16 2 15 3 14 4 12 5 13 6 11 8 10 9 90 10 87 11 89 12
REMARK SMILES IDX 91 13 88 14 8 15 7 16 9 18 6 19 1 20 2 21 3 22 95 23 4 24
REMARK SMILES IDX 94 25 96 26 5 27 93 28 92 29 18 30 19 31 20 32 21 33 22 34
REMARK SMILES IDX 23 36 24 37 25 38 86 39 26 40 85 41 27 42 28 43 29 44 79 45
REMARK SMILES IDX 30 46 84 47 78 48 80 49 31 50 83 51 77 52 76 53 32 55 64 56
REMARK SMILES IDX 44 57 63 58 45 59 48 60 62 61 81 62 46 63 47 64 61 66 82 67
REMARK SMILES IDX 49 68 33 69 34 70 42 71 35 72 36 73 40 74 43 75 37 76 38 77
REMARK SMILES IDX 41 78 39 79 65 80 66 81 74 82 67 83 68 84 72 85 75 86 69 87
REMARK SMILES IDX 70 88 73 89 71 90 50 91 51 92 59 93 52 94 53 95 57 96 60 97
REMARK SMILES IDX 54 98 55 99 58 100 56 101
REMARK H PARENT 14 7 7 17 21 35 80 54 48 65
REMARK Flexibility Score: inf
ROOT
ATOM      1  C   UNL A   1      32.924  29.098  27.008  1.00  0.00     0.002 C 
ENDROOT
BRANCH   1   2
ATOM      2  C   UNL A   1      33.154  29.106  25.493  1.00  0.00     0.021 C 
BRANCH   2   3
ATOM      3  C   UNL A   1      33.663  27.796  24.889  1.00  0.00     0.116 C 
BRANCH   3   4
ATOM      4  N   UNL A   1      33.309  26.643  25.688  1.00  0.00    -0.356 N 
ATOM      5  C   UNL A   1      33.690  25.349  25.701  1.00  0.00     0.224 C 
ATOM      6  O   UNL A   1      33.073  24.635  26.503  1.00  0.00    -0.275 OA
ATOM      7  H   UNL A   1      32.637  26.849  26.378  1.00  0.00     0.163 HD
BRANCH   5   8
ATOM      8  C   UNL A   1      34.800  24.718  24.869  1.00  0.00     0.098 C 
ATOM      9  C   UNL A   1      34.426  24.154  23.449  1.00  0.00     0.099 C 
ATOM     10  C   UNL A   1      35.214  22.827  23.419  1.00  0.00     0.025 C 
ATOM     11  C   UNL A   1      35.683  23.603  25.480  1.00  0.00     0.025 C 
ATOM     12  C   UNL A   1      36.704  23.136  23.468  1.00  0.00    -0.027 C 
ATOM     13  C   UNL A   1      35.090  22.340  24.866  1.00  0.00     0.017 C 
ATOM     14  C   UNL A   1      36.987  23.579  24.703  1.00  0.00    -0.027 C 
BRANCH   9  15
ATOM     15  C   UNL A   1      32.944  24.311  23.061  1.00  0.00     0.230 C 
ATOM     16  N   UNL A   1      31.927  23.428  23.180  1.00  0.00    -0.302 N 
ATOM     17  H   UNL A   1      31.030  23.813  23.050  1.00  0.00     0.172 HD
ATOM     18  O   UNL A   1      32.588  25.432  22.656  1.00  0.00    -0.274 OA
BRANCH  16  19
ATOM     19  C   UNL A   1      31.940  22.100  23.449  1.00  0.00     0.190 A 
ATOM     20  C   UNL A   1      33.970  16.557  22.842  1.00  0.00     0.044 C 
ATOM     21  C   UNL A   1      33.310  17.724  23.527  1.00  0.00    -0.046 A 
ATOM     22  C   UNL A   1      32.874  18.786  22.726  1.00  0.00     0.033 A 
ATOM     23  C   UNL A   1      33.146  17.800  24.922  1.00  0.00    -0.047 A 
ATOM     24  C   UNL A   1      32.395  19.968  23.312  1.00  0.00     0.084 A 
ATOM     25  C   UNL A   1      32.619  18.970  25.518  1.00  0.00     0.025 A 
ATOM     26  C   UNL A   1      33.500  16.655  25.835  1.00  0.00     0.044 C 
ATOM     27  N   UNL A   1      32.081  21.112  22.621  1.00  0.00    -0.220 NA
ATOM     28  C   UNL A   1      32.297  20.061  24.696  1.00  0.00     0.057 A 
ATOM     29  S   UNL A   1      31.785  21.667  25.094  1.00  0.00    -0.097 S 
ENDBRANCH  16  19
ENDBRANCH   9  15
ENDBRANCH   5   8
ENDBRANCH   3   4
ENDBRANCH   2   3
ENDBRANCH   1   2
BRANCH   1  30
ATOM     30  C   UNL A   1      34.170  29.285  27.875  1.00  0.00     0.002 C 
BRANCH  30  31
ATOM     31  C   UNL A   1      35.053  30.491  27.538  1.00  0.00     0.021 C 
BRANCH  31  32
ATOM     32  C   UNL A   1      34.485  31.856  27.942  1.00  0.00     0.116 C 
BRANCH  32  33
ATOM     33  N   UNL A   1      34.485  32.104  29.368  1.00  0.00    -0.352 N 
ATOM     34  C   UNL A   1      35.337  31.833  30.410  1.00  0.00     0.251 C 
ATOM     35  H   UNL A   1      33.678  32.585  29.662  1.00  0.00     0.163 HD
ATOM     36  O   UNL A   1      35.068  32.358  31.480  1.00  0.00    -0.269 OA
BRANCH  34  37
ATOM     37  C   UNL A   1      36.518  30.922  30.336  1.00  0.00     0.039 A 
ATOM     38  C   UNL A   1      36.525  29.573  30.676  1.00  0.00     0.014 A 
ATOM     39  C   UNL A   1      37.734  31.513  29.932  1.00  0.00     0.014 A 
ATOM     40  C   UNL A   1      37.717  28.854  30.686  1.00  0.00     0.010 A 
ATOM     41  C   UNL A   1      38.928  30.792  29.919  1.00  0.00     0.010 A 
ATOM     42  C   UNL A   1      38.926  29.466  30.329  1.00  0.00    -0.014 A 
BRANCH  42  43
ATOM     43  C   UNL A   1      40.120  28.618  30.320  1.00  0.00     0.031 A 
ATOM     44  C   UNL A   1      40.813  28.497  31.632  1.00  0.00     0.074 A 
ATOM     45  C   UNL A   1      40.593  27.938  29.255  1.00  0.00     0.049 A 
ATOM     46  N   UNL A   1      41.995  28.919  31.944  1.00  0.00    -0.248 NA
ATOM     47  C   UNL A   1      40.070  27.906  32.754  1.00  0.00     0.031 C 
ATOM     48  C   UNL A   1      39.921  27.691  27.980  1.00  0.00     0.029 A 
ATOM     49  N   UNL A   1      41.777  27.259  29.125  1.00  0.00    -0.354 N 
ATOM     50  C   UNL A   1      42.217  28.507  33.255  1.00  0.00     0.074 A 
ATOM     51  C   UNL A   1      40.965  27.987  33.740  1.00  0.00     0.031 C 
ATOM     52  C   UNL A   1      40.614  26.761  27.284  1.00  0.00     0.029 A 
ATOM     53  C   UNL A   1      41.851  26.467  27.990  1.00  0.00     0.049 A 
ATOM     54  H   UNL A   1      42.509  27.328  29.780  1.00  0.00     0.167 HD
ATOM     55  C   UNL A   1      43.478  28.428  33.764  1.00  0.00     0.037 A 
ATOM     56  C   UNL A   1      42.847  25.613  27.650  1.00  0.00     0.037 A 
ATOM     57  C   UNL A   1      44.427  29.135  32.951  1.00  0.00     0.049 A 
ATOM     58  C   UNL A   1      44.090  26.041  28.328  1.00  0.00     0.074 A 
ATOM     59  C   UNL A   1      44.872  30.429  32.803  1.00  0.00     0.029 A 
ATOM     60  N   UNL A   1      44.888  28.420  31.882  1.00  0.00    -0.354 N 
ATOM     61  N   UNL A   1      44.743  27.130  28.033  1.00  0.00    -0.248 NA
ATOM     62  C   UNL A   1      44.532  25.355  29.540  1.00  0.00     0.031 C 
ATOM     63  C   UNL A   1      45.496  30.497  31.520  1.00  0.00     0.029 A 
ATOM     64  C   UNL A   1      45.413  29.243  30.923  1.00  0.00     0.049 A 
ATOM     65  H   UNL A   1      44.846  27.439  31.811  1.00  0.00     0.167 HD
ATOM     66  C   UNL A   1      45.372  27.475  29.209  1.00  0.00     0.074 A 
ATOM     67  C   UNL A   1      45.373  26.272  30.025  1.00  0.00     0.031 C 
ATOM     68  C   UNL A   1      45.513  28.783  29.560  1.00  0.00     0.037 A 
BRANCH  55  69
ATOM     69  C   UNL A   1      43.955  27.368  34.733  1.00  0.00     0.064 A 
ATOM     70  C   UNL A   1      43.935  26.013  34.337  1.00  0.00     0.173 A 
ATOM     71  C   UNL A   1      44.100  27.594  36.117  1.00  0.00     0.173 A 
ATOM     72  F   UNL A   1      43.777  25.680  33.047  1.00  0.00    -0.203 F 
ATOM     73  C   UNL A   1      43.989  24.969  35.266  1.00  0.00     0.198 A 
ATOM     74  C   UNL A   1      44.206  26.549  37.036  1.00  0.00     0.198 A 
ATOM     75  F   UNL A   1      44.029  28.822  36.645  1.00  0.00    -0.203 F 
ATOM     76  F   UNL A   1      43.849  23.702  34.854  1.00  0.00    -0.200 F 
ATOM     77  C   UNL A   1      44.121  25.238  36.616  1.00  0.00     0.200 A 
ATOM     78  F   UNL A   1      44.309  26.829  38.343  1.00  0.00    -0.200 F 
ATOM     79  F   UNL A   1      44.117  24.244  37.512  1.00  0.00    -0.200 F 
ENDBRANCH  55  69
BRANCH  56  80
ATOM     80  C   UNL A   1      42.789  24.349  26.882  1.00  0.00     0.064 A 
ATOM     81  C   UNL A   1      43.340  24.263  25.592  1.00  0.00     0.173 A 
ATOM     82  C   UNL A   1      42.470  23.132  27.512  1.00  0.00     0.173 A 
ATOM     83  F   UNL A   1      43.698  25.375  24.932  1.00  0.00    -0.203 F 
ATOM     84  C   UNL A   1      43.611  23.032  24.991  1.00  0.00     0.198 A 
ATOM     85  C   UNL A   1      42.730  21.902  26.906  1.00  0.00     0.198 A 
ATOM     86  F   UNL A   1      41.995  23.111  28.765  1.00  0.00    -0.203 F 
ATOM     87  F   UNL A   1      44.217  22.991  23.796  1.00  0.00    -0.200 F 
ATOM     88  C   UNL A   1      43.321  21.852  25.656  1.00  0.00     0.200 A 
ATOM     89  F   UNL A   1      42.473  20.767  27.570  1.00  0.00    -0.200 F 
ATOM     90  F   UNL A   1      43.651  20.672  25.114  1.00  0.00    -0.200 F 
ENDBRANCH  56  80
BRANCH  68  91
ATOM     91  C   UNL A   1      45.543  29.789  28.459  1.00  0.00     0.064 A 
ATOM     92  C   UNL A   1      44.396  30.347  27.873  1.00  0.00     0.173 A 
ATOM     93  C   UNL A   1      46.792  30.246  28.019  1.00  0.00     0.173 A 
ATOM     94  F   UNL A   1      43.171  30.012  28.299  1.00  0.00    -0.203 F 
ATOM     95  C   UNL A   1      44.504  31.294  26.855  1.00  0.00     0.198 A 
ATOM     96  C   UNL A   1      46.895  31.217  27.029  1.00  0.00     0.198 A 
ATOM     97  F   UNL A   1      47.916  29.772  28.578  1.00  0.00    -0.203 F 
ATOM     98  F   UNL A   1      43.398  31.803  26.293  1.00  0.00    -0.200 F 
ATOM     99  C   UNL A   1      45.752  31.731  26.439  1.00  0.00     0.200 A 
ATOM    100  F   UNL A   1      48.102  31.666  26.659  1.00  0.00    -0.200 F 
ATOM    101  F   UNL A   1      45.853  32.666  25.484  1.00  0.00    -0.200 F 
ENDBRANCH  68  91
ENDBRANCH  42  43
ENDBRANCH  34  37
ENDBRANCH  32  33
ENDBRANCH  31  32
ENDBRANCH  30  31
ENDBRANCH   1  30
TORSDOF 15
ENDMDL
MODEL 2
REMARK VINA RESULT:     -13.4      3.012      8.900
REMARK SMILES Cc1cc2nc(NC(=O)[C@H]3[C@@H](C(=O)NCCCCCCNC(=O)c4ccc(-c5c6nc(c(-c7c(F)c(F)c(F)c(F)c7F)c7ccc([nH]7)c(-c7c(F)c(F)c(F)c(F)c7F)c7nc(c(-c8c(F)c(F)c(F)c(F)c8F)c8ccc5[nH]8)C=C7)C=C6)cc4)[C@@H]4C=C[C@H]3C4)sc2cc1C
REMARK SMILES IDX 17 1 16 2 15 3 14 4 12 5 13 6 11 8 10 9 90 10 87 11 89 12
REMARK SMILES IDX 91 13 88 14 8 15 7 16 9 18 6 19 1 20 2 21 3 22 95 23 4 24
REMARK SMILES IDX 94 25 96 26 5 27 93 28 92 29 18 30 19 31 20 32 21 33 22 34
REMARK SMILES IDX 23 36 24 37 25 38 86 39 26 40 85 41 27 42 28 43 29 44 79 45
REMARK SMILES IDX 30 46 84 47 78 48 80 49 31 50 83 51 77 52 76 53 32 55 64 56
REMARK SMILES IDX 44 57 63 58 45 59 48 60 62 61 81 62 46 63 47 64 61 66 82 67
REMARK SMILES IDX 49 68 33 69 34 70 42 71 35 72 36 73 40 74 43 75 37 76 38 77
REMARK SMILES IDX 41 78 39 79 65 80 66 81 74 82 67 83 68 84 72 85 75 86 69 87
REMARK SMILES IDX 70 88 73 89 71 90 50 91 51 92 59 93 52 94 53 95 57 96 60 97
REMARK SMILES IDX 54 98 55 99 58 100 56 101
REMARK H PARENT 14 7 7 17 21 35 80 54 48 65
REMARK Flexibility Score: inf
ROOT
ATOM      1  C   UNL A   1      40.177  21.409  26.816  1.00  0.00     0.002 C 
ENDROOT
BRANCH   1   2
ATOM      2  C   UNL A   1      39.244  22.122  25.831  1.00  0.00     0.021 C 
BRANCH   2   3
ATOM      3  C   UNL A   1      37.818  21.573  25.746  1.00  0.00     0.116 C 
BRANCH   3   4
ATOM      4  N   UNL A   1      36.841  22.478  26.313  1.00  0.00    -0.356 N 
ATOM      5  C   UNL A   1      35.506  22.624  26.191  1.00  0.00     0.224 C 
ATOM      6  O   UNL A   1      35.036  23.603  26.787  1.00  0.00    -0.275 OA
ATOM      7  H   UNL A   1      37.243  23.137  26.926  1.00  0.00     0.163 HD
BRANCH   5   8
ATOM      8  C   UNL A   1      34.554  21.703  25.438  1.00  0.00     0.098 C 
ATOM      9  C   UNL A   1      34.460  21.859  23.876  1.00  0.00     0.099 C 
ATOM     10  C   UNL A   1      32.940  21.739  23.638  1.00  0.00     0.025 C 
ATOM     11  C   UNL A   1      33.075  21.595  25.880  1.00  0.00     0.025 C 
ATOM     12  C   UNL A   1      32.485  20.343  24.039  1.00  0.00    -0.027 C 
ATOM     13  C   UNL A   1      32.360  22.466  24.855  1.00  0.00     0.017 C 
ATOM     14  C   UNL A   1      32.546  20.264  25.377  1.00  0.00    -0.027 C 
BRANCH   9  15
ATOM     15  C   UNL A   1      35.365  22.953  23.280  1.00  0.00     0.230 C 
ATOM     16  N   UNL A   1      35.155  24.286  23.189  1.00  0.00    -0.302 N 
ATOM     17  H   UNL A   1      35.952  24.812  22.950  1.00  0.00     0.172 HD
ATOM     18  O   UNL A   1      36.494  22.597  22.896  1.00  0.00    -0.274 OA
BRANCH  16  19
ATOM     19  C   UNL A   1      34.028  25.015  23.374  1.00  0.00     0.190 A 
ATOM     20  C   UNL A   1      31.027  29.868  25.003  1.00  0.00     0.044 C 
ATOM     21  C   UNL A   1      31.298  28.595  24.247  1.00  0.00    -0.046 A 
ATOM     22  C   UNL A   1      32.269  27.727  24.761  1.00  0.00     0.033 A 
ATOM     23  C   UNL A   1      30.645  28.264  23.045  1.00  0.00    -0.047 A 
ATOM     24  C   UNL A   1      32.680  26.604  24.025  1.00  0.00     0.084 A 
ATOM     25  C   UNL A   1      31.020  27.108  22.321  1.00  0.00     0.025 A 
ATOM     26  C   UNL A   1      29.523  29.099  22.486  1.00  0.00     0.044 C 
ATOM     27  N   UNL A   1      33.719  25.778  24.376  1.00  0.00    -0.220 NA
ATOM     28  C   UNL A   1      32.075  26.320  22.806  1.00  0.00     0.057 A 
ATOM     29  S   UNL A   1      32.879  24.952  22.112  1.00  0.00    -0.097 S 
ENDBRANCH  16  19
ENDBRANCH   9  15
ENDBRANCH   5   8
ENDBRANCH   3   4
ENDBRANCH   2   3
ENDBRANCH   1   2
BRANCH   1  30
ATOM     30  C   UNL A   1      40.796  20.100  26.323  1.00  0.00     0.002 C 
BRANCH  30  31
ATOM     31  C   UNL A   1      42.221  19.805  26.803  1.00  0.00     0.021 C 
BRANCH  31  32
ATOM     32  C   UNL A   1      42.903  18.603  26.141  1.00  0.00     0.116 C 
BRANCH  32  33
ATOM     33  N   UNL A   1      43.822  18.949  25.077  1.00  0.00    -0.352 N 
ATOM     34  C   UNL A   1      44.540  20.064  24.727  1.00  0.00     0.251 C 
ATOM     35  H   UNL A   1      43.970  18.200  24.455  1.00  0.00     0.163 HD
ATOM     36  O   UNL A   1      45.359  19.923  23.831  1.00  0.00    -0.269 OA
BRANCH  34  37
ATOM     37  C   UNL A   1      44.357  21.422  25.322  1.00  0.00     0.039 A 
ATOM     38  C   UNL A   1      45.036  21.922  26.429  1.00  0.00     0.014 A 
ATOM     39  C   UNL A   1      43.369  22.233  24.725  1.00  0.00     0.014 A 
ATOM     40  C   UNL A   1      44.691  23.157  26.970  1.00  0.00     0.010 A 
ATOM     41  C   UNL A   1      43.034  23.482  25.249  1.00  0.00     0.010 A 
ATOM     42  C   UNL A   1      43.675  23.932  26.396  1.00  0.00    -0.014 A 
BRANCH  42  43
ATOM     43  C   UNL A   1      43.416  25.239  27.003  1.00  0.00     0.031 A 
ATOM     44  C   UNL A   1      44.456  26.271  26.738  1.00  0.00     0.074 A 
ATOM     45  C   UNL A   1      42.326  25.567  27.727  1.00  0.00     0.049 A 
ATOM     46  N   UNL A   1      45.247  26.834  27.591  1.00  0.00    -0.248 NA
ATOM     47  C   UNL A   1      44.698  26.665  25.342  1.00  0.00     0.031 C 
ATOM     48  C   UNL A   1      41.080  24.814  27.862  1.00  0.00     0.029 A 
ATOM     49  N   UNL A   1      42.087  26.705  28.454  1.00  0.00    -0.354 N 
ATOM     50  C   UNL A   1      45.981  27.775  26.873  1.00  0.00     0.074 A 
ATOM     51  C   UNL A   1      45.683  27.553  25.482  1.00  0.00     0.031 C 
ATOM     52  C   UNL A   1      40.148  25.594  28.455  1.00  0.00     0.029 A 
ATOM     53  C   UNL A   1      40.774  26.837  28.880  1.00  0.00     0.049 A 
ATOM     54  H   UNL A   1      42.785  27.370  28.655  1.00  0.00     0.167 HD
ATOM     55  C   UNL A   1      46.610  28.807  27.501  1.00  0.00     0.037 A 
ATOM     56  C   UNL A   1      40.224  27.894  29.525  1.00  0.00     0.037 A 
ATOM     57  C   UNL A   1      46.716  28.585  28.916  1.00  0.00     0.049 A 
ATOM     58  C   UNL A   1      41.299  28.637  30.219  1.00  0.00     0.074 A 
ATOM     59  C   UNL A   1      47.557  27.919  29.778  1.00  0.00     0.029 A 
ATOM     60  N   UNL A   1      45.598  28.927  29.621  1.00  0.00    -0.354 N 
ATOM     61  N   UNL A   1      41.952  28.180  31.250  1.00  0.00    -0.248 NA
ATOM     62  C   UNL A   1      41.838  29.859  29.627  1.00  0.00     0.031 C 
ATOM     63  C   UNL A   1      46.832  27.743  30.996  1.00  0.00     0.029 A 
ATOM     64  C   UNL A   1      45.570  28.307  30.841  1.00  0.00     0.049 A 
ATOM     65  H   UNL A   1      44.901  29.540  29.293  1.00  0.00     0.167 HD
ATOM     66  C   UNL A   1      43.179  28.801  31.173  1.00  0.00     0.074 A 
ATOM     67  C   UNL A   1      42.989  29.946  30.297  1.00  0.00     0.031 C 
ATOM     68  C   UNL A   1      44.313  28.138  31.529  1.00  0.00     0.037 A 
BRANCH  55  69
ATOM     69  C   UNL A   1      46.740  30.208  26.945  1.00  0.00     0.064 A 
ATOM     70  C   UNL A   1      47.989  30.862  27.009  1.00  0.00     0.173 A 
ATOM     71  C   UNL A   1      45.633  31.038  26.672  1.00  0.00     0.173 A 
ATOM     72  F   UNL A   1      49.108  30.175  27.285  1.00  0.00    -0.203 F 
ATOM     73  C   UNL A   1      48.106  32.249  26.877  1.00  0.00     0.198 A 
ATOM     74  C   UNL A   1      45.762  32.415  26.489  1.00  0.00     0.198 A 
ATOM     75  F   UNL A   1      44.378  30.572  26.688  1.00  0.00    -0.203 F 
ATOM     76  F   UNL A   1      49.295  32.839  27.062  1.00  0.00    -0.200 F 
ATOM     77  C   UNL A   1      46.991  33.026  26.621  1.00  0.00     0.200 A 
ATOM     78  F   UNL A   1      44.666  33.154  26.265  1.00  0.00    -0.200 F 
ATOM     79  F   UNL A   1      47.091  34.358  26.549  1.00  0.00    -0.200 F 
ENDBRANCH  55  69
BRANCH  56  80
ATOM     80  C   UNL A   1      38.838  28.412  29.482  1.00  0.00     0.064 A 
ATOM     81  C   UNL A   1      38.093  28.579  30.663  1.00  0.00     0.173 A 
ATOM     82  C   UNL A   1      38.332  29.035  28.326  1.00  0.00     0.173 A 
ATOM     83  F   UNL A   1      38.520  28.041  31.815  1.00  0.00    -0.203 F 
ATOM     84  C   UNL A   1      36.944  29.371  30.699  1.00  0.00     0.198 A 
ATOM     85  C   UNL A   1      37.177  29.817  28.361  1.00  0.00     0.198 A 
ATOM     86  F   UNL A   1      39.004  28.981  27.168  1.00  0.00    -0.203 F 
ATOM     87  F   UNL A   1      36.311  29.577  31.862  1.00  0.00    -0.200 F 
ATOM     88  C   UNL A   1      36.496  30.003  29.551  1.00  0.00     0.200 A 
ATOM     89  F   UNL A   1      36.769  30.447  27.251  1.00  0.00    -0.200 F 
ATOM     90  F   UNL A   1      35.438  30.824  29.599  1.00  0.00    -0.200 F 
ENDBRANCH  56  80
BRANCH  68  91
ATOM     91  C   UNL A   1      44.178  27.032  32.521  1.00  0.00     0.064 A 
ATOM     92  C   UNL A   1      44.018  27.229  33.902  1.00  0.00     0.173 A 
ATOM     93  C   UNL A   1      44.156  25.716  32.041  1.00  0.00     0.173 A 
ATOM     94  F   UNL A   1      43.953  28.464  34.418  1.00  0.00    -0.203 F 
ATOM     95  C   UNL A   1      43.885  26.145  34.767  1.00  0.00     0.198 A 
ATOM     96  C   UNL A   1      43.987  24.638  32.903  1.00  0.00     0.198 A 
ATOM     97  F   UNL A   1      44.265  25.479  30.724  1.00  0.00    -0.203 F 
ATOM     98  F   UNL A   1      43.752  26.351  36.085  1.00  0.00    -0.200 F 
ATOM     99  C   UNL A   1      43.864  24.852  34.267  1.00  0.00     0.200 A 
ATOM    100  F   UNL A   1      43.927  23.394  32.410  1.00  0.00    -0.200 F 
ATOM    101  F   UNL A   1      43.702  23.812  35.096  1.00  0.00    -0.200 F 
ENDBRANCH  68  91
ENDBRANCH  42  43
ENDBRANCH  34  37
ENDBRANCH  32  33
ENDBRANCH  31  32
ENDBRANCH  30  31
ENDBRANCH   1  30
TORSDOF 15
ENDMDL
MODEL 3
REMARK VINA RESULT:     -13.3      3.682      9.324
REMARK SMILES Cc1cc2nc(NC(=O)[C@H]3[C@@H](C(=O)NCCCCCCNC(=O)c4ccc(-c5c6nc(c(-c7c(F)c(F)c(F)c(F)c7F)c7ccc([nH]7)c(-c7c(F)c(F)c(F)c(F)c7F)c7nc(c(-c8c(F)c(F)c(F)c(F)c8F)c8ccc5[nH]8)C=C7)C=C6)cc4)[C@@H]4C=C[C@H]3C4)sc2cc1C
REMARK SMILES IDX 17 1 16 2 15 3 14 4 12 5 13 6 11 8 10 9 90 10 87 11 89 12
REMARK SMILES IDX 91 13 88 14 8 15 7 16 9 18 6 19 1 20 2 21 3 22 95 23 4 24
REMARK SMILES IDX 94 25 96 26 5 27 93 28 92 29 18 30 19 31 20 32 21 33 22 34
REMARK SMILES IDX 23 36 24 37 25 38 86 39 26 40 85 41 27 42 28 43 29 44 79 45
REMARK SMILES IDX 30 46 84 47 78 48 80 49 31 50 83 51 77 52 76 53 32 55 64 56
REMARK SMILES IDX 44 57 63 58 45 59 48 60 62 61 81 62 46 63 47 64 61 66 82 67
REMARK SMILES IDX 49 68 33 69 34 70 42 71 35 72 36 73 40 74 43 75 37 76 38 77
REMARK SMILES IDX 41 78 39 79 65 80 66 81 74 82 67 83 68 84 72 85 75 86 69 87
REMARK SMILES IDX 70 88 73 89 71 90 50 91 51 92 59 93 52 94 53 95 57 96 60 97
REMARK SMILES IDX 54 98 55 99 58 100 56 101
REMARK H PARENT 14 7 7 17 21 35 80 54 48 65
REMARK Flexibility Score: inf
ROOT
ATOM      1  C   UNL A   1      37.604  22.175  25.122  1.00  0.00     0.002 C 
ENDROOT
BRANCH   1   2
ATOM      2  C   UNL A   1      36.702  22.288  23.887  1.00  0.00     0.021 C 
BRANCH   2   3
ATOM      3  C   UNL A   1      35.200  22.156  24.145  1.00  0.00     0.116 C 
BRANCH   3   4
ATOM      4  N   UNL A   1      34.409  22.958  23.236  1.00  0.00    -0.356 N 
ATOM      5  C   UNL A   1      33.165  23.478  23.273  1.00  0.00     0.224 C 
ATOM      6  O   UNL A   1      32.811  24.046  22.231  1.00  0.00    -0.275 OA
ATOM      7  H   UNL A   1      34.888  23.173  22.402  1.00  0.00     0.163 HD
BRANCH   5   8
ATOM      8  C   UNL A   1      32.204  23.458  24.454  1.00  0.00     0.098 C 
ATOM      9  C   UNL A   1      32.397  24.539  25.580  1.00  0.00     0.099 C 
ATOM     10  C   UNL A   1      32.182  23.703  26.860  1.00  0.00     0.025 C 
ATOM     11  C   UNL A   1      31.983  22.146  25.246  1.00  0.00     0.025 C 
ATOM     12  C   UNL A   1      30.747  23.194  26.883  1.00  0.00    -0.027 C 
ATOM     13  C   UNL A   1      32.834  22.367  26.491  1.00  0.00     0.017 C 
ATOM     14  C   UNL A   1      30.635  22.252  25.935  1.00  0.00    -0.027 C 
BRANCH   9  15
ATOM     15  C   UNL A   1      33.566  25.513  25.347  1.00  0.00     0.230 C 
ATOM     16  N   UNL A   1      33.545  26.789  24.901  1.00  0.00    -0.302 N 
ATOM     17  H   UNL A   1      34.390  27.280  25.019  1.00  0.00     0.172 HD
ATOM     18  O   UNL A   1      34.696  25.123  25.692  1.00  0.00    -0.274 OA
BRANCH  16  19
ATOM     19  C   UNL A   1      32.550  27.503  24.320  1.00  0.00     0.190 A 
ATOM     20  C   UNL A   1      26.879  28.644  22.997  1.00  0.00     0.044 C 
ATOM     21  C   UNL A   1      28.332  28.948  23.249  1.00  0.00    -0.046 A 
ATOM     22  C   UNL A   1      29.238  27.882  23.197  1.00  0.00     0.033 A 
ATOM     23  C   UNL A   1      28.801  30.237  23.561  1.00  0.00    -0.047 A 
ATOM     24  C   UNL A   1      30.577  28.069  23.575  1.00  0.00     0.084 A 
ATOM     25  C   UNL A   1      30.160  30.443  23.897  1.00  0.00     0.025 A 
ATOM     26  C   UNL A   1      27.902  31.446  23.537  1.00  0.00     0.044 C 
ATOM     27  N   UNL A   1      31.503  27.062  23.695  1.00  0.00    -0.220 NA
ATOM     28  C   UNL A   1      31.019  29.335  23.946  1.00  0.00     0.057 A 
ATOM     29  S   UNL A   1      32.669  29.202  24.455  1.00  0.00    -0.097 S 
ENDBRANCH  16  19
ENDBRANCH   9  15
ENDBRANCH   5   8
ENDBRANCH   3   4
ENDBRANCH   2   3
ENDBRANCH   1   2
BRANCH   1  30
ATOM     30  C   UNL A   1      37.819  23.466  25.913  1.00  0.00     0.002 C 
BRANCH  30  31
ATOM     31  C   UNL A   1      39.050  23.502  26.825  1.00  0.00     0.021 C 
BRANCH  31  32
ATOM     32  C   UNL A   1      39.931  22.248  26.791  1.00  0.00     0.116 C 
BRANCH  32  33
ATOM     33  N   UNL A   1      41.179  22.415  26.076  1.00  0.00    -0.352 N 
ATOM     34  C   UNL A   1      42.157  23.375  26.025  1.00  0.00     0.251 C 
ATOM     35  H   UNL A   1      41.374  21.652  25.484  1.00  0.00     0.163 HD
ATOM     36  O   UNL A   1      43.172  23.083  25.410  1.00  0.00    -0.269 OA
BRANCH  34  37
ATOM     37  C   UNL A   1      42.047  24.743  26.615  1.00  0.00     0.039 A 
ATOM     38  C   UNL A   1      42.401  25.098  27.913  1.00  0.00     0.014 A 
ATOM     39  C   UNL A   1      41.486  25.735  25.784  1.00  0.00     0.014 A 
ATOM     40  C   UNL A   1      42.136  26.377  28.392  1.00  0.00     0.010 A 
ATOM     41  C   UNL A   1      41.238  27.026  26.251  1.00  0.00     0.010 A 
ATOM     42  C   UNL A   1      41.534  27.340  27.571  1.00  0.00    -0.014 A 
BRANCH  42  43
ATOM     43  C   UNL A   1      41.341  28.673  28.145  1.00  0.00     0.031 A 
ATOM     44  C   UNL A   1      42.455  29.629  27.900  1.00  0.00     0.074 A 
ATOM     45  C   UNL A   1      40.249  29.085  28.822  1.00  0.00     0.049 A 
ATOM     46  N   UNL A   1      43.250  30.156  28.772  1.00  0.00    -0.248 NA
ATOM     47  C   UNL A   1      42.772  29.978  26.508  1.00  0.00     0.031 C 
ATOM     48  C   UNL A   1      38.952  28.417  28.923  1.00  0.00     0.029 A 
ATOM     49  N   UNL A   1      40.059  30.251  29.519  1.00  0.00    -0.354 N 
ATOM     50  C   UNL A   1      44.070  31.033  28.065  1.00  0.00     0.074 A 
ATOM     51  C   UNL A   1      43.808  30.803  26.668  1.00  0.00     0.031 C 
ATOM     52  C   UNL A   1      38.053  29.269  29.468  1.00  0.00     0.029 A 
ATOM     53  C   UNL A   1      38.744  30.476  29.894  1.00  0.00     0.049 A 
ATOM     54  H   UNL A   1      40.792  30.872  29.734  1.00  0.00     0.167 HD
ATOM     55  C   UNL A   1      44.743  32.034  28.699  1.00  0.00     0.037 A 
ATOM     56  C   UNL A   1      38.242  31.579  30.499  1.00  0.00     0.037 A 
ATOM     57  C   UNL A   1      44.783  31.833  30.120  1.00  0.00     0.049 A 
ATOM     58  C   UNL A   1      39.338  32.265  31.220  1.00  0.00     0.074 A 
ATOM     59  C   UNL A   1      45.547  31.131  31.024  1.00  0.00     0.029 A 
ATOM     60  N   UNL A   1      43.665  32.262  30.777  1.00  0.00    -0.354 N 
ATOM     61  N   UNL A   1      39.922  31.787  32.282  1.00  0.00    -0.248 NA
ATOM     62  C   UNL A   1      39.977  33.437  30.627  1.00  0.00     0.031 C 
ATOM     63  C   UNL A   1      44.768  31.028  32.217  1.00  0.00     0.029 A 
ATOM     64  C   UNL A   1      43.552  31.670  32.005  1.00  0.00     0.049 A 
ATOM     65  H   UNL A   1      43.023  32.912  30.412  1.00  0.00     0.167 HD
ATOM     66  C   UNL A   1      41.189  32.324  32.240  1.00  0.00     0.074 A 
ATOM     67  C   UNL A   1      41.107  33.462  31.338  1.00  0.00     0.031 C 
ATOM     68  C   UNL A   1      42.264  31.596  32.650  1.00  0.00     0.037 A 
BRANCH  55  69
ATOM     69  C   UNL A   1      44.985  33.412  28.123  1.00  0.00     0.064 A 
ATOM     70  C   UNL A   1      46.310  33.845  27.905  1.00  0.00     0.173 A 
ATOM     71  C   UNL A   1      44.003  34.425  28.102  1.00  0.00     0.173 A 
ATOM     72  F   UNL A   1      47.328  32.971  27.927  1.00  0.00    -0.203 F 
ATOM     73  C   UNL A   1      46.631  35.197  27.746  1.00  0.00     0.198 A 
ATOM     74  C   UNL A   1      44.322  35.767  27.891  1.00  0.00     0.198 A 
ATOM     75  F   UNL A   1      42.722  34.175  28.399  1.00  0.00    -0.203 F 
ATOM     76  F   UNL A   1      47.914  35.572  27.659  1.00  0.00    -0.200 F 
ATOM     77  C   UNL A   1      45.636  36.157  27.743  1.00  0.00     0.200 A 
ATOM     78  F   UNL A   1      43.347  36.686  27.915  1.00  0.00    -0.200 F 
ATOM     79  F   UNL A   1      45.945  37.456  27.646  1.00  0.00    -0.200 F 
ENDBRANCH  55  69
BRANCH  56  80
ATOM     80  C   UNL A   1      36.896  32.186  30.396  1.00  0.00     0.064 A 
ATOM     81  C   UNL A   1      35.964  32.059  31.442  1.00  0.00     0.173 A 
ATOM     82  C   UNL A   1      36.608  33.150  29.412  1.00  0.00     0.173 A 
ATOM     83  F   UNL A   1      36.176  31.182  32.435  1.00  0.00    -0.203 F 
ATOM     84  C   UNL A   1      34.844  32.887  31.530  1.00  0.00     0.198 A 
ATOM     85  C   UNL A   1      35.481  33.969  29.495  1.00  0.00     0.198 A 
ATOM     86  F   UNL A   1      37.465  33.383  28.409  1.00  0.00    -0.203 F 
ATOM     87  F   UNL A   1      34.027  32.794  32.589  1.00  0.00    -0.200 F 
ATOM     88  C   UNL A   1      34.612  33.853  30.565  1.00  0.00     0.200 A 
ATOM     89  F   UNL A   1      35.283  34.920  28.572  1.00  0.00    -0.200 F 
ATOM     90  F   UNL A   1      33.580  34.699  30.689  1.00  0.00    -0.200 F 
ENDBRANCH  56  80
BRANCH  68  91
ATOM     91  C   UNL A   1      42.021  30.521  33.655  1.00  0.00     0.064 A 
ATOM     92  C   UNL A   1      41.634  29.212  33.329  1.00  0.00     0.173 A 
ATOM     93  C   UNL A   1      42.244  30.821  35.006  1.00  0.00     0.173 A 
ATOM     94  F   UNL A   1      41.478  28.838  32.052  1.00  0.00    -0.203 F 
ATOM     95  C   UNL A   1      41.438  28.257  34.325  1.00  0.00     0.198 A 
ATOM     96  C   UNL A   1      42.082  29.856  35.993  1.00  0.00     0.198 A 
ATOM     97  F   UNL A   1      42.655  32.048  35.363  1.00  0.00    -0.203 F 
ATOM     98  F   UNL A   1      41.049  27.016  33.997  1.00  0.00    -0.200 F 
ATOM     99  C   UNL A   1      41.667  28.578  35.654  1.00  0.00     0.200 A 
ATOM    100  F   UNL A   1      42.345  30.160  37.271  1.00  0.00    -0.200 F 
ATOM    101  F   UNL A   1      41.511  27.649  36.607  1.00  0.00    -0.200 F 
ENDBRANCH  68  91
ENDBRANCH  42  43
ENDBRANCH  34  37
ENDBRANCH  32  33
ENDBRANCH  31  32
ENDBRANCH  30  31
ENDBRANCH   1  30
TORSDOF 15
ENDMDL
