MODEL 1
REMARK VINA RESULT:     -12.9      0.000      0.000
REMARK SMILES C[C@@H]1CN(S(=O)(=O)c2ccc(Cl)c(C(=O)NCCCCCCNC(=O)c3ccc(-c4c5nc(c(-c6c(F)c(F)c(F)c(F)c6F)c6ccc([nH]6)c(-c6c(F)c(F)c(F)c(F)c6F)c6nc(c(-c7c(F)c(F)c(F)c(F)c7F)c7ccc4[nH]7)C=C6)C=C5)cc3)c2Cl)C[C@H]1C
REMARK SMILES IDX 19 1 18 2 17 3 16 4 14 5 15 6 13 8 8 9 9 10 89 11 10 12
REMARK SMILES IDX 90 13 11 14 12 15 5 16 6 17 7 18 4 19 1 20 2 21 3 22 92 23
REMARK SMILES IDX 91 24 93 25 20 26 21 27 22 28 23 29 24 30 25 32 26 33 27 34
REMARK SMILES IDX 88 35 28 36 87 37 29 38 30 39 31 40 81 41 32 42 86 43 80 44
REMARK SMILES IDX 82 45 33 46 85 47 79 48 78 49 34 51 66 52 46 53 65 54 47 55
REMARK SMILES IDX 50 56 64 57 83 58 48 59 49 60 63 62 84 63 51 64 35 65 36 66
REMARK SMILES IDX 44 67 37 68 38 69 42 70 45 71 39 72 40 73 43 74 41 75 67 76
REMARK SMILES IDX 68 77 76 78 69 79 70 80 74 81 77 82 71 83 72 84 75 85 73 86
REMARK SMILES IDX 52 87 53 88 61 89 54 90 55 91 59 92 62 93 56 94 57 95 60 96
REMARK SMILES IDX 58 97
REMARK H PARENT 16 7 23 31 82 50 50 61
REMARK Flexibility Score: inf
ROOT
ATOM      1  C   UNL A   1      32.646  29.990  27.256  1.00  0.00     0.002 C 
ENDROOT
BRANCH   1   2
ATOM      2  C   UNL A   1      33.022  28.589  26.768  1.00  0.00     0.021 C 
BRANCH   2   3
ATOM      3  C   UNL A   1      34.276  28.506  25.879  1.00  0.00     0.116 C 
BRANCH   3   4
ATOM      4  N   UNL A   1      33.926  28.883  24.522  1.00  0.00    -0.352 N 
ATOM      5  C   UNL A   1      33.194  28.264  23.542  1.00  0.00     0.254 C 
ATOM      6  O   UNL A   1      33.408  28.619  22.381  1.00  0.00    -0.269 OA
ATOM      7  H   UNL A   1      34.288  29.758  24.251  1.00  0.00     0.163 HD
BRANCH   5   8
ATOM      8  C   UNL A   1      32.132  27.240  23.760  1.00  0.00     0.078 A 
ATOM      9  C   UNL A   1      31.632  25.066  24.790  1.00  0.00     0.102 A 
ATOM     10  C   UNL A   1      30.274  25.406  24.805  1.00  0.00     0.025 A 
ATOM     11  C   UNL A   1      32.558  25.948  24.203  1.00  0.00     0.075 A 
ATOM     12  C   UNL A   1      29.839  26.606  24.269  1.00  0.00     0.023 A 
ATOM     13  Cl  UNL A   1      34.193  25.439  23.898  1.00  0.00    -0.082 Cl
ATOM     14  C   UNL A   1      30.765  27.555  23.831  1.00  0.00     0.055 A 
ATOM     15  Cl  UNL A   1      30.065  29.106  23.585  1.00  0.00    -0.083 Cl
BRANCH   9  16
ATOM     16  S   UNL A   1      32.084  23.686  25.838  1.00  0.00     0.244 S 
ATOM     17  O   UNL A   1      30.867  23.261  26.504  1.00  0.00    -0.207 OA
ATOM     18  O   UNL A   1      33.245  24.020  26.631  1.00  0.00    -0.207 OA
BRANCH  16  19
ATOM     19  N   UNL A   1      32.519  22.421  24.774  1.00  0.00    -0.197 NA
ATOM     20  C   UNL A   1      32.870  18.725  25.325  1.00  0.00     0.009 C 
ATOM     21  C   UNL A   1      33.148  20.212  25.479  1.00  0.00     0.005 C 
ATOM     22  C   UNL A   1      31.962  21.068  25.052  1.00  0.00     0.106 C 
ATOM     23  C   UNL A   1      34.258  20.751  24.582  1.00  0.00     0.005 C 
ATOM     24  C   UNL A   1      34.012  22.263  24.654  1.00  0.00     0.106 C 
ATOM     25  C   UNL A   1      35.653  20.354  25.044  1.00  0.00     0.009 C 
ENDBRANCH  16  19
ENDBRANCH   9  16
ENDBRANCH   5   8
ENDBRANCH   3   4
ENDBRANCH   2   3
ENDBRANCH   1   2
BRANCH   1  26
ATOM     26  C   UNL A   1      31.563  30.694  26.438  1.00  0.00     0.002 C 
BRANCH  26  27
ATOM     27  C   UNL A   1      31.443  32.205  26.659  1.00  0.00     0.021 C 
BRANCH  27  28
ATOM     28  C   UNL A   1      32.679  32.874  27.260  1.00  0.00     0.116 C 
BRANCH  28  29
ATOM     29  N   UNL A   1      32.431  34.264  27.609  1.00  0.00    -0.352 N 
ATOM     30  C   UNL A   1      32.985  35.030  28.605  1.00  0.00     0.251 C 
ATOM     31  H   UNL A   1      31.768  34.725  27.046  1.00  0.00     0.163 HD
ATOM     32  O   UNL A   1      32.490  36.111  28.904  1.00  0.00    -0.269 OA
BRANCH  30  33
ATOM     33  C   UNL A   1      34.175  34.545  29.336  1.00  0.00     0.039 A 
ATOM     34  C   UNL A   1      34.010  33.981  30.605  1.00  0.00     0.014 A 
ATOM     35  C   UNL A   1      35.451  34.661  28.779  1.00  0.00     0.014 A 
ATOM     36  C   UNL A   1      35.117  33.464  31.282  1.00  0.00     0.010 A 
ATOM     37  C   UNL A   1      36.545  34.096  29.430  1.00  0.00     0.010 A 
ATOM     38  C   UNL A   1      36.386  33.480  30.680  1.00  0.00    -0.014 A 
BRANCH  38  39
ATOM     39  C   UNL A   1      37.551  32.819  31.319  1.00  0.00     0.031 A 
ATOM     40  C   UNL A   1      38.224  31.652  30.656  1.00  0.00     0.074 A 
ATOM     41  C   UNL A   1      37.943  33.218  32.545  1.00  0.00     0.049 A 
ATOM     42  N   UNL A   1      39.179  30.879  31.110  1.00  0.00    -0.248 NA
ATOM     43  C   UNL A   1      37.746  31.291  29.313  1.00  0.00     0.031 C 
ATOM     44  C   UNL A   1      37.342  34.313  33.307  1.00  0.00     0.029 A 
ATOM     45  N   UNL A   1      38.924  32.736  33.375  1.00  0.00    -0.354 N 
ATOM     46  C   UNL A   1      39.407  29.937  30.117  1.00  0.00     0.074 A 
ATOM     47  C   UNL A   1      38.464  30.207  29.052  1.00  0.00     0.031 C 
ATOM     48  C   UNL A   1      37.971  34.425  34.488  1.00  0.00     0.029 A 
ATOM     49  C   UNL A   1      38.989  33.384  34.584  1.00  0.00     0.049 A 
ATOM     50  H   UNL A   1      39.525  31.996  33.127  1.00  0.00     0.167 HD
ATOM     51  C   UNL A   1      40.332  28.947  30.091  1.00  0.00     0.037 A 
ATOM     52  C   UNL A   1      39.769  33.153  35.657  1.00  0.00     0.037 A 
ATOM     53  C   UNL A   1      41.280  28.694  31.144  1.00  0.00     0.049 A 
ATOM     54  C   UNL A   1      40.767  32.029  35.613  1.00  0.00     0.074 A 
ATOM     55  C   UNL A   1      42.304  27.763  31.179  1.00  0.00     0.029 A 
ATOM     56  N   UNL A   1      41.316  29.371  32.355  1.00  0.00    -0.354 N 
ATOM     57  N   UNL A   1      41.018  31.186  34.641  1.00  0.00    -0.248 NA
ATOM     58  C   UNL A   1      41.585  31.821  36.816  1.00  0.00     0.031 C 
ATOM     59  C   UNL A   1      42.927  27.844  32.429  1.00  0.00     0.029 A 
ATOM     60  C   UNL A   1      42.322  28.855  33.157  1.00  0.00     0.049 A 
ATOM     61  H   UNL A   1      40.715  30.110  32.607  1.00  0.00     0.167 HD
ATOM     62  C   UNL A   1      42.032  30.360  35.106  1.00  0.00     0.074 A 
ATOM     63  C   UNL A   1      42.363  30.816  36.441  1.00  0.00     0.031 C 
ATOM     64  C   UNL A   1      42.631  29.315  34.486  1.00  0.00     0.037 A 
BRANCH  51  65
ATOM     65  C   UNL A   1      40.367  28.059  28.881  1.00  0.00     0.064 A 
ATOM     66  C   UNL A   1      41.134  28.386  27.752  1.00  0.00     0.173 A 
ATOM     67  C   UNL A   1      39.665  26.845  28.869  1.00  0.00     0.173 A 
ATOM     68  F   UNL A   1      41.816  29.540  27.710  1.00  0.00    -0.203 F 
ATOM     69  C   UNL A   1      41.175  27.541  26.646  1.00  0.00     0.198 A 
ATOM     70  C   UNL A   1      39.731  25.989  27.772  1.00  0.00     0.198 A 
ATOM     71  F   UNL A   1      38.923  26.482  29.925  1.00  0.00    -0.203 F 
ATOM     72  F   UNL A   1      41.881  27.894  25.562  1.00  0.00    -0.200 F 
ATOM     73  C   UNL A   1      40.481  26.340  26.659  1.00  0.00     0.200 A 
ATOM     74  F   UNL A   1      39.069  24.824  27.792  1.00  0.00    -0.200 F 
ATOM     75  F   UNL A   1      40.530  25.525  25.597  1.00  0.00    -0.200 F 
ENDBRANCH  51  65
BRANCH  52  76
ATOM     76  C   UNL A   1      39.635  34.006  36.866  1.00  0.00     0.064 A 
ATOM     77  C   UNL A   1      40.317  35.226  36.964  1.00  0.00     0.173 A 
ATOM     78  C   UNL A   1      38.827  33.621  37.946  1.00  0.00     0.173 A 
ATOM     79  F   UNL A   1      41.120  35.626  35.966  1.00  0.00    -0.203 F 
ATOM     80  C   UNL A   1      40.208  36.022  38.101  1.00  0.00     0.198 A 
ATOM     81  C   UNL A   1      38.697  34.431  39.072  1.00  0.00     0.198 A 
ATOM     82  F   UNL A   1      38.151  32.464  37.902  1.00  0.00    -0.203 F 
ATOM     83  F   UNL A   1      40.903  37.164  38.186  1.00  0.00    -0.200 F 
ATOM     84  C   UNL A   1      39.393  35.628  39.152  1.00  0.00     0.200 A 
ATOM     85  F   UNL A   1      37.899  34.052  40.079  1.00  0.00    -0.200 F 
ATOM     86  F   UNL A   1      39.284  36.397  40.244  1.00  0.00    -0.200 F 
ENDBRANCH  52  76
BRANCH  64  87
ATOM     87  C   UNL A   1      43.710  28.598  35.243  1.00  0.00     0.064 A 
ATOM     88  C   UNL A   1      43.413  27.532  36.106  1.00  0.00     0.173 A 
ATOM     89  C   UNL A   1      45.057  28.955  35.078  1.00  0.00     0.173 A 
ATOM     90  F   UNL A   1      42.138  27.167  36.312  1.00  0.00    -0.203 F 
ATOM     91  C   UNL A   1      44.423  26.864  36.791  1.00  0.00     0.198 A 
ATOM     92  C   UNL A   1      46.067  28.265  35.743  1.00  0.00     0.198 A 
ATOM     93  F   UNL A   1      45.394  29.964  34.261  1.00  0.00    -0.203 F 
ATOM     94  F   UNL A   1      44.111  25.878  37.645  1.00  0.00    -0.200 F 
ATOM     95  C   UNL A   1      45.749  27.225  36.604  1.00  0.00     0.200 A 
ATOM     96  F   UNL A   1      47.349  28.608  35.553  1.00  0.00    -0.200 F 
ATOM     97  F   UNL A   1      46.721  26.576  37.260  1.00  0.00    -0.200 F 
ENDBRANCH  64  87
ENDBRANCH  38  39
ENDBRANCH  30  33
ENDBRANCH  28  29
ENDBRANCH  27  28
ENDBRANCH  26  27
ENDBRANCH   1  26
TORSDOF 15
ENDMDL
MODEL 2
REMARK VINA RESULT:     -12.8      0.740      2.115
REMARK SMILES C[C@@H]1CN(S(=O)(=O)c2ccc(Cl)c(C(=O)NCCCCCCNC(=O)c3ccc(-c4c5nc(c(-c6c(F)c(F)c(F)c(F)c6F)c6ccc([nH]6)c(-c6c(F)c(F)c(F)c(F)c6F)c6nc(c(-c7c(F)c(F)c(F)c(F)c7F)c7ccc4[nH]7)C=C6)C=C5)cc3)c2Cl)C[C@H]1C
REMARK SMILES IDX 19 1 18 2 17 3 16 4 14 5 15 6 13 8 8 9 9 10 89 11 10 12
REMARK SMILES IDX 90 13 11 14 12 15 5 16 6 17 7 18 4 19 1 20 2 21 3 22 92 23
REMARK SMILES IDX 91 24 93 25 20 26 21 27 22 28 23 29 24 30 25 32 26 33 27 34
REMARK SMILES IDX 88 35 28 36 87 37 29 38 30 39 31 40 81 41 32 42 86 43 80 44
REMARK SMILES IDX 82 45 33 46 85 47 79 48 78 49 34 51 66 52 46 53 65 54 47 55
REMARK SMILES IDX 50 56 64 57 83 58 48 59 49 60 63 62 84 63 51 64 35 65 36 66
REMARK SMILES IDX 44 67 37 68 38 69 42 70 45 71 39 72 40 73 43 74 41 75 67 76
REMARK SMILES IDX 68 77 76 78 69 79 70 80 74 81 77 82 71 83 72 84 75 85 73 86
REMARK SMILES IDX 52 87 53 88 61 89 54 90 55 91 59 92 62 93 56 94 57 95 60 96
REMARK SMILES IDX 58 97
REMARK H PARENT 16 7 23 31 82 50 50 61
REMARK Flexibility Score: inf
ROOT
ATOM      1  C   UNL A   1      32.800  29.960  26.887  1.00  0.00     0.002 C 
ENDROOT
BRANCH   1   2
ATOM      2  C   UNL A   1      32.544  28.502  27.272  1.00  0.00     0.021 C 
BRANCH   2   3
ATOM      3  C   UNL A   1      33.423  27.459  26.558  1.00  0.00     0.116 C 
BRANCH   3   4
ATOM      4  N   UNL A   1      33.616  27.861  25.177  1.00  0.00    -0.352 N 
ATOM      5  C   UNL A   1      33.452  27.207  23.983  1.00  0.00     0.254 C 
ATOM      6  O   UNL A   1      34.074  27.651  23.017  1.00  0.00    -0.269 OA
ATOM      7  H   UNL A   1      33.929  28.789  25.078  1.00  0.00     0.163 HD
BRANCH   5   8
ATOM      8  C   UNL A   1      32.552  26.043  23.742  1.00  0.00     0.078 A 
ATOM      9  C   UNL A   1      31.959  23.783  24.504  1.00  0.00     0.102 A 
ATOM     10  C   UNL A   1      30.696  23.937  23.919  1.00  0.00     0.025 A 
ATOM     11  C   UNL A   1      32.917  24.803  24.357  1.00  0.00     0.075 A 
ATOM     12  C   UNL A   1      30.377  25.087  23.219  1.00  0.00     0.023 A 
ATOM     13  Cl  UNL A   1      34.575  24.530  24.806  1.00  0.00    -0.082 Cl
ATOM     14  C   UNL A   1      31.260  26.168  23.204  1.00  0.00     0.055 A 
ATOM     15  Cl  UNL A   1      30.531  27.620  22.641  1.00  0.00    -0.083 Cl
BRANCH   9  16
ATOM     16  S   UNL A   1      32.096  22.437  25.677  1.00  0.00     0.244 S 
ATOM     17  O   UNL A   1      30.775  21.844  25.778  1.00  0.00    -0.207 OA
ATOM     18  O   UNL A   1      32.763  22.886  26.878  1.00  0.00    -0.207 OA
BRANCH  16  19
ATOM     19  N   UNL A   1      33.093  21.270  24.926  1.00  0.00    -0.197 NA
ATOM     20  C   UNL A   1      32.292  18.494  22.531  1.00  0.00     0.009 C 
ATOM     21  C   UNL A   1      32.277  19.299  23.820  1.00  0.00     0.005 C 
ATOM     22  C   UNL A   1      32.665  20.755  23.596  1.00  0.00     0.106 C 
ATOM     23  C   UNL A   1      33.304  18.861  24.859  1.00  0.00     0.005 C 
ATOM     24  C   UNL A   1      33.328  20.068  25.804  1.00  0.00     0.106 C 
ATOM     25  C   UNL A   1      32.935  17.563  25.564  1.00  0.00     0.009 C 
ENDBRANCH  16  19
ENDBRANCH   9  16
ENDBRANCH   5   8
ENDBRANCH   3   4
ENDBRANCH   2   3
ENDBRANCH   1   2
BRANCH   1  26
ATOM     26  C   UNL A   1      31.626  30.670  26.210  1.00  0.00     0.002 C 
BRANCH  26  27
ATOM     27  C   UNL A   1      31.449  32.148  26.573  1.00  0.00     0.021 C 
BRANCH  27  28
ATOM     28  C   UNL A   1      32.632  32.785  27.302  1.00  0.00     0.116 C 
BRANCH  28  29
ATOM     29  N   UNL A   1      32.387  34.183  27.619  1.00  0.00    -0.352 N 
ATOM     30  C   UNL A   1      32.948  34.972  28.594  1.00  0.00     0.251 C 
ATOM     31  H   UNL A   1      31.719  34.631  27.052  1.00  0.00     0.163 HD
ATOM     32  O   UNL A   1      32.456  36.060  28.870  1.00  0.00    -0.269 OA
BRANCH  30  33
ATOM     33  C   UNL A   1      34.144  34.503  29.326  1.00  0.00     0.039 A 
ATOM     34  C   UNL A   1      33.995  34.016  30.628  1.00  0.00     0.014 A 
ATOM     35  C   UNL A   1      35.410  34.561  28.737  1.00  0.00     0.014 A 
ATOM     36  C   UNL A   1      35.106  33.514  31.311  1.00  0.00     0.010 A 
ATOM     37  C   UNL A   1      36.506  34.010  29.397  1.00  0.00     0.010 A 
ATOM     38  C   UNL A   1      36.361  33.469  30.684  1.00  0.00    -0.014 A 
BRANCH  38  39
ATOM     39  C   UNL A   1      37.527  32.820  31.335  1.00  0.00     0.031 A 
ATOM     40  C   UNL A   1      38.218  31.660  30.680  1.00  0.00     0.074 A 
ATOM     41  C   UNL A   1      37.902  33.225  32.564  1.00  0.00     0.049 A 
ATOM     42  N   UNL A   1      39.176  30.896  31.145  1.00  0.00    -0.248 NA
ATOM     43  C   UNL A   1      37.757  31.293  29.332  1.00  0.00     0.031 C 
ATOM     44  C   UNL A   1      37.283  34.315  33.319  1.00  0.00     0.029 A 
ATOM     45  N   UNL A   1      38.880  32.753  33.404  1.00  0.00    -0.354 N 
ATOM     46  C   UNL A   1      39.424  29.956  30.156  1.00  0.00     0.074 A 
ATOM     47  C   UNL A   1      38.489  30.216  29.081  1.00  0.00     0.031 C 
ATOM     48  C   UNL A   1      37.898  34.434  34.506  1.00  0.00     0.029 A 
ATOM     49  C   UNL A   1      38.926  33.403  34.614  1.00  0.00     0.049 A 
ATOM     50  H   UNL A   1      39.490  32.019  33.164  1.00  0.00     0.167 HD
ATOM     51  C   UNL A   1      40.358  28.975  30.139  1.00  0.00     0.037 A 
ATOM     52  C   UNL A   1      39.696  33.181  35.695  1.00  0.00     0.037 A 
ATOM     53  C   UNL A   1      41.298  28.733  31.203  1.00  0.00     0.049 A 
ATOM     54  C   UNL A   1      40.706  32.067  35.662  1.00  0.00     0.074 A 
ATOM     55  C   UNL A   1      42.331  27.812  31.250  1.00  0.00     0.029 A 
ATOM     56  N   UNL A   1      41.315  29.412  32.413  1.00  0.00    -0.354 N 
ATOM     57  N   UNL A   1      40.975  31.226  34.694  1.00  0.00    -0.248 NA
ATOM     58  C   UNL A   1      41.514  31.869  36.873  1.00  0.00     0.031 C 
ATOM     59  C   UNL A   1      42.940  27.901  32.506  1.00  0.00     0.029 A 
ATOM     60  C   UNL A   1      42.317  28.907  33.226  1.00  0.00     0.049 A 
ATOM     61  H   UNL A   1      40.704  30.144  32.658  1.00  0.00     0.167 HD
ATOM     62  C   UNL A   1      41.993  30.411  35.171  1.00  0.00     0.074 A 
ATOM     63  C   UNL A   1      42.306  30.872  36.508  1.00  0.00     0.031 C 
ATOM     64  C   UNL A   1      42.609  29.371  34.558  1.00  0.00     0.037 A 
BRANCH  51  65
ATOM     65  C   UNL A   1      40.414  28.086  28.932  1.00  0.00     0.064 A 
ATOM     66  C   UNL A   1      39.698  26.881  28.873  1.00  0.00     0.173 A 
ATOM     67  C   UNL A   1      41.153  28.466  27.802  1.00  0.00     0.173 A 
ATOM     68  F   UNL A   1      38.984  26.467  29.930  1.00  0.00    -0.203 F 
ATOM     69  C   UNL A   1      39.741  26.077  27.737  1.00  0.00     0.198 A 
ATOM     70  C   UNL A   1      41.170  27.674  26.656  1.00  0.00     0.198 A 
ATOM     71  F   UNL A   1      41.849  29.612  27.803  1.00  0.00    -0.203 F 
ATOM     72  F   UNL A   1      39.083  24.910  27.719  1.00  0.00    -0.200 F 
ATOM     73  C   UNL A   1      40.470  26.477  26.627  1.00  0.00     0.200 A 
ATOM     74  F   UNL A   1      41.866  28.068  25.581  1.00  0.00    -0.200 F 
ATOM     75  F   UNL A   1      40.502  25.707  25.531  1.00  0.00    -0.200 F 
ENDBRANCH  51  65
BRANCH  52  76
ATOM     76  C   UNL A   1      39.542  34.034  36.902  1.00  0.00     0.064 A 
ATOM     77  C   UNL A   1      38.752  33.617  37.981  1.00  0.00     0.173 A 
ATOM     78  C   UNL A   1      40.178  35.281  37.001  1.00  0.00     0.173 A 
ATOM     79  F   UNL A   1      38.105  32.444  37.922  1.00  0.00    -0.203 F 
ATOM     80  C   UNL A   1      38.591  34.420  39.108  1.00  0.00     0.198 A 
ATOM     81  C   UNL A   1      40.038  36.071  38.140  1.00  0.00     0.198 A 
ATOM     82  F   UNL A   1      40.949  35.725  35.997  1.00  0.00    -0.203 F 
ATOM     83  F   UNL A   1      37.796  34.016  40.107  1.00  0.00    -0.200 F 
ATOM     84  C   UNL A   1      39.239  35.643  39.190  1.00  0.00     0.200 A 
ATOM     85  F   UNL A   1      40.677  37.246  38.220  1.00  0.00    -0.200 F 
ATOM     86  F   UNL A   1      39.089  36.413  40.276  1.00  0.00    -0.200 F 
ENDBRANCH  52  76
BRANCH  64  87
ATOM     87  C   UNL A   1      43.687  28.665  35.327  1.00  0.00     0.064 A 
ATOM     88  C   UNL A   1      45.029  29.061  35.234  1.00  0.00     0.173 A 
ATOM     89  C   UNL A   1      43.370  27.606  36.191  1.00  0.00     0.173 A 
ATOM     90  F   UNL A   1      45.384  30.056  34.406  1.00  0.00    -0.203 F 
ATOM     91  C   UNL A   1      46.019  28.409  35.964  1.00  0.00     0.198 A 
ATOM     92  C   UNL A   1      44.360  26.975  36.941  1.00  0.00     0.198 A 
ATOM     93  F   UNL A   1      42.101  27.193  36.318  1.00  0.00    -0.203 F 
ATOM     94  F   UNL A   1      47.301  28.775  35.825  1.00  0.00    -0.200 F 
ATOM     95  C   UNL A   1      45.683  27.372  36.822  1.00  0.00     0.200 A 
ATOM     96  F   UNL A   1      44.032  25.980  37.778  1.00  0.00    -0.200 F 
ATOM     97  F   UNL A   1      46.637  26.750  37.528  1.00  0.00    -0.200 F 
ENDBRANCH  64  87
ENDBRANCH  38  39
ENDBRANCH  30  33
ENDBRANCH  28  29
ENDBRANCH  27  28
ENDBRANCH  26  27
ENDBRANCH   1  26
TORSDOF 15
ENDMDL
MODEL 3
REMARK VINA RESULT:     -12.8      5.641     11.148
REMARK SMILES C[C@@H]1CN(S(=O)(=O)c2ccc(Cl)c(C(=O)NCCCCCCNC(=O)c3ccc(-c4c5nc(c(-c6c(F)c(F)c(F)c(F)c6F)c6ccc([nH]6)c(-c6c(F)c(F)c(F)c(F)c6F)c6nc(c(-c7c(F)c(F)c(F)c(F)c7F)c7ccc4[nH]7)C=C6)C=C5)cc3)c2Cl)C[C@H]1C
REMARK SMILES IDX 19 1 18 2 17 3 16 4 14 5 15 6 13 8 8 9 9 10 89 11 10 12
REMARK SMILES IDX 90 13 11 14 12 15 5 16 6 17 7 18 4 19 1 20 2 21 3 22 92 23
REMARK SMILES IDX 91 24 93 25 20 26 21 27 22 28 23 29 24 30 25 32 26 33 27 34
REMARK SMILES IDX 88 35 28 36 87 37 29 38 30 39 31 40 81 41 32 42 86 43 80 44
REMARK SMILES IDX 82 45 33 46 85 47 79 48 78 49 34 51 66 52 46 53 65 54 47 55
REMARK SMILES IDX 50 56 64 57 83 58 48 59 49 60 63 62 84 63 51 64 35 65 36 66
REMARK SMILES IDX 44 67 37 68 38 69 42 70 45 71 39 72 40 73 43 74 41 75 67 76
REMARK SMILES IDX 68 77 76 78 69 79 70 80 74 81 77 82 71 83 72 84 75 85 73 86
REMARK SMILES IDX 52 87 53 88 61 89 54 90 55 91 59 92 62 93 56 94 57 95 60 96
REMARK SMILES IDX 58 97
REMARK H PARENT 16 7 23 31 82 50 50 61
REMARK Flexibility Score: inf
ROOT
ATOM      1  C   UNL A   1      36.951  21.934  24.415  1.00  0.00     0.002 C 
ENDROOT
BRANCH   1   2
ATOM      2  C   UNL A   1      37.450  23.021  25.370  1.00  0.00     0.021 C 
BRANCH   2   3
ATOM      3  C   UNL A   1      36.367  23.949  25.950  1.00  0.00     0.116 C 
BRANCH   3   4
ATOM      4  N   UNL A   1      35.503  23.184  26.830  1.00  0.00    -0.352 N 
ATOM      5  C   UNL A   1      34.196  22.781  26.735  1.00  0.00     0.254 C 
ATOM      6  O   UNL A   1      33.621  22.510  27.791  1.00  0.00    -0.269 OA
ATOM      7  H   UNL A   1      35.944  22.898  27.662  1.00  0.00     0.163 HD
BRANCH   5   8
ATOM      8  C   UNL A   1      33.429  22.596  25.470  1.00  0.00     0.078 A 
ATOM      9  C   UNL A   1      32.867  23.615  23.306  1.00  0.00     0.102 A 
ATOM     10  C   UNL A   1      32.570  22.343  22.804  1.00  0.00     0.025 A 
ATOM     11  C   UNL A   1      33.227  23.758  24.659  1.00  0.00     0.075 A 
ATOM     12  C   UNL A   1      32.647  21.226  23.618  1.00  0.00     0.023 A 
ATOM     13  Cl  UNL A   1      33.313  25.334  25.390  1.00  0.00    -0.082 Cl
ATOM     14  C   UNL A   1      33.157  21.335  24.914  1.00  0.00     0.055 A 
ATOM     15  Cl  UNL A   1      33.549  19.813  25.608  1.00  0.00    -0.083 Cl
BRANCH   9  16
ATOM     16  S   UNL A   1      33.089  24.890  22.067  1.00  0.00     0.244 S 
ATOM     17  O   UNL A   1      33.145  24.211  20.786  1.00  0.00    -0.207 OA
ATOM     18  O   UNL A   1      34.166  25.774  22.447  1.00  0.00    -0.207 OA
BRANCH  16  19
ATOM     19  N   UNL A   1      31.639  25.794  22.070  1.00  0.00    -0.197 NA
ATOM     20  C   UNL A   1      30.643  28.881  23.959  1.00  0.00     0.009 C 
ATOM     21  C   UNL A   1      31.070  27.441  23.725  1.00  0.00     0.005 C 
ATOM     22  C   UNL A   1      31.737  27.250  22.369  1.00  0.00     0.106 C 
ATOM     23  C   UNL A   1      29.923  26.438  23.650  1.00  0.00     0.005 C 
ATOM     24  C   UNL A   1      30.610  25.224  23.012  1.00  0.00     0.106 C 
ATOM     25  C   UNL A   1      29.305  26.126  25.006  1.00  0.00     0.009 C 
ENDBRANCH  16  19
ENDBRANCH   9  16
ENDBRANCH   5   8
ENDBRANCH   3   4
ENDBRANCH   2   3
ENDBRANCH   1   2
BRANCH   1  26
ATOM     26  C   UNL A   1      36.884  20.527  25.010  1.00  0.00     0.002 C 
BRANCH  26  27
ATOM     27  C   UNL A   1      38.161  19.690  24.875  1.00  0.00     0.021 C 
BRANCH  27  28
ATOM     28  C   UNL A   1      39.322  20.127  25.768  1.00  0.00     0.116 C 
BRANCH  28  29
ATOM     29  N   UNL A   1      40.309  19.072  25.933  1.00  0.00    -0.352 N 
ATOM     30  C   UNL A   1      41.665  19.163  26.127  1.00  0.00     0.251 C 
ATOM     31  H   UNL A   1      39.952  18.155  25.900  1.00  0.00     0.163 HD
ATOM     32  O   UNL A   1      42.377  18.172  26.012  1.00  0.00    -0.269 OA
BRANCH  30  33
ATOM     33  C   UNL A   1      42.278  20.466  26.463  1.00  0.00     0.039 A 
ATOM     34  C   UNL A   1      42.857  21.228  25.444  1.00  0.00     0.014 A 
ATOM     35  C   UNL A   1      42.296  20.928  27.782  1.00  0.00     0.014 A 
ATOM     36  C   UNL A   1      43.386  22.487  25.735  1.00  0.00     0.010 A 
ATOM     37  C   UNL A   1      42.773  22.206  28.062  1.00  0.00     0.010 A 
ATOM     38  C   UNL A   1      43.309  23.003  27.039  1.00  0.00    -0.014 A 
BRANCH  38  39
ATOM     39  C   UNL A   1      43.742  24.389  27.347  1.00  0.00     0.031 A 
ATOM     40  C   UNL A   1      42.752  25.405  27.836  1.00  0.00     0.074 A 
ATOM     41  C   UNL A   1      45.015  24.751  27.097  1.00  0.00     0.049 A 
ATOM     42  N   UNL A   1      42.918  26.687  28.050  1.00  0.00    -0.248 NA
ATOM     43  C   UNL A   1      41.387  24.924  28.100  1.00  0.00     0.031 C 
ATOM     44  C   UNL A   1      46.060  23.864  26.583  1.00  0.00     0.029 A 
ATOM     45  N   UNL A   1      45.643  25.966  27.219  1.00  0.00    -0.354 N 
ATOM     46  C   UNL A   1      41.681  27.166  28.460  1.00  0.00     0.074 A 
ATOM     47  C   UNL A   1      40.763  26.047  28.427  1.00  0.00     0.031 C 
ATOM     48  C   UNL A   1      47.198  24.560  26.442  1.00  0.00     0.029 A 
ATOM     49  C   UNL A   1      46.955  25.950  26.813  1.00  0.00     0.049 A 
ATOM     50  H   UNL A   1      45.196  26.772  27.565  1.00  0.00     0.167 HD
ATOM     51  C   UNL A   1      41.348  28.421  28.846  1.00  0.00     0.037 A 
ATOM     52  C   UNL A   1      47.856  26.947  26.730  1.00  0.00     0.037 A 
ATOM     53  C   UNL A   1      42.270  29.526  28.896  1.00  0.00     0.049 A 
ATOM     54  C   UNL A   1      47.452  28.338  27.137  1.00  0.00     0.074 A 
ATOM     55  C   UNL A   1      42.048  30.817  29.342  1.00  0.00     0.029 A 
ATOM     56  N   UNL A   1      43.592  29.472  28.476  1.00  0.00    -0.354 N 
ATOM     57  N   UNL A   1      46.297  28.764  27.586  1.00  0.00    -0.248 NA
ATOM     58  C   UNL A   1      48.475  29.386  27.019  1.00  0.00     0.031 C 
ATOM     59  C   UNL A   1      43.220  31.556  29.147  1.00  0.00     0.029 A 
ATOM     60  C   UNL A   1      44.186  30.715  28.621  1.00  0.00     0.049 A 
ATOM     61  H   UNL A   1      44.041  28.668  28.127  1.00  0.00     0.167 HD
ATOM     62  C   UNL A   1      46.457  30.122  27.821  1.00  0.00     0.074 A 
ATOM     63  C   UNL A   1      47.828  30.446  27.483  1.00  0.00     0.031 C 
ATOM     64  C   UNL A   1      45.550  31.022  28.271  1.00  0.00     0.037 A 
BRANCH  51  65
ATOM     65  C   UNL A   1      39.924  28.671  29.248  1.00  0.00     0.064 A 
ATOM     66  C   UNL A   1      38.963  29.097  28.318  1.00  0.00     0.173 A 
ATOM     67  C   UNL A   1      39.505  28.437  30.566  1.00  0.00     0.173 A 
ATOM     68  F   UNL A   1      39.315  29.345  27.048  1.00  0.00    -0.203 F 
ATOM     69  C   UNL A   1      37.640  29.303  28.700  1.00  0.00     0.198 A 
ATOM     70  C   UNL A   1      38.174  28.617  30.937  1.00  0.00     0.198 A 
ATOM     71  F   UNL A   1      40.382  28.022  31.491  1.00  0.00    -0.203 F 
ATOM     72  F   UNL A   1      36.748  29.750  27.805  1.00  0.00    -0.200 F 
ATOM     73  C   UNL A   1      37.245  29.055  30.006  1.00  0.00     0.200 A 
ATOM     74  F   UNL A   1      37.792  28.366  32.197  1.00  0.00    -0.200 F 
ATOM     75  F   UNL A   1      35.969  29.245  30.369  1.00  0.00    -0.200 F 
ENDBRANCH  51  65
BRANCH  52  76
ATOM     76  C   UNL A   1      49.230  26.665  26.242  1.00  0.00     0.064 A 
ATOM     77  C   UNL A   1      49.571  26.866  24.898  1.00  0.00     0.173 A 
ATOM     78  C   UNL A   1      50.229  26.190  27.106  1.00  0.00     0.173 A 
ATOM     79  F   UNL A   1      48.644  27.298  24.030  1.00  0.00    -0.203 F 
ATOM     80  C   UNL A   1      50.854  26.588  24.432  1.00  0.00     0.198 A 
ATOM     81  C   UNL A   1      51.519  25.937  26.644  1.00  0.00     0.198 A 
ATOM     82  F   UNL A   1      49.955  25.983  28.402  1.00  0.00    -0.203 F 
ATOM     83  F   UNL A   1      51.142  26.749  23.133  1.00  0.00    -0.200 F 
ATOM     84  C   UNL A   1      51.829  26.130  25.306  1.00  0.00     0.200 A 
ATOM     85  F   UNL A   1      52.460  25.508  27.494  1.00  0.00    -0.200 F 
ATOM     86  F   UNL A   1      53.064  25.868  24.858  1.00  0.00    -0.200 F 
ENDBRANCH  52  76
BRANCH  64  87
ATOM     87  C   UNL A   1      46.012  32.440  28.429  1.00  0.00     0.064 A 
ATOM     88  C   UNL A   1      45.859  33.378  27.397  1.00  0.00     0.173 A 
ATOM     89  C   UNL A   1      46.582  32.875  29.635  1.00  0.00     0.173 A 
ATOM     90  F   UNL A   1      45.338  33.005  26.218  1.00  0.00    -0.203 F 
ATOM     91  C   UNL A   1      46.278  34.695  27.560  1.00  0.00     0.198 A 
ATOM     92  C   UNL A   1      46.974  34.201  29.804  1.00  0.00     0.198 A 
ATOM     93  F   UNL A   1      46.747  32.018  30.653  1.00  0.00    -0.203 F 
ATOM     94  F   UNL A   1      46.163  35.563  26.545  1.00  0.00    -0.200 F 
ATOM     95  C   UNL A   1      46.828  35.107  28.765  1.00  0.00     0.200 A 
ATOM     96  F   UNL A   1      47.495  34.600  30.973  1.00  0.00    -0.200 F 
ATOM     97  F   UNL A   1      47.225  36.378  28.922  1.00  0.00    -0.200 F 
ENDBRANCH  64  87
ENDBRANCH  38  39
ENDBRANCH  30  33
ENDBRANCH  28  29
ENDBRANCH  27  28
ENDBRANCH  26  27
ENDBRANCH   1  26
TORSDOF 15
ENDMDL
