MODEL 1
REMARK VINA RESULT:     -12.2      0.000      0.000
REMARK SMILES O=C(NCCCCCCNC(=O)[C@H]1CCCCN1S(=O)(=O)c1cc[nH]c1)c1ccc(-c2c3nc(c(-c4c(F)c(F)c(F)c(F)c4F)c4ccc([nH]4)c(-c4c(F)c(F)c(F)c(F)c4F)c4nc(c(-c5c(F)c(F)c(F)c(F)c5F)c5ccc2[nH]5)C=C4)C=C3)cc1
REMARK SMILES IDX 6 1 5 2 4 3 3 4 1 5 2 6 27 8 28 9 89 10 29 11 88 12 30 13
REMARK SMILES IDX 31 14 32 15 82 16 33 17 87 18 81 19 83 20 34 21 86 22 80 23
REMARK SMILES IDX 79 24 35 26 67 27 47 28 66 29 48 30 51 31 65 32 84 33 49 34
REMARK SMILES IDX 50 35 64 37 85 38 52 39 36 40 37 41 45 42 38 43 39 44 43 45
REMARK SMILES IDX 46 46 40 47 41 48 44 49 42 50 68 51 69 52 77 53 70 54 71 55
REMARK SMILES IDX 75 56 78 57 72 58 73 59 76 60 74 61 53 62 54 63 62 64 55 65
REMARK SMILES IDX 56 66 60 67 63 68 57 69 58 70 61 71 59 72 7 73 8 74 9 75
REMARK SMILES IDX 10 76 11 77 12 79 13 80 14 81 18 82 15 83 17 84 16 85 19 86
REMARK SMILES IDX 20 87 21 88 22 89 23 90 26 91 24 92 25 93
REMARK H PARENT 3 7 83 25 51 36 10 78 25 94
REMARK Flexibility Score: inf
ROOT
ATOM      1  C   UNL A   1      33.985  27.543  24.606  1.00  0.00     0.002 C 
ENDROOT
BRANCH   1   2
ATOM      2  C   UNL A   1      33.584  28.517  25.713  1.00  0.00     0.021 C 
BRANCH   2   3
ATOM      3  C   UNL A   1      34.609  28.643  26.839  1.00  0.00     0.116 C 
BRANCH   3   4
ATOM      4  N   UNL A   1      34.920  30.007  27.228  1.00  0.00    -0.352 N 
ATOM      5  O   UNL A   1      36.090  31.792  27.926  1.00  0.00    -0.269 OA
ATOM      6  C   UNL A   1      36.083  30.592  27.660  1.00  0.00     0.251 C 
ATOM      7  H   UNL A   1      34.156  30.626  27.170  1.00  0.00     0.163 HD
BRANCH   6   8
ATOM      8  C   UNL A   1      37.318  29.803  27.872  1.00  0.00     0.039 A 
ATOM      9  C   UNL A   1      38.372  29.805  26.957  1.00  0.00     0.014 A 
ATOM     10  C   UNL A   1      37.427  29.065  29.061  1.00  0.00     0.014 A 
ATOM     11  C   UNL A   1      39.488  29.013  27.180  1.00  0.00     0.010 A 
ATOM     12  C   UNL A   1      38.570  28.308  29.316  1.00  0.00     0.010 A 
ATOM     13  C   UNL A   1      39.602  28.286  28.371  1.00  0.00    -0.014 A 
BRANCH  13  14
ATOM     14  C   UNL A   1      40.933  27.710  28.668  1.00  0.00     0.031 A 
ATOM     15  C   UNL A   1      41.062  26.269  28.165  1.00  0.00     0.074 A 
ATOM     16  C   UNL A   1      41.800  28.459  29.404  1.00  0.00     0.049 A 
ATOM     17  N   UNL A   1      41.787  25.292  28.620  1.00  0.00    -0.248 NA
ATOM     18  C   UNL A   1      40.196  25.828  27.038  1.00  0.00     0.031 C 
ATOM     19  C   UNL A   1      41.538  29.846  29.817  1.00  0.00     0.029 A 
ATOM     20  N   UNL A   1      43.042  28.224  29.964  1.00  0.00    -0.354 N 
ATOM     21  C   UNL A   1      41.603  24.201  27.749  1.00  0.00     0.074 A 
ATOM     22  C   UNL A   1      40.527  24.548  26.871  1.00  0.00     0.031 C 
ATOM     23  C   UNL A   1      42.534  30.304  30.599  1.00  0.00     0.029 A 
ATOM     24  C   UNL A   1      43.547  29.278  30.768  1.00  0.00     0.049 A 
ATOM     25  H   UNL A   1      43.540  27.387  29.815  1.00  0.00     0.167 HD
ATOM     26  C   UNL A   1      42.433  23.121  27.711  1.00  0.00     0.037 A 
ATOM     27  C   UNL A   1      44.674  29.319  31.546  1.00  0.00     0.037 A 
ATOM     28  C   UNL A   1      43.463  23.232  28.685  1.00  0.00     0.049 A 
ATOM     29  C   UNL A   1      45.396  28.060  31.280  1.00  0.00     0.074 A 
ATOM     30  C   UNL A   1      43.508  23.024  30.036  1.00  0.00     0.029 A 
ATOM     31  N   UNL A   1      44.622  23.855  28.295  1.00  0.00    -0.354 N 
ATOM     32  N   UNL A   1      46.059  27.803  30.193  1.00  0.00    -0.248 NA
ATOM     33  C   UNL A   1      45.349  26.987  32.283  1.00  0.00     0.031 C 
ATOM     34  C   UNL A   1      44.564  23.844  30.491  1.00  0.00     0.029 A 
ATOM     35  C   UNL A   1      45.150  24.485  29.394  1.00  0.00     0.049 A 
ATOM     36  H   UNL A   1      45.006  23.849  27.388  1.00  0.00     0.167 HD
ATOM     37  C   UNL A   1      46.225  26.438  30.260  1.00  0.00     0.074 A 
ATOM     38  C   UNL A   1      46.075  26.071  31.647  1.00  0.00     0.031 C 
ATOM     39  C   UNL A   1      45.936  25.681  29.173  1.00  0.00     0.037 A 
BRANCH  26  40
ATOM     40  C   UNL A   1      42.564  22.015  26.705  1.00  0.00     0.064 A 
ATOM     41  C   UNL A   1      42.004  20.753  27.017  1.00  0.00     0.173 A 
ATOM     42  C   UNL A   1      43.485  22.043  25.649  1.00  0.00     0.173 A 
ATOM     43  F   UNL A   1      41.086  20.632  27.990  1.00  0.00    -0.203 F 
ATOM     44  C   UNL A   1      42.429  19.582  26.394  1.00  0.00     0.198 A 
ATOM     45  C   UNL A   1      43.875  20.870  24.994  1.00  0.00     0.198 A 
ATOM     46  F   UNL A   1      44.102  23.179  25.301  1.00  0.00    -0.203 F 
ATOM     47  F   UNL A   1      41.966  18.395  26.813  1.00  0.00    -0.200 F 
ATOM     48  C   UNL A   1      43.378  19.640  25.392  1.00  0.00     0.200 A 
ATOM     49  F   UNL A   1      44.794  20.930  24.021  1.00  0.00    -0.200 F 
ATOM     50  F   UNL A   1      43.839  18.512  24.836  1.00  0.00    -0.200 F 
ENDBRANCH  26  40
BRANCH  27  51
ATOM     51  C   UNL A   1      45.296  30.245  32.577  1.00  0.00     0.064 A 
ATOM     52  C   UNL A   1      46.518  30.921  32.452  1.00  0.00     0.173 A 
ATOM     53  C   UNL A   1      44.602  30.546  33.786  1.00  0.00     0.173 A 
ATOM     54  F   UNL A   1      47.358  30.669  31.447  1.00  0.00    -0.203 F 
ATOM     55  C   UNL A   1      46.947  31.886  33.383  1.00  0.00     0.198 A 
ATOM     56  C   UNL A   1      45.008  31.527  34.693  1.00  0.00     0.198 A 
ATOM     57  F   UNL A   1      43.486  29.894  34.141  1.00  0.00    -0.203 F 
ATOM     58  F   UNL A   1      48.118  32.510  33.196  1.00  0.00    -0.200 F 
ATOM     59  C   UNL A   1      46.178  32.212  34.483  1.00  0.00     0.200 A 
ATOM     60  F   UNL A   1      44.241  31.806  35.758  1.00  0.00    -0.200 F 
ATOM     61  F   UNL A   1      46.566  33.167  35.338  1.00  0.00    -0.200 F 
ENDBRANCH  27  51
BRANCH  39  62
ATOM     62  C   UNL A   1      46.050  26.452  27.873  1.00  0.00     0.064 A 
ATOM     63  C   UNL A   1      44.894  26.830  27.173  1.00  0.00     0.173 A 
ATOM     64  C   UNL A   1      47.271  26.686  27.221  1.00  0.00     0.173 A 
ATOM     65  F   UNL A   1      43.687  26.645  27.727  1.00  0.00    -0.203 F 
ATOM     66  C   UNL A   1      44.964  27.390  25.894  1.00  0.00     0.198 A 
ATOM     67  C   UNL A   1      47.348  27.254  25.950  1.00  0.00     0.198 A 
ATOM     68  F   UNL A   1      48.420  26.359  27.806  1.00  0.00    -0.203 F 
ATOM     69  F   UNL A   1      43.838  27.727  25.251  1.00  0.00    -0.200 F 
ATOM     70  C   UNL A   1      46.191  27.599  25.282  1.00  0.00     0.200 A 
ATOM     71  F   UNL A   1      48.544  27.462  25.380  1.00  0.00    -0.200 F 
ATOM     72  F   UNL A   1      46.257  28.139  24.057  1.00  0.00    -0.200 F 
ENDBRANCH  39  62
ENDBRANCH  13  14
ENDBRANCH   6   8
ENDBRANCH   3   4
ENDBRANCH   2   3
ENDBRANCH   1   2
BRANCH   1  73
ATOM     73  C   UNL A   1      32.824  26.769  23.974  1.00  0.00     0.002 C 
BRANCH  73  74
ATOM     74  C   UNL A   1      31.716  26.336  24.945  1.00  0.00     0.021 C 
BRANCH  74  75
ATOM     75  C   UNL A   1      31.677  24.836  25.227  1.00  0.00     0.116 C 
BRANCH  75  76
ATOM     76  N   UNL A   1      32.778  24.437  26.078  1.00  0.00    -0.355 N 
ATOM     77  C   UNL A   1      33.809  23.577  25.843  1.00  0.00     0.238 C 
ATOM     78  H   UNL A   1      32.783  24.855  26.970  1.00  0.00     0.163 HD
ATOM     79  O   UNL A   1      34.616  23.419  26.761  1.00  0.00    -0.273 OA
BRANCH  77  80
ATOM     80  C   UNL A   1      33.989  22.956  24.450  1.00  0.00     0.162 C 
ATOM     81  C   UNL A   1      35.009  23.790  23.662  1.00  0.00     0.030 C 
ATOM     82  N   UNL A   1      34.398  21.512  24.415  1.00  0.00    -0.185 NA
ATOM     83  C   UNL A   1      36.421  23.607  24.210  1.00  0.00     0.004 C 
ATOM     84  C   UNL A   1      35.759  21.273  24.962  1.00  0.00     0.103 C 
ATOM     85  C   UNL A   1      36.793  22.132  24.233  1.00  0.00     0.017 C 
BRANCH  82  86
ATOM     86  S   UNL A   1      33.165  20.481  25.002  1.00  0.00     0.245 S 
ATOM     87  O   UNL A   1      33.455  20.128  26.382  1.00  0.00    -0.207 OA
ATOM     88  O   UNL A   1      31.900  21.056  24.628  1.00  0.00    -0.207 OA
BRANCH  86  89
ATOM     89  C   UNL A   1      33.227  18.962  24.167  1.00  0.00     0.100 A 
ATOM     90  C   UNL A   1      34.191  17.943  24.376  1.00  0.00     0.041 A 
ATOM     91  C   UNL A   1      32.342  18.499  23.213  1.00  0.00     0.104 A 
ATOM     92  C   UNL A   1      33.883  16.902  23.528  1.00  0.00     0.083 A 
ATOM     93  N   UNL A   1      32.749  17.242  22.838  1.00  0.00    -0.366 N 
ATOM     94  H   UNL A   1      32.295  16.672  22.174  1.00  0.00     0.165 HD
ENDBRANCH  86  89
ENDBRANCH  82  86
ENDBRANCH  77  80
ENDBRANCH  75  76
ENDBRANCH  74  75
ENDBRANCH  73  74
ENDBRANCH   1  73
TORSDOF 15
ENDMDL
MODEL 2
REMARK VINA RESULT:     -12.1      4.669      9.768
REMARK SMILES O=C(NCCCCCCNC(=O)[C@H]1CCCCN1S(=O)(=O)c1cc[nH]c1)c1ccc(-c2c3nc(c(-c4c(F)c(F)c(F)c(F)c4F)c4ccc([nH]4)c(-c4c(F)c(F)c(F)c(F)c4F)c4nc(c(-c5c(F)c(F)c(F)c(F)c5F)c5ccc2[nH]5)C=C4)C=C3)cc1
REMARK SMILES IDX 6 1 5 2 4 3 3 4 1 5 2 6 27 8 28 9 89 10 29 11 88 12 30 13
REMARK SMILES IDX 31 14 32 15 82 16 33 17 87 18 81 19 83 20 34 21 86 22 80 23
REMARK SMILES IDX 79 24 35 26 67 27 47 28 66 29 48 30 51 31 65 32 84 33 49 34
REMARK SMILES IDX 50 35 64 37 85 38 52 39 36 40 37 41 45 42 38 43 39 44 43 45
REMARK SMILES IDX 46 46 40 47 41 48 44 49 42 50 68 51 69 52 77 53 70 54 71 55
REMARK SMILES IDX 75 56 78 57 72 58 73 59 76 60 74 61 53 62 54 63 62 64 55 65
REMARK SMILES IDX 56 66 60 67 63 68 57 69 58 70 61 71 59 72 7 73 8 74 9 75
REMARK SMILES IDX 10 76 11 77 12 79 13 80 14 81 18 82 15 83 17 84 16 85 19 86
REMARK SMILES IDX 20 87 21 88 22 89 23 90 26 91 24 92 25 93
REMARK H PARENT 3 7 83 25 51 36 10 78 25 94
REMARK Flexibility Score: inf
ROOT
ATOM      1  C   UNL A   1      35.866  22.412  24.629  1.00  0.00     0.002 C 
ENDROOT
BRANCH   1   2
ATOM      2  C   UNL A   1      36.711  23.683  24.714  1.00  0.00     0.021 C 
BRANCH   2   3
ATOM      3  C   UNL A   1      37.186  24.026  26.125  1.00  0.00     0.116 C 
BRANCH   3   4
ATOM      4  N   UNL A   1      38.427  23.386  26.522  1.00  0.00    -0.352 N 
ATOM      5  O   UNL A   1      40.426  23.070  27.495  1.00  0.00    -0.269 OA
ATOM      6  C   UNL A   1      39.472  23.820  27.298  1.00  0.00     0.251 C 
ATOM      7  H   UNL A   1      38.540  22.474  26.168  1.00  0.00     0.163 HD
BRANCH   6   8
ATOM      8  C   UNL A   1      39.507  25.189  27.860  1.00  0.00     0.039 A 
ATOM      9  C   UNL A   1      39.104  25.472  29.166  1.00  0.00     0.014 A 
ATOM     10  C   UNL A   1      40.004  26.218  27.044  1.00  0.00     0.014 A 
ATOM     11  C   UNL A   1      39.113  26.779  29.629  1.00  0.00     0.010 A 
ATOM     12  C   UNL A   1      40.066  27.527  27.523  1.00  0.00     0.010 A 
ATOM     13  C   UNL A   1      39.620  27.803  28.820  1.00  0.00    -0.014 A 
BRANCH  13  14
ATOM     14  C   UNL A   1      39.872  29.103  29.481  1.00  0.00     0.031 A 
ATOM     15  C   UNL A   1      38.674  30.050  29.366  1.00  0.00     0.074 A 
ATOM     16  C   UNL A   1      41.112  29.324  29.998  1.00  0.00     0.049 A 
ATOM     17  N   UNL A   1      38.640  31.348  29.341  1.00  0.00    -0.248 NA
ATOM     18  C   UNL A   1      37.320  29.464  29.169  1.00  0.00     0.031 C 
ATOM     19  C   UNL A   1      42.174  28.307  30.043  1.00  0.00     0.029 A 
ATOM     20  N   UNL A   1      41.741  30.418  30.563  1.00  0.00    -0.354 N 
ATOM     21  C   UNL A   1      37.284  31.726  29.305  1.00  0.00     0.074 A 
ATOM     22  C   UNL A   1      36.527  30.531  29.079  1.00  0.00     0.031 C 
ATOM     23  C   UNL A   1      43.313  28.832  30.533  1.00  0.00     0.029 A 
ATOM     24  C   UNL A   1      43.114  30.230  30.868  1.00  0.00     0.049 A 
ATOM     25  H   UNL A   1      41.271  31.265  30.742  1.00  0.00     0.167 HD
ATOM     26  C   UNL A   1      36.846  32.983  29.595  1.00  0.00     0.037 A 
ATOM     27  C   UNL A   1      44.039  31.134  31.321  1.00  0.00     0.037 A 
ATOM     28  C   UNL A   1      37.933  33.850  29.890  1.00  0.00     0.049 A 
ATOM     29  C   UNL A   1      43.292  32.377  31.591  1.00  0.00     0.074 A 
ATOM     30  C   UNL A   1      38.845  34.513  29.116  1.00  0.00     0.029 A 
ATOM     31  N   UNL A   1      38.328  33.927  31.202  1.00  0.00    -0.354 N 
ATOM     32  N   UNL A   1      42.501  32.559  32.606  1.00  0.00    -0.248 NA
ATOM     33  C   UNL A   1      43.402  33.494  30.643  1.00  0.00     0.031 C 
ATOM     34  C   UNL A   1      39.966  34.691  29.955  1.00  0.00     0.029 A 
ATOM     35  C   UNL A   1      39.679  34.168  31.220  1.00  0.00     0.049 A 
ATOM     36  H   UNL A   1      37.745  33.828  31.989  1.00  0.00     0.167 HD
ATOM     37  C   UNL A   1      41.789  33.677  32.233  1.00  0.00     0.074 A 
ATOM     38  C   UNL A   1      42.579  34.356  31.235  1.00  0.00     0.031 C 
ATOM     39  C   UNL A   1      40.438  33.671  32.348  1.00  0.00     0.037 A 
BRANCH  26  40
ATOM     40  C   UNL A   1      35.465  33.505  29.869  1.00  0.00     0.064 A 
ATOM     41  C   UNL A   1      34.822  34.266  28.864  1.00  0.00     0.173 A 
ATOM     42  C   UNL A   1      34.917  33.586  31.157  1.00  0.00     0.173 A 
ATOM     43  F   UNL A   1      35.254  34.226  27.593  1.00  0.00    -0.203 F 
ATOM     44  C   UNL A   1      33.779  35.142  29.154  1.00  0.00     0.198 A 
ATOM     45  C   UNL A   1      33.838  34.431  31.435  1.00  0.00     0.198 A 
ATOM     46  F   UNL A   1      35.474  32.936  32.187  1.00  0.00    -0.203 F 
ATOM     47  F   UNL A   1      33.289  35.940  28.195  1.00  0.00    -0.200 F 
ATOM     48  C   UNL A   1      33.297  35.235  30.445  1.00  0.00     0.200 A 
ATOM     49  F   UNL A   1      33.371  34.518  32.688  1.00  0.00    -0.200 F 
ATOM     50  F   UNL A   1      32.338  36.122  30.744  1.00  0.00    -0.200 F 
ENDBRANCH  26  40
BRANCH  27  51
ATOM     51  C   UNL A   1      45.540  31.189  31.548  1.00  0.00     0.064 A 
ATOM     52  C   UNL A   1      46.186  31.306  32.787  1.00  0.00     0.173 A 
ATOM     53  C   UNL A   1      46.440  31.058  30.449  1.00  0.00     0.173 A 
ATOM     54  F   UNL A   1      45.508  31.560  33.908  1.00  0.00    -0.203 F 
ATOM     55  C   UNL A   1      47.581  31.188  32.927  1.00  0.00     0.198 A 
ATOM     56  C   UNL A   1      47.821  30.906  30.589  1.00  0.00     0.198 A 
ATOM     57  F   UNL A   1      46.011  31.070  29.180  1.00  0.00    -0.203 F 
ATOM     58  F   UNL A   1      48.135  31.293  34.143  1.00  0.00    -0.200 F 
ATOM     59  C   UNL A   1      48.393  30.955  31.834  1.00  0.00     0.200 A 
ATOM     60  F   UNL A   1      48.579  30.696  29.502  1.00  0.00    -0.200 F 
ATOM     61  F   UNL A   1      49.715  30.792  31.979  1.00  0.00    -0.200 F 
ENDBRANCH  27  51
BRANCH  39  62
ATOM     62  C   UNL A   1      39.942  32.706  33.407  1.00  0.00     0.064 A 
ATOM     63  C   UNL A   1      39.322  31.505  33.033  1.00  0.00     0.173 A 
ATOM     64  C   UNL A   1      39.921  33.012  34.777  1.00  0.00     0.173 A 
ATOM     65  F   UNL A   1      39.302  31.136  31.743  1.00  0.00    -0.203 F 
ATOM     66  C   UNL A   1      38.706  30.676  33.975  1.00  0.00     0.198 A 
ATOM     67  C   UNL A   1      39.317  32.184  35.723  1.00  0.00     0.198 A 
ATOM     68  F   UNL A   1      40.484  34.130  35.227  1.00  0.00    -0.203 F 
ATOM     69  F   UNL A   1      38.111  29.542  33.578  1.00  0.00    -0.200 F 
ATOM     70  C   UNL A   1      38.701  31.017  35.319  1.00  0.00     0.200 A 
ATOM     71  F   UNL A   1      39.336  32.523  37.020  1.00  0.00    -0.200 F 
ATOM     72  F   UNL A   1      38.113  30.219  36.221  1.00  0.00    -0.200 F 
ENDBRANCH  39  62
ENDBRANCH  13  14
ENDBRANCH   6   8
ENDBRANCH   3   4
ENDBRANCH   2   3
ENDBRANCH   1   2
BRANCH   1  73
ATOM     73  C   UNL A   1      34.462  22.608  24.047  1.00  0.00     0.002 C 
BRANCH  73  74
ATOM     74  C   UNL A   1      33.358  22.902  25.074  1.00  0.00     0.021 C 
BRANCH  74  75
ATOM     75  C   UNL A   1      32.530  24.147  24.768  1.00  0.00     0.116 C 
BRANCH  75  76
ATOM     76  N   UNL A   1      33.362  25.331  24.736  1.00  0.00    -0.355 N 
ATOM     77  C   UNL A   1      33.031  26.646  24.873  1.00  0.00     0.238 C 
ATOM     78  H   UNL A   1      34.320  25.158  24.591  1.00  0.00     0.163 HD
ATOM     79  O   UNL A   1      33.956  27.459  24.799  1.00  0.00    -0.273 OA
BRANCH  77  80
ATOM     80  C   UNL A   1      31.591  27.043  25.228  1.00  0.00     0.162 C 
ATOM     81  C   UNL A   1      31.437  27.040  26.756  1.00  0.00     0.030 C 
ATOM     82  N   UNL A   1      31.112  28.358  24.685  1.00  0.00    -0.185 NA
ATOM     83  C   UNL A   1      32.190  28.204  27.395  1.00  0.00     0.004 C 
ATOM     84  C   UNL A   1      31.831  29.527  25.257  1.00  0.00     0.103 C 
ATOM     85  C   UNL A   1      31.741  29.523  26.783  1.00  0.00     0.017 C 
BRANCH  82  86
ATOM     86  S   UNL A   1      30.962  28.333  22.981  1.00  0.00     0.245 S 
ATOM     87  O   UNL A   1      32.011  29.154  22.397  1.00  0.00    -0.207 OA
ATOM     88  O   UNL A   1      30.775  26.963  22.579  1.00  0.00    -0.207 OA
BRANCH  86  89
ATOM     89  C   UNL A   1      29.499  29.139  22.511  1.00  0.00     0.100 A 
ATOM     90  C   UNL A   1      29.410  30.227  21.607  1.00  0.00     0.041 A 
ATOM     91  C   UNL A   1      28.213  28.828  22.906  1.00  0.00     0.104 A 
ATOM     92  C   UNL A   1      28.080  30.566  21.496  1.00  0.00     0.083 A 
ATOM     93  N   UNL A   1      27.359  29.699  22.277  1.00  0.00    -0.366 N 
ATOM     94  H   UNL A   1      26.378  29.701  22.371  1.00  0.00     0.165 HD
ENDBRANCH  86  89
ENDBRANCH  82  86
ENDBRANCH  77  80
ENDBRANCH  75  76
ENDBRANCH  74  75
ENDBRANCH  73  74
ENDBRANCH   1  73
TORSDOF 15
ENDMDL
MODEL 3
REMARK VINA RESULT:     -11.8      1.684      2.423
REMARK SMILES O=C(NCCCCCCNC(=O)[C@H]1CCCCN1S(=O)(=O)c1cc[nH]c1)c1ccc(-c2c3nc(c(-c4c(F)c(F)c(F)c(F)c4F)c4ccc([nH]4)c(-c4c(F)c(F)c(F)c(F)c4F)c4nc(c(-c5c(F)c(F)c(F)c(F)c5F)c5ccc2[nH]5)C=C4)C=C3)cc1
REMARK SMILES IDX 6 1 5 2 4 3 3 4 1 5 2 6 27 8 28 9 89 10 29 11 88 12 30 13
REMARK SMILES IDX 31 14 32 15 82 16 33 17 87 18 81 19 83 20 34 21 86 22 80 23
REMARK SMILES IDX 79 24 35 26 67 27 47 28 66 29 48 30 51 31 65 32 84 33 49 34
REMARK SMILES IDX 50 35 64 37 85 38 52 39 36 40 37 41 45 42 38 43 39 44 43 45
REMARK SMILES IDX 46 46 40 47 41 48 44 49 42 50 68 51 69 52 77 53 70 54 71 55
REMARK SMILES IDX 75 56 78 57 72 58 73 59 76 60 74 61 53 62 54 63 62 64 55 65
REMARK SMILES IDX 56 66 60 67 63 68 57 69 58 70 61 71 59 72 7 73 8 74 9 75
REMARK SMILES IDX 10 76 11 77 12 79 13 80 14 81 18 82 15 83 17 84 16 85 19 86
REMARK SMILES IDX 20 87 21 88 22 89 23 90 26 91 24 92 25 93
REMARK H PARENT 3 7 83 25 51 36 10 78 25 94
REMARK Flexibility Score: inf
ROOT
ATOM      1  C   UNL A   1      32.501  28.818  25.381  1.00  0.00     0.002 C 
ENDROOT
BRANCH   1   2
ATOM      2  C   UNL A   1      33.411  28.298  26.494  1.00  0.00     0.021 C 
BRANCH   2   3
ATOM      3  C   UNL A   1      34.839  28.840  26.441  1.00  0.00     0.116 C 
BRANCH   3   4
ATOM      4  N   UNL A   1      35.039  30.092  27.149  1.00  0.00    -0.352 N 
ATOM      5  O   UNL A   1      36.039  31.704  28.351  1.00  0.00    -0.269 OA
ATOM      6  C   UNL A   1      36.118  30.592  27.834  1.00  0.00     0.251 C 
ATOM      7  H   UNL A   1      34.259  30.692  27.135  1.00  0.00     0.163 HD
BRANCH   6   8
ATOM      8  C   UNL A   1      37.356  29.802  28.018  1.00  0.00     0.039 A 
ATOM      9  C   UNL A   1      38.405  29.832  27.098  1.00  0.00     0.014 A 
ATOM     10  C   UNL A   1      37.474  29.032  29.186  1.00  0.00     0.014 A 
ATOM     11  C   UNL A   1      39.525  29.037  27.293  1.00  0.00     0.010 A 
ATOM     12  C   UNL A   1      38.622  28.272  29.414  1.00  0.00     0.010 A 
ATOM     13  C   UNL A   1      39.648  28.279  28.463  1.00  0.00    -0.014 A 
BRANCH  13  14
ATOM     14  C   UNL A   1      40.983  27.700  28.737  1.00  0.00     0.031 A 
ATOM     15  C   UNL A   1      41.102  26.261  28.226  1.00  0.00     0.074 A 
ATOM     16  C   UNL A   1      41.862  28.444  29.462  1.00  0.00     0.049 A 
ATOM     17  N   UNL A   1      41.832  25.281  28.665  1.00  0.00    -0.248 NA
ATOM     18  C   UNL A   1      40.218  25.827  27.110  1.00  0.00     0.031 C 
ATOM     19  C   UNL A   1      41.609  29.830  29.886  1.00  0.00     0.029 A 
ATOM     20  N   UNL A   1      43.112  28.205  30.003  1.00  0.00    -0.354 N 
ATOM     21  C   UNL A   1      41.633  24.194  27.792  1.00  0.00     0.074 A 
ATOM     22  C   UNL A   1      40.544  24.547  26.932  1.00  0.00     0.031 C 
ATOM     23  C   UNL A   1      42.617  30.283  30.655  1.00  0.00     0.029 A 
ATOM     24  C   UNL A   1      43.631  29.254  30.804  1.00  0.00     0.049 A 
ATOM     25  H   UNL A   1      43.607  27.368  29.842  1.00  0.00     0.167 HD
ATOM     26  C   UNL A   1      42.461  23.113  27.737  1.00  0.00     0.037 A 
ATOM     27  C   UNL A   1      44.770  29.290  31.564  1.00  0.00     0.037 A 
ATOM     28  C   UNL A   1      43.506  23.218  28.695  1.00  0.00     0.049 A 
ATOM     29  C   UNL A   1      45.485  28.031  31.282  1.00  0.00     0.074 A 
ATOM     30  C   UNL A   1      43.571  23.004  30.044  1.00  0.00     0.029 A 
ATOM     31  N   UNL A   1      44.660  23.841  28.289  1.00  0.00    -0.354 N 
ATOM     32  N   UNL A   1      46.132  27.778  30.183  1.00  0.00    -0.248 NA
ATOM     33  C   UNL A   1      45.452  26.954  32.280  1.00  0.00     0.031 C 
ATOM     34  C   UNL A   1      44.636  23.820  30.486  1.00  0.00     0.029 A 
ATOM     35  C   UNL A   1      45.206  24.466  29.384  1.00  0.00     0.049 A 
ATOM     36  H   UNL A   1      45.029  23.839  27.377  1.00  0.00     0.167 HD
ATOM     37  C   UNL A   1      46.297  26.413  30.242  1.00  0.00     0.074 A 
ATOM     38  C   UNL A   1      46.167  26.040  31.629  1.00  0.00     0.031 C 
ATOM     39  C   UNL A   1      45.989  25.661  29.155  1.00  0.00     0.037 A 
BRANCH  26  40
ATOM     40  C   UNL A   1      42.574  22.011  26.723  1.00  0.00     0.064 A 
ATOM     41  C   UNL A   1      41.998  20.755  27.029  1.00  0.00     0.173 A 
ATOM     42  C   UNL A   1      43.494  22.033  25.666  1.00  0.00     0.173 A 
ATOM     43  F   UNL A   1      41.081  20.641  28.004  1.00  0.00    -0.203 F 
ATOM     44  C   UNL A   1      42.407  19.582  26.399  1.00  0.00     0.198 A 
ATOM     45  C   UNL A   1      43.866  20.859  25.003  1.00  0.00     0.198 A 
ATOM     46  F   UNL A   1      44.125  23.163  25.322  1.00  0.00    -0.203 F 
ATOM     47  F   UNL A   1      41.929  18.400  26.812  1.00  0.00    -0.200 F 
ATOM     48  C   UNL A   1      43.353  19.634  25.395  1.00  0.00     0.200 A 
ATOM     49  F   UNL A   1      44.784  20.913  24.028  1.00  0.00    -0.200 F 
ATOM     50  F   UNL A   1      43.798  18.503  24.830  1.00  0.00    -0.200 F 
ENDBRANCH  26  40
BRANCH  27  51
ATOM     51  C   UNL A   1      45.409  30.211  32.590  1.00  0.00     0.064 A 
ATOM     52  C   UNL A   1      46.545  31.009  32.392  1.00  0.00     0.173 A 
ATOM     53  C   UNL A   1      44.820  30.372  33.879  1.00  0.00     0.173 A 
ATOM     54  F   UNL A   1      47.295  30.899  31.294  1.00  0.00    -0.203 F 
ATOM     55  C   UNL A   1      46.979  31.955  33.339  1.00  0.00     0.198 A 
ATOM     56  C   UNL A   1      45.228  31.332  34.806  1.00  0.00     0.198 A 
ATOM     57  F   UNL A   1      43.812  29.594  34.297  1.00  0.00    -0.203 F 
ATOM     58  F   UNL A   1      48.063  32.700  33.081  1.00  0.00    -0.200 F 
ATOM     59  C   UNL A   1      46.302  32.140  34.529  1.00  0.00     0.200 A 
ATOM     60  F   UNL A   1      44.554  31.472  35.958  1.00  0.00    -0.200 F 
ATOM     61  F   UNL A   1      46.689  33.077  35.405  1.00  0.00    -0.200 F 
ENDBRANCH  27  51
BRANCH  39  62
ATOM     62  C   UNL A   1      46.085  26.438  27.857  1.00  0.00     0.064 A 
ATOM     63  C   UNL A   1      44.920  26.815  27.174  1.00  0.00     0.173 A 
ATOM     64  C   UNL A   1      47.297  26.679  27.192  1.00  0.00     0.173 A 
ATOM     65  F   UNL A   1      43.719  26.623  27.741  1.00  0.00    -0.203 F 
ATOM     66  C   UNL A   1      44.971  27.380  25.896  1.00  0.00     0.198 A 
ATOM     67  C   UNL A   1      47.356  27.252  25.922  1.00  0.00     0.198 A 
ATOM     68  F   UNL A   1      48.454  26.354  27.761  1.00  0.00    -0.203 F 
ATOM     69  F   UNL A   1      43.836  27.716  25.268  1.00  0.00    -0.200 F 
ATOM     70  C   UNL A   1      46.189  27.596  25.270  1.00  0.00     0.200 A 
ATOM     71  F   UNL A   1      48.544  27.467  25.339  1.00  0.00    -0.200 F 
ATOM     72  F   UNL A   1      46.239  28.142  24.046  1.00  0.00    -0.200 F 
ENDBRANCH  39  62
ENDBRANCH  13  14
ENDBRANCH   6   8
ENDBRANCH   3   4
ENDBRANCH   2   3
ENDBRANCH   1   2
BRANCH   1  73
ATOM     73  C   UNL A   1      33.092  28.732  23.970  1.00  0.00     0.002 C 
BRANCH  73  74
ATOM     74  C   UNL A   1      32.213  28.018  22.932  1.00  0.00     0.021 C 
BRANCH  74  75
ATOM     75  C   UNL A   1      30.793  27.721  23.407  1.00  0.00     0.116 C 
BRANCH  75  76
ATOM     76  N   UNL A   1      30.416  26.358  23.100  1.00  0.00    -0.355 N 
ATOM     77  C   UNL A   1      30.864  25.180  23.619  1.00  0.00     0.238 C 
ATOM     78  H   UNL A   1      29.725  26.267  22.405  1.00  0.00     0.163 HD
ATOM     79  O   UNL A   1      30.363  24.149  23.163  1.00  0.00    -0.273 OA
BRANCH  77  80
ATOM     80  C   UNL A   1      31.848  25.185  24.797  1.00  0.00     0.162 C 
ATOM     81  C   UNL A   1      31.059  25.342  26.104  1.00  0.00     0.030 C 
ATOM     82  N   UNL A   1      32.757  23.995  24.908  1.00  0.00    -0.185 NA
ATOM     83  C   UNL A   1      30.269  24.079  26.435  1.00  0.00     0.004 C 
ATOM     84  C   UNL A   1      32.035  22.730  25.205  1.00  0.00     0.103 C 
ATOM     85  C   UNL A   1      31.195  22.872  26.474  1.00  0.00     0.017 C 
BRANCH  82  86
ATOM     86  S   UNL A   1      33.887  23.927  23.625  1.00  0.00     0.245 S 
ATOM     87  O   UNL A   1      33.644  22.729  22.837  1.00  0.00    -0.207 OA
ATOM     88  O   UNL A   1      33.929  25.229  23.012  1.00  0.00    -0.207 OA
BRANCH  86  89
ATOM     89  C   UNL A   1      35.482  23.683  24.262  1.00  0.00     0.100 A 
ATOM     90  C   UNL A   1      35.902  23.997  25.580  1.00  0.00     0.041 A 
ATOM     91  C   UNL A   1      36.562  23.121  23.611  1.00  0.00     0.104 A 
ATOM     92  C   UNL A   1      37.228  23.643  25.687  1.00  0.00     0.083 A 
ATOM     93  N   UNL A   1      37.616  23.096  24.491  1.00  0.00    -0.366 N 
ATOM     94  H   UNL A   1      38.513  22.740  24.294  1.00  0.00     0.165 HD
ENDBRANCH  86  89
ENDBRANCH  82  86
ENDBRANCH  77  80
ENDBRANCH  75  76
ENDBRANCH  74  75
ENDBRANCH  73  74
ENDBRANCH   1  73
TORSDOF 15
ENDMDL
