MODEL 1
REMARK VINA RESULT:     -12.2      0.000      0.000
REMARK SMILES O=C(NCCCCCCNC(=O)[C@@H]1Nc2ccc(NC(=O)c3ccccc3)cc2[C@@H]2C=CC[C@H]12)c1ccc(-c2c3nc(c(-c4c(F)c(F)c(F)c(F)c4F)c4ccc([nH]4)c(-c4c(F)c(F)c(F)c(F)c4F)c4nc(c(-c5c(F)c(F)c(F)c(F)c5F)c5ccc2[nH]5)C=C4)C=C3)cc1
REMARK SMILES IDX 6 1 5 2 4 3 3 4 1 5 2 6 35 8 36 9 97 10 37 11 96 12 38 13
REMARK SMILES IDX 39 14 40 15 90 16 41 17 95 18 89 19 91 20 42 21 94 22 88 23
REMARK SMILES IDX 87 24 43 26 75 27 55 28 74 29 56 30 59 31 73 32 92 33 57 34
REMARK SMILES IDX 58 35 72 37 93 38 60 39 44 40 45 41 53 42 46 43 47 44 51 45
REMARK SMILES IDX 54 46 48 47 49 48 52 49 50 50 76 51 77 52 85 53 78 54 79 55
REMARK SMILES IDX 83 56 86 57 80 58 81 59 84 60 82 61 61 62 62 63 70 64 63 65
REMARK SMILES IDX 64 66 68 67 71 68 65 69 66 70 69 71 67 72 7 73 8 74 9 75
REMARK SMILES IDX 10 76 11 77 12 79 13 80 14 81 34 82 15 83 30 85 33 86 16 87
REMARK SMILES IDX 29 88 31 89 32 90 17 91 28 92 18 93 19 94 20 95 21 97 22 98
REMARK SMILES IDX 23 99 27 100 24 101 26 102 25 103
REMARK H PARENT 3 7 91 25 59 36 10 78 14 84 19 96
REMARK Flexibility Score: inf
ROOT
ATOM      1  C   UNL A   1      35.069  35.084  28.328  1.00  0.00     0.002 C 
ENDROOT
BRANCH   1   2
ATOM      2  C   UNL A   1      33.877  35.981  28.667  1.00  0.00     0.021 C 
BRANCH   2   3
ATOM      3  C   UNL A   1      32.785  35.293  29.474  1.00  0.00     0.116 C 
BRANCH   3   4
ATOM      4  N   UNL A   1      32.335  36.117  30.584  1.00  0.00    -0.352 N 
ATOM      5  O   UNL A   1      32.062  36.683  32.751  1.00  0.00    -0.269 OA
ATOM      6  C   UNL A   1      32.703  36.067  31.901  1.00  0.00     0.251 C 
ATOM      7  H   UNL A   1      31.672  36.810  30.356  1.00  0.00     0.163 HD
BRANCH   6   8
ATOM      8  C   UNL A   1      33.870  35.258  32.302  1.00  0.00     0.039 A 
ATOM      9  C   UNL A   1      35.168  35.762  32.165  1.00  0.00     0.014 A 
ATOM     10  C   UNL A   1      33.658  33.990  32.849  1.00  0.00     0.014 A 
ATOM     11  C   UNL A   1      36.259  34.957  32.473  1.00  0.00     0.010 A 
ATOM     12  C   UNL A   1      34.753  33.213  33.227  1.00  0.00     0.010 A 
ATOM     13  C   UNL A   1      36.060  33.684  33.025  1.00  0.00    -0.014 A 
BRANCH  13  14
ATOM     14  C   UNL A   1      37.220  32.869  33.459  1.00  0.00     0.031 A 
ATOM     15  C   UNL A   1      37.922  33.162  34.750  1.00  0.00     0.074 A 
ATOM     16  C   UNL A   1      37.667  31.893  32.647  1.00  0.00     0.049 A 
ATOM     17  N   UNL A   1      39.015  32.632  35.236  1.00  0.00    -0.248 NA
ATOM     18  C   UNL A   1      37.323  34.197  35.604  1.00  0.00     0.031 C 
ATOM     19  C   UNL A   1      37.065  31.526  31.365  1.00  0.00     0.029 A 
ATOM     20  N   UNL A   1      38.742  31.050  32.766  1.00  0.00    -0.354 N 
ATOM     21  C   UNL A   1      39.251  33.284  36.438  1.00  0.00     0.074 A 
ATOM     22  C   UNL A   1      38.199  34.268  36.595  1.00  0.00     0.031 C 
ATOM     23  C   UNL A   1      37.779  30.535  30.813  1.00  0.00     0.029 A 
ATOM     24  C   UNL A   1      38.924  30.244  31.670  1.00  0.00     0.049 A 
ATOM     25  H   UNL A   1      39.326  31.026  33.558  1.00  0.00     0.167 HD
ATOM     26  C   UNL A   1      40.254  33.077  37.325  1.00  0.00     0.037 A 
ATOM     27  C   UNL A   1      39.923  29.398  31.364  1.00  0.00     0.037 A 
ATOM     28  C   UNL A   1      41.294  32.094  37.150  1.00  0.00     0.049 A 
ATOM     29  C   UNL A   1      41.050  29.216  32.337  1.00  0.00     0.074 A 
ATOM     30  C   UNL A   1      42.329  31.770  38.010  1.00  0.00     0.029 A 
ATOM     31  N   UNL A   1      41.442  31.292  36.026  1.00  0.00    -0.354 N 
ATOM     32  N   UNL A   1      41.242  29.802  33.494  1.00  0.00    -0.248 NA
ATOM     33  C   UNL A   1      42.099  28.255  31.969  1.00  0.00     0.031 C 
ATOM     34  C   UNL A   1      43.140  30.822  37.378  1.00  0.00     0.029 A 
ATOM     35  C   UNL A   1      42.572  30.499  36.156  1.00  0.00     0.049 A 
ATOM     36  H   UNL A   1      40.835  31.286  35.252  1.00  0.00     0.167 HD
ATOM     37  C   UNL A   1      42.415  29.264  34.006  1.00  0.00     0.074 A 
ATOM     38  C   UNL A   1      42.891  28.302  33.032  1.00  0.00     0.031 C 
ATOM     39  C   UNL A   1      43.032  29.539  35.181  1.00  0.00     0.037 A 
BRANCH  26  40
ATOM     40  C   UNL A   1      40.298  33.960  38.542  1.00  0.00     0.064 A 
ATOM     41  C   UNL A   1      39.587  33.653  39.711  1.00  0.00     0.173 A 
ATOM     42  C   UNL A   1      41.072  35.131  38.537  1.00  0.00     0.173 A 
ATOM     43  F   UNL A   1      38.826  32.549  39.770  1.00  0.00    -0.203 F 
ATOM     44  C   UNL A   1      39.610  34.508  40.811  1.00  0.00     0.198 A 
ATOM     45  C   UNL A   1      41.121  35.965  39.651  1.00  0.00     0.198 A 
ATOM     46  F   UNL A   1      41.782  35.470  37.450  1.00  0.00    -0.203 F 
ATOM     47  F   UNL A   1      38.866  34.228  41.890  1.00  0.00    -0.200 F 
ATOM     48  C   UNL A   1      40.379  35.661  40.782  1.00  0.00     0.200 A 
ATOM     49  F   UNL A   1      41.878  37.071  39.625  1.00  0.00    -0.200 F 
ATOM     50  F   UNL A   1      40.396  36.485  41.838  1.00  0.00    -0.200 F 
ENDBRANCH  26  40
BRANCH  27  51
ATOM     51  C   UNL A   1      39.888  28.684  30.062  1.00  0.00     0.064 A 
ATOM     52  C   UNL A   1      40.458  29.247  28.914  1.00  0.00     0.173 A 
ATOM     53  C   UNL A   1      39.343  27.395  29.959  1.00  0.00     0.173 A 
ATOM     54  F   UNL A   1      40.979  30.481  28.961  1.00  0.00    -0.203 F 
ATOM     55  C   UNL A   1      40.483  28.547  27.709  1.00  0.00     0.198 A 
ATOM     56  C   UNL A   1      39.395  26.686  28.762  1.00  0.00     0.198 A 
ATOM     57  F   UNL A   1      38.797  26.808  31.035  1.00  0.00    -0.203 F 
ATOM     58  F   UNL A   1      41.014  29.116  26.618  1.00  0.00    -0.200 F 
ATOM     59  C   UNL A   1      39.962  27.263  27.637  1.00  0.00     0.200 A 
ATOM     60  F   UNL A   1      38.911  25.437  28.704  1.00  0.00    -0.200 F 
ATOM     61  F   UNL A   1      40.007  26.583  26.484  1.00  0.00    -0.200 F 
ENDBRANCH  27  51
BRANCH  39  62
ATOM     62  C   UNL A   1      44.270  28.760  35.515  1.00  0.00     0.064 A 
ATOM     63  C   UNL A   1      45.551  29.231  35.195  1.00  0.00     0.173 A 
ATOM     64  C   UNL A   1      44.172  27.564  36.243  1.00  0.00     0.173 A 
ATOM     65  F   UNL A   1      45.699  30.360  34.485  1.00  0.00    -0.203 F 
ATOM     66  C   UNL A   1      46.688  28.528  35.586  1.00  0.00     0.198 A 
ATOM     67  C   UNL A   1      45.312  26.881  36.659  1.00  0.00     0.198 A 
ATOM     68  F   UNL A   1      42.969  27.073  36.576  1.00  0.00    -0.203 F 
ATOM     69  F   UNL A   1      47.903  28.981  35.245  1.00  0.00    -0.200 F 
ATOM     70  C   UNL A   1      46.568  27.362  36.328  1.00  0.00     0.200 A 
ATOM     71  F   UNL A   1      45.192  25.763  37.388  1.00  0.00    -0.200 F 
ATOM     72  F   UNL A   1      47.665  26.702  36.725  1.00  0.00    -0.200 F 
ENDBRANCH  39  62
ENDBRANCH  13  14
ENDBRANCH   6   8
ENDBRANCH   3   4
ENDBRANCH   2   3
ENDBRANCH   1   2
BRANCH   1  73
ATOM     73  C   UNL A   1      35.035  33.695  28.976  1.00  0.00     0.002 C 
BRANCH  73  74
ATOM     74  C   UNL A   1      35.565  32.557  28.096  1.00  0.00     0.021 C 
BRANCH  74  75
ATOM     75  C   UNL A   1      34.654  31.333  28.043  1.00  0.00     0.116 C 
BRANCH  75  76
ATOM     76  N   UNL A   1      33.274  31.716  27.815  1.00  0.00    -0.354 N 
ATOM     77  C   UNL A   1      32.380  31.293  26.875  1.00  0.00     0.242 C 
ATOM     78  H   UNL A   1      32.925  32.392  28.440  1.00  0.00     0.163 HD
ATOM     79  O   UNL A   1      31.294  31.876  26.825  1.00  0.00    -0.273 OA
BRANCH  77  80
ATOM     80  C   UNL A   1      32.753  30.158  25.908  1.00  0.00     0.173 C 
ATOM     81  N   UNL A   1      31.721  29.989  24.898  1.00  0.00    -0.373 N 
ATOM     82  C   UNL A   1      32.998  28.846  26.638  1.00  0.00     0.036 C 
ATOM     83  C   UNL A   1      31.798  28.901  24.054  1.00  0.00     0.039 A 
ATOM     84  H   UNL A   1      30.984  30.637  24.818  1.00  0.00     0.161 HD
ATOM     85  C   UNL A   1      33.397  27.737  25.637  1.00  0.00     0.050 C 
ATOM     86  C   UNL A   1      31.807  28.275  27.424  1.00  0.00     0.034 C 
ATOM     87  C   UNL A   1      31.005  28.860  22.916  1.00  0.00     0.028 A 
ATOM     88  C   UNL A   1      32.692  27.844  24.296  1.00  0.00    -0.015 A 
ATOM     89  C   UNL A   1      32.971  26.513  26.407  1.00  0.00    -0.023 C 
ATOM     90  C   UNL A   1      32.095  26.808  27.376  1.00  0.00    -0.030 C 
ATOM     91  C   UNL A   1      31.154  27.835  21.982  1.00  0.00     0.028 A 
ATOM     92  C   UNL A   1      32.896  26.863  23.304  1.00  0.00     0.032 A 
ATOM     93  C   UNL A   1      32.164  26.886  22.113  1.00  0.00     0.041 A 
BRANCH  93  94
ATOM     94  N   UNL A   1      32.492  25.931  21.128  1.00  0.00    -0.322 N 
ATOM     95  C   UNL A   1      32.901  24.616  21.214  1.00  0.00     0.255 C 
ATOM     96  H   UNL A   1      32.414  26.266  20.205  1.00  0.00     0.170 HD
ATOM     97  O   UNL A   1      33.271  24.016  20.206  1.00  0.00    -0.269 OA
BRANCH  95  98
ATOM     98  C   UNL A   1      32.877  23.888  22.496  1.00  0.00     0.040 A 
ATOM     99  C   UNL A   1      34.097  23.560  23.096  1.00  0.00     0.014 A 
ATOM    100  C   UNL A   1      31.665  23.608  23.141  1.00  0.00     0.014 A 
ATOM    101  C   UNL A   1      34.105  23.031  24.386  1.00  0.00     0.001 A 
ATOM    102  C   UNL A   1      31.683  23.089  24.436  1.00  0.00     0.001 A 
ATOM    103  C   UNL A   1      32.900  22.815  25.062  1.00  0.00     0.000 A 
ENDBRANCH  95  98
ENDBRANCH  93  94
ENDBRANCH  77  80
ENDBRANCH  75  76
ENDBRANCH  74  75
ENDBRANCH  73  74
ENDBRANCH   1  73
TORSDOF 15
ENDMDL
MODEL 2
REMARK VINA RESULT:     -12.1      1.901      3.196
REMARK SMILES O=C(NCCCCCCNC(=O)[C@@H]1Nc2ccc(NC(=O)c3ccccc3)cc2[C@@H]2C=CC[C@H]12)c1ccc(-c2c3nc(c(-c4c(F)c(F)c(F)c(F)c4F)c4ccc([nH]4)c(-c4c(F)c(F)c(F)c(F)c4F)c4nc(c(-c5c(F)c(F)c(F)c(F)c5F)c5ccc2[nH]5)C=C4)C=C3)cc1
REMARK SMILES IDX 6 1 5 2 4 3 3 4 1 5 2 6 35 8 36 9 97 10 37 11 96 12 38 13
REMARK SMILES IDX 39 14 40 15 90 16 41 17 95 18 89 19 91 20 42 21 94 22 88 23
REMARK SMILES IDX 87 24 43 26 75 27 55 28 74 29 56 30 59 31 73 32 92 33 57 34
REMARK SMILES IDX 58 35 72 37 93 38 60 39 44 40 45 41 53 42 46 43 47 44 51 45
REMARK SMILES IDX 54 46 48 47 49 48 52 49 50 50 76 51 77 52 85 53 78 54 79 55
REMARK SMILES IDX 83 56 86 57 80 58 81 59 84 60 82 61 61 62 62 63 70 64 63 65
REMARK SMILES IDX 64 66 68 67 71 68 65 69 66 70 69 71 67 72 7 73 8 74 9 75
REMARK SMILES IDX 10 76 11 77 12 79 13 80 14 81 34 82 15 83 30 85 33 86 16 87
REMARK SMILES IDX 29 88 31 89 32 90 17 91 28 92 18 93 19 94 20 95 21 97 22 98
REMARK SMILES IDX 23 99 27 100 24 101 26 102 25 103
REMARK H PARENT 3 7 91 25 59 36 10 78 14 84 19 96
REMARK Flexibility Score: inf
ROOT
ATOM      1  C   UNL A   1      35.475  32.976  27.861  1.00  0.00     0.002 C 
ENDROOT
BRANCH   1   2
ATOM      2  C   UNL A   1      34.626  34.249  27.851  1.00  0.00     0.021 C 
BRANCH   2   3
ATOM      3  C   UNL A   1      33.206  34.056  28.366  1.00  0.00     0.116 C 
BRANCH   3   4
ATOM      4  N   UNL A   1      32.849  35.066  29.348  1.00  0.00    -0.352 N 
ATOM      5  O   UNL A   1      32.712  35.978  31.408  1.00  0.00    -0.269 OA
ATOM      6  C   UNL A   1      33.282  35.205  30.639  1.00  0.00     0.251 C 
ATOM      7  H   UNL A   1      32.205  35.746  29.042  1.00  0.00     0.163 HD
BRANCH   6   8
ATOM      8  C   UNL A   1      34.433  34.413  31.113  1.00  0.00     0.039 A 
ATOM      9  C   UNL A   1      35.738  34.890  30.957  1.00  0.00     0.014 A 
ATOM     10  C   UNL A   1      34.197  33.190  31.745  1.00  0.00     0.014 A 
ATOM     11  C   UNL A   1      36.815  34.096  31.336  1.00  0.00     0.010 A 
ATOM     12  C   UNL A   1      35.277  32.428  32.192  1.00  0.00     0.010 A 
ATOM     13  C   UNL A   1      36.593  32.868  31.975  1.00  0.00    -0.014 A 
BRANCH  13  14
ATOM     14  C   UNL A   1      37.736  32.071  32.480  1.00  0.00     0.031 A 
ATOM     15  C   UNL A   1      38.396  32.418  33.780  1.00  0.00     0.074 A 
ATOM     16  C   UNL A   1      38.207  31.061  31.726  1.00  0.00     0.049 A 
ATOM     17  N   UNL A   1      39.472  31.909  34.324  1.00  0.00    -0.248 NA
ATOM     18  C   UNL A   1      37.771  33.490  34.569  1.00  0.00     0.031 C 
ATOM     19  C   UNL A   1      37.646  30.640  30.442  1.00  0.00     0.029 A 
ATOM     20  N   UNL A   1      39.276  30.223  31.917  1.00  0.00    -0.354 N 
ATOM     21  C   UNL A   1      39.670  32.612  35.504  1.00  0.00     0.074 A 
ATOM     22  C   UNL A   1      38.615  33.602  35.585  1.00  0.00     0.031 C 
ATOM     23  C   UNL A   1      38.376  29.625  29.957  1.00  0.00     0.029 A 
ATOM     24  C   UNL A   1      39.492  29.371  30.862  1.00  0.00     0.049 A 
ATOM     25  H   UNL A   1      39.833  30.232  32.728  1.00  0.00     0.167 HD
ATOM     26  C   UNL A   1      40.643  32.442  36.432  1.00  0.00     0.037 A 
ATOM     27  C   UNL A   1      40.499  28.511  30.626  1.00  0.00     0.037 A 
ATOM     28  C   UNL A   1      41.686  31.453  36.333  1.00  0.00     0.049 A 
ATOM     29  C   UNL A   1      41.593  28.370  31.643  1.00  0.00     0.074 A 
ATOM     30  C   UNL A   1      42.691  31.165  37.240  1.00  0.00     0.029 A 
ATOM     31  N   UNL A   1      41.869  30.603  35.250  1.00  0.00    -0.354 N 
ATOM     32  N   UNL A   1      41.748  29.005  32.779  1.00  0.00    -0.248 NA
ATOM     33  C   UNL A   1      42.652  27.394  31.351  1.00  0.00     0.031 C 
ATOM     34  C   UNL A   1      43.521  30.191  36.676  1.00  0.00     0.029 A 
ATOM     35  C   UNL A   1      42.992  29.816  35.451  1.00  0.00     0.049 A 
ATOM     36  H   UNL A   1      41.287  30.564  34.457  1.00  0.00     0.167 HD
ATOM     37  C   UNL A   1      42.902  28.489  33.352  1.00  0.00     0.074 A 
ATOM     38  C   UNL A   1      43.408  27.487  32.436  1.00  0.00     0.031 C 
ATOM     39  C   UNL A   1      43.482  28.814  34.533  1.00  0.00     0.037 A 
BRANCH  26  40
ATOM     40  C   UNL A   1      40.648  33.377  37.610  1.00  0.00     0.064 A 
ATOM     41  C   UNL A   1      41.522  34.472  37.687  1.00  0.00     0.173 A 
ATOM     42  C   UNL A   1      39.758  33.176  38.676  1.00  0.00     0.173 A 
ATOM     43  F   UNL A   1      42.398  34.710  36.700  1.00  0.00    -0.203 F 
ATOM     44  C   UNL A   1      41.537  35.300  38.808  1.00  0.00     0.198 A 
ATOM     45  C   UNL A   1      39.752  34.028  39.778  1.00  0.00     0.198 A 
ATOM     46  F   UNL A   1      38.892  32.152  38.652  1.00  0.00    -0.203 F 
ATOM     47  F   UNL A   1      42.430  36.297  38.889  1.00  0.00    -0.200 F 
ATOM     48  C   UNL A   1      40.650  35.080  39.850  1.00  0.00     0.200 A 
ATOM     49  F   UNL A   1      38.882  33.821  40.777  1.00  0.00    -0.200 F 
ATOM     50  F   UNL A   1      40.671  35.874  40.929  1.00  0.00    -0.200 F 
ENDBRANCH  26  40
BRANCH  27  51
ATOM     51  C   UNL A   1      40.505  27.742  29.356  1.00  0.00     0.064 A 
ATOM     52  C   UNL A   1      39.685  26.621  29.186  1.00  0.00     0.173 A 
ATOM     53  C   UNL A   1      41.284  28.155  28.264  1.00  0.00     0.173 A 
ATOM     54  F   UNL A   1      38.933  26.181  30.206  1.00  0.00    -0.203 F 
ATOM     55  C   UNL A   1      39.642  25.940  27.971  1.00  0.00     0.198 A 
ATOM     56  C   UNL A   1      41.219  27.491  27.042  1.00  0.00     0.198 A 
ATOM     57  F   UNL A   1      42.077  29.231  28.373  1.00  0.00    -0.203 F 
ATOM     58  F   UNL A   1      38.866  24.856  27.841  1.00  0.00    -0.200 F 
ATOM     59  C   UNL A   1      40.401  26.382  26.897  1.00  0.00     0.200 A 
ATOM     60  F   UNL A   1      41.936  27.937  26.001  1.00  0.00    -0.200 F 
ATOM     61  F   UNL A   1      40.342  25.740  25.723  1.00  0.00    -0.200 F 
ENDBRANCH  27  51
BRANCH  39  62
ATOM     62  C   UNL A   1      44.707  28.049  34.941  1.00  0.00     0.064 A 
ATOM     63  C   UNL A   1      44.624  26.832  35.632  1.00  0.00     0.173 A 
ATOM     64  C   UNL A   1      45.978  28.503  34.556  1.00  0.00     0.173 A 
ATOM     65  F   UNL A   1      43.434  26.364  36.037  1.00  0.00    -0.203 F 
ATOM     66  C   UNL A   1      45.772  26.101  35.929  1.00  0.00     0.198 A 
ATOM     67  C   UNL A   1      47.120  27.753  34.828  1.00  0.00     0.198 A 
ATOM     68  F   UNL A   1      46.110  29.660  33.890  1.00  0.00    -0.203 F 
ATOM     69  F   UNL A   1      45.674  24.955  36.617  1.00  0.00    -0.200 F 
ATOM     70  C   UNL A   1      47.016  26.556  35.516  1.00  0.00     0.200 A 
ATOM     71  F   UNL A   1      48.318  28.188  34.414  1.00  0.00    -0.200 F 
ATOM     72  F   UNL A   1      48.116  25.838  35.781  1.00  0.00    -0.200 F 
ENDBRANCH  39  62
ENDBRANCH  13  14
ENDBRANCH   6   8
ENDBRANCH   3   4
ENDBRANCH   2   3
ENDBRANCH   1   2
BRANCH   1  73
ATOM     73  C   UNL A   1      34.735  31.710  28.303  1.00  0.00     0.002 C 
BRANCH  73  74
ATOM     74  C   UNL A   1      35.253  30.407  27.682  1.00  0.00     0.021 C 
BRANCH  74  75
ATOM     75  C   UNL A   1      34.152  29.446  27.238  1.00  0.00     0.116 C 
BRANCH  75  76
ATOM     76  N   UNL A   1      33.776  29.683  25.857  1.00  0.00    -0.354 N 
ATOM     77  C   UNL A   1      33.462  28.806  24.861  1.00  0.00     0.242 C 
ATOM     78  H   UNL A   1      33.742  30.632  25.596  1.00  0.00     0.163 HD
ATOM     79  O   UNL A   1      33.295  29.270  23.731  1.00  0.00    -0.273 OA
BRANCH  77  80
ATOM     80  C   UNL A   1      33.364  27.301  25.157  1.00  0.00     0.173 C 
ATOM     81  N   UNL A   1      33.668  26.525  23.966  1.00  0.00    -0.373 N 
ATOM     82  C   UNL A   1      31.997  26.917  25.704  1.00  0.00     0.036 C 
ATOM     83  C   UNL A   1      33.455  25.163  23.995  1.00  0.00     0.039 A 
ATOM     84  H   UNL A   1      34.018  26.963  23.157  1.00  0.00     0.161 HD
ATOM     85  C   UNL A   1      31.945  25.404  26.016  1.00  0.00     0.050 C 
ATOM     86  C   UNL A   1      30.798  27.183  24.778  1.00  0.00     0.034 C 
ATOM     87  C   UNL A   1      33.990  24.365  22.994  1.00  0.00     0.028 A 
ATOM     88  C   UNL A   1      32.739  24.552  25.040  1.00  0.00    -0.015 A 
ATOM     89  C   UNL A   1      30.461  25.157  25.908  1.00  0.00    -0.023 C 
ATOM     90  C   UNL A   1      29.839  26.125  25.223  1.00  0.00    -0.030 C 
ATOM     91  C   UNL A   1      33.896  22.976  23.066  1.00  0.00     0.028 A 
ATOM     92  C   UNL A   1      32.729  23.147  25.148  1.00  0.00     0.032 A 
ATOM     93  C   UNL A   1      33.359  22.350  24.188  1.00  0.00     0.041 A 
BRANCH  93  94
ATOM     94  N   UNL A   1      33.391  20.958  24.415  1.00  0.00    -0.322 N 
ATOM     95  C   UNL A   1      34.418  20.098  24.746  1.00  0.00     0.255 C 
ATOM     96  H   UNL A   1      32.515  20.518  24.321  1.00  0.00     0.170 HD
ATOM     97  O   UNL A   1      34.229  18.882  24.753  1.00  0.00    -0.269 OA
BRANCH  95  98
ATOM     98  C   UNL A   1      35.749  20.604  25.126  1.00  0.00     0.040 A 
ATOM     99  C   UNL A   1      36.872  19.841  24.788  1.00  0.00     0.014 A 
ATOM    100  C   UNL A   1      35.895  21.859  25.734  1.00  0.00     0.014 A 
ATOM    101  C   UNL A   1      38.146  20.376  24.977  1.00  0.00     0.001 A 
ATOM    102  C   UNL A   1      37.173  22.391  25.909  1.00  0.00     0.001 A 
ATOM    103  C   UNL A   1      38.294  21.656  25.518  1.00  0.00     0.000 A 
ENDBRANCH  95  98
ENDBRANCH  93  94
ENDBRANCH  77  80
ENDBRANCH  75  76
ENDBRANCH  74  75
ENDBRANCH  73  74
ENDBRANCH   1  73
TORSDOF 15
ENDMDL
MODEL 3
REMARK VINA RESULT:     -12.1      6.334     11.988
REMARK SMILES O=C(NCCCCCCNC(=O)[C@@H]1Nc2ccc(NC(=O)c3ccccc3)cc2[C@@H]2C=CC[C@H]12)c1ccc(-c2c3nc(c(-c4c(F)c(F)c(F)c(F)c4F)c4ccc([nH]4)c(-c4c(F)c(F)c(F)c(F)c4F)c4nc(c(-c5c(F)c(F)c(F)c(F)c5F)c5ccc2[nH]5)C=C4)C=C3)cc1
REMARK SMILES IDX 6 1 5 2 4 3 3 4 1 5 2 6 35 8 36 9 97 10 37 11 96 12 38 13
REMARK SMILES IDX 39 14 40 15 90 16 41 17 95 18 89 19 91 20 42 21 94 22 88 23
REMARK SMILES IDX 87 24 43 26 75 27 55 28 74 29 56 30 59 31 73 32 92 33 57 34
REMARK SMILES IDX 58 35 72 37 93 38 60 39 44 40 45 41 53 42 46 43 47 44 51 45
REMARK SMILES IDX 54 46 48 47 49 48 52 49 50 50 76 51 77 52 85 53 78 54 79 55
REMARK SMILES IDX 83 56 86 57 80 58 81 59 84 60 82 61 61 62 62 63 70 64 63 65
REMARK SMILES IDX 64 66 68 67 71 68 65 69 66 70 69 71 67 72 7 73 8 74 9 75
REMARK SMILES IDX 10 76 11 77 12 79 13 80 14 81 34 82 15 83 30 85 33 86 16 87
REMARK SMILES IDX 29 88 31 89 32 90 17 91 28 92 18 93 19 94 20 95 21 97 22 98
REMARK SMILES IDX 23 99 27 100 24 101 26 102 25 103
REMARK H PARENT 3 7 91 25 59 36 10 78 14 84 19 96
REMARK Flexibility Score: inf
ROOT
ATOM      1  C   UNL A   1      41.012  21.258  26.881  1.00  0.00     0.002 C 
ENDROOT
BRANCH   1   2
ATOM      2  C   UNL A   1      41.211  19.959  26.098  1.00  0.00     0.021 C 
BRANCH   2   3
ATOM      3  C   UNL A   1      42.403  19.129  26.556  1.00  0.00     0.116 C 
BRANCH   3   4
ATOM      4  N   UNL A   1      43.283  18.795  25.448  1.00  0.00    -0.352 N 
ATOM      5  O   UNL A   1      44.553  19.209  23.629  1.00  0.00    -0.269 OA
ATOM      6  C   UNL A   1      44.042  19.625  24.668  1.00  0.00     0.251 C 
ATOM      7  H   UNL A   1      43.341  17.836  25.228  1.00  0.00     0.163 HD
BRANCH   6   8
ATOM      8  C   UNL A   1      44.237  21.030  25.073  1.00  0.00     0.039 A 
ATOM      9  C   UNL A   1      44.957  21.345  26.230  1.00  0.00     0.014 A 
ATOM     10  C   UNL A   1      43.716  22.044  24.266  1.00  0.00     0.014 A 
ATOM     11  C   UNL A   1      45.063  22.669  26.640  1.00  0.00     0.010 A 
ATOM     12  C   UNL A   1      43.888  23.377  24.640  1.00  0.00     0.010 A 
ATOM     13  C   UNL A   1      44.547  23.697  25.838  1.00  0.00    -0.014 A 
BRANCH  13  14
ATOM     14  C   UNL A   1      44.756  25.116  26.215  1.00  0.00     0.031 A 
ATOM     15  C   UNL A   1      46.124  25.726  26.167  1.00  0.00     0.074 A 
ATOM     16  C   UNL A   1      43.706  25.833  26.653  1.00  0.00     0.049 A 
ATOM     17  N   UNL A   1      46.516  26.910  26.565  1.00  0.00    -0.248 NA
ATOM     18  C   UNL A   1      47.198  24.891  25.610  1.00  0.00     0.031 C 
ATOM     19  C   UNL A   1      42.331  25.337  26.747  1.00  0.00     0.029 A 
ATOM     20  N   UNL A   1      43.631  27.119  27.124  1.00  0.00    -0.354 N 
ATOM     21  C   UNL A   1      47.883  26.956  26.331  1.00  0.00     0.074 A 
ATOM     22  C   UNL A   1      48.257  25.669  25.780  1.00  0.00     0.031 C 
ATOM     23  C   UNL A   1      41.550  26.305  27.246  1.00  0.00     0.029 A 
ATOM     24  C   UNL A   1      42.378  27.462  27.569  1.00  0.00     0.049 A 
ATOM     25  H   UNL A   1      44.399  27.734  27.141  1.00  0.00     0.167 HD
ATOM     26  C   UNL A   1      48.741  27.979  26.556  1.00  0.00     0.037 A 
ATOM     27  C   UNL A   1      41.950  28.566  28.207  1.00  0.00     0.037 A 
ATOM     28  C   UNL A   1      48.350  29.252  27.109  1.00  0.00     0.049 A 
ATOM     29  C   UNL A   1      42.926  29.670  28.491  1.00  0.00     0.074 A 
ATOM     30  C   UNL A   1      49.131  30.372  27.333  1.00  0.00     0.029 A 
ATOM     31  N   UNL A   1      47.069  29.564  27.544  1.00  0.00    -0.354 N 
ATOM     32  N   UNL A   1      44.208  29.725  28.224  1.00  0.00    -0.248 NA
ATOM     33  C   UNL A   1      42.400  30.867  29.161  1.00  0.00     0.031 C 
ATOM     34  C   UNL A   1      48.340  31.336  27.965  1.00  0.00     0.029 A 
ATOM     35  C   UNL A   1      47.047  30.847  28.068  1.00  0.00     0.049 A 
ATOM     36  H   UNL A   1      46.291  28.964  27.489  1.00  0.00     0.167 HD
ATOM     37  C   UNL A   1      44.638  30.968  28.666  1.00  0.00     0.074 A 
ATOM     38  C   UNL A   1      43.478  31.638  29.218  1.00  0.00     0.031 C 
ATOM     39  C   UNL A   1      45.881  31.506  28.609  1.00  0.00     0.037 A 
BRANCH  26  40
ATOM     40  C   UNL A   1      50.195  27.746  26.248  1.00  0.00     0.064 A 
ATOM     41  C   UNL A   1      50.705  27.848  24.945  1.00  0.00     0.173 A 
ATOM     42  C   UNL A   1      51.093  27.422  27.277  1.00  0.00     0.173 A 
ATOM     43  F   UNL A   1      49.891  28.150  23.921  1.00  0.00    -0.203 F 
ATOM     44  C   UNL A   1      52.047  27.587  24.677  1.00  0.00     0.198 A 
ATOM     45  C   UNL A   1      52.441  27.197  27.010  1.00  0.00     0.198 A 
ATOM     46  F   UNL A   1      50.664  27.322  28.544  1.00  0.00    -0.203 F 
ATOM     47  F   UNL A   1      52.495  27.622  23.414  1.00  0.00    -0.200 F 
ATOM     48  C   UNL A   1      52.915  27.266  25.710  1.00  0.00     0.200 A 
ATOM     49  F   UNL A   1      53.280  26.902  28.013  1.00  0.00    -0.200 F 
ATOM     50  F   UNL A   1      54.204  27.010  25.449  1.00  0.00    -0.200 F 
ENDBRANCH  26  40
BRANCH  27  51
ATOM     51  C   UNL A   1      40.529  28.649  28.627  1.00  0.00     0.064 A 
ATOM     52  C   UNL A   1      40.140  28.314  29.930  1.00  0.00     0.173 A 
ATOM     53  C   UNL A   1      39.542  29.128  27.751  1.00  0.00     0.173 A 
ATOM     54  F   UNL A   1      41.045  27.840  30.798  1.00  0.00    -0.203 F 
ATOM     55  C   UNL A   1      38.816  28.456  30.342  1.00  0.00     0.198 A 
ATOM     56  C   UNL A   1      38.226  29.295  28.173  1.00  0.00     0.198 A 
ATOM     57  F   UNL A   1      39.869  29.472  26.496  1.00  0.00    -0.203 F 
ATOM     58  F   UNL A   1      38.464  28.109  31.587  1.00  0.00    -0.200 F 
ATOM     59  C   UNL A   1      37.863  28.957  29.466  1.00  0.00     0.200 A 
ATOM     60  F   UNL A   1      37.315  29.802  27.331  1.00  0.00    -0.200 F 
ATOM     61  F   UNL A   1      36.596  29.113  29.871  1.00  0.00    -0.200 F 
ENDBRANCH  27  51
BRANCH  39  62
ATOM     62  C   UNL A   1      46.056  32.908  29.112  1.00  0.00     0.064 A 
ATOM     63  C   UNL A   1      46.460  33.179  30.428  1.00  0.00     0.173 A 
ATOM     64  C   UNL A   1      45.899  33.994  28.236  1.00  0.00     0.173 A 
ATOM     65  F   UNL A   1      46.608  32.178  31.309  1.00  0.00    -0.203 F 
ATOM     66  C   UNL A   1      46.693  34.486  30.848  1.00  0.00     0.198 A 
ATOM     67  C   UNL A   1      46.163  35.296  28.652  1.00  0.00     0.198 A 
ATOM     68  F   UNL A   1      45.517  33.787  26.967  1.00  0.00    -0.203 F 
ATOM     69  F   UNL A   1      47.050  34.726  32.117  1.00  0.00    -0.200 F 
ATOM     70  C   UNL A   1      46.557  35.541  29.957  1.00  0.00     0.200 A 
ATOM     71  F   UNL A   1      46.045  36.310  27.784  1.00  0.00    -0.200 F 
ATOM     72  F   UNL A   1      46.806  36.795  30.358  1.00  0.00    -0.200 F 
ENDBRANCH  39  62
ENDBRANCH  13  14
ENDBRANCH   6   8
ENDBRANCH   3   4
ENDBRANCH   2   3
ENDBRANCH   1   2
BRANCH   1  73
ATOM     73  C   UNL A   1      39.915  22.179  26.336  1.00  0.00     0.002 C 
BRANCH  73  74
ATOM     74  C   UNL A   1      38.729  21.458  25.685  1.00  0.00     0.021 C 
BRANCH  74  75
ATOM     75  C   UNL A   1      37.437  22.273  25.666  1.00  0.00     0.116 C 
BRANCH  75  76
ATOM     76  N   UNL A   1      36.338  21.525  26.246  1.00  0.00    -0.354 N 
ATOM     77  C   UNL A   1      35.007  21.816  26.313  1.00  0.00     0.242 C 
ATOM     78  H   UNL A   1      36.594  20.669  26.658  1.00  0.00     0.163 HD
ATOM     79  O   UNL A   1      34.295  21.057  26.977  1.00  0.00    -0.273 OA
BRANCH  77  80
ATOM     80  C   UNL A   1      34.450  23.064  25.611  1.00  0.00     0.173 C 
ATOM     81  N   UNL A   1      33.234  23.518  26.265  1.00  0.00    -0.373 N 
ATOM     82  C   UNL A   1      34.195  22.819  24.131  1.00  0.00     0.036 C 
ATOM     83  C   UNL A   1      32.497  24.518  25.665  1.00  0.00     0.039 A 
ATOM     84  H   UNL A   1      32.942  23.120  27.117  1.00  0.00     0.161 HD
ATOM     85  C   UNL A   1      33.664  24.104  23.455  1.00  0.00     0.050 C 
ATOM     86  C   UNL A   1      33.169  21.726  23.793  1.00  0.00     0.034 C 
ATOM     87  C   UNL A   1      31.502  25.162  26.386  1.00  0.00     0.028 A 
ATOM     88  C   UNL A   1      32.755  24.932  24.346  1.00  0.00    -0.015 A 
ATOM     89  C   UNL A   1      32.921  23.504  22.287  1.00  0.00    -0.023 C 
ATOM     90  C   UNL A   1      32.643  22.209  22.479  1.00  0.00    -0.030 C 
ATOM     91  C   UNL A   1      30.829  26.258  25.847  1.00  0.00     0.028 A 
ATOM     92  C   UNL A   1      32.133  26.093  23.847  1.00  0.00     0.032 A 
ATOM     93  C   UNL A   1      31.204  26.797  24.620  1.00  0.00     0.041 A 
BRANCH  93  94
ATOM     94  N   UNL A   1      30.697  28.003  24.092  1.00  0.00    -0.322 N 
ATOM     95  C   UNL A   1      30.944  29.325  24.401  1.00  0.00     0.255 C 
ATOM     96  H   UNL A   1      30.045  27.878  23.365  1.00  0.00     0.170 HD
ATOM     97  O   UNL A   1      30.266  30.217  23.892  1.00  0.00    -0.269 OA
BRANCH  95  98
ATOM     98  C   UNL A   1      32.035  29.707  25.316  1.00  0.00     0.040 A 
ATOM     99  C   UNL A   1      31.773  30.671  26.296  1.00  0.00     0.014 A 
ATOM    100  C   UNL A   1      33.277  29.061  25.264  1.00  0.00     0.014 A 
ATOM    101  C   UNL A   1      32.727  30.922  27.281  1.00  0.00     0.001 A 
ATOM    102  C   UNL A   1      34.222  29.311  26.260  1.00  0.00     0.001 A 
ATOM    103  C   UNL A   1      33.941  30.228  27.274  1.00  0.00     0.000 A 
ENDBRANCH  95  98
ENDBRANCH  93  94
ENDBRANCH  77  80
ENDBRANCH  75  76
ENDBRANCH  74  75
ENDBRANCH  73  74
ENDBRANCH   1  73
TORSDOF 15
ENDMDL
