MODEL 1
REMARK VINA RESULT:     -13.5      0.000      0.000
REMARK SMILES O=C(NCCCCCCNC(=O)[C@H]1CCCC[C@H]1C(=O)Nc1ccc(Cl)cc1F)c1ccc(-c2c3nc(c(-c4c(F)c(F)c(F)c(F)c4F)c4ccc([nH]4)c(-c4c(F)c(F)c(F)c(F)c4F)c4nc(c(-c5c(F)c(F)c(F)c(F)c5F)c5ccc2[nH]5)C=C4)C=C3)cc1
REMARK SMILES IDX 6 1 5 2 4 3 3 4 1 5 2 6 30 8 31 9 92 10 32 11 91 12 33 13
REMARK SMILES IDX 34 14 35 15 85 16 36 17 90 18 84 19 86 20 37 21 89 22 83 23
REMARK SMILES IDX 82 24 38 26 70 27 50 28 69 29 51 30 54 31 68 32 87 33 52 34
REMARK SMILES IDX 53 35 67 37 88 38 55 39 39 40 40 41 48 42 41 43 42 44 46 45
REMARK SMILES IDX 49 46 43 47 44 48 47 49 45 50 71 51 72 52 80 53 73 54 74 55
REMARK SMILES IDX 78 56 81 57 75 58 76 59 79 60 77 61 56 62 57 63 65 64 58 65
REMARK SMILES IDX 59 66 63 67 66 68 60 69 61 70 64 71 62 72 7 73 8 74 9 75
REMARK SMILES IDX 10 76 11 77 12 79 13 80 14 81 18 82 15 83 17 84 16 85 19 86
REMARK SMILES IDX 20 87 21 88 22 90 23 91 28 92 24 93 27 94 29 95 25 96 26 97
REMARK H PARENT 3 7 86 25 54 36 10 78 21 89
REMARK Flexibility Score: inf
ROOT
ATOM      1  C   UNL A   1      31.999  30.829  26.750  1.00  0.00     0.002 C 
ENDROOT
BRANCH   1   2
ATOM      2  C   UNL A   1      31.746  32.334  26.841  1.00  0.00     0.021 C 
BRANCH   2   3
ATOM      3  C   UNL A   1      32.855  33.071  27.548  1.00  0.00     0.116 C 
BRANCH   3   4
ATOM      4  N   UNL A   1      32.545  34.476  27.810  1.00  0.00    -0.352 N 
ATOM      5  O   UNL A   1      32.721  36.430  28.957  1.00  0.00    -0.269 OA
ATOM      6  C   UNL A   1      33.118  35.308  28.759  1.00  0.00     0.251 C 
ATOM      7  H   UNL A   1      31.847  34.879  27.247  1.00  0.00     0.163 HD
BRANCH   6   8
ATOM      8  C   UNL A   1      34.228  34.734  29.550  1.00  0.00     0.039 A 
ATOM      9  C   UNL A   1      35.506  34.731  28.994  1.00  0.00     0.014 A 
ATOM     10  C   UNL A   1      33.957  34.071  30.746  1.00  0.00     0.014 A 
ATOM     11  C   UNL A   1      36.461  33.882  29.516  1.00  0.00     0.010 A 
ATOM     12  C   UNL A   1      34.979  33.348  31.364  1.00  0.00     0.010 A 
ATOM     13  C   UNL A   1      36.230  33.228  30.737  1.00  0.00    -0.014 A 
BRANCH  13  14
ATOM     14  C   UNL A   1      37.373  32.544  31.382  1.00  0.00     0.031 A 
ATOM     15  C   UNL A   1      37.844  32.907  32.757  1.00  0.00     0.074 A 
ATOM     16  C   UNL A   1      37.955  31.545  30.689  1.00  0.00     0.049 A 
ATOM     17  N   UNL A   1      38.843  32.403  33.438  1.00  0.00    -0.248 NA
ATOM     18  C   UNL A   1      37.120  33.978  33.458  1.00  0.00     0.031 C 
ATOM     19  C   UNL A   1      37.567  31.122  29.337  1.00  0.00     0.029 A 
ATOM     20  N   UNL A   1      38.969  30.688  31.020  1.00  0.00    -0.354 N 
ATOM     21  C   UNL A   1      38.883  33.108  34.633  1.00  0.00     0.074 A 
ATOM     22  C   UNL A   1      37.822  34.092  34.578  1.00  0.00     0.031 C 
ATOM     23  C   UNL A   1      38.280  30.048  28.986  1.00  0.00     0.029 A 
ATOM     24  C   UNL A   1      39.251  29.777  30.033  1.00  0.00     0.049 A 
ATOM     25  H   UNL A   1      39.447  30.722  31.879  1.00  0.00     0.167 HD
ATOM     26  C   UNL A   1      39.734  32.938  35.674  1.00  0.00     0.037 A 
ATOM     27  C   UNL A   1      40.220  28.849  29.956  1.00  0.00     0.037 A 
ATOM     28  C   UNL A   1      40.778  31.943  35.705  1.00  0.00     0.049 A 
ATOM     29  C   UNL A   1      41.170  28.723  31.105  1.00  0.00     0.074 A 
ATOM     30  C   UNL A   1      41.679  31.668  36.719  1.00  0.00     0.029 A 
ATOM     31  N   UNL A   1      41.066  31.064  34.669  1.00  0.00    -0.354 N 
ATOM     32  N   UNL A   1      41.187  29.380  32.240  1.00  0.00    -0.248 NA
ATOM     33  C   UNL A   1      42.241  27.732  30.963  1.00  0.00     0.031 C 
ATOM     34  C   UNL A   1      42.550  30.668  36.273  1.00  0.00     0.029 A 
ATOM     35  C   UNL A   1      42.151  30.267  35.009  1.00  0.00     0.049 A 
ATOM     36  H   UNL A   1      40.573  31.013  33.818  1.00  0.00     0.167 HD
ATOM     37  C   UNL A   1      42.257  28.870  32.956  1.00  0.00     0.074 A 
ATOM     38  C   UNL A   1      42.845  27.827  32.138  1.00  0.00     0.031 C 
ATOM     39  C   UNL A   1      42.717  29.235  34.177  1.00  0.00     0.037 A 
BRANCH  26  40
ATOM     40  C   UNL A   1      39.597  33.857  36.855  1.00  0.00     0.064 A 
ATOM     41  C   UNL A   1      40.188  35.129  36.880  1.00  0.00     0.173 A 
ATOM     42  C   UNL A   1      38.809  33.483  37.957  1.00  0.00     0.173 A 
ATOM     43  F   UNL A   1      40.958  35.535  35.860  1.00  0.00    -0.203 F 
ATOM     44  C   UNL A   1      40.013  35.982  37.969  1.00  0.00     0.198 A 
ATOM     45  C   UNL A   1      38.610  34.351  39.028  1.00  0.00     0.198 A 
ATOM     46  F   UNL A   1      38.213  32.282  37.985  1.00  0.00    -0.203 F 
ATOM     47  F   UNL A   1      40.621  37.176  37.986  1.00  0.00    -0.200 F 
ATOM     48  C   UNL A   1      39.217  35.596  39.037  1.00  0.00     0.200 A 
ATOM     49  F   UNL A   1      37.826  33.982  40.051  1.00  0.00    -0.200 F 
ATOM     50  F   UNL A   1      39.039  36.424  40.076  1.00  0.00    -0.200 F 
ENDBRANCH  26  40
BRANCH  27  51
ATOM     51  C   UNL A   1      40.348  28.012  28.736  1.00  0.00     0.064 A 
ATOM     52  C   UNL A   1      39.725  26.762  28.649  1.00  0.00     0.173 A 
ATOM     53  C   UNL A   1      41.091  28.448  27.627  1.00  0.00     0.173 A 
ATOM     54  F   UNL A   1      39.010  26.296  29.685  1.00  0.00    -0.203 F 
ATOM     55  C   UNL A   1      39.863  25.966  27.514  1.00  0.00     0.198 A 
ATOM     56  C   UNL A   1      41.195  27.672  26.477  1.00  0.00     0.198 A 
ATOM     57  F   UNL A   1      41.696  29.646  27.650  1.00  0.00    -0.203 F 
ATOM     58  F   UNL A   1      39.302  24.750  27.479  1.00  0.00    -0.200 F 
ATOM     59  C   UNL A   1      40.592  26.425  26.426  1.00  0.00     0.200 A 
ATOM     60  F   UNL A   1      41.877  28.132  25.420  1.00  0.00    -0.200 F 
ATOM     61  F   UNL A   1      40.720  25.662  25.333  1.00  0.00    -0.200 F 
ENDBRANCH  27  51
BRANCH  39  62
ATOM     62  C   UNL A   1      43.893  28.467  34.710  1.00  0.00     0.064 A 
ATOM     63  C   UNL A   1      45.212  28.898  34.505  1.00  0.00     0.173 A 
ATOM     64  C   UNL A   1      43.693  27.286  35.441  1.00  0.00     0.173 A 
ATOM     65  F   UNL A   1      45.456  30.010  33.795  1.00  0.00    -0.203 F 
ATOM     66  C   UNL A   1      46.288  28.155  34.979  1.00  0.00     0.198 A 
ATOM     67  C   UNL A   1      44.770  26.567  35.947  1.00  0.00     0.198 A 
ATOM     68  F   UNL A   1      42.451  26.832  35.668  1.00  0.00    -0.203 F 
ATOM     69  F   UNL A   1      47.541  28.548  34.710  1.00  0.00    -0.200 F 
ATOM     70  C   UNL A   1      46.068  26.995  35.706  1.00  0.00     0.200 A 
ATOM     71  F   UNL A   1      44.555  25.454  36.663  1.00  0.00    -0.200 F 
ATOM     72  F   UNL A   1      47.105  26.282  36.165  1.00  0.00    -0.200 F 
ENDBRANCH  39  62
ENDBRANCH  13  14
ENDBRANCH   6   8
ENDBRANCH   3   4
ENDBRANCH   2   3
ENDBRANCH   1   2
BRANCH   1  73
ATOM     73  C   UNL A   1      33.406  30.323  27.265  1.00  0.00     0.002 C 
BRANCH  73  74
ATOM     74  C   UNL A   1      34.414  29.052  26.885  1.00  0.00     0.021 C 
BRANCH  74  75
ATOM     75  C   UNL A   1      34.289  27.670  25.971  1.00  0.00     0.116 C 
BRANCH  75  76
ATOM     76  N   UNL A   1      33.846  26.273  26.109  1.00  0.00    -0.356 N 
ATOM     77  C   UNL A   1      32.661  25.801  25.527  1.00  0.00     0.223 C 
ATOM     78  H   UNL A   1      34.401  25.649  26.630  1.00  0.00     0.163 HD
ATOM     79  O   UNL A   1      32.683  24.965  24.625  1.00  0.00    -0.275 OA
BRANCH  77  80
ATOM     80  C   UNL A   1      31.373  26.171  26.206  1.00  0.00     0.091 C 
ATOM     81  C   UNL A   1      31.020  27.600  25.677  1.00  0.00     0.014 C 
ATOM     82  C   UNL A   1      30.341  25.083  25.934  1.00  0.00     0.091 C 
ATOM     83  C   UNL A   1      30.790  27.633  24.172  1.00  0.00     0.001 C 
ATOM     84  C   UNL A   1      29.689  25.358  24.496  1.00  0.00     0.014 C 
ATOM     85  C   UNL A   1      29.572  26.780  23.888  1.00  0.00     0.001 C 
BRANCH  82  86
ATOM     86  C   UNL A   1      30.663  23.555  26.754  1.00  0.00     0.228 C 
ATOM     87  O   UNL A   1      29.680  23.175  27.435  1.00  0.00    -0.274 OA
ATOM     88  N   UNL A   1      31.779  22.673  26.964  1.00  0.00    -0.323 N 
ATOM     89  H   UNL A   1      31.706  22.301  27.872  1.00  0.00     0.170 HD
BRANCH  88  90
ATOM     90  C   UNL A   1      33.040  22.090  26.315  1.00  0.00     0.077 A 
ATOM     91  C   UNL A   1      33.147  21.413  25.052  1.00  0.00     0.031 A 
ATOM     92  C   UNL A   1      34.271  22.456  26.836  1.00  0.00     0.148 A 
ATOM     93  C   UNL A   1      34.283  21.455  24.220  1.00  0.00     0.023 A 
ATOM     94  C   UNL A   1      35.423  22.516  26.020  1.00  0.00     0.062 A 
ATOM     95  F   UNL A   1      34.351  22.879  28.100  1.00  0.00    -0.205 F 
ATOM     96  C   UNL A   1      35.387  22.125  24.684  1.00  0.00     0.044 A 
ATOM     97  Cl  UNL A   1      36.603  22.609  23.570  1.00  0.00    -0.084 Cl
ENDBRANCH  88  90
ENDBRANCH  82  86
ENDBRANCH  77  80
ENDBRANCH  75  76
ENDBRANCH  74  75
ENDBRANCH  73  74
ENDBRANCH   1  73
TORSDOF 15
ENDMDL
MODEL 2
REMARK VINA RESULT:     -13.5      1.820      7.968
REMARK SMILES O=C(NCCCCCCNC(=O)[C@H]1CCCC[C@H]1C(=O)Nc1ccc(Cl)cc1F)c1ccc(-c2c3nc(c(-c4c(F)c(F)c(F)c(F)c4F)c4ccc([nH]4)c(-c4c(F)c(F)c(F)c(F)c4F)c4nc(c(-c5c(F)c(F)c(F)c(F)c5F)c5ccc2[nH]5)C=C4)C=C3)cc1
REMARK SMILES IDX 6 1 5 2 4 3 3 4 1 5 2 6 30 8 31 9 92 10 32 11 91 12 33 13
REMARK SMILES IDX 34 14 35 15 85 16 36 17 90 18 84 19 86 20 37 21 89 22 83 23
REMARK SMILES IDX 82 24 38 26 70 27 50 28 69 29 51 30 54 31 68 32 87 33 52 34
REMARK SMILES IDX 53 35 67 37 88 38 55 39 39 40 40 41 48 42 41 43 42 44 46 45
REMARK SMILES IDX 49 46 43 47 44 48 47 49 45 50 71 51 72 52 80 53 73 54 74 55
REMARK SMILES IDX 78 56 81 57 75 58 76 59 79 60 77 61 56 62 57 63 65 64 58 65
REMARK SMILES IDX 59 66 63 67 66 68 60 69 61 70 64 71 62 72 7 73 8 74 9 75
REMARK SMILES IDX 10 76 11 77 12 79 13 80 14 81 18 82 15 83 17 84 16 85 19 86
REMARK SMILES IDX 20 87 21 88 22 90 23 91 28 92 24 93 27 94 29 95 25 96 26 97
REMARK H PARENT 3 7 86 25 54 36 10 78 21 89
REMARK Flexibility Score: inf
ROOT
ATOM      1  C   UNL A   1      31.944  30.926  26.787  1.00  0.00     0.002 C 
ENDROOT
BRANCH   1   2
ATOM      2  C   UNL A   1      31.728  32.439  26.835  1.00  0.00     0.021 C 
BRANCH   2   3
ATOM      3  C   UNL A   1      32.859  33.168  27.514  1.00  0.00     0.116 C 
BRANCH   3   4
ATOM      4  N   UNL A   1      32.548  34.563  27.826  1.00  0.00    -0.352 N 
ATOM      5  O   UNL A   1      32.721  36.476  29.040  1.00  0.00    -0.269 OA
ATOM      6  C   UNL A   1      33.120  35.362  28.803  1.00  0.00     0.251 C 
ATOM      7  H   UNL A   1      31.848  34.985  27.277  1.00  0.00     0.163 HD
BRANCH   6   8
ATOM      8  C   UNL A   1      34.230  34.762  29.574  1.00  0.00     0.039 A 
ATOM      9  C   UNL A   1      35.506  34.773  29.015  1.00  0.00     0.014 A 
ATOM     10  C   UNL A   1      33.961  34.063  30.750  1.00  0.00     0.014 A 
ATOM     11  C   UNL A   1      36.461  33.907  29.508  1.00  0.00     0.010 A 
ATOM     12  C   UNL A   1      34.983  33.320  31.343  1.00  0.00     0.010 A 
ATOM     13  C   UNL A   1      36.232  33.217  30.709  1.00  0.00    -0.014 A 
BRANCH  13  14
ATOM     14  C   UNL A   1      37.375  32.511  31.330  1.00  0.00     0.031 A 
ATOM     15  C   UNL A   1      38.114  31.417  30.621  1.00  0.00     0.074 A 
ATOM     16  C   UNL A   1      37.750  32.920  32.558  1.00  0.00     0.049 A 
ATOM     17  N   UNL A   1      39.122  30.701  31.050  1.00  0.00    -0.248 NA
ATOM     18  C   UNL A   1      37.665  31.068  29.265  1.00  0.00     0.031 C 
ATOM     19  C   UNL A   1      37.085  33.976  33.332  1.00  0.00     0.029 A 
ATOM     20  N   UNL A   1      38.785  32.529  33.363  1.00  0.00    -0.354 N 
ATOM     21  C   UNL A   1      39.413  29.802  30.032  1.00  0.00     0.074 A 
ATOM     22  C   UNL A   1      38.460  30.048  28.970  1.00  0.00     0.031 C 
ATOM     23  C   UNL A   1      37.767  34.197  34.460  1.00  0.00     0.029 A 
ATOM     24  C   UNL A   1      38.845  33.225  34.545  1.00  0.00     0.049 A 
ATOM     25  H   UNL A   1      39.422  31.820  33.119  1.00  0.00     0.167 HD
ATOM     26  C   UNL A   1      40.390  28.864  30.001  1.00  0.00     0.037 A 
ATOM     27  C   UNL A   1      39.651  33.068  35.608  1.00  0.00     0.037 A 
ATOM     28  C   UNL A   1      41.332  28.647  31.072  1.00  0.00     0.049 A 
ATOM     29  C   UNL A   1      40.688  31.990  35.555  1.00  0.00     0.074 A 
ATOM     30  C   UNL A   1      42.376  27.742  31.134  1.00  0.00     0.029 A 
ATOM     31  N   UNL A   1      41.336  29.340  32.276  1.00  0.00    -0.354 N 
ATOM     32  N   UNL A   1      40.968  31.159  34.580  1.00  0.00    -0.248 NA
ATOM     33  C   UNL A   1      41.516  31.820  36.752  1.00  0.00     0.031 C 
ATOM     34  C   UNL A   1      42.972  27.842  32.395  1.00  0.00     0.029 A 
ATOM     35  C   UNL A   1      42.347  28.861  33.097  1.00  0.00     0.049 A 
ATOM     36  H   UNL A   1      40.714  30.066  32.512  1.00  0.00     0.167 HD
ATOM     37  C   UNL A   1      42.018  30.380  35.037  1.00  0.00     0.074 A 
ATOM     38  C   UNL A   1      42.343  30.860  36.365  1.00  0.00     0.031 C 
ATOM     39  C   UNL A   1      42.652  29.355  34.417  1.00  0.00     0.037 A 
BRANCH  26  40
ATOM     40  C   UNL A   1      40.481  27.981  28.788  1.00  0.00     0.064 A 
ATOM     41  C   UNL A   1      39.783  26.768  28.698  1.00  0.00     0.173 A 
ATOM     42  C   UNL A   1      41.232  28.385  27.672  1.00  0.00     0.173 A 
ATOM     43  F   UNL A   1      39.057  26.328  29.736  1.00  0.00    -0.203 F 
ATOM     44  C   UNL A   1      39.849  25.984  27.547  1.00  0.00     0.198 A 
ATOM     45  C   UNL A   1      41.270  27.615  26.512  1.00  0.00     0.198 A 
ATOM     46  F   UNL A   1      41.915  29.539  27.698  1.00  0.00    -0.203 F 
ATOM     47  F   UNL A   1      39.205  24.809  27.500  1.00  0.00    -0.200 F 
ATOM     48  C   UNL A   1      40.584  26.413  26.452  1.00  0.00     0.200 A 
ATOM     49  F   UNL A   1      41.968  28.041  25.449  1.00  0.00    -0.200 F 
ATOM     50  F   UNL A   1      40.634  25.665  25.341  1.00  0.00    -0.200 F 
ENDBRANCH  26  40
BRANCH  27  51
ATOM     51  C   UNL A   1      39.473  33.927  36.806  1.00  0.00     0.064 A 
ATOM     52  C   UNL A   1      40.050  35.201  36.874  1.00  0.00     0.173 A 
ATOM     53  C   UNL A   1      38.715  33.496  37.906  1.00  0.00     0.173 A 
ATOM     54  F   UNL A   1      40.791  35.656  35.851  1.00  0.00    -0.203 F 
ATOM     55  C   UNL A   1      39.902  35.998  38.006  1.00  0.00     0.198 A 
ATOM     56  C   UNL A   1      38.532  34.309  39.020  1.00  0.00     0.198 A 
ATOM     57  F   UNL A   1      38.126  32.290  37.888  1.00  0.00    -0.203 F 
ATOM     58  F   UNL A   1      40.511  37.190  38.067  1.00  0.00    -0.200 F 
ATOM     59  C   UNL A   1      39.137  35.554  39.075  1.00  0.00     0.200 A 
ATOM     60  F   UNL A   1      37.770  33.887  40.038  1.00  0.00    -0.200 F 
ATOM     61  F   UNL A   1      38.991  36.324  40.162  1.00  0.00    -0.200 F 
ENDBRANCH  27  51
BRANCH  39  62
ATOM     62  C   UNL A   1      43.787  28.716  35.164  1.00  0.00     0.064 A 
ATOM     63  C   UNL A   1      45.114  29.137  34.992  1.00  0.00     0.173 A 
ATOM     64  C   UNL A   1      43.540  27.672  36.067  1.00  0.00     0.173 A 
ATOM     65  F   UNL A   1      45.405  30.118  34.123  1.00  0.00    -0.203 F 
ATOM     66  C   UNL A   1      46.156  28.509  35.668  1.00  0.00     0.198 A 
ATOM     67  C   UNL A   1      44.579  27.074  36.772  1.00  0.00     0.198 A 
ATOM     68  F   UNL A   1      42.288  27.235  36.271  1.00  0.00    -0.203 F 
ATOM     69  F   UNL A   1      47.422  28.881  35.435  1.00  0.00    -0.200 F 
ATOM     70  C   UNL A   1      45.888  27.485  36.563  1.00  0.00     0.200 A 
ATOM     71  F   UNL A   1      44.317  26.095  37.648  1.00  0.00    -0.200 F 
ATOM     72  F   UNL A   1      46.891  26.885  37.217  1.00  0.00    -0.200 F 
ENDBRANCH  39  62
ENDBRANCH  13  14
ENDBRANCH   6   8
ENDBRANCH   3   4
ENDBRANCH   2   3
ENDBRANCH   1   2
BRANCH   1  73
ATOM     73  C   UNL A   1      33.375  30.408  27.219  1.00  0.00     0.002 C 
BRANCH  73  74
ATOM     74  C   UNL A   1      34.174  28.947  27.144  1.00  0.00     0.021 C 
BRANCH  74  75
ATOM     75  C   UNL A   1      33.946  27.510  26.343  1.00  0.00     0.116 C 
BRANCH  75  76
ATOM     76  N   UNL A   1      33.086  26.938  25.294  1.00  0.00    -0.356 N 
ATOM     77  C   UNL A   1      33.159  25.589  24.917  1.00  0.00     0.223 C 
ATOM     78  H   UNL A   1      32.437  27.523  24.840  1.00  0.00     0.163 HD
ATOM     79  O   UNL A   1      32.221  24.819  25.120  1.00  0.00    -0.275 OA
BRANCH  77  80
ATOM     80  C   UNL A   1      34.316  25.186  24.048  1.00  0.00     0.091 C 
ATOM     81  C   UNL A   1      35.248  24.331  24.967  1.00  0.00     0.014 C 
ATOM     82  C   UNL A   1      33.779  24.487  22.805  1.00  0.00     0.091 C 
ATOM     83  C   UNL A   1      34.574  23.065  25.479  1.00  0.00     0.001 C 
ATOM     84  C   UNL A   1      33.492  22.954  23.175  1.00  0.00     0.014 C 
ATOM     85  C   UNL A   1      34.282  22.197  24.274  1.00  0.00     0.001 C 
BRANCH  82  86
ATOM     86  C   UNL A   1      32.938  25.552  21.678  1.00  0.00     0.228 C 
ATOM     87  O   UNL A   1      33.110  25.200  20.486  1.00  0.00    -0.274 OA
ATOM     88  N   UNL A   1      32.204  26.788  21.726  1.00  0.00    -0.323 N 
ATOM     89  H   UNL A   1      32.408  27.295  20.908  1.00  0.00     0.170 HD
BRANCH  88  90
ATOM     90  C   UNL A   1      31.224  27.619  22.564  1.00  0.00     0.077 A 
ATOM     91  C   UNL A   1      31.158  29.050  22.676  1.00  0.00     0.031 A 
ATOM     92  C   UNL A   1      30.104  26.986  23.078  1.00  0.00     0.148 A 
ATOM     93  C   UNL A   1      29.971  29.777  22.892  1.00  0.00     0.023 A 
ATOM     94  C   UNL A   1      28.899  27.691  23.294  1.00  0.00     0.062 A 
ATOM     95  F   UNL A   1      30.122  25.662  23.257  1.00  0.00    -0.205 F 
ATOM     96  C   UNL A   1      28.814  29.065  23.084  1.00  0.00     0.044 A 
ATOM     97  Cl  UNL A   1      27.300  29.854  22.887  1.00  0.00    -0.084 Cl
ENDBRANCH  88  90
ENDBRANCH  82  86
ENDBRANCH  77  80
ENDBRANCH  75  76
ENDBRANCH  74  75
ENDBRANCH  73  74
ENDBRANCH   1  73
TORSDOF 15
ENDMDL
MODEL 3
REMARK VINA RESULT:     -13.5      1.815      7.964
REMARK SMILES O=C(NCCCCCCNC(=O)[C@H]1CCCC[C@H]1C(=O)Nc1ccc(Cl)cc1F)c1ccc(-c2c3nc(c(-c4c(F)c(F)c(F)c(F)c4F)c4ccc([nH]4)c(-c4c(F)c(F)c(F)c(F)c4F)c4nc(c(-c5c(F)c(F)c(F)c(F)c5F)c5ccc2[nH]5)C=C4)C=C3)cc1
REMARK SMILES IDX 6 1 5 2 4 3 3 4 1 5 2 6 30 8 31 9 92 10 32 11 91 12 33 13
REMARK SMILES IDX 34 14 35 15 85 16 36 17 90 18 84 19 86 20 37 21 89 22 83 23
REMARK SMILES IDX 82 24 38 26 70 27 50 28 69 29 51 30 54 31 68 32 87 33 52 34
REMARK SMILES IDX 53 35 67 37 88 38 55 39 39 40 40 41 48 42 41 43 42 44 46 45
REMARK SMILES IDX 49 46 43 47 44 48 47 49 45 50 71 51 72 52 80 53 73 54 74 55
REMARK SMILES IDX 78 56 81 57 75 58 76 59 79 60 77 61 56 62 57 63 65 64 58 65
REMARK SMILES IDX 59 66 63 67 66 68 60 69 61 70 64 71 62 72 7 73 8 74 9 75
REMARK SMILES IDX 10 76 11 77 12 79 13 80 14 81 18 82 15 83 17 84 16 85 19 86
REMARK SMILES IDX 20 87 21 88 22 90 23 91 28 92 24 93 27 94 29 95 25 96 26 97
REMARK H PARENT 3 7 86 25 54 36 10 78 21 89
REMARK Flexibility Score: inf
ROOT
ATOM      1  C   UNL A   1      31.945  30.907  26.783  1.00  0.00     0.002 C 
ENDROOT
BRANCH   1   2
ATOM      2  C   UNL A   1      31.708  32.417  26.826  1.00  0.00     0.021 C 
BRANCH   2   3
ATOM      3  C   UNL A   1      32.823  33.165  27.512  1.00  0.00     0.116 C 
BRANCH   3   4
ATOM      4  N   UNL A   1      32.476  34.544  27.852  1.00  0.00    -0.352 N 
ATOM      5  O   UNL A   1      32.595  36.433  29.109  1.00  0.00    -0.269 OA
ATOM      6  C   UNL A   1      33.023  35.335  28.850  1.00  0.00     0.251 C 
ATOM      7  H   UNL A   1      31.770  34.961  27.309  1.00  0.00     0.163 HD
BRANCH   6   8
ATOM      8  C   UNL A   1      34.143  34.745  29.614  1.00  0.00     0.039 A 
ATOM      9  C   UNL A   1      35.412  34.749  29.038  1.00  0.00     0.014 A 
ATOM     10  C   UNL A   1      33.890  34.062  30.803  1.00  0.00     0.014 A 
ATOM     11  C   UNL A   1      36.374  33.890  29.530  1.00  0.00     0.010 A 
ATOM     12  C   UNL A   1      34.920  33.327  31.392  1.00  0.00     0.010 A 
ATOM     13  C   UNL A   1      36.161  33.215  30.743  1.00  0.00    -0.014 A 
BRANCH  13  14
ATOM     14  C   UNL A   1      37.312  32.518  31.358  1.00  0.00     0.031 A 
ATOM     15  C   UNL A   1      38.053  31.427  30.646  1.00  0.00     0.074 A 
ATOM     16  C   UNL A   1      37.693  32.932  32.583  1.00  0.00     0.049 A 
ATOM     17  N   UNL A   1      39.068  30.718  31.071  1.00  0.00    -0.248 NA
ATOM     18  C   UNL A   1      37.597  31.072  29.294  1.00  0.00     0.031 C 
ATOM     19  C   UNL A   1      37.026  33.985  33.359  1.00  0.00     0.029 A 
ATOM     20  N   UNL A   1      38.735  32.549  33.382  1.00  0.00    -0.354 N 
ATOM     21  C   UNL A   1      39.358  29.818  30.053  1.00  0.00     0.074 A 
ATOM     22  C   UNL A   1      38.397  30.056  28.996  1.00  0.00     0.031 C 
ATOM     23  C   UNL A   1      37.714  34.213  34.482  1.00  0.00     0.029 A 
ATOM     24  C   UNL A   1      38.798  33.247  34.562  1.00  0.00     0.049 A 
ATOM     25  H   UNL A   1      39.375  31.843  33.135  1.00  0.00     0.167 HD
ATOM     26  C   UNL A   1      40.340  28.886  30.017  1.00  0.00     0.037 A 
ATOM     27  C   UNL A   1      39.612  33.098  35.620  1.00  0.00     0.037 A 
ATOM     28  C   UNL A   1      41.290  28.677  31.083  1.00  0.00     0.049 A 
ATOM     29  C   UNL A   1      40.655  32.026  35.563  1.00  0.00     0.074 A 
ATOM     30  C   UNL A   1      42.341  27.778  31.140  1.00  0.00     0.029 A 
ATOM     31  N   UNL A   1      41.298  29.373  32.285  1.00  0.00    -0.354 N 
ATOM     32  N   UNL A   1      40.934  31.195  34.588  1.00  0.00    -0.248 NA
ATOM     33  C   UNL A   1      41.492  31.864  36.755  1.00  0.00     0.031 C 
ATOM     34  C   UNL A   1      42.944  27.886  32.397  1.00  0.00     0.029 A 
ATOM     35  C   UNL A   1      42.317  28.902  33.101  1.00  0.00     0.049 A 
ATOM     36  H   UNL A   1      40.674  30.096  32.524  1.00  0.00     0.167 HD
ATOM     37  C   UNL A   1      41.991  30.423  35.039  1.00  0.00     0.074 A 
ATOM     38  C   UNL A   1      42.322  30.908  36.365  1.00  0.00     0.031 C 
ATOM     39  C   UNL A   1      42.627  29.401  34.417  1.00  0.00     0.037 A 
BRANCH  26  40
ATOM     40  C   UNL A   1      40.429  28.001  28.806  1.00  0.00     0.064 A 
ATOM     41  C   UNL A   1      39.742  26.781  28.725  1.00  0.00     0.173 A 
ATOM     42  C   UNL A   1      41.166  28.410  27.682  1.00  0.00     0.173 A 
ATOM     43  F   UNL A   1      39.030  26.336  29.772  1.00  0.00    -0.203 F 
ATOM     44  C   UNL A   1      39.805  25.994  27.575  1.00  0.00     0.198 A 
ATOM     45  C   UNL A   1      41.200  27.638  26.524  1.00  0.00     0.198 A 
ATOM     46  F   UNL A   1      41.837  29.571  27.699  1.00  0.00    -0.203 F 
ATOM     47  F   UNL A   1      39.173  24.814  27.538  1.00  0.00    -0.200 F 
ATOM     48  C   UNL A   1      40.526  26.429  26.473  1.00  0.00     0.200 A 
ATOM     49  F   UNL A   1      41.884  28.067  25.453  1.00  0.00    -0.200 F 
ATOM     50  F   UNL A   1      40.573  25.678  25.363  1.00  0.00    -0.200 F 
ENDBRANCH  26  40
BRANCH  27  51
ATOM     51  C   UNL A   1      39.436  33.959  36.817  1.00  0.00     0.064 A 
ATOM     52  C   UNL A   1      38.698  33.518  37.922  1.00  0.00     0.173 A 
ATOM     53  C   UNL A   1      40.010  35.239  36.885  1.00  0.00     0.173 A 
ATOM     54  F   UNL A   1      38.123  32.305  37.903  1.00  0.00    -0.203 F 
ATOM     55  C   UNL A   1      38.514  34.334  39.036  1.00  0.00     0.198 A 
ATOM     56  C   UNL A   1      39.861  36.037  38.014  1.00  0.00     0.198 A 
ATOM     57  F   UNL A   1      40.740  35.705  35.860  1.00  0.00    -0.203 F 
ATOM     58  F   UNL A   1      37.757  33.910  40.056  1.00  0.00    -0.200 F 
ATOM     59  C   UNL A   1      39.102  35.590  39.084  1.00  0.00     0.200 A 
ATOM     60  F   UNL A   1      40.454  37.238  38.066  1.00  0.00    -0.200 F 
ATOM     61  F   UNL A   1      38.929  36.372  40.158  1.00  0.00    -0.200 F 
ENDBRANCH  27  51
BRANCH  39  62
ATOM     62  C   UNL A   1      43.772  28.770  35.159  1.00  0.00     0.064 A 
ATOM     63  C   UNL A   1      43.571  27.743  36.093  1.00  0.00     0.173 A 
ATOM     64  C   UNL A   1      45.087  29.198  34.924  1.00  0.00     0.173 A 
ATOM     65  F   UNL A   1      42.329  27.314  36.368  1.00  0.00    -0.203 F 
ATOM     66  C   UNL A   1      44.641  27.195  36.793  1.00  0.00     0.198 A 
ATOM     67  C   UNL A   1      46.158  28.620  35.596  1.00  0.00     0.198 A 
ATOM     68  F   UNL A   1      45.334  30.174  34.037  1.00  0.00    -0.203 F 
ATOM     69  F   UNL A   1      44.418  26.265  37.732  1.00  0.00    -0.200 F 
ATOM     70  C   UNL A   1      45.934  27.627  36.539  1.00  0.00     0.200 A 
ATOM     71  F   UNL A   1      47.409  29.028  35.339  1.00  0.00    -0.200 F 
ATOM     72  F   UNL A   1      46.964  27.096  37.211  1.00  0.00    -0.200 F 
ENDBRANCH  39  62
ENDBRANCH  13  14
ENDBRANCH   6   8
ENDBRANCH   3   4
ENDBRANCH   2   3
ENDBRANCH   1   2
BRANCH   1  73
ATOM     73  C   UNL A   1      33.438  30.427  26.994  1.00  0.00     0.002 C 
BRANCH  73  74
ATOM     74  C   UNL A   1      34.237  28.969  26.871  1.00  0.00     0.021 C 
BRANCH  74  75
ATOM     75  C   UNL A   1      33.865  27.458  26.291  1.00  0.00     0.116 C 
BRANCH  75  76
ATOM     76  N   UNL A   1      33.019  26.831  25.262  1.00  0.00    -0.356 N 
ATOM     77  C   UNL A   1      33.131  25.474  24.924  1.00  0.00     0.223 C 
ATOM     78  H   UNL A   1      32.353  27.384  24.793  1.00  0.00     0.163 HD
ATOM     79  O   UNL A   1      32.216  24.684  25.152  1.00  0.00    -0.275 OA
BRANCH  77  80
ATOM     80  C   UNL A   1      34.297  25.080  24.063  1.00  0.00     0.091 C 
ATOM     81  C   UNL A   1      35.217  24.213  24.982  1.00  0.00     0.014 C 
ATOM     82  C   UNL A   1      33.773  24.397  22.805  1.00  0.00     0.091 C 
ATOM     83  C   UNL A   1      34.536  22.942  25.471  1.00  0.00     0.001 C 
ATOM     84  C   UNL A   1      33.479  22.860  23.153  1.00  0.00     0.014 C 
ATOM     85  C   UNL A   1      34.256  22.088  24.252  1.00  0.00     0.001 C 
BRANCH  82  86
ATOM     86  C   UNL A   1      32.946  25.477  21.682  1.00  0.00     0.228 C 
ATOM     87  O   UNL A   1      33.119  25.130  20.489  1.00  0.00    -0.274 OA
ATOM     88  N   UNL A   1      32.225  26.720  21.735  1.00  0.00    -0.323 N 
ATOM     89  H   UNL A   1      32.437  27.230  20.921  1.00  0.00     0.170 HD
BRANCH  88  90
ATOM     90  C   UNL A   1      31.251  27.556  22.574  1.00  0.00     0.077 A 
ATOM     91  C   UNL A   1      31.201  28.988  22.696  1.00  0.00     0.031 A 
ATOM     92  C   UNL A   1      30.122  26.932  23.080  1.00  0.00     0.148 A 
ATOM     93  C   UNL A   1      30.020  29.726  22.913  1.00  0.00     0.023 A 
ATOM     94  C   UNL A   1      28.924  27.649  23.296  1.00  0.00     0.062 A 
ATOM     95  F   UNL A   1      30.124  25.608  23.250  1.00  0.00    -0.205 F 
ATOM     96  C   UNL A   1      28.855  29.025  23.095  1.00  0.00     0.044 A 
ATOM     97  Cl  UNL A   1      27.351  29.833  22.897  1.00  0.00    -0.084 Cl
ENDBRANCH  88  90
ENDBRANCH  82  86
ENDBRANCH  77  80
ENDBRANCH  75  76
ENDBRANCH  74  75
ENDBRANCH  73  74
ENDBRANCH   1  73
TORSDOF 15
ENDMDL
