MODEL 1
REMARK VINA RESULT:     -11.2      0.000      0.000
REMARK SMILES COc1cccc(NC(=O)/C(C#N)=C\c2ccc(O[C@@H](C)C(=O)NCCCCCCNC(=O)c3ccc(-c4c5nc(c(-c6c(F)c(F)c(F)c(F)c6F)c6ccc([nH]6)c(-c6c(F)c(F)c(F)c(F)c6F)c6nc(c(-c7c(F)c(F)c(F)c(F)c7F)c7ccc4[nH]7)C=C6)C=C5)cc3)cc2)c1
REMARK SMILES IDX 25 1 24 2 22 3 23 4 20 6 21 7 19 8 18 9 15 10 16 11 98 12
REMARK SMILES IDX 17 13 97 14 14 15 11 16 9 17 8 18 10 20 7 21 3 22 4 23 99 24
REMARK SMILES IDX 5 25 6 26 2 27 1 28 12 29 13 30 26 31 27 32 28 33 29 34
REMARK SMILES IDX 30 35 31 36 32 37 33 39 34 40 35 41 96 42 36 43 95 44 37 45
REMARK SMILES IDX 38 46 39 47 89 48 40 49 94 50 88 51 90 52 41 53 93 54 87 55
REMARK SMILES IDX 86 56 42 58 74 59 54 60 73 61 55 62 58 63 72 64 91 65 56 66
REMARK SMILES IDX 57 67 71 69 92 70 59 71 43 72 44 73 52 74 45 75 46 76 50 77
REMARK SMILES IDX 53 78 47 79 48 80 51 81 49 82 75 83 76 84 84 85 77 86 78 87
REMARK SMILES IDX 82 88 85 89 79 90 80 91 83 92 81 93 60 94 61 95 69 96 62 97
REMARK SMILES IDX 63 98 67 99 70 100 64 101 65 102 68 103 66 104
REMARK H PARENT 24 5 8 19 31 38 90 57 58 68
REMARK Flexibility Score: inf
ROOT
ATOM      1  C   UNL A   1      35.320  29.386  27.556  1.00  0.00     0.116 C 
ENDROOT
BRANCH   1   2
ATOM      2  N   UNL A   1      33.950  28.929  27.732  1.00  0.00    -0.353 N 
ATOM      3  C   UNL A   1      32.766  29.176  27.105  1.00  0.00     0.260 C 
ATOM      4  O   UNL A   1      31.784  28.619  27.619  1.00  0.00    -0.271 OA
ATOM      5  H   UNL A   1      33.855  28.294  28.478  1.00  0.00     0.163 HD
BRANCH   3   6
ATOM      6  C   UNL A   1      32.554  30.022  25.807  1.00  0.00     0.258 C 
ATOM      7  C   UNL A   1      31.123  30.536  25.628  1.00  0.00     0.064 C 
BRANCH   6   8
ATOM      8  O   UNL A   1      33.261  29.730  24.596  1.00  0.00    -0.481 OA
BRANCH   8   9
ATOM      9  C   UNL A   1      32.930  28.600  23.926  1.00  0.00     0.120 A 
ATOM     10  C   UNL A   1      32.414  26.111  22.698  1.00  0.00    -0.024 A 
ATOM     11  C   UNL A   1      33.629  26.774  22.483  1.00  0.00     0.012 A 
ATOM     12  C   UNL A   1      31.443  26.793  23.449  1.00  0.00     0.012 A 
ATOM     13  C   UNL A   1      33.887  28.008  23.103  1.00  0.00     0.047 A 
ATOM     14  C   UNL A   1      31.668  28.053  23.987  1.00  0.00     0.047 A 
BRANCH  10  15
ATOM     15  C   UNL A   1      32.241  24.703  22.254  1.00  0.00     0.033 C 
ATOM     16  C   UNL A   1      32.596  23.601  22.941  1.00  0.00     0.118 C 
BRANCH  16  17
ATOM     17  C   UNL A   1      32.900  23.688  24.443  1.00  0.00     0.266 C 
ATOM     18  N   UNL A   1      34.214  23.789  24.845  1.00  0.00    -0.321 N 
ATOM     19  H   UNL A   1      34.508  24.656  25.207  1.00  0.00     0.170 HD
ATOM     20  O   UNL A   1      31.998  23.803  25.270  1.00  0.00    -0.268 OA
BRANCH  18  21
ATOM     21  C   UNL A   1      35.173  22.758  24.785  1.00  0.00     0.045 A 
ATOM     22  C   UNL A   1      35.759  20.426  24.927  1.00  0.00     0.120 A 
ATOM     23  C   UNL A   1      37.109  20.752  24.871  1.00  0.00     0.046 A 
ATOM     24  C   UNL A   1      34.787  21.429  24.950  1.00  0.00     0.072 A 
ATOM     25  C   UNL A   1      37.469  22.055  24.579  1.00  0.00     0.006 A 
ATOM     26  C   UNL A   1      36.494  23.028  24.454  1.00  0.00     0.026 A 
BRANCH  22  27
ATOM     27  O   UNL A   1      35.340  19.122  24.931  1.00  0.00    -0.497 OA
ATOM     28  C   UNL A   1      33.968  19.010  24.528  1.00  0.00     0.278 C 
ENDBRANCH  22  27
ENDBRANCH  18  21
ENDBRANCH  16  17
BRANCH  16  29
ATOM     29  C   UNL A   1      32.179  22.181  22.597  1.00  0.00     0.105 C 
ATOM     30  N   UNL A   1      31.833  21.002  22.311  1.00  0.00    -0.192 NA
ENDBRANCH  16  29
ENDBRANCH  10  15
ENDBRANCH   8   9
ENDBRANCH   6   8
ENDBRANCH   3   6
ENDBRANCH   1   2
BRANCH   1  31
ATOM     31  C   UNL A   1      35.991  29.733  28.894  1.00  0.00     0.021 C 
BRANCH  31  32
ATOM     32  C   UNL A   1      36.062  31.211  29.301  1.00  0.00     0.002 C 
BRANCH  32  33
ATOM     33  C   UNL A   1      35.647  31.533  30.751  1.00  0.00     0.002 C 
BRANCH  33  34
ATOM     34  C   UNL A   1      34.670  32.707  30.990  1.00  0.00     0.021 C 
BRANCH  34  35
ATOM     35  C   UNL A   1      35.196  34.141  30.783  1.00  0.00     0.116 C 
BRANCH  35  36
ATOM     36  N   UNL A   1      35.835  34.703  31.962  1.00  0.00    -0.352 N 
ATOM     37  C   UNL A   1      37.059  34.474  32.561  1.00  0.00     0.251 C 
ATOM     38  H   UNL A   1      35.287  35.377  32.425  1.00  0.00     0.163 HD
ATOM     39  O   UNL A   1      37.264  34.987  33.661  1.00  0.00    -0.269 OA
BRANCH  37  40
ATOM     40  C   UNL A   1      38.147  33.647  31.963  1.00  0.00     0.039 A 
ATOM     41  C   UNL A   1      38.460  33.806  30.604  1.00  0.00     0.014 A 
ATOM     42  C   UNL A   1      38.775  32.618  32.647  1.00  0.00     0.014 A 
ATOM     43  C   UNL A   1      39.462  33.027  29.975  1.00  0.00     0.010 A 
ATOM     44  C   UNL A   1      39.803  31.874  32.019  1.00  0.00     0.010 A 
ATOM     45  C   UNL A   1      40.227  32.095  30.690  1.00  0.00    -0.014 A 
BRANCH  45  46
ATOM     46  C   UNL A   1      41.475  31.407  30.139  1.00  0.00     0.031 A 
ATOM     47  C   UNL A   1      42.674  32.207  29.645  1.00  0.00     0.074 A 
ATOM     48  C   UNL A   1      41.551  30.066  29.927  1.00  0.00     0.049 A 
ATOM     49  N   UNL A   1      43.725  31.805  28.960  1.00  0.00    -0.248 NA
ATOM     50  C   UNL A   1      42.698  33.641  29.961  1.00  0.00     0.031 C 
ATOM     51  C   UNL A   1      40.576  29.057  30.332  1.00  0.00     0.029 A 
ATOM     52  N   UNL A   1      42.489  29.322  29.219  1.00  0.00    -0.354 N 
ATOM     53  C   UNL A   1      44.528  32.926  28.789  1.00  0.00     0.074 A 
ATOM     54  C   UNL A   1      43.779  34.048  29.313  1.00  0.00     0.031 C 
ATOM     55  C   UNL A   1      40.898  27.873  29.783  1.00  0.00     0.029 A 
ATOM     56  C   UNL A   1      42.085  28.031  28.957  1.00  0.00     0.049 A 
ATOM     57  H   UNL A   1      43.359  29.684  28.932  1.00  0.00     0.167 HD
ATOM     58  C   UNL A   1      45.806  33.020  28.337  1.00  0.00     0.037 A 
ATOM     59  C   UNL A   1      42.554  27.082  28.122  1.00  0.00     0.037 A 
ATOM     60  C   UNL A   1      46.621  31.925  27.879  1.00  0.00     0.049 A 
ATOM     61  C   UNL A   1      43.880  27.234  27.442  1.00  0.00     0.074 A 
ATOM     62  C   UNL A   1      47.981  31.912  27.610  1.00  0.00     0.029 A 
ATOM     63  N   UNL A   1      46.153  30.654  27.603  1.00  0.00    -0.354 N 
ATOM     64  N   UNL A   1      44.684  28.261  27.436  1.00  0.00    -0.248 NA
ATOM     65  C   UNL A   1      44.406  26.054  26.732  1.00  0.00     0.031 C 
ATOM     66  C   UNL A   1      48.331  30.639  27.140  1.00  0.00     0.029 A 
ATOM     67  C   UNL A   1      47.192  29.855  27.142  1.00  0.00     0.049 A 
ATOM     68  H   UNL A   1      45.222  30.359  27.716  1.00  0.00     0.167 HD
ATOM     69  C   UNL A   1      45.857  27.817  26.840  1.00  0.00     0.074 A 
ATOM     70  C   UNL A   1      45.632  26.454  26.417  1.00  0.00     0.031 C 
ATOM     71  C   UNL A   1      47.031  28.482  26.740  1.00  0.00     0.037 A 
BRANCH  58  72
ATOM     72  C   UNL A   1      46.453  34.373  28.422  1.00  0.00     0.064 A 
ATOM     73  C   UNL A   1      46.428  35.250  27.325  1.00  0.00     0.173 A 
ATOM     74  C   UNL A   1      47.068  34.813  29.602  1.00  0.00     0.173 A 
ATOM     75  F   UNL A   1      45.845  34.876  26.175  1.00  0.00    -0.203 F 
ATOM     76  C   UNL A   1      47.046  36.494  27.387  1.00  0.00     0.198 A 
ATOM     77  C   UNL A   1      47.658  36.073  29.670  1.00  0.00     0.198 A 
ATOM     78  F   UNL A   1      47.098  34.024  30.686  1.00  0.00    -0.203 F 
ATOM     79  F   UNL A   1      47.064  37.285  26.305  1.00  0.00    -0.200 F 
ATOM     80  C   UNL A   1      47.658  36.906  28.560  1.00  0.00     0.200 A 
ATOM     81  F   UNL A   1      48.235  36.481  30.809  1.00  0.00    -0.200 F 
ATOM     82  F   UNL A   1      48.255  38.104  28.618  1.00  0.00    -0.200 F 
ENDBRANCH  58  72
BRANCH  59  83
ATOM     83  C   UNL A   1      41.766  25.843  27.888  1.00  0.00     0.064 A 
ATOM     84  C   UNL A   1      42.098  24.641  28.522  1.00  0.00     0.173 A 
ATOM     85  C   UNL A   1      40.696  25.841  26.983  1.00  0.00     0.173 A 
ATOM     86  F   UNL A   1      43.135  24.597  29.370  1.00  0.00    -0.203 F 
ATOM     87  C   UNL A   1      41.386  23.473  28.257  1.00  0.00     0.198 A 
ATOM     88  C   UNL A   1      39.981  24.674  26.723  1.00  0.00     0.198 A 
ATOM     89  F   UNL A   1      40.359  26.966  26.336  1.00  0.00    -0.203 F 
ATOM     90  F   UNL A   1      41.734  22.328  28.858  1.00  0.00    -0.200 F 
ATOM     91  C   UNL A   1      40.328  23.491  27.359  1.00  0.00     0.200 A 
ATOM     92  F   UNL A   1      38.962  24.689  25.853  1.00  0.00    -0.200 F 
ATOM     93  F   UNL A   1      39.647  22.366  27.102  1.00  0.00    -0.200 F 
ENDBRANCH  59  83
BRANCH  71  94
ATOM     94  C   UNL A   1      48.232  27.709  26.287  1.00  0.00     0.064 A 
ATOM     95  C   UNL A   1      48.523  27.487  24.935  1.00  0.00     0.173 A 
ATOM     96  C   UNL A   1      49.115  27.178  27.242  1.00  0.00     0.173 A 
ATOM     97  F   UNL A   1      47.697  27.948  23.983  1.00  0.00    -0.203 F 
ATOM     98  C   UNL A   1      49.643  26.749  24.555  1.00  0.00     0.198 A 
ATOM     99  C   UNL A   1      50.244  26.460  26.860  1.00  0.00     0.198 A 
ATOM    100  F   UNL A   1      48.879  27.352  28.552  1.00  0.00    -0.203 F 
ATOM    101  F   UNL A   1      49.878  26.511  23.258  1.00  0.00    -0.200 F 
ATOM    102  C   UNL A   1      50.505  26.241  25.517  1.00  0.00     0.200 A 
ATOM    103  F   UNL A   1      51.075  25.972  27.792  1.00  0.00    -0.200 F 
ATOM    104  F   UNL A   1      51.581  25.530  25.149  1.00  0.00    -0.200 F 
ENDBRANCH  71  94
ENDBRANCH  45  46
ENDBRANCH  37  40
ENDBRANCH  35  36
ENDBRANCH  34  35
ENDBRANCH  33  34
ENDBRANCH  32  33
ENDBRANCH  31  32
ENDBRANCH   1  31
TORSDOF 20
ENDMDL
MODEL 2
REMARK VINA RESULT:     -11.1      4.010      7.340
REMARK SMILES COc1cccc(NC(=O)/C(C#N)=C\c2ccc(O[C@@H](C)C(=O)NCCCCCCNC(=O)c3ccc(-c4c5nc(c(-c6c(F)c(F)c(F)c(F)c6F)c6ccc([nH]6)c(-c6c(F)c(F)c(F)c(F)c6F)c6nc(c(-c7c(F)c(F)c(F)c(F)c7F)c7ccc4[nH]7)C=C6)C=C5)cc3)cc2)c1
REMARK SMILES IDX 25 1 24 2 22 3 23 4 20 6 21 7 19 8 18 9 15 10 16 11 98 12
REMARK SMILES IDX 17 13 97 14 14 15 11 16 9 17 8 18 10 20 7 21 3 22 4 23 99 24
REMARK SMILES IDX 5 25 6 26 2 27 1 28 12 29 13 30 26 31 27 32 28 33 29 34
REMARK SMILES IDX 30 35 31 36 32 37 33 39 34 40 35 41 96 42 36 43 95 44 37 45
REMARK SMILES IDX 38 46 39 47 89 48 40 49 94 50 88 51 90 52 41 53 93 54 87 55
REMARK SMILES IDX 86 56 42 58 74 59 54 60 73 61 55 62 58 63 72 64 91 65 56 66
REMARK SMILES IDX 57 67 71 69 92 70 59 71 43 72 44 73 52 74 45 75 46 76 50 77
REMARK SMILES IDX 53 78 47 79 48 80 51 81 49 82 75 83 76 84 84 85 77 86 78 87
REMARK SMILES IDX 82 88 85 89 79 90 80 91 83 92 81 93 60 94 61 95 69 96 62 97
REMARK SMILES IDX 63 98 67 99 70 100 64 101 65 102 68 103 66 104
REMARK H PARENT 24 5 8 19 31 38 90 57 58 68
REMARK Flexibility Score: inf
ROOT
ATOM      1  C   UNL A   1      37.515  33.330  30.549  1.00  0.00     0.116 C 
ENDROOT
BRANCH   1   2
ATOM      2  N   UNL A   1      36.175  33.012  31.018  1.00  0.00    -0.353 N 
ATOM      3  C   UNL A   1      34.914  33.346  30.627  1.00  0.00     0.260 C 
ATOM      4  O   UNL A   1      34.013  32.903  31.355  1.00  0.00    -0.271 OA
ATOM      5  H   UNL A   1      36.180  32.416  31.801  1.00  0.00     0.163 HD
BRANCH   3   6
ATOM      6  C   UNL A   1      34.515  34.161  29.353  1.00  0.00     0.258 C 
ATOM      7  C   UNL A   1      33.273  35.036  29.539  1.00  0.00     0.064 C 
BRANCH   6   8
ATOM      8  O   UNL A   1      34.708  33.635  28.034  1.00  0.00    -0.481 OA
BRANCH   8   9
ATOM      9  C   UNL A   1      34.054  32.495  27.705  1.00  0.00     0.120 A 
ATOM     10  C   UNL A   1      32.720  30.043  27.283  1.00  0.00    -0.024 A 
ATOM     11  C   UNL A   1      34.108  30.077  27.469  1.00  0.00     0.012 A 
ATOM     12  C   UNL A   1      32.060  31.280  27.204  1.00  0.00     0.012 A 
ATOM     13  C   UNL A   1      34.768  31.298  27.688  1.00  0.00     0.047 A 
ATOM     14  C   UNL A   1      32.728  32.490  27.333  1.00  0.00     0.047 A 
BRANCH  10  15
ATOM     15  C   UNL A   1      31.994  28.746  27.304  1.00  0.00     0.033 C 
ATOM     16  C   UNL A   1      31.510  28.086  26.236  1.00  0.00     0.118 C 
BRANCH  16  17
ATOM     17  C   UNL A   1      31.985  28.446  24.820  1.00  0.00     0.266 C 
ATOM     18  N   UNL A   1      31.427  29.539  24.197  1.00  0.00    -0.321 N 
ATOM     19  H   UNL A   1      31.996  30.335  24.090  1.00  0.00     0.170 HD
ATOM     20  O   UNL A   1      32.935  27.864  24.300  1.00  0.00    -0.268 OA
BRANCH  18  21
ATOM     21  C   UNL A   1      30.112  29.618  23.696  1.00  0.00     0.045 A 
ATOM     22  C   UNL A   1      28.167  30.909  23.100  1.00  0.00     0.120 A 
ATOM     23  C   UNL A   1      27.441  29.739  22.900  1.00  0.00     0.046 A 
ATOM     24  C   UNL A   1      29.485  30.856  23.560  1.00  0.00     0.072 A 
ATOM     25  C   UNL A   1      28.111  28.529  22.912  1.00  0.00     0.006 A 
ATOM     26  C   UNL A   1      29.457  28.488  23.225  1.00  0.00     0.026 A 
BRANCH  22  27
ATOM     27  O   UNL A   1      27.629  32.137  22.825  1.00  0.00    -0.497 OA
ATOM     28  C   UNL A   1      28.028  32.608  21.530  1.00  0.00     0.278 C 
ENDBRANCH  22  27
ENDBRANCH  18  21
ENDBRANCH  16  17
BRANCH  16  29
ATOM     29  C   UNL A   1      31.009  26.651  26.245  1.00  0.00     0.105 C 
ATOM     30  N   UNL A   1      30.594  25.460  26.252  1.00  0.00    -0.192 NA
ENDBRANCH  16  29
ENDBRANCH  10  15
ENDBRANCH   8   9
ENDBRANCH   6   8
ENDBRANCH   3   6
ENDBRANCH   1   2
BRANCH   1  31
ATOM     31  C   UNL A   1      37.842  32.639  29.216  1.00  0.00     0.021 C 
BRANCH  31  32
ATOM     32  C   UNL A   1      38.570  31.288  29.266  1.00  0.00     0.002 C 
BRANCH  32  33
ATOM     33  C   UNL A   1      37.790  30.079  28.711  1.00  0.00     0.002 C 
BRANCH  33  34
ATOM     34  C   UNL A   1      37.184  29.074  29.717  1.00  0.00     0.021 C 
BRANCH  34  35
ATOM     35  C   UNL A   1      37.034  29.520  31.185  1.00  0.00     0.116 C 
BRANCH  35  36
ATOM     36  N   UNL A   1      37.756  28.679  32.125  1.00  0.00    -0.352 N 
ATOM     37  C   UNL A   1      39.104  28.475  32.354  1.00  0.00     0.251 C 
ATOM     38  H   UNL A   1      37.171  28.150  32.713  1.00  0.00     0.163 HD
ATOM     39  O   UNL A   1      39.425  27.566  33.118  1.00  0.00    -0.269 OA
BRANCH  37  40
ATOM     40  C   UNL A   1      40.194  29.285  31.735  1.00  0.00     0.039 A 
ATOM     41  C   UNL A   1      40.525  30.529  32.294  1.00  0.00     0.014 A 
ATOM     42  C   UNL A   1      40.806  28.938  30.541  1.00  0.00     0.014 A 
ATOM     43  C   UNL A   1      41.530  31.354  31.732  1.00  0.00     0.010 A 
ATOM     44  C   UNL A   1      41.837  29.752  30.011  1.00  0.00     0.010 A 
ATOM     45  C   UNL A   1      42.279  30.947  30.620  1.00  0.00    -0.014 A 
BRANCH  45  46
ATOM     46  C   UNL A   1      43.529  31.668  30.118  1.00  0.00     0.031 A 
ATOM     47  C   UNL A   1      43.462  33.084  29.558  1.00  0.00     0.074 A 
ATOM     48  C   UNL A   1      44.742  31.064  30.009  1.00  0.00     0.049 A 
ATOM     49  N   UNL A   1      44.375  33.770  28.902  1.00  0.00    -0.248 NA
ATOM     50  C   UNL A   1      42.210  33.826  29.763  1.00  0.00     0.031 C 
ATOM     51  C   UNL A   1      45.107  29.736  30.496  1.00  0.00     0.029 A 
ATOM     52  N   UNL A   1      45.897  31.483  29.356  1.00  0.00    -0.354 N 
ATOM     53  C   UNL A   1      43.812  35.013  28.641  1.00  0.00     0.074 A 
ATOM     54  C   UNL A   1      42.435  34.939  29.080  1.00  0.00     0.031 C 
ATOM     55  C   UNL A   1      46.328  29.409  30.038  1.00  0.00     0.029 A 
ATOM     56  C   UNL A   1      46.832  30.483  29.196  1.00  0.00     0.049 A 
ATOM     57  H   UNL A   1      46.033  32.405  29.039  1.00  0.00     0.167 HD
ATOM     58  C   UNL A   1      44.392  36.151  28.177  1.00  0.00     0.037 A 
ATOM     59  C   UNL A   1      47.941  30.388  28.435  1.00  0.00     0.037 A 
ATOM     60  C   UNL A   1      45.774  36.300  27.801  1.00  0.00     0.049 A 
ATOM     61  C   UNL A   1      48.510  31.586  27.740  1.00  0.00     0.074 A 
ATOM     62  C   UNL A   1      46.477  37.464  27.528  1.00  0.00     0.029 A 
ATOM     63  N   UNL A   1      46.662  35.255  27.626  1.00  0.00    -0.354 N 
ATOM     64  N   UNL A   1      48.019  32.791  27.651  1.00  0.00    -0.248 NA
ATOM     65  C   UNL A   1      49.839  31.431  27.120  1.00  0.00     0.031 C 
ATOM     66  C   UNL A   1      47.783  37.120  27.156  1.00  0.00     0.029 A 
ATOM     67  C   UNL A   1      47.898  35.744  27.223  1.00  0.00     0.049 A 
ATOM     68  H   UNL A   1      46.449  34.305  27.766  1.00  0.00     0.167 HD
ATOM     69  C   UNL A   1      49.022  33.566  27.086  1.00  0.00     0.074 A 
ATOM     70  C   UNL A   1      50.119  32.680  26.770  1.00  0.00     0.031 C 
ATOM     71  C   UNL A   1      49.034  34.910  26.929  1.00  0.00     0.037 A 
BRANCH  58  72
ATOM     72  C   UNL A   1      43.535  37.385  28.155  1.00  0.00     0.064 A 
ATOM     73  C   UNL A   1      42.653  37.625  27.089  1.00  0.00     0.173 A 
ATOM     74  C   UNL A   1      43.565  38.311  29.206  1.00  0.00     0.173 A 
ATOM     75  F   UNL A   1      42.584  36.764  26.062  1.00  0.00    -0.203 F 
ATOM     76  C   UNL A   1      41.874  38.776  27.048  1.00  0.00     0.198 A 
ATOM     77  C   UNL A   1      42.758  39.447  29.177  1.00  0.00     0.198 A 
ATOM     78  F   UNL A   1      44.371  38.115  30.260  1.00  0.00    -0.203 F 
ATOM     79  F   UNL A   1      41.089  39.013  25.989  1.00  0.00    -0.200 F 
ATOM     80  C   UNL A   1      41.925  39.685  28.093  1.00  0.00     0.200 A 
ATOM     81  F   UNL A   1      42.793  40.318  30.195  1.00  0.00    -0.200 F 
ATOM     82  F   UNL A   1      41.175  40.795  28.053  1.00  0.00    -0.200 F 
ENDBRANCH  58  72
BRANCH  59  83
ATOM     83  C   UNL A   1      48.639  29.082  28.301  1.00  0.00     0.064 A 
ATOM     84  C   UNL A   1      48.308  28.183  27.281  1.00  0.00     0.173 A 
ATOM     85  C   UNL A   1      49.617  28.699  29.230  1.00  0.00     0.173 A 
ATOM     86  F   UNL A   1      47.356  28.501  26.393  1.00  0.00    -0.203 F 
ATOM     87  C   UNL A   1      48.931  26.940  27.195  1.00  0.00     0.198 A 
ATOM     88  C   UNL A   1      50.243  27.457  29.139  1.00  0.00     0.198 A 
ATOM     89  F   UNL A   1      49.948  29.520  30.237  1.00  0.00    -0.203 F 
ATOM     90  F   UNL A   1      48.584  26.087  26.223  1.00  0.00    -0.200 F 
ATOM     91  C   UNL A   1      49.898  26.579  28.122  1.00  0.00     0.200 A 
ATOM     92  F   UNL A   1      51.174  27.107  30.036  1.00  0.00    -0.200 F 
ATOM     93  F   UNL A   1      50.493  25.382  28.039  1.00  0.00    -0.200 F 
ENDBRANCH  59  83
BRANCH  71  94
ATOM     94  C   UNL A   1      50.328  35.553  26.532  1.00  0.00     0.064 A 
ATOM     95  C   UNL A   1      51.326  35.881  27.459  1.00  0.00     0.173 A 
ATOM     96  C   UNL A   1      50.569  35.846  25.179  1.00  0.00     0.173 A 
ATOM     97  F   UNL A   1      51.133  35.648  28.766  1.00  0.00    -0.203 F 
ATOM     98  C   UNL A   1      52.509  36.493  27.050  1.00  0.00     0.198 A 
ATOM     99  C   UNL A   1      51.762  36.437  24.771  1.00  0.00     0.198 A 
ATOM    100  F   UNL A   1      49.644  35.562  24.250  1.00  0.00    -0.203 F 
ATOM    101  F   UNL A   1      53.431  36.838  27.960  1.00  0.00    -0.200 F 
ATOM    102  C   UNL A   1      52.729  36.765  25.708  1.00  0.00     0.200 A 
ATOM    103  F   UNL A   1      51.971  36.697  23.473  1.00  0.00    -0.200 F 
ATOM    104  F   UNL A   1      53.868  37.355  25.318  1.00  0.00    -0.200 F 
ENDBRANCH  71  94
ENDBRANCH  45  46
ENDBRANCH  37  40
ENDBRANCH  35  36
ENDBRANCH  34  35
ENDBRANCH  33  34
ENDBRANCH  32  33
ENDBRANCH  31  32
ENDBRANCH   1  31
TORSDOF 20
ENDMDL
MODEL 3
REMARK VINA RESULT:     -11.0      4.960      6.875
REMARK SMILES COc1cccc(NC(=O)/C(C#N)=C\c2ccc(O[C@@H](C)C(=O)NCCCCCCNC(=O)c3ccc(-c4c5nc(c(-c6c(F)c(F)c(F)c(F)c6F)c6ccc([nH]6)c(-c6c(F)c(F)c(F)c(F)c6F)c6nc(c(-c7c(F)c(F)c(F)c(F)c7F)c7ccc4[nH]7)C=C6)C=C5)cc3)cc2)c1
REMARK SMILES IDX 25 1 24 2 22 3 23 4 20 6 21 7 19 8 18 9 15 10 16 11 98 12
REMARK SMILES IDX 17 13 97 14 14 15 11 16 9 17 8 18 10 20 7 21 3 22 4 23 99 24
REMARK SMILES IDX 5 25 6 26 2 27 1 28 12 29 13 30 26 31 27 32 28 33 29 34
REMARK SMILES IDX 30 35 31 36 32 37 33 39 34 40 35 41 96 42 36 43 95 44 37 45
REMARK SMILES IDX 38 46 39 47 89 48 40 49 94 50 88 51 90 52 41 53 93 54 87 55
REMARK SMILES IDX 86 56 42 58 74 59 54 60 73 61 55 62 58 63 72 64 91 65 56 66
REMARK SMILES IDX 57 67 71 69 92 70 59 71 43 72 44 73 52 74 45 75 46 76 50 77
REMARK SMILES IDX 53 78 47 79 48 80 51 81 49 82 75 83 76 84 84 85 77 86 78 87
REMARK SMILES IDX 82 88 85 89 79 90 80 91 83 92 81 93 60 94 61 95 69 96 62 97
REMARK SMILES IDX 63 98 67 99 70 100 64 101 65 102 68 103 66 104
REMARK H PARENT 24 5 8 19 31 38 90 57 58 68
REMARK Flexibility Score: inf
ROOT
ATOM      1  C   UNL A   1      36.956  30.416  31.159  1.00  0.00     0.116 C 
ENDROOT
BRANCH   1   2
ATOM      2  N   UNL A   1      37.322  29.281  31.992  1.00  0.00    -0.353 N 
ATOM      3  C   UNL A   1      38.130  28.195  31.838  1.00  0.00     0.260 C 
ATOM      4  O   UNL A   1      38.117  27.403  32.792  1.00  0.00    -0.271 OA
ATOM      5  H   UNL A   1      36.883  29.301  32.873  1.00  0.00     0.163 HD
BRANCH   3   6
ATOM      6  C   UNL A   1      39.081  27.901  30.632  1.00  0.00     0.258 C 
ATOM      7  C   UNL A   1      40.520  28.382  30.845  1.00  0.00     0.064 C 
BRANCH   6   8
ATOM      8  O   UNL A   1      38.613  27.937  29.279  1.00  0.00    -0.481 OA
BRANCH   8   9
ATOM      9  C   UNL A   1      39.502  27.664  28.293  1.00  0.00     0.120 A 
ATOM     10  C   UNL A   1      41.537  27.248  26.382  1.00  0.00    -0.024 A 
ATOM     11  C   UNL A   1      40.895  28.489  26.481  1.00  0.00     0.012 A 
ATOM     12  C   UNL A   1      41.043  26.211  27.191  1.00  0.00     0.012 A 
ATOM     13  C   UNL A   1      39.888  28.696  27.439  1.00  0.00     0.047 A 
ATOM     14  C   UNL A   1      39.990  26.395  28.075  1.00  0.00     0.047 A 
BRANCH  10  15
ATOM     15  C   UNL A   1      42.762  27.103  25.551  1.00  0.00     0.033 C 
ATOM     16  C   UNL A   1      44.024  27.358  25.942  1.00  0.00     0.118 C 
BRANCH  16  17
ATOM     17  C   UNL A   1      44.363  27.487  27.434  1.00  0.00     0.266 C 
ATOM     18  N   UNL A   1      45.035  26.454  28.049  1.00  0.00    -0.321 N 
ATOM     19  H   UNL A   1      45.974  26.611  28.296  1.00  0.00     0.170 HD
ATOM     20  O   UNL A   1      44.170  28.538  28.043  1.00  0.00    -0.268 OA
BRANCH  18  21
ATOM     21  C   UNL A   1      44.492  25.190  28.358  1.00  0.00     0.045 A 
ATOM     22  C   UNL A   1      43.654  23.040  27.665  1.00  0.00     0.120 A 
ATOM     23  C   UNL A   1      43.228  22.779  28.963  1.00  0.00     0.046 A 
ATOM     24  C   UNL A   1      44.229  24.271  27.343  1.00  0.00     0.072 A 
ATOM     25  C   UNL A   1      43.610  23.638  29.977  1.00  0.00     0.006 A 
ATOM     26  C   UNL A   1      44.311  24.791  29.675  1.00  0.00     0.026 A 
BRANCH  22  27
ATOM     27  O   UNL A   1      43.553  22.097  26.678  1.00  0.00    -0.497 OA
ATOM     28  C   UNL A   1      42.977  22.646  25.484  1.00  0.00     0.278 C 
ENDBRANCH  22  27
ENDBRANCH  18  21
ENDBRANCH  16  17
BRANCH  16  29
ATOM     29  C   UNL A   1      45.276  26.959  25.178  1.00  0.00     0.105 C 
ATOM     30  N   UNL A   1      46.315  26.628  24.544  1.00  0.00    -0.192 NA
ENDBRANCH  16  29
ENDBRANCH  10  15
ENDBRANCH   8   9
ENDBRANCH   6   8
ENDBRANCH   3   6
ENDBRANCH   1   2
BRANCH   1  31
ATOM     31  C   UNL A   1      38.129  31.387  30.955  1.00  0.00     0.021 C 
BRANCH  31  32
ATOM     32  C   UNL A   1      37.814  32.887  30.865  1.00  0.00     0.002 C 
BRANCH  32  33
ATOM     33  C   UNL A   1      38.606  33.802  31.821  1.00  0.00     0.002 C 
BRANCH  33  34
ATOM     34  C   UNL A   1      37.840  34.503  32.965  1.00  0.00     0.021 C 
BRANCH  34  35
ATOM     35  C   UNL A   1      36.572  33.819  33.514  1.00  0.00     0.116 C 
BRANCH  35  36
ATOM     36  N   UNL A   1      36.624  33.559  34.944  1.00  0.00    -0.352 N 
ATOM     37  C   UNL A   1      37.500  32.837  35.732  1.00  0.00     0.251 C 
ATOM     38  H   UNL A   1      35.891  33.979  35.449  1.00  0.00     0.163 HD
ATOM     39  O   UNL A   1      37.195  32.655  36.910  1.00  0.00    -0.269 OA
BRANCH  37  40
ATOM     40  C   UNL A   1      38.789  32.263  35.248  1.00  0.00     0.039 A 
ATOM     41  C   UNL A   1      38.787  31.007  34.621  1.00  0.00     0.014 A 
ATOM     42  C   UNL A   1      40.020  32.842  35.514  1.00  0.00     0.014 A 
ATOM     43  C   UNL A   1      39.985  30.399  34.169  1.00  0.00     0.010 A 
ATOM     44  C   UNL A   1      41.206  32.245  35.020  1.00  0.00     0.010 A 
ATOM     45  C   UNL A   1      41.224  31.044  34.277  1.00  0.00    -0.014 A 
BRANCH  45  46
ATOM     46  C   UNL A   1      42.504  30.561  33.597  1.00  0.00     0.031 A 
ATOM     47  C   UNL A   1      42.948  31.114  32.248  1.00  0.00     0.074 A 
ATOM     48  C   UNL A   1      43.252  29.529  34.069  1.00  0.00     0.049 A 
ATOM     49  N   UNL A   1      43.885  30.680  31.431  1.00  0.00    -0.248 NA
ATOM     50  C   UNL A   1      42.251  32.310  31.753  1.00  0.00     0.031 C 
ATOM     51  C   UNL A   1      43.088  28.838  35.345  1.00  0.00     0.029 A 
ATOM     52  N   UNL A   1      44.279  28.814  33.461  1.00  0.00    -0.354 N 
ATOM     53  C   UNL A   1      43.895  31.556  30.353  1.00  0.00     0.074 A 
ATOM     54  C   UNL A   1      42.781  32.459  30.548  1.00  0.00     0.031 C 
ATOM     55  C   UNL A   1      43.884  27.755  35.377  1.00  0.00     0.029 A 
ATOM     56  C   UNL A   1      44.599  27.644  34.115  1.00  0.00     0.049 A 
ATOM     57  H   UNL A   1      44.734  29.115  32.641  1.00  0.00     0.167 HD
ATOM     58  C   UNL A   1      44.795  31.681  29.342  1.00  0.00     0.037 A 
ATOM     59  C   UNL A   1      45.329  26.570  33.754  1.00  0.00     0.037 A 
ATOM     60  C   UNL A   1      45.962  30.861  29.146  1.00  0.00     0.049 A 
ATOM     61  C   UNL A   1      46.191  26.594  32.529  1.00  0.00     0.074 A 
ATOM     62  C   UNL A   1      47.024  31.060  28.277  1.00  0.00     0.029 A 
ATOM     63  N   UNL A   1      46.217  29.677  29.812  1.00  0.00    -0.354 N 
ATOM     64  N   UNL A   1      46.286  27.517  31.614  1.00  0.00    -0.248 NA
ATOM     65  C   UNL A   1      47.118  25.463  32.342  1.00  0.00     0.031 C 
ATOM     66  C   UNL A   1      47.907  29.978  28.394  1.00  0.00     0.029 A 
ATOM     67  C   UNL A   1      47.405  29.121  29.356  1.00  0.00     0.049 A 
ATOM     68  H   UNL A   1      45.641  29.286  30.508  1.00  0.00     0.167 HD
ATOM     69  C   UNL A   1      47.364  27.149  30.819  1.00  0.00     0.074 A 
ATOM     70  C   UNL A   1      47.836  25.873  31.304  1.00  0.00     0.031 C 
ATOM     71  C   UNL A   1      47.939  27.870  29.828  1.00  0.00     0.037 A 
BRANCH  58  72
ATOM     72  C   UNL A   1      44.604  32.844  28.409  1.00  0.00     0.064 A 
ATOM     73  C   UNL A   1      44.965  34.143  28.801  1.00  0.00     0.173 A 
ATOM     74  C   UNL A   1      44.094  32.663  27.117  1.00  0.00     0.173 A 
ATOM     75  F   UNL A   1      45.464  34.365  30.027  1.00  0.00    -0.203 F 
ATOM     76  C   UNL A   1      44.769  35.228  27.953  1.00  0.00     0.198 A 
ATOM     77  C   UNL A   1      43.930  33.749  26.259  1.00  0.00     0.198 A 
ATOM     78  F   UNL A   1      43.757  31.439  26.685  1.00  0.00    -0.203 F 
ATOM     79  F   UNL A   1      45.061  36.466  28.375  1.00  0.00    -0.200 F 
ATOM     80  C   UNL A   1      44.254  35.030  26.682  1.00  0.00     0.200 A 
ATOM     81  F   UNL A   1      43.448  33.557  25.023  1.00  0.00    -0.200 F 
ATOM     82  F   UNL A   1      44.063  36.076  25.866  1.00  0.00    -0.200 F 
ENDBRANCH  58  72
BRANCH  59  83
ATOM     83  C   UNL A   1      45.313  25.345  34.596  1.00  0.00     0.064 A 
ATOM     84  C   UNL A   1      46.173  25.204  35.691  1.00  0.00     0.173 A 
ATOM     85  C   UNL A   1      44.465  24.275  34.279  1.00  0.00     0.173 A 
ATOM     86  F   UNL A   1      47.020  26.193  36.006  1.00  0.00    -0.203 F 
ATOM     87  C   UNL A   1      46.187  24.031  36.442  1.00  0.00     0.198 A 
ATOM     88  C   UNL A   1      44.476  23.104  35.035  1.00  0.00     0.198 A 
ATOM     89  F   UNL A   1      43.642  24.358  33.224  1.00  0.00    -0.203 F 
ATOM     90  F   UNL A   1      47.033  23.910  37.474  1.00  0.00    -0.200 F 
ATOM     91  C   UNL A   1      45.338  22.983  36.114  1.00  0.00     0.200 A 
ATOM     92  F   UNL A   1      43.660  22.090  34.716  1.00  0.00    -0.200 F 
ATOM     93  F   UNL A   1      45.357  21.855  36.836  1.00  0.00    -0.200 F 
ENDBRANCH  59  83
BRANCH  71  94
ATOM     94  C   UNL A   1      49.247  27.383  29.283  1.00  0.00     0.064 A 
ATOM     95  C   UNL A   1      49.336  26.563  28.151  1.00  0.00     0.173 A 
ATOM     96  C   UNL A   1      50.444  27.754  29.919  1.00  0.00     0.173 A 
ATOM     97  F   UNL A   1      48.222  26.156  27.524  1.00  0.00    -0.203 F 
ATOM     98  C   UNL A   1      50.572  26.118  27.685  1.00  0.00     0.198 A 
ATOM     99  C   UNL A   1      51.678  27.326  29.438  1.00  0.00     0.198 A 
ATOM    100  F   UNL A   1      50.416  28.530  31.013  1.00  0.00    -0.203 F 
ATOM    101  F   UNL A   1      50.632  25.298  26.627  1.00  0.00    -0.200 F 
ATOM    102  C   UNL A   1      51.741  26.504  28.325  1.00  0.00     0.200 A 
ATOM    103  F   UNL A   1      52.805  27.703  30.058  1.00  0.00    -0.200 F 
ATOM    104  F   UNL A   1      52.929  26.074  27.874  1.00  0.00    -0.200 F 
ENDBRANCH  71  94
ENDBRANCH  45  46
ENDBRANCH  37  40
ENDBRANCH  35  36
ENDBRANCH  34  35
ENDBRANCH  33  34
ENDBRANCH  32  33
ENDBRANCH  31  32
ENDBRANCH   1  31
TORSDOF 20
ENDMDL
