MODEL 1
REMARK VINA RESULT:     -11.7      0.000      0.000
REMARK SMILES O=C(CS[C@H](C(=O)Nc1ccc(C(F)(F)F)cc1)c1ccccc1)NCCCCCCNC(=O)c1ccc(-c2c3nc(c(-c4c(F)c(F)c(F)c(F)c4F)c4ccc([nH]4)c(-c4c(F)c(F)c(F)c(F)c4F)c4nc(c(-c5c(F)c(F)c(F)c(F)c5F)c5ccc2[nH]5)C=C4)C=C3)cc1
REMARK SMILES IDX 27 1 26 2 25 3 1 4 2 5 3 7 4 8 5 9 19 10 20 11 24 12 21 13
REMARK SMILES IDX 23 14 22 15 6 16 7 17 8 18 9 20 10 21 18 22 11 23 17 24
REMARK SMILES IDX 12 25 13 26 14 27 15 28 16 29 28 30 29 31 30 32 31 33 32 34
REMARK SMILES IDX 33 35 34 37 35 38 36 39 97 40 37 41 96 42 38 43 39 44 40 45
REMARK SMILES IDX 90 46 41 47 95 48 89 49 91 50 42 51 94 52 88 53 87 54 43 56
REMARK SMILES IDX 75 57 55 58 74 59 56 60 59 61 73 62 92 63 57 64 58 65 72 67
REMARK SMILES IDX 93 68 60 69 44 70 45 71 53 72 46 73 47 74 51 75 54 76 48 77
REMARK SMILES IDX 49 78 52 79 50 80 76 81 77 82 85 83 78 84 79 85 83 86 86 87
REMARK SMILES IDX 80 88 81 89 84 90 82 91 61 92 62 93 70 94 63 95 64 96 68 97
REMARK SMILES IDX 71 98 65 99 66 100 69 101 67 102
REMARK H PARENT 25 6 8 19 32 36 91 55 59 66
REMARK Flexibility Score: inf
ROOT
ATOM      1  C   UNL A   1      34.215  31.937  28.002  1.00  0.00     0.021 C 
ENDROOT
BRANCH   1   2
ATOM      2  C   UNL A   1      34.910  30.577  27.906  1.00  0.00     0.116 C 
BRANCH   2   3
ATOM      3  N   UNL A   1      33.992  29.471  27.781  1.00  0.00    -0.355 N 
ATOM      4  O   UNL A   1      33.685  29.690  25.507  1.00  0.00    -0.274 OA
ATOM      5  C   UNL A   1      33.445  29.106  26.557  1.00  0.00     0.230 C 
ATOM      6  H   UNL A   1      33.743  28.962  28.587  1.00  0.00     0.163 HD
BRANCH   5   7
ATOM      7  C   UNL A   1      32.439  27.988  26.689  1.00  0.00     0.170 C 
BRANCH   7   8
ATOM      8  S   UNL A   1      31.359  27.671  25.276  1.00  0.00    -0.134 SA
BRANCH   8   9
ATOM      9  C   UNL A   1      32.047  26.153  24.477  1.00  0.00     0.166 C 
BRANCH   9  10
ATOM     10  C   UNL A   1      31.880  25.033  25.516  1.00  0.00    -0.026 A 
ATOM     11  C   UNL A   1      30.654  24.350  25.632  1.00  0.00     0.005 A 
ATOM     12  C   UNL A   1      32.969  24.523  26.220  1.00  0.00     0.005 A 
ATOM     13  C   UNL A   1      30.558  23.148  26.342  1.00  0.00     0.000 A 
ATOM     14  C   UNL A   1      32.867  23.324  26.930  1.00  0.00     0.000 A 
ATOM     15  C   UNL A   1      31.675  22.621  26.971  1.00  0.00     0.000 A 
ENDBRANCH   9  10
BRANCH   9  16
ATOM     16  C   UNL A   1      31.671  25.755  23.011  1.00  0.00     0.242 C 
ATOM     17  O   UNL A   1      30.973  26.538  22.338  1.00  0.00    -0.273 OA
ATOM     18  N   UNL A   1      32.027  24.643  22.301  1.00  0.00    -0.325 N 
ATOM     19  H   UNL A   1      31.754  24.678  21.356  1.00  0.00     0.169 HD
BRANCH  18  20
ATOM     20  C   UNL A   1      32.699  23.467  22.639  1.00  0.00     0.041 A 
ATOM     21  C   UNL A   1      34.074  23.569  22.883  1.00  0.00     0.027 A 
ATOM     22  C   UNL A   1      32.041  22.268  22.877  1.00  0.00     0.027 A 
ATOM     23  C   UNL A   1      34.710  22.581  23.639  1.00  0.00     0.015 A 
ATOM     24  C   UNL A   1      32.684  21.266  23.609  1.00  0.00     0.015 A 
ATOM     25  C   UNL A   1      33.989  21.462  24.083  1.00  0.00     0.056 A 
BRANCH  25  26
ATOM     26  C   UNL A   1      34.579  20.545  25.129  1.00  0.00     0.416 C 
ATOM     27  F   UNL A   1      34.961  19.342  24.626  1.00  0.00    -0.166 F 
ATOM     28  F   UNL A   1      35.693  21.085  25.703  1.00  0.00    -0.166 F 
ATOM     29  F   UNL A   1      33.729  20.279  26.159  1.00  0.00    -0.166 F 
ENDBRANCH  25  26
ENDBRANCH  18  20
ENDBRANCH   9  16
ENDBRANCH   8   9
ENDBRANCH   7   8
ENDBRANCH   5   7
ENDBRANCH   2   3
ENDBRANCH   1   2
BRANCH   1  30
ATOM     30  C   UNL A   1      34.893  33.061  28.803  1.00  0.00     0.002 C 
BRANCH  30  31
ATOM     31  C   UNL A   1      34.675  34.525  28.414  1.00  0.00     0.002 C 
BRANCH  31  32
ATOM     32  C   UNL A   1      33.324  35.146  28.744  1.00  0.00     0.021 C 
BRANCH  32  33
ATOM     33  C   UNL A   1      33.446  36.441  29.518  1.00  0.00     0.116 C 
BRANCH  33  34
ATOM     34  N   UNL A   1      32.528  36.470  30.649  1.00  0.00    -0.352 N 
ATOM     35  C   UNL A   1      32.554  35.732  31.805  1.00  0.00     0.251 C 
ATOM     36  H   UNL A   1      31.783  37.109  30.573  1.00  0.00     0.163 HD
ATOM     37  O   UNL A   1      31.586  35.713  32.553  1.00  0.00    -0.269 OA
BRANCH  35  38
ATOM     38  C   UNL A   1      33.762  34.950  32.133  1.00  0.00     0.039 A 
ATOM     39  C   UNL A   1      33.638  33.588  32.414  1.00  0.00     0.014 A 
ATOM     40  C   UNL A   1      35.014  35.569  32.174  1.00  0.00     0.014 A 
ATOM     41  C   UNL A   1      34.779  32.845  32.715  1.00  0.00     0.010 A 
ATOM     42  C   UNL A   1      36.156  34.808  32.356  1.00  0.00     0.010 A 
ATOM     43  C   UNL A   1      36.046  33.449  32.672  1.00  0.00    -0.014 A 
BRANCH  43  44
ATOM     44  C   UNL A   1      37.269  32.703  33.043  1.00  0.00     0.031 A 
ATOM     45  C   UNL A   1      37.956  33.023  34.343  1.00  0.00     0.074 A 
ATOM     46  C   UNL A   1      37.774  31.787  32.198  1.00  0.00     0.049 A 
ATOM     47  N   UNL A   1      39.076  32.551  34.828  1.00  0.00    -0.248 NA
ATOM     48  C   UNL A   1      37.323  34.045  35.196  1.00  0.00     0.031 C 
ATOM     49  C   UNL A   1      37.217  31.445  30.887  1.00  0.00     0.029 A 
ATOM     50  N   UNL A   1      38.877  30.982  32.311  1.00  0.00    -0.354 N 
ATOM     51  C   UNL A   1      39.277  33.224  36.028  1.00  0.00     0.074 A 
ATOM     52  C   UNL A   1      38.220  34.198  36.156  1.00  0.00     0.031 C 
ATOM     53  C   UNL A   1      37.964  30.478  30.331  1.00  0.00     0.029 A 
ATOM     54  C   UNL A   1      39.071  30.160  31.228  1.00  0.00     0.049 A 
ATOM     55  H   UNL A   1      39.473  30.990  33.095  1.00  0.00     0.167 HD
ATOM     56  C   UNL A   1      40.236  33.015  36.960  1.00  0.00     0.037 A 
ATOM     57  C   UNL A   1      40.039  29.255  30.994  1.00  0.00     0.037 A 
ATOM     58  C   UNL A   1      41.266  32.021  36.832  1.00  0.00     0.049 A 
ATOM     59  C   UNL A   1      41.088  29.037  32.053  1.00  0.00     0.074 A 
ATOM     60  C   UNL A   1      42.278  31.702  37.717  1.00  0.00     0.029 A 
ATOM     61  N   UNL A   1      41.405  31.175  35.739  1.00  0.00    -0.354 N 
ATOM     62  N   UNL A   1      41.240  29.641  33.208  1.00  0.00    -0.248 NA
ATOM     63  C   UNL A   1      42.089  27.997  31.783  1.00  0.00     0.031 C 
ATOM     64  C   UNL A   1      43.050  30.685  37.146  1.00  0.00     0.029 A 
ATOM     65  C   UNL A   1      42.487  30.333  35.930  1.00  0.00     0.049 A 
ATOM     66  H   UNL A   1      40.820  31.174  34.948  1.00  0.00     0.167 HD
ATOM     67  C   UNL A   1      42.328  29.031  33.817  1.00  0.00     0.074 A 
ATOM     68  C   UNL A   1      42.784  27.998  32.911  1.00  0.00     0.031 C 
ATOM     69  C   UNL A   1      42.902  29.299  35.017  1.00  0.00     0.037 A 
BRANCH  56  70
ATOM     70  C   UNL A   1      40.191  33.859  38.203  1.00  0.00     0.064 A 
ATOM     71  C   UNL A   1      39.414  33.488  39.312  1.00  0.00     0.173 A 
ATOM     72  C   UNL A   1      40.944  35.038  38.298  1.00  0.00     0.173 A 
ATOM     73  F   UNL A   1      38.660  32.379  39.269  1.00  0.00    -0.203 F 
ATOM     74  C   UNL A   1      39.368  34.281  40.456  1.00  0.00     0.198 A 
ATOM     75  C   UNL A   1      40.924  35.810  39.458  1.00  0.00     0.198 A 
ATOM     76  F   UNL A   1      41.704  35.441  37.269  1.00  0.00    -0.203 F 
ATOM     77  F   UNL A   1      38.573  33.934  41.478  1.00  0.00    -0.200 F 
ATOM     78  C   UNL A   1      40.130  35.436  40.532  1.00  0.00     0.200 A 
ATOM     79  F   UNL A   1      41.668  36.922  39.533  1.00  0.00    -0.200 F 
ATOM     80  F   UNL A   1      40.092  36.195  41.635  1.00  0.00    -0.200 F 
ENDBRANCH  56  70
BRANCH  57  81
ATOM     81  C   UNL A   1      40.045  28.472  29.730  1.00  0.00     0.064 A 
ATOM     82  C   UNL A   1      39.409  27.225  29.648  1.00  0.00     0.173 A 
ATOM     83  C   UNL A   1      40.704  28.941  28.584  1.00  0.00     0.173 A 
ATOM     84  F   UNL A   1      38.775  26.725  30.719  1.00  0.00    -0.203 F 
ATOM     85  C   UNL A   1      39.466  26.461  28.483  1.00  0.00     0.198 A 
ATOM     86  C   UNL A   1      40.731  28.192  27.410  1.00  0.00     0.198 A 
ATOM     87  F   UNL A   1      41.318  30.134  28.603  1.00  0.00    -0.203 F 
ATOM     88  F   UNL A   1      38.903  25.245  28.455  1.00  0.00    -0.200 F 
ATOM     89  C   UNL A   1      40.124  26.947  27.364  1.00  0.00     0.200 A 
ATOM     90  F   UNL A   1      41.352  28.674  26.324  1.00  0.00    -0.200 F 
ATOM     91  F   UNL A   1      40.182  26.211  26.246  1.00  0.00    -0.200 F 
ENDBRANCH  57  81
BRANCH  69  92
ATOM     92  C   UNL A   1      44.046  28.424  35.436  1.00  0.00     0.064 A 
ATOM     93  C   UNL A   1      45.377  28.758  35.152  1.00  0.00     0.173 A 
ATOM     94  C   UNL A   1      43.800  27.244  36.156  1.00  0.00     0.173 A 
ATOM     95  F   UNL A   1      45.661  29.869  34.456  1.00  0.00    -0.203 F 
ATOM     96  C   UNL A   1      46.421  27.923  35.540  1.00  0.00     0.198 A 
ATOM     97  C   UNL A   1      44.849  26.430  36.574  1.00  0.00     0.198 A 
ATOM     98  F   UNL A   1      42.544  26.885  36.462  1.00  0.00    -0.203 F 
ATOM     99  F   UNL A   1      47.681  28.230  35.204  1.00  0.00    -0.200 F 
ATOM    100  C   UNL A   1      46.157  26.764  36.256  1.00  0.00     0.200 A 
ATOM    101  F   UNL A   1      44.593  25.321  37.280  1.00  0.00    -0.200 F 
ATOM    102  F   UNL A   1      47.163  25.963  36.630  1.00  0.00    -0.200 F 
ENDBRANCH  69  92
ENDBRANCH  43  44
ENDBRANCH  35  38
ENDBRANCH  33  34
ENDBRANCH  32  33
ENDBRANCH  31  32
ENDBRANCH  30  31
ENDBRANCH   1  30
TORSDOF 19
ENDMDL
MODEL 2
REMARK VINA RESULT:     -11.4      6.922     12.304
REMARK SMILES O=C(CS[C@H](C(=O)Nc1ccc(C(F)(F)F)cc1)c1ccccc1)NCCCCCCNC(=O)c1ccc(-c2c3nc(c(-c4c(F)c(F)c(F)c(F)c4F)c4ccc([nH]4)c(-c4c(F)c(F)c(F)c(F)c4F)c4nc(c(-c5c(F)c(F)c(F)c(F)c5F)c5ccc2[nH]5)C=C4)C=C3)cc1
REMARK SMILES IDX 27 1 26 2 25 3 1 4 2 5 3 7 4 8 5 9 19 10 20 11 24 12 21 13
REMARK SMILES IDX 23 14 22 15 6 16 7 17 8 18 9 20 10 21 18 22 11 23 17 24
REMARK SMILES IDX 12 25 13 26 14 27 15 28 16 29 28 30 29 31 30 32 31 33 32 34
REMARK SMILES IDX 33 35 34 37 35 38 36 39 97 40 37 41 96 42 38 43 39 44 40 45
REMARK SMILES IDX 90 46 41 47 95 48 89 49 91 50 42 51 94 52 88 53 87 54 43 56
REMARK SMILES IDX 75 57 55 58 74 59 56 60 59 61 73 62 92 63 57 64 58 65 72 67
REMARK SMILES IDX 93 68 60 69 44 70 45 71 53 72 46 73 47 74 51 75 54 76 48 77
REMARK SMILES IDX 49 78 52 79 50 80 76 81 77 82 85 83 78 84 79 85 83 86 86 87
REMARK SMILES IDX 80 88 81 89 84 90 82 91 61 92 62 93 70 94 63 95 64 96 68 97
REMARK SMILES IDX 71 98 65 99 66 100 69 101 67 102
REMARK H PARENT 25 6 8 19 32 36 91 55 59 66
REMARK Flexibility Score: inf
ROOT
ATOM      1  C   UNL A   1      40.341  22.316  27.484  1.00  0.00     0.021 C 
ENDROOT
BRANCH   1   2
ATOM      2  C   UNL A   1      39.785  22.938  26.201  1.00  0.00     0.116 C 
BRANCH   2   3
ATOM      3  N   UNL A   1      38.551  22.334  25.760  1.00  0.00    -0.355 N 
ATOM      4  O   UNL A   1      37.254  24.212  26.084  1.00  0.00    -0.274 OA
ATOM      5  C   UNL A   1      37.357  23.043  25.732  1.00  0.00     0.230 C 
ATOM      6  H   UNL A   1      38.555  21.392  25.472  1.00  0.00     0.163 HD
BRANCH   5   7
ATOM      7  C   UNL A   1      36.186  22.178  25.329  1.00  0.00     0.170 C 
BRANCH   7   8
ATOM      8  S   UNL A   1      34.900  21.892  26.566  1.00  0.00    -0.134 SA
BRANCH   8   9
ATOM      9  C   UNL A   1      33.717  23.297  26.360  1.00  0.00     0.166 C 
BRANCH   9  10
ATOM     10  C   UNL A   1      33.588  23.504  24.843  1.00  0.00    -0.026 A 
ATOM     11  C   UNL A   1      32.722  22.691  24.087  1.00  0.00     0.005 A 
ATOM     12  C   UNL A   1      34.148  24.610  24.207  1.00  0.00     0.005 A 
ATOM     13  C   UNL A   1      32.357  23.038  22.782  1.00  0.00     0.000 A 
ATOM     14  C   UNL A   1      33.783  24.951  22.902  1.00  0.00     0.000 A 
ATOM     15  C   UNL A   1      32.869  24.185  22.198  1.00  0.00     0.000 A 
ENDBRANCH   9  10
BRANCH   9  16
ATOM     16  C   UNL A   1      32.368  23.357  27.152  1.00  0.00     0.242 C 
ATOM     17  O   UNL A   1      32.146  22.492  28.021  1.00  0.00    -0.273 OA
ATOM     18  N   UNL A   1      31.354  24.269  27.061  1.00  0.00    -0.325 N 
ATOM     19  H   UNL A   1      30.659  24.150  27.748  1.00  0.00     0.169 HD
BRANCH  18  20
ATOM     20  C   UNL A   1      31.100  25.333  26.195  1.00  0.00     0.041 A 
ATOM     21  C   UNL A   1      31.830  26.510  26.405  1.00  0.00     0.027 A 
ATOM     22  C   UNL A   1      30.283  25.216  25.080  1.00  0.00     0.027 A 
ATOM     23  C   UNL A   1      31.971  27.424  25.358  1.00  0.00     0.015 A 
ATOM     24  C   UNL A   1      30.401  26.144  24.041  1.00  0.00     0.015 A 
ATOM     25  C   UNL A   1      31.323  27.197  24.134  1.00  0.00     0.056 A 
BRANCH  25  26
ATOM     26  C   UNL A   1      31.693  28.012  22.917  1.00  0.00     0.416 C 
ATOM     27  F   UNL A   1      33.013  27.935  22.606  1.00  0.00    -0.166 F 
ATOM     28  F   UNL A   1      31.019  27.595  21.807  1.00  0.00    -0.166 F 
ATOM     29  F   UNL A   1      31.405  29.337  23.042  1.00  0.00    -0.166 F 
ENDBRANCH  25  26
ENDBRANCH  18  20
ENDBRANCH   9  16
ENDBRANCH   8   9
ENDBRANCH   7   8
ENDBRANCH   5   7
ENDBRANCH   2   3
ENDBRANCH   1   2
BRANCH   1  30
ATOM     30  C   UNL A   1      41.103  20.983  27.390  1.00  0.00     0.002 C 
BRANCH  30  31
ATOM     31  C   UNL A   1      41.968  20.672  26.166  1.00  0.00     0.002 C 
BRANCH  31  32
ATOM     32  C   UNL A   1      42.150  19.208  25.787  1.00  0.00     0.021 C 
BRANCH  32  33
ATOM     33  C   UNL A   1      43.543  18.695  26.081  1.00  0.00     0.116 C 
BRANCH  33  34
ATOM     34  N   UNL A   1      44.305  18.503  24.854  1.00  0.00    -0.352 N 
ATOM     35  C   UNL A   1      44.886  19.443  24.041  1.00  0.00     0.251 C 
ATOM     36  H   UNL A   1      44.420  17.568  24.569  1.00  0.00     0.163 HD
ATOM     37  O   UNL A   1      45.296  19.135  22.930  1.00  0.00    -0.269 OA
BRANCH  35  38
ATOM     38  C   UNL A   1      45.002  20.835  24.517  1.00  0.00     0.039 A 
ATOM     39  C   UNL A   1      44.507  21.871  23.722  1.00  0.00     0.014 A 
ATOM     40  C   UNL A   1      45.612  21.114  25.742  1.00  0.00     0.014 A 
ATOM     41  C   UNL A   1      44.606  23.187  24.174  1.00  0.00     0.010 A 
ATOM     42  C   UNL A   1      45.603  22.405  26.241  1.00  0.00     0.010 A 
ATOM     43  C   UNL A   1      45.141  23.459  25.443  1.00  0.00    -0.014 A 
BRANCH  43  44
ATOM     44  C   UNL A   1      45.315  24.847  25.927  1.00  0.00     0.031 A 
ATOM     45  C   UNL A   1      46.675  25.486  25.846  1.00  0.00     0.074 A 
ATOM     46  C   UNL A   1      44.272  25.499  26.471  1.00  0.00     0.049 A 
ATOM     47  N   UNL A   1      47.069  26.656  26.279  1.00  0.00    -0.248 NA
ATOM     48  C   UNL A   1      47.751  24.685  25.235  1.00  0.00     0.031 C 
ATOM     49  C   UNL A   1      42.927  24.947  26.649  1.00  0.00     0.029 A 
ATOM     50  N   UNL A   1      44.182  26.766  26.983  1.00  0.00    -0.354 N 
ATOM     51  C   UNL A   1      48.429  26.720  26.000  1.00  0.00     0.074 A 
ATOM     52  C   UNL A   1      48.813  25.444  25.445  1.00  0.00     0.031 C 
ATOM     53  C   UNL A   1      42.138  25.882  27.203  1.00  0.00     0.029 A 
ATOM     54  C   UNL A   1      42.931  27.082  27.451  1.00  0.00     0.049 A 
ATOM     55  H   UNL A   1      44.943  27.392  27.012  1.00  0.00     0.167 HD
ATOM     56  C   UNL A   1      49.272  27.768  26.152  1.00  0.00     0.037 A 
ATOM     57  C   UNL A   1      42.483  28.217  28.018  1.00  0.00     0.037 A 
ATOM     58  C   UNL A   1      48.867  29.043  26.679  1.00  0.00     0.049 A 
ATOM     59  C   UNL A   1      43.440  29.371  28.167  1.00  0.00     0.074 A 
ATOM     60  C   UNL A   1      49.624  30.185  26.861  1.00  0.00     0.029 A 
ATOM     61  N   UNL A   1      47.578  29.342  27.102  1.00  0.00    -0.354 N 
ATOM     62  N   UNL A   1      44.712  29.440  27.852  1.00  0.00    -0.248 NA
ATOM     63  C   UNL A   1      42.895  30.611  28.734  1.00  0.00     0.031 C 
ATOM     64  C   UNL A   1      48.801  31.166  27.425  1.00  0.00     0.029 A 
ATOM     65  C   UNL A   1      47.519  30.652  27.544  1.00  0.00     0.049 A 
ATOM     66  H   UNL A   1      46.820  28.715  27.088  1.00  0.00     0.167 HD
ATOM     67  C   UNL A   1      45.108  30.738  28.146  1.00  0.00     0.074 A 
ATOM     68  C   UNL A   1      43.936  31.425  28.647  1.00  0.00     0.031 C 
ATOM     69  C   UNL A   1      46.330  31.312  28.017  1.00  0.00     0.037 A 
BRANCH  56  70
ATOM     70  C   UNL A   1      50.697  27.580  25.718  1.00  0.00     0.064 A 
ATOM     71  C   UNL A   1      51.085  27.755  24.379  1.00  0.00     0.173 A 
ATOM     72  C   UNL A   1      51.692  27.243  26.647  1.00  0.00     0.173 A 
ATOM     73  F   UNL A   1      50.171  28.061  23.446  1.00  0.00    -0.203 F 
ATOM     74  C   UNL A   1      52.407  27.569  23.982  1.00  0.00     0.198 A 
ATOM     75  C   UNL A   1      53.021  27.092  26.252  1.00  0.00     0.198 A 
ATOM     76  F   UNL A   1      51.381  27.062  27.938  1.00  0.00    -0.203 F 
ATOM     77  F   UNL A   1      52.738  27.685  22.689  1.00  0.00    -0.200 F 
ATOM     78  C   UNL A   1      53.375  27.246  24.920  1.00  0.00     0.200 A 
ATOM     79  F   UNL A   1      53.958  26.790  27.161  1.00  0.00    -0.200 F 
ATOM     80  F   UNL A   1      54.648  27.074  24.539  1.00  0.00    -0.200 F 
ENDBRANCH  56  70
BRANCH  57  81
ATOM     81  C   UNL A   1      41.066  28.331  28.455  1.00  0.00     0.064 A 
ATOM     82  C   UNL A   1      40.085  28.855  27.601  1.00  0.00     0.173 A 
ATOM     83  C   UNL A   1      40.665  27.939  29.741  1.00  0.00     0.173 A 
ATOM     84  F   UNL A   1      40.418  29.257  26.366  1.00  0.00    -0.203 F 
ATOM     85  C   UNL A   1      38.769  29.020  28.030  1.00  0.00     0.198 A 
ATOM     86  C   UNL A   1      39.342  28.072  30.156  1.00  0.00     0.198 A 
ATOM     87  F   UNL A   1      41.560  27.419  30.594  1.00  0.00    -0.203 F 
ATOM     88  F   UNL A   1      37.867  29.583  27.213  1.00  0.00    -0.200 F 
ATOM     89  C   UNL A   1      38.397  28.625  29.305  1.00  0.00     0.200 A 
ATOM     90  F   UNL A   1      38.983  27.671  31.384  1.00  0.00    -0.200 F 
ATOM     91  F   UNL A   1      37.133  28.787  29.718  1.00  0.00    -0.200 F 
ENDBRANCH  57  81
BRANCH  69  92
ATOM     92  C   UNL A   1      46.440  32.766  28.370  1.00  0.00     0.064 A 
ATOM     93  C   UNL A   1      46.763  33.192  29.665  1.00  0.00     0.173 A 
ATOM     94  C   UNL A   1      46.242  33.746  27.384  1.00  0.00     0.173 A 
ATOM     95  F   UNL A   1      46.950  32.294  30.644  1.00  0.00    -0.203 F 
ATOM     96  C   UNL A   1      46.846  34.547  29.972  1.00  0.00     0.198 A 
ATOM     97  C   UNL A   1      46.362  35.099  27.685  1.00  0.00     0.198 A 
ATOM     98  F   UNL A   1      45.942  33.390  26.125  1.00  0.00    -0.203 F 
ATOM     99  F   UNL A   1      47.095  34.933  31.231  1.00  0.00    -0.200 F 
ATOM    100  C   UNL A   1      46.653  35.499  28.981  1.00  0.00     0.200 A 
ATOM    101  F   UNL A   1      46.192  36.016  26.723  1.00  0.00    -0.200 F 
ATOM    102  F   UNL A   1      46.736  36.803  29.277  1.00  0.00    -0.200 F 
ENDBRANCH  69  92
ENDBRANCH  43  44
ENDBRANCH  35  38
ENDBRANCH  33  34
ENDBRANCH  32  33
ENDBRANCH  31  32
ENDBRANCH  30  31
ENDBRANCH   1  30
TORSDOF 19
ENDMDL
MODEL 3
REMARK VINA RESULT:     -11.4      0.446      2.021
REMARK SMILES O=C(CS[C@H](C(=O)Nc1ccc(C(F)(F)F)cc1)c1ccccc1)NCCCCCCNC(=O)c1ccc(-c2c3nc(c(-c4c(F)c(F)c(F)c(F)c4F)c4ccc([nH]4)c(-c4c(F)c(F)c(F)c(F)c4F)c4nc(c(-c5c(F)c(F)c(F)c(F)c5F)c5ccc2[nH]5)C=C4)C=C3)cc1
REMARK SMILES IDX 27 1 26 2 25 3 1 4 2 5 3 7 4 8 5 9 19 10 20 11 24 12 21 13
REMARK SMILES IDX 23 14 22 15 6 16 7 17 8 18 9 20 10 21 18 22 11 23 17 24
REMARK SMILES IDX 12 25 13 26 14 27 15 28 16 29 28 30 29 31 30 32 31 33 32 34
REMARK SMILES IDX 33 35 34 37 35 38 36 39 97 40 37 41 96 42 38 43 39 44 40 45
REMARK SMILES IDX 90 46 41 47 95 48 89 49 91 50 42 51 94 52 88 53 87 54 43 56
REMARK SMILES IDX 75 57 55 58 74 59 56 60 59 61 73 62 92 63 57 64 58 65 72 67
REMARK SMILES IDX 93 68 60 69 44 70 45 71 53 72 46 73 47 74 51 75 54 76 48 77
REMARK SMILES IDX 49 78 52 79 50 80 76 81 77 82 85 83 78 84 79 85 83 86 86 87
REMARK SMILES IDX 80 88 81 89 84 90 82 91 61 92 62 93 70 94 63 95 64 96 68 97
REMARK SMILES IDX 71 98 65 99 66 100 69 101 67 102
REMARK H PARENT 25 6 8 19 32 36 91 55 59 66
REMARK Flexibility Score: inf
ROOT
ATOM      1  C   UNL A   1      34.146  31.903  28.013  1.00  0.00     0.021 C 
ENDROOT
BRANCH   1   2
ATOM      2  C   UNL A   1      34.567  30.464  27.710  1.00  0.00     0.116 C 
BRANCH   2   3
ATOM      3  N   UNL A   1      33.451  29.564  27.541  1.00  0.00    -0.355 N 
ATOM      4  O   UNL A   1      33.733  29.283  25.270  1.00  0.00    -0.274 OA
ATOM      5  C   UNL A   1      33.121  29.030  26.302  1.00  0.00     0.230 C 
ATOM      6  H   UNL A   1      32.906  29.324  28.325  1.00  0.00     0.163 HD
BRANCH   5   7
ATOM      7  C   UNL A   1      31.862  28.197  26.352  1.00  0.00     0.170 C 
BRANCH   7   8
ATOM      8  S   UNL A   1      31.068  27.795  24.780  1.00  0.00    -0.134 SA
BRANCH   8   9
ATOM      9  C   UNL A   1      31.965  26.304  24.158  1.00  0.00     0.166 C 
BRANCH   9  10
ATOM     10  C   UNL A   1      31.781  25.233  25.246  1.00  0.00    -0.026 A 
ATOM     11  C   UNL A   1      30.619  24.438  25.269  1.00  0.00     0.005 A 
ATOM     12  C   UNL A   1      32.822  24.875  26.099  1.00  0.00     0.005 A 
ATOM     13  C   UNL A   1      30.553  23.275  26.044  1.00  0.00     0.000 A 
ATOM     14  C   UNL A   1      32.750  23.714  26.873  1.00  0.00     0.000 A 
ATOM     15  C   UNL A   1      31.632  22.898  26.828  1.00  0.00     0.000 A 
ENDBRANCH   9  10
BRANCH   9  16
ATOM     16  C   UNL A   1      31.786  25.792  22.690  1.00  0.00     0.242 C 
ATOM     17  O   UNL A   1      31.107  26.472  21.897  1.00  0.00    -0.273 OA
ATOM     18  N   UNL A   1      32.305  24.675  22.097  1.00  0.00    -0.325 N 
ATOM     19  H   UNL A   1      32.136  24.633  21.128  1.00  0.00     0.169 HD
BRANCH  18  20
ATOM     20  C   UNL A   1      33.027  23.583  22.580  1.00  0.00     0.041 A 
ATOM     21  C   UNL A   1      34.373  23.801  22.899  1.00  0.00     0.027 A 
ATOM     22  C   UNL A   1      32.433  22.366  22.886  1.00  0.00     0.027 A 
ATOM     23  C   UNL A   1      35.018  22.930  23.778  1.00  0.00     0.015 A 
ATOM     24  C   UNL A   1      33.087  21.479  23.744  1.00  0.00     0.015 A 
ATOM     25  C   UNL A   1      34.343  21.805  24.277  1.00  0.00     0.056 A 
BRANCH  25  26
ATOM     26  C   UNL A   1      34.919  21.025  25.436  1.00  0.00     0.416 C 
ATOM     27  F   UNL A   1      35.787  21.752  26.187  1.00  0.00    -0.166 F 
ATOM     28  F   UNL A   1      33.945  20.600  26.291  1.00  0.00    -0.166 F 
ATOM     29  F   UNL A   1      35.587  19.901  25.055  1.00  0.00    -0.166 F 
ENDBRANCH  25  26
ENDBRANCH  18  20
ENDBRANCH   9  16
ENDBRANCH   8   9
ENDBRANCH   7   8
ENDBRANCH   5   7
ENDBRANCH   2   3
ENDBRANCH   1   2
BRANCH   1  30
ATOM     30  C   UNL A   1      35.191  32.874  28.589  1.00  0.00     0.002 C 
BRANCH  30  31
ATOM     31  C   UNL A   1      34.918  34.381  28.606  1.00  0.00     0.002 C 
BRANCH  31  32
ATOM     32  C   UNL A   1      33.495  34.834  28.908  1.00  0.00     0.021 C 
BRANCH  32  33
ATOM     33  C   UNL A   1      33.440  36.195  29.566  1.00  0.00     0.116 C 
BRANCH  33  34
ATOM     34  N   UNL A   1      32.495  36.210  30.674  1.00  0.00    -0.352 N 
ATOM     35  C   UNL A   1      32.543  35.524  31.861  1.00  0.00     0.251 C 
ATOM     36  H   UNL A   1      31.711  36.793  30.555  1.00  0.00     0.163 HD
ATOM     37  O   UNL A   1      31.561  35.471  32.589  1.00  0.00    -0.269 OA
BRANCH  35  38
ATOM     38  C   UNL A   1      33.793  34.841  32.249  1.00  0.00     0.039 A 
ATOM     39  C   UNL A   1      34.954  35.596  32.431  1.00  0.00     0.014 A 
ATOM     40  C   UNL A   1      33.818  33.454  32.419  1.00  0.00     0.014 A 
ATOM     41  C   UNL A   1      36.133  34.955  32.808  1.00  0.00     0.010 A 
ATOM     42  C   UNL A   1      34.957  32.837  32.906  1.00  0.00     0.010 A 
ATOM     43  C   UNL A   1      36.137  33.574  33.062  1.00  0.00    -0.014 A 
BRANCH  43  44
ATOM     44  C   UNL A   1      37.385  32.855  33.405  1.00  0.00     0.031 A 
ATOM     45  C   UNL A   1      38.075  33.166  34.706  1.00  0.00     0.074 A 
ATOM     46  C   UNL A   1      37.907  31.974  32.535  1.00  0.00     0.049 A 
ATOM     47  N   UNL A   1      39.212  32.716  35.170  1.00  0.00    -0.248 NA
ATOM     48  C   UNL A   1      37.421  34.150  35.587  1.00  0.00     0.031 C 
ATOM     49  C   UNL A   1      37.348  31.645  31.222  1.00  0.00     0.029 A 
ATOM     50  N   UNL A   1      39.033  31.198  32.620  1.00  0.00    -0.354 N 
ATOM     51  C   UNL A   1      39.405  33.367  36.383  1.00  0.00     0.074 A 
ATOM     52  C   UNL A   1      38.322  34.307  36.542  1.00  0.00     0.031 C 
ATOM     53  C   UNL A   1      38.117  30.712  30.638  1.00  0.00     0.029 A 
ATOM     54  C   UNL A   1      39.240  30.407  31.518  1.00  0.00     0.049 A 
ATOM     55  H   UNL A   1      39.637  31.206  33.399  1.00  0.00     0.167 HD
ATOM     56  C   UNL A   1      40.378  33.166  37.302  1.00  0.00     0.037 A 
ATOM     57  C   UNL A   1      40.232  29.535  31.254  1.00  0.00     0.037 A 
ATOM     58  C   UNL A   1      41.435  32.205  37.142  1.00  0.00     0.049 A 
ATOM     59  C   UNL A   1      41.297  29.324  32.298  1.00  0.00     0.074 A 
ATOM     60  C   UNL A   1      42.465  31.895  38.010  1.00  0.00     0.029 A 
ATOM     61  N   UNL A   1      41.588  31.387  36.029  1.00  0.00    -0.354 N 
ATOM     62  N   UNL A   1      41.442  29.906  33.465  1.00  0.00    -0.248 NA
ATOM     63  C   UNL A   1      42.325  28.320  31.997  1.00  0.00     0.031 C 
ATOM     64  C   UNL A   1      43.260  30.914  37.410  1.00  0.00     0.029 A 
ATOM     65  C   UNL A   1      42.695  30.573  36.191  1.00  0.00     0.049 A 
ATOM     66  H   UNL A   1      40.996  31.387  35.243  1.00  0.00     0.167 HD
ATOM     67  C   UNL A   1      42.553  29.314  34.051  1.00  0.00     0.074 A 
ATOM     68  C   UNL A   1      43.030  28.315  33.118  1.00  0.00     0.031 C 
ATOM     69  C   UNL A   1      43.131  29.572  35.251  1.00  0.00     0.037 A 
BRANCH  56  70
ATOM     70  C   UNL A   1      40.321  33.980  38.563  1.00  0.00     0.064 A 
ATOM     71  C   UNL A   1      40.976  35.217  38.667  1.00  0.00     0.173 A 
ATOM     72  C   UNL A   1      39.590  33.533  39.673  1.00  0.00     0.173 A 
ATOM     73  F   UNL A   1      41.704  35.684  37.641  1.00  0.00    -0.203 F 
ATOM     74  C   UNL A   1      40.928  35.961  39.843  1.00  0.00     0.198 A 
ATOM     75  C   UNL A   1      39.514  34.297  40.837  1.00  0.00     0.198 A 
ATOM     76  F   UNL A   1      38.944  32.358  39.632  1.00  0.00    -0.203 F 
ATOM     77  F   UNL A   1      41.610  37.111  39.935  1.00  0.00    -0.200 F 
ATOM     78  C   UNL A   1      40.190  35.505  40.923  1.00  0.00     0.200 A 
ATOM     79  F   UNL A   1      38.792  33.859  41.877  1.00  0.00    -0.200 F 
ATOM     80  F   UNL A   1      40.137  36.224  42.053  1.00  0.00    -0.200 F 
ENDBRANCH  56  70
BRANCH  57  81
ATOM     81  C   UNL A   1      40.248  28.781  29.973  1.00  0.00     0.064 A 
ATOM     82  C   UNL A   1      40.889  29.296  28.838  1.00  0.00     0.173 A 
ATOM     83  C   UNL A   1      39.606  27.540  29.849  1.00  0.00     0.173 A 
ATOM     84  F   UNL A   1      41.507  30.485  28.899  1.00  0.00    -0.203 F 
ATOM     85  C   UNL A   1      40.853  28.619  27.619  1.00  0.00     0.198 A 
ATOM     86  C   UNL A   1      39.601  26.848  28.640  1.00  0.00     0.198 A 
ATOM     87  F   UNL A   1      38.988  26.994  30.907  1.00  0.00    -0.203 F 
ATOM     88  F   UNL A   1      41.421  29.167  26.535  1.00  0.00    -0.200 F 
ATOM     89  C   UNL A   1      40.212  27.394  27.522  1.00  0.00     0.200 A 
ATOM     90  F   UNL A   1      38.996  25.655  28.556  1.00  0.00    -0.200 F 
ATOM     91  F   UNL A   1      40.175  26.746  26.351  1.00  0.00    -0.200 F 
ENDBRANCH  57  81
BRANCH  69  92
ATOM     92  C   UNL A   1      44.303  28.721  35.640  1.00  0.00     0.064 A 
ATOM     93  C   UNL A   1      44.146  27.529  36.360  1.00  0.00     0.173 A 
ATOM     94  C   UNL A   1      45.601  29.097  35.261  1.00  0.00     0.173 A 
ATOM     95  F   UNL A   1      42.927  27.134  36.756  1.00  0.00    -0.203 F 
ATOM     96  C   UNL A   1      45.251  26.762  36.722  1.00  0.00     0.198 A 
ATOM     97  C   UNL A   1      46.699  28.309  35.592  1.00  0.00     0.198 A 
ATOM     98  F   UNL A   1      45.803  30.223  34.561  1.00  0.00    -0.203 F 
ATOM     99  F   UNL A   1      45.083  25.659  37.463  1.00  0.00    -0.200 F 
ATOM    100  C   UNL A   1      46.525  27.149  36.331  1.00  0.00     0.200 A 
ATOM    101  F   UNL A   1      47.927  28.675  35.199  1.00  0.00    -0.200 F 
ATOM    102  F   UNL A   1      47.586  26.408  36.677  1.00  0.00    -0.200 F 
ENDBRANCH  69  92
ENDBRANCH  43  44
ENDBRANCH  35  38
ENDBRANCH  33  34
ENDBRANCH  32  33
ENDBRANCH  31  32
ENDBRANCH  30  31
ENDBRANCH   1  30
TORSDOF 19
ENDMDL
