MODEL 1
REMARK VINA RESULT:     -12.1      0.000      0.000
REMARK SMILES O=C(NCCCCCCNC(=O)c1ccc(-c2c3nc(c(-c4c(F)c(F)c(F)c(F)c4F)c4ccc([nH]4)c(-c4c(F)c(F)c(F)c(F)c4F)c4nc(c(-c5c(F)c(F)c(F)c(F)c5F)c5ccc2[nH]5)C=C4)C=C3)cc1)C1=Cc2cc(Cl)cc(Cl)c2O[C@@H]1C(F)(F)F
REMARK SMILES IDX 7 1 6 2 5 3 4 4 3 5 1 6 2 7 76 9 77 10 87 11 78 12 86 13
REMARK SMILES IDX 79 14 85 15 80 16 83 17 81 18 82 19 84 20 88 21 89 22 90 23
REMARK SMILES IDX 91 24 8 25 9 26 10 27 11 28 12 30 13 31 14 32 75 33 15 34
REMARK SMILES IDX 74 35 16 36 17 37 18 38 68 39 19 40 73 41 67 42 69 43 20 44
REMARK SMILES IDX 72 45 66 46 65 47 21 49 53 50 33 51 52 52 34 53 37 54 51 55
REMARK SMILES IDX 70 56 35 57 36 58 50 60 71 61 38 62 22 63 23 64 31 65 24 66
REMARK SMILES IDX 25 67 29 68 32 69 26 70 27 71 30 72 28 73 54 74 55 75 63 76
REMARK SMILES IDX 56 77 57 78 61 79 64 80 58 81 59 82 62 83 60 84 39 85 40 86
REMARK SMILES IDX 48 87 41 88 42 89 46 90 49 91 43 92 44 93 47 94 45 95
REMARK H PARENT 3 8 10 29 69 48 37 59
REMARK Flexibility Score: inf
ROOT
ATOM      1  C   UNL A   1      33.016  27.031  26.103  1.00  0.00     0.002 C 
ENDROOT
BRANCH   1   2
ATOM      2  C   UNL A   1      31.631  26.920  26.753  1.00  0.00     0.002 C 
BRANCH   2   3
ATOM      3  C   UNL A   1      30.465  26.526  25.842  1.00  0.00     0.021 C 
BRANCH   3   4
ATOM      4  C   UNL A   1      30.382  25.044  25.468  1.00  0.00     0.116 C 
BRANCH   4   5
ATOM      5  N   UNL A   1      30.793  24.122  26.528  1.00  0.00    -0.352 N 
ATOM      6  O   UNL A   1      32.209  22.726  27.631  1.00  0.00    -0.270 OA
ATOM      7  C   UNL A   1      31.888  23.290  26.583  1.00  0.00     0.251 C 
ATOM      8  H   UNL A   1      30.201  24.092  27.313  1.00  0.00     0.163 HD
BRANCH   7   9
ATOM      9  C   UNL A   1      32.743  23.184  25.384  1.00  0.00     0.067 C 
ATOM     10  C   UNL A   1      33.748  24.051  25.187  1.00  0.00     0.025 C 
ATOM     11  C   UNL A   1      32.662  21.911  24.601  1.00  0.00     0.314 C 
ATOM     12  C   UNL A   1      35.030  23.345  24.987  1.00  0.00     0.020 A 
ATOM     13  O   UNL A   1      33.916  21.193  24.627  1.00  0.00    -0.474 OA
ATOM     14  C   UNL A   1      36.201  24.013  25.377  1.00  0.00     0.032 A 
ATOM     15  C   UNL A   1      35.054  21.941  24.833  1.00  0.00     0.146 A 
ATOM     16  C   UNL A   1      37.359  23.284  25.650  1.00  0.00     0.043 A 
ATOM     17  C   UNL A   1      36.241  21.233  25.073  1.00  0.00     0.085 A 
ATOM     18  Cl  UNL A   1      38.733  24.089  26.304  1.00  0.00    -0.084 Cl
ATOM     19  C   UNL A   1      37.388  21.900  25.497  1.00  0.00     0.045 A 
ATOM     20  Cl  UNL A   1      36.285  19.506  24.999  1.00  0.00    -0.080 Cl
BRANCH  11  21
ATOM     21  C   UNL A   1      32.211  22.174  23.152  1.00  0.00     0.429 C 
ATOM     22  F   UNL A   1      31.137  22.999  23.116  1.00  0.00    -0.167 F 
ATOM     23  F   UNL A   1      33.185  22.764  22.419  1.00  0.00    -0.167 F 
ATOM     24  F   UNL A   1      31.860  21.035  22.507  1.00  0.00    -0.167 F 
ENDBRANCH  11  21
ENDBRANCH   7   9
ENDBRANCH   4   5
ENDBRANCH   3   4
ENDBRANCH   2   3
ENDBRANCH   1   2
BRANCH   1  25
ATOM     25  C   UNL A   1      33.101  27.737  24.746  1.00  0.00     0.021 C 
BRANCH  25  26
ATOM     26  C   UNL A   1      33.791  29.102  24.723  1.00  0.00     0.116 C 
BRANCH  26  27
ATOM     27  N   UNL A   1      33.020  30.143  25.379  1.00  0.00    -0.352 N 
ATOM     28  C   UNL A   1      33.240  30.799  26.562  1.00  0.00     0.251 C 
ATOM     29  H   UNL A   1      32.208  30.422  24.896  1.00  0.00     0.163 HD
ATOM     30  O   UNL A   1      32.387  31.584  26.984  1.00  0.00    -0.269 OA
BRANCH  28  31
ATOM     31  C   UNL A   1      34.468  30.575  27.359  1.00  0.00     0.039 A 
ATOM     32  C   UNL A   1      34.680  29.306  27.908  1.00  0.00     0.014 A 
ATOM     33  C   UNL A   1      35.376  31.605  27.626  1.00  0.00     0.014 A 
ATOM     34  C   UNL A   1      35.816  29.055  28.683  1.00  0.00     0.010 A 
ATOM     35  C   UNL A   1      36.537  31.340  28.357  1.00  0.00     0.010 A 
ATOM     36  C   UNL A   1      36.765  30.065  28.898  1.00  0.00    -0.014 A 
BRANCH  36  37
ATOM     37  C   UNL A   1      37.994  29.803  29.692  1.00  0.00     0.031 A 
ATOM     38  C   UNL A   1      39.063  28.888  29.162  1.00  0.00     0.074 A 
ATOM     39  C   UNL A   1      38.127  30.352  30.914  1.00  0.00     0.049 A 
ATOM     40  N   UNL A   1      40.179  28.502  29.727  1.00  0.00    -0.248 NA
ATOM     41  C   UNL A   1      38.838  28.317  27.826  1.00  0.00     0.031 C 
ATOM     42  C   UNL A   1      37.151  31.233  31.555  1.00  0.00     0.029 A 
ATOM     43  N   UNL A   1      39.136  30.244  31.840  1.00  0.00    -0.354 N 
ATOM     44  C   UNL A   1      40.778  27.631  28.828  1.00  0.00     0.074 A 
ATOM     45  C   UNL A   1      39.887  27.516  27.694  1.00  0.00     0.031 C 
ATOM     46  C   UNL A   1      37.615  31.601  32.760  1.00  0.00     0.029 A 
ATOM     47  C   UNL A   1      38.905  30.956  32.991  1.00  0.00     0.049 A 
ATOM     48  H   UNL A   1      39.947  29.707  31.692  1.00  0.00     0.167 HD
ATOM     49  C   UNL A   1      41.972  26.996  28.932  1.00  0.00     0.037 A 
ATOM     50  C   UNL A   1      39.647  31.072  34.109  1.00  0.00     0.037 A 
ATOM     51  C   UNL A   1      42.875  27.137  30.044  1.00  0.00     0.049 A 
ATOM     52  C   UNL A   1      40.963  30.350  34.201  1.00  0.00     0.074 A 
ATOM     53  C   UNL A   1      44.139  26.597  30.203  1.00  0.00     0.029 A 
ATOM     54  N   UNL A   1      42.606  27.868  31.192  1.00  0.00    -0.354 N 
ATOM     55  N   UNL A   1      41.551  29.585  33.315  1.00  0.00    -0.248 NA
ATOM     56  C   UNL A   1      41.721  30.512  35.451  1.00  0.00     0.031 C 
ATOM     57  C   UNL A   1      44.617  26.965  31.466  1.00  0.00     0.029 A 
ATOM     58  C   UNL A   1      43.670  27.770  32.075  1.00  0.00     0.049 A 
ATOM     59  H   UNL A   1      41.781  28.380  31.355  1.00  0.00     0.167 HD
ATOM     60  C   UNL A   1      42.757  29.199  33.884  1.00  0.00     0.074 A 
ATOM     61  C   UNL A   1      42.822  29.822  35.190  1.00  0.00     0.031 C 
ATOM     62  C   UNL A   1      43.725  28.402  33.368  1.00  0.00     0.037 A 
BRANCH  49  63
ATOM     63  C   UNL A   1      42.372  26.084  27.810  1.00  0.00     0.064 A 
ATOM     64  C   UNL A   1      41.945  24.750  27.756  1.00  0.00     0.173 A 
ATOM     65  C   UNL A   1      43.161  26.565  26.752  1.00  0.00     0.173 A 
ATOM     66  F   UNL A   1      41.197  24.241  28.746  1.00  0.00    -0.203 F 
ATOM     67  C   UNL A   1      42.314  23.921  26.700  1.00  0.00     0.198 A 
ATOM     68  C   UNL A   1      43.507  25.741  25.684  1.00  0.00     0.198 A 
ATOM     69  F   UNL A   1      43.589  27.836  26.751  1.00  0.00    -0.203 F 
ATOM     70  F   UNL A   1      41.932  22.637  26.692  1.00  0.00    -0.200 F 
ATOM     71  C   UNL A   1      43.090  24.419  25.662  1.00  0.00     0.200 A 
ATOM     72  F   UNL A   1      44.245  26.226  24.677  1.00  0.00    -0.200 F 
ATOM     73  F   UNL A   1      43.440  23.621  24.644  1.00  0.00    -0.200 F 
ENDBRANCH  49  63
BRANCH  50  74
ATOM     74  C   UNL A   1      39.175  31.932  35.223  1.00  0.00     0.064 A 
ATOM     75  C   UNL A   1      38.445  31.386  36.289  1.00  0.00     0.173 A 
ATOM     76  C   UNL A   1      39.438  33.309  35.248  1.00  0.00     0.173 A 
ATOM     77  F   UNL A   1      38.150  30.078  36.297  1.00  0.00    -0.203 F 
ATOM     78  C   UNL A   1      37.984  32.189  37.330  1.00  0.00     0.198 A 
ATOM     79  C   UNL A   1      38.997  34.105  36.302  1.00  0.00     0.198 A 
ATOM     80  F   UNL A   1      40.134  33.877  34.252  1.00  0.00    -0.203 F 
ATOM     81  F   UNL A   1      37.255  31.648  38.315  1.00  0.00    -0.200 F 
ATOM     82  C   UNL A   1      38.265  33.546  37.339  1.00  0.00     0.200 A 
ATOM     83  F   UNL A   1      39.280  35.415  36.313  1.00  0.00    -0.200 F 
ATOM     84  F   UNL A   1      37.824  34.317  38.342  1.00  0.00    -0.200 F 
ENDBRANCH  50  74
BRANCH  62  85
ATOM     85  C   UNL A   1      44.953  28.183  34.203  1.00  0.00     0.064 A 
ATOM     86  C   UNL A   1      46.054  29.048  34.133  1.00  0.00     0.173 A 
ATOM     87  C   UNL A   1      45.012  27.115  35.111  1.00  0.00     0.173 A 
ATOM     88  F   UNL A   1      46.052  30.074  33.268  1.00  0.00    -0.203 F 
ATOM     89  C   UNL A   1      47.179  28.839  34.926  1.00  0.00     0.198 A 
ATOM     90  C   UNL A   1      46.127  26.924  35.922  1.00  0.00     0.198 A 
ATOM     91  F   UNL A   1      43.982  26.262  35.219  1.00  0.00    -0.203 F 
ATOM     92  F   UNL A   1      48.237  29.653  34.812  1.00  0.00    -0.200 F 
ATOM     93  C   UNL A   1      47.212  27.782  35.823  1.00  0.00     0.200 A 
ATOM     94  F   UNL A   1      46.153  25.909  36.797  1.00  0.00    -0.200 F 
ATOM     95  F   UNL A   1      48.293  27.587  36.591  1.00  0.00    -0.200 F 
ENDBRANCH  62  85
ENDBRANCH  36  37
ENDBRANCH  28  31
ENDBRANCH  26  27
ENDBRANCH  25  26
ENDBRANCH   1  25
TORSDOF 14
ENDMDL
MODEL 2
REMARK VINA RESULT:     -12.0      0.322      1.998
REMARK SMILES O=C(NCCCCCCNC(=O)c1ccc(-c2c3nc(c(-c4c(F)c(F)c(F)c(F)c4F)c4ccc([nH]4)c(-c4c(F)c(F)c(F)c(F)c4F)c4nc(c(-c5c(F)c(F)c(F)c(F)c5F)c5ccc2[nH]5)C=C4)C=C3)cc1)C1=Cc2cc(Cl)cc(Cl)c2O[C@@H]1C(F)(F)F
REMARK SMILES IDX 7 1 6 2 5 3 4 4 3 5 1 6 2 7 76 9 77 10 87 11 78 12 86 13
REMARK SMILES IDX 79 14 85 15 80 16 83 17 81 18 82 19 84 20 88 21 89 22 90 23
REMARK SMILES IDX 91 24 8 25 9 26 10 27 11 28 12 30 13 31 14 32 75 33 15 34
REMARK SMILES IDX 74 35 16 36 17 37 18 38 68 39 19 40 73 41 67 42 69 43 20 44
REMARK SMILES IDX 72 45 66 46 65 47 21 49 53 50 33 51 52 52 34 53 37 54 51 55
REMARK SMILES IDX 70 56 35 57 36 58 50 60 71 61 38 62 22 63 23 64 31 65 24 66
REMARK SMILES IDX 25 67 29 68 32 69 26 70 27 71 30 72 28 73 54 74 55 75 63 76
REMARK SMILES IDX 56 77 57 78 61 79 64 80 58 81 59 82 62 83 60 84 39 85 40 86
REMARK SMILES IDX 48 87 41 88 42 89 46 90 49 91 43 92 44 93 47 94 45 95
REMARK H PARENT 3 8 10 29 69 48 37 59
REMARK Flexibility Score: inf
ROOT
ATOM      1  C   UNL A   1      31.377  27.747  24.908  1.00  0.00     0.002 C 
ENDROOT
BRANCH   1   2
ATOM      2  C   UNL A   1      31.260  26.784  26.097  1.00  0.00     0.002 C 
BRANCH   2   3
ATOM      3  C   UNL A   1      30.042  25.857  26.124  1.00  0.00     0.021 C 
BRANCH   3   4
ATOM      4  C   UNL A   1      30.310  24.392  25.770  1.00  0.00     0.116 C 
BRANCH   4   5
ATOM      5  N   UNL A   1      30.921  23.606  26.842  1.00  0.00    -0.352 N 
ATOM      6  O   UNL A   1      32.609  22.542  27.933  1.00  0.00    -0.270 OA
ATOM      7  C   UNL A   1      32.154  22.994  26.881  1.00  0.00     0.251 C 
ATOM      8  H   UNL A   1      30.372  23.499  27.651  1.00  0.00     0.163 HD
BRANCH   7   9
ATOM      9  C   UNL A   1      32.973  23.001  25.653  1.00  0.00     0.067 C 
ATOM     10  C   UNL A   1      33.904  23.947  25.461  1.00  0.00     0.025 C 
ATOM     11  C   UNL A   1      32.958  21.758  24.818  1.00  0.00     0.314 C 
ATOM     12  C   UNL A   1      35.227  23.347  25.192  1.00  0.00     0.020 A 
ATOM     13  O   UNL A   1      34.261  21.135  24.775  1.00  0.00    -0.474 OA
ATOM     14  C   UNL A   1      36.359  24.084  25.573  1.00  0.00     0.032 A 
ATOM     15  C   UNL A   1      35.348  21.956  24.977  1.00  0.00     0.146 A 
ATOM     16  C   UNL A   1      37.576  23.433  25.779  1.00  0.00     0.043 A 
ATOM     17  C   UNL A   1      36.591  21.329  25.150  1.00  0.00     0.085 A 
ATOM     18  Cl  UNL A   1      38.909  24.311  26.424  1.00  0.00    -0.084 Cl
ATOM     19  C   UNL A   1      37.700  22.063  25.565  1.00  0.00     0.045 A 
ATOM     20  Cl  UNL A   1      36.758  19.616  25.000  1.00  0.00    -0.080 Cl
BRANCH  11  21
ATOM     21  C   UNL A   1      32.440  22.045  23.396  1.00  0.00     0.429 C 
ATOM     22  F   UNL A   1      32.105  20.899  22.757  1.00  0.00    -0.167 F 
ATOM     23  F   UNL A   1      31.334  22.826  23.409  1.00  0.00    -0.167 F 
ATOM     24  F   UNL A   1      33.364  22.672  22.629  1.00  0.00    -0.167 F 
ENDBRANCH  11  21
ENDBRANCH   7   9
ENDBRANCH   4   5
ENDBRANCH   3   4
ENDBRANCH   2   3
ENDBRANCH   1   2
BRANCH   1  25
ATOM     25  C   UNL A   1      32.758  27.903  24.263  1.00  0.00     0.021 C 
BRANCH  25  26
ATOM     26  C   UNL A   1      33.684  28.958  24.870  1.00  0.00     0.116 C 
BRANCH  26  27
ATOM     27  N   UNL A   1      32.968  30.078  25.455  1.00  0.00    -0.352 N 
ATOM     28  C   UNL A   1      33.236  30.812  26.581  1.00  0.00     0.251 C 
ATOM     29  H   UNL A   1      32.161  30.355  24.963  1.00  0.00     0.163 HD
ATOM     30  O   UNL A   1      32.424  31.662  26.954  1.00  0.00    -0.269 OA
BRANCH  28  31
ATOM     31  C   UNL A   1      34.467  30.596  27.376  1.00  0.00     0.039 A 
ATOM     32  C   UNL A   1      34.679  29.333  27.941  1.00  0.00     0.014 A 
ATOM     33  C   UNL A   1      35.378  31.627  27.626  1.00  0.00     0.014 A 
ATOM     34  C   UNL A   1      35.818  29.089  28.714  1.00  0.00     0.010 A 
ATOM     35  C   UNL A   1      36.541  31.369  28.355  1.00  0.00     0.010 A 
ATOM     36  C   UNL A   1      36.770  30.101  28.911  1.00  0.00    -0.014 A 
BRANCH  36  37
ATOM     37  C   UNL A   1      38.001  29.846  29.703  1.00  0.00     0.031 A 
ATOM     38  C   UNL A   1      39.081  28.950  29.165  1.00  0.00     0.074 A 
ATOM     39  C   UNL A   1      38.127  30.385  30.931  1.00  0.00     0.049 A 
ATOM     40  N   UNL A   1      40.202  28.572  29.728  1.00  0.00    -0.248 NA
ATOM     41  C   UNL A   1      38.864  28.389  27.824  1.00  0.00     0.031 C 
ATOM     42  C   UNL A   1      37.139  31.248  31.580  1.00  0.00     0.029 A 
ATOM     43  N   UNL A   1      39.136  30.281  31.856  1.00  0.00    -0.354 N 
ATOM     44  C   UNL A   1      40.813  27.717  28.820  1.00  0.00     0.074 A 
ATOM     45  C   UNL A   1      39.923  27.602  27.685  1.00  0.00     0.031 C 
ATOM     46  C   UNL A   1      37.599  31.610  32.788  1.00  0.00     0.029 A 
ATOM     47  C   UNL A   1      38.896  30.979  33.014  1.00  0.00     0.049 A 
ATOM     48  H   UNL A   1      39.954  29.755  31.703  1.00  0.00     0.167 HD
ATOM     49  C   UNL A   1      42.014  27.097  28.919  1.00  0.00     0.037 A 
ATOM     50  C   UNL A   1      39.636  31.093  34.134  1.00  0.00     0.037 A 
ATOM     51  C   UNL A   1      42.915  27.238  30.033  1.00  0.00     0.049 A 
ATOM     52  C   UNL A   1      40.961  30.388  34.219  1.00  0.00     0.074 A 
ATOM     53  C   UNL A   1      44.185  26.713  30.188  1.00  0.00     0.029 A 
ATOM     54  N   UNL A   1      42.636  27.954  31.188  1.00  0.00    -0.354 N 
ATOM     55  N   UNL A   1      41.559  29.638  33.326  1.00  0.00    -0.248 NA
ATOM     56  C   UNL A   1      41.716  30.547  35.471  1.00  0.00     0.031 C 
ATOM     57  C   UNL A   1      44.658  27.074  31.454  1.00  0.00     0.029 A 
ATOM     58  C   UNL A   1      43.701  27.862  32.070  1.00  0.00     0.049 A 
ATOM     59  H   UNL A   1      41.805  28.455  31.355  1.00  0.00     0.167 HD
ATOM     60  C   UNL A   1      42.769  29.262  33.892  1.00  0.00     0.074 A 
ATOM     61  C   UNL A   1      42.826  29.873  35.204  1.00  0.00     0.031 C 
ATOM     62  C   UNL A   1      43.748  28.482  33.370  1.00  0.00     0.037 A 
BRANCH  49  63
ATOM     63  C   UNL A   1      42.426  26.201  27.788  1.00  0.00     0.064 A 
ATOM     64  C   UNL A   1      43.242  26.658  26.744  1.00  0.00     0.173 A 
ATOM     65  C   UNL A   1      42.032  24.853  27.772  1.00  0.00     0.173 A 
ATOM     66  F   UNL A   1      43.638  27.939  26.709  1.00  0.00    -0.203 F 
ATOM     67  C   UNL A   1      43.627  25.809  25.710  1.00  0.00     0.198 A 
ATOM     68  C   UNL A   1      42.440  24.000  26.750  1.00  0.00     0.198 A 
ATOM     69  F   UNL A   1      41.258  24.363  28.752  1.00  0.00    -0.203 F 
ATOM     70  F   UNL A   1      44.370  26.279  24.698  1.00  0.00    -0.200 F 
ATOM     71  C   UNL A   1      43.231  24.479  25.717  1.00  0.00     0.200 A 
ATOM     72  F   UNL A   1      42.067  22.713  26.765  1.00  0.00    -0.200 F 
ATOM     73  F   UNL A   1      43.605  23.662  24.723  1.00  0.00    -0.200 F 
ENDBRANCH  49  63
BRANCH  50  74
ATOM     74  C   UNL A   1      39.153  31.937  35.256  1.00  0.00     0.064 A 
ATOM     75  C   UNL A   1      39.413  33.315  35.279  1.00  0.00     0.173 A 
ATOM     76  C   UNL A   1      38.430  31.391  36.325  1.00  0.00     0.173 A 
ATOM     77  F   UNL A   1      40.122  33.878  34.289  1.00  0.00    -0.203 F 
ATOM     78  C   UNL A   1      38.979  34.112  36.336  1.00  0.00     0.198 A 
ATOM     79  C   UNL A   1      37.975  32.193  37.369  1.00  0.00     0.198 A 
ATOM     80  F   UNL A   1      38.154  30.078  36.348  1.00  0.00    -0.203 F 
ATOM     81  F   UNL A   1      39.276  35.418  36.352  1.00  0.00    -0.200 F 
ATOM     82  C   UNL A   1      38.256  33.551  37.377  1.00  0.00     0.200 A 
ATOM     83  F   UNL A   1      37.267  31.650  38.369  1.00  0.00    -0.200 F 
ATOM     84  F   UNL A   1      37.835  34.318  38.392  1.00  0.00    -0.200 F 
ENDBRANCH  50  74
BRANCH  62  85
ATOM     85  C   UNL A   1      44.978  28.271  34.203  1.00  0.00     0.064 A 
ATOM     86  C   UNL A   1      45.145  27.122  34.989  1.00  0.00     0.173 A 
ATOM     87  C   UNL A   1      46.016  29.214  34.186  1.00  0.00     0.173 A 
ATOM     88  F   UNL A   1      44.174  26.199  35.051  1.00  0.00    -0.203 F 
ATOM     89  C   UNL A   1      46.300  26.935  35.744  1.00  0.00     0.198 A 
ATOM     90  C   UNL A   1      47.180  29.012  34.922  1.00  0.00     0.198 A 
ATOM     91  F   UNL A   1      45.906  30.328  33.447  1.00  0.00    -0.203 F 
ATOM     92  F   UNL A   1      46.422  25.850  36.521  1.00  0.00    -0.200 F 
ATOM     93  C   UNL A   1      47.318  27.876  35.705  1.00  0.00     0.200 A 
ATOM     94  F   UNL A   1      48.168  29.916  34.874  1.00  0.00    -0.200 F 
ATOM     95  F   UNL A   1      48.432  27.691  36.428  1.00  0.00    -0.200 F 
ENDBRANCH  62  85
ENDBRANCH  36  37
ENDBRANCH  28  31
ENDBRANCH  26  27
ENDBRANCH  25  26
ENDBRANCH   1  25
TORSDOF 14
ENDMDL
MODEL 3
REMARK VINA RESULT:     -12.0      2.563      3.938
REMARK SMILES O=C(NCCCCCCNC(=O)c1ccc(-c2c3nc(c(-c4c(F)c(F)c(F)c(F)c4F)c4ccc([nH]4)c(-c4c(F)c(F)c(F)c(F)c4F)c4nc(c(-c5c(F)c(F)c(F)c(F)c5F)c5ccc2[nH]5)C=C4)C=C3)cc1)C1=Cc2cc(Cl)cc(Cl)c2O[C@@H]1C(F)(F)F
REMARK SMILES IDX 7 1 6 2 5 3 4 4 3 5 1 6 2 7 76 9 77 10 87 11 78 12 86 13
REMARK SMILES IDX 79 14 85 15 80 16 83 17 81 18 82 19 84 20 88 21 89 22 90 23
REMARK SMILES IDX 91 24 8 25 9 26 10 27 11 28 12 30 13 31 14 32 75 33 15 34
REMARK SMILES IDX 74 35 16 36 17 37 18 38 68 39 19 40 73 41 67 42 69 43 20 44
REMARK SMILES IDX 72 45 66 46 65 47 21 49 53 50 33 51 52 52 34 53 37 54 51 55
REMARK SMILES IDX 70 56 35 57 36 58 50 60 71 61 38 62 22 63 23 64 31 65 24 66
REMARK SMILES IDX 25 67 29 68 32 69 26 70 27 71 30 72 28 73 54 74 55 75 63 76
REMARK SMILES IDX 56 77 57 78 61 79 64 80 58 81 59 82 62 83 60 84 39 85 40 86
REMARK SMILES IDX 48 87 41 88 42 89 46 90 49 91 43 92 44 93 47 94 45 95
REMARK H PARENT 3 8 10 29 69 48 37 59
REMARK Flexibility Score: inf
ROOT
ATOM      1  C   UNL A   1      31.295  30.936  25.764  1.00  0.00     0.002 C 
ENDROOT
BRANCH   1   2
ATOM      2  C   UNL A   1      32.313  29.907  26.273  1.00  0.00     0.002 C 
BRANCH   2   3
ATOM      3  C   UNL A   1      31.755  28.667  26.979  1.00  0.00     0.021 C 
BRANCH   3   4
ATOM      4  C   UNL A   1      32.392  27.332  26.585  1.00  0.00     0.116 C 
BRANCH   4   5
ATOM      5  N   UNL A   1      31.731  26.152  27.145  1.00  0.00    -0.352 N 
ATOM      6  O   UNL A   1      30.796  24.080  27.099  1.00  0.00    -0.270 OA
ATOM      7  C   UNL A   1      31.127  25.100  26.493  1.00  0.00     0.251 C 
ATOM      8  H   UNL A   1      31.716  26.104  28.127  1.00  0.00     0.163 HD
BRANCH   7   9
ATOM      9  C   UNL A   1      30.994  25.175  25.025  1.00  0.00     0.067 C 
ATOM     10  C   UNL A   1      29.954  25.811  24.467  1.00  0.00     0.025 C 
ATOM     11  C   UNL A   1      32.203  24.821  24.214  1.00  0.00     0.314 C 
ATOM     12  C   UNL A   1      30.408  26.849  23.519  1.00  0.00     0.020 A 
ATOM     13  O   UNL A   1      32.690  25.959  23.468  1.00  0.00    -0.474 OA
ATOM     14  C   UNL A   1      29.575  27.963  23.335  1.00  0.00     0.032 A 
ATOM     15  C   UNL A   1      31.771  26.938  23.160  1.00  0.00     0.146 A 
ATOM     16  C   UNL A   1      30.108  29.156  22.844  1.00  0.00     0.043 A 
ATOM     17  C   UNL A   1      32.277  28.134  22.630  1.00  0.00     0.085 A 
ATOM     18  Cl  UNL A   1      29.124  30.568  22.797  1.00  0.00    -0.084 Cl
ATOM     19  C   UNL A   1      31.450  29.247  22.486  1.00  0.00     0.045 A 
ATOM     20  Cl  UNL A   1      33.958  28.319  22.277  1.00  0.00    -0.080 Cl
BRANCH  11  21
ATOM     21  C   UNL A   1      31.919  23.632  23.277  1.00  0.00     0.429 C 
ATOM     22  F   UNL A   1      32.437  23.847  22.044  1.00  0.00    -0.167 F 
ATOM     23  F   UNL A   1      32.466  22.483  23.739  1.00  0.00    -0.167 F 
ATOM     24  F   UNL A   1      30.592  23.409  23.118  1.00  0.00    -0.167 F 
ENDBRANCH  11  21
ENDBRANCH   7   9
ENDBRANCH   4   5
ENDBRANCH   3   4
ENDBRANCH   2   3
ENDBRANCH   1   2
BRANCH   1  25
ATOM     25  C   UNL A   1      31.174  32.250  26.543  1.00  0.00     0.021 C 
BRANCH  25  26
ATOM     26  C   UNL A   1      32.478  32.873  27.045  1.00  0.00     0.116 C 
BRANCH  26  27
ATOM     27  N   UNL A   1      32.301  34.207  27.590  1.00  0.00    -0.352 N 
ATOM     28  C   UNL A   1      32.984  34.858  28.584  1.00  0.00     0.251 C 
ATOM     29  H   UNL A   1      31.574  34.728  27.178  1.00  0.00     0.163 HD
ATOM     30  O   UNL A   1      32.591  35.964  28.962  1.00  0.00    -0.269 OA
BRANCH  28  31
ATOM     31  C   UNL A   1      34.173  34.258  29.232  1.00  0.00     0.039 A 
ATOM     32  C   UNL A   1      33.974  33.415  30.331  1.00  0.00     0.014 A 
ATOM     33  C   UNL A   1      35.474  34.561  28.820  1.00  0.00     0.014 A 
ATOM     34  C   UNL A   1      35.069  32.841  30.985  1.00  0.00     0.010 A 
ATOM     35  C   UNL A   1      36.565  33.948  29.440  1.00  0.00     0.010 A 
ATOM     36  C   UNL A   1      36.373  33.087  30.533  1.00  0.00    -0.014 A 
BRANCH  36  37
ATOM     37  C   UNL A   1      37.543  32.457  31.199  1.00  0.00     0.031 A 
ATOM     38  C   UNL A   1      38.296  31.344  30.525  1.00  0.00     0.074 A 
ATOM     39  C   UNL A   1      37.902  32.857  32.434  1.00  0.00     0.049 A 
ATOM     40  N   UNL A   1      39.310  30.642  30.966  1.00  0.00    -0.248 NA
ATOM     41  C   UNL A   1      37.836  30.956  29.183  1.00  0.00     0.031 C 
ATOM     42  C   UNL A   1      37.238  33.907  33.208  1.00  0.00     0.029 A 
ATOM     43  N   UNL A   1      38.910  32.423  33.259  1.00  0.00    -0.354 N 
ATOM     44  C   UNL A   1      39.595  29.720  29.969  1.00  0.00     0.074 A 
ATOM     45  C   UNL A   1      38.627  29.926  28.914  1.00  0.00     0.031 C 
ATOM     46  C   UNL A   1      37.866  34.048  34.386  1.00  0.00     0.029 A 
ATOM     47  C   UNL A   1      38.956  33.078  34.465  1.00  0.00     0.049 A 
ATOM     48  H   UNL A   1      39.540  31.709  33.009  1.00  0.00     0.167 HD
ATOM     49  C   UNL A   1      40.586  28.795  29.930  1.00  0.00     0.037 A 
ATOM     50  C   UNL A   1      39.779  32.913  35.517  1.00  0.00     0.037 A 
ATOM     51  C   UNL A   1      41.571  28.613  30.965  1.00  0.00     0.049 A 
ATOM     52  C   UNL A   1      40.864  31.874  35.451  1.00  0.00     0.074 A 
ATOM     53  C   UNL A   1      42.657  27.757  30.980  1.00  0.00     0.029 A 
ATOM     54  N   UNL A   1      41.584  29.296  32.172  1.00  0.00    -0.354 N 
ATOM     55  N   UNL A   1      41.168  31.055  34.474  1.00  0.00    -0.248 NA
ATOM     56  C   UNL A   1      41.724  31.738  36.636  1.00  0.00     0.031 C 
ATOM     57  C   UNL A   1      43.303  27.890  32.214  1.00  0.00     0.029 A 
ATOM     58  C   UNL A   1      42.645  28.861  32.950  1.00  0.00     0.049 A 
ATOM     59  H   UNL A   1      40.936  29.988  32.436  1.00  0.00     0.167 HD
ATOM     60  C   UNL A   1      42.268  30.330  34.911  1.00  0.00     0.074 A 
ATOM     61  C   UNL A   1      42.586  30.812  36.240  1.00  0.00     0.031 C 
ATOM     62  C   UNL A   1      42.955  29.354  34.267  1.00  0.00     0.037 A 
BRANCH  49  63
ATOM     63  C   UNL A   1      40.653  27.901  28.727  1.00  0.00     0.064 A 
ATOM     64  C   UNL A   1      39.938  26.697  28.662  1.00  0.00     0.173 A 
ATOM     65  C   UNL A   1      41.412  28.276  27.607  1.00  0.00     0.173 A 
ATOM     66  F   UNL A   1      39.205  26.290  29.709  1.00  0.00    -0.203 F 
ATOM     67  C   UNL A   1      40.001  25.886  27.532  1.00  0.00     0.198 A 
ATOM     68  C   UNL A   1      41.452  27.476  26.468  1.00  0.00     0.198 A 
ATOM     69  F   UNL A   1      42.109  29.423  27.615  1.00  0.00    -0.203 F 
ATOM     70  F   UNL A   1      39.346  24.718  27.509  1.00  0.00    -0.200 F 
ATOM     71  C   UNL A   1      40.753  26.279  26.433  1.00  0.00     0.200 A 
ATOM     72  F   UNL A   1      42.169  27.863  25.404  1.00  0.00    -0.200 F 
ATOM     73  F   UNL A   1      40.809  25.500  25.345  1.00  0.00    -0.200 F 
ENDBRANCH  49  63
BRANCH  50  74
ATOM     74  C   UNL A   1      39.629  33.775  36.716  1.00  0.00     0.064 A 
ATOM     75  C   UNL A   1      38.854  33.356  37.807  1.00  0.00     0.173 A 
ATOM     76  C   UNL A   1      40.248  35.030  36.799  1.00  0.00     0.173 A 
ATOM     77  F   UNL A   1      38.224  32.173  37.764  1.00  0.00    -0.203 F 
ATOM     78  C   UNL A   1      38.693  34.166  38.929  1.00  0.00     0.198 A 
ATOM     79  C   UNL A   1      40.107  35.828  37.931  1.00  0.00     0.198 A 
ATOM     80  F   UNL A   1      41.001  35.475  35.781  1.00  0.00    -0.203 F 
ATOM     81  F   UNL A   1      37.915  33.757  39.940  1.00  0.00    -0.200 F 
ATOM     82  C   UNL A   1      39.324  35.398  38.993  1.00  0.00     0.200 A 
ATOM     83  F   UNL A   1      40.726  37.015  37.994  1.00  0.00    -0.200 F 
ATOM     84  F   UNL A   1      39.172  36.176  40.073  1.00  0.00    -0.200 F 
ENDBRANCH  50  74
BRANCH  62  85
ATOM     85  C   UNL A   1      44.139  28.765  34.976  1.00  0.00     0.064 A 
ATOM     86  C   UNL A   1      44.018  27.628  35.788  1.00  0.00     0.173 A 
ATOM     87  C   UNL A   1      45.415  29.324  34.811  1.00  0.00     0.173 A 
ATOM     88  F   UNL A   1      42.817  27.067  35.990  1.00  0.00    -0.203 F 
ATOM     89  C   UNL A   1      45.130  27.085  36.426  1.00  0.00     0.198 A 
ATOM     90  C   UNL A   1      46.529  28.763  35.429  1.00  0.00     0.198 A 
ATOM     91  F   UNL A   1      45.583  30.410  34.041  1.00  0.00    -0.203 F 
ATOM     92  F   UNL A   1      44.986  26.023  37.232  1.00  0.00    -0.200 F 
ATOM     93  C   UNL A   1      46.384  27.648  36.242  1.00  0.00     0.200 A 
ATOM     94  F   UNL A   1      47.741  29.302  35.241  1.00  0.00    -0.200 F 
ATOM     95  F   UNL A   1      47.454  27.120  36.852  1.00  0.00    -0.200 F 
ENDBRANCH  62  85
ENDBRANCH  36  37
ENDBRANCH  28  31
ENDBRANCH  26  27
ENDBRANCH  25  26
ENDBRANCH   1  25
TORSDOF 14
ENDMDL
