MODEL 1
REMARK VINA RESULT:     -12.2      0.000      0.000
REMARK SMILES COc1ccc(-n2nc(C(=O)NCCCCCCNC(=O)c3ccc(-c4c5nc(c(-c6c(F)c(F)c(F)c(F)c6F)c6ccc([nH]6)c(-c6c(F)c(F)c(F)c(F)c6F)c6nc(c(-c7c(F)c(F)c(F)c(F)c7F)c7ccc4[nH]7)C=C6)C=C5)cc3)c(=O)cc2C)cc1
REMARK SMILES IDX 15 1 14 2 13 3 12 4 10 5 11 6 9 8 7 9 8 10 88 11 87 12 89 13
REMARK SMILES IDX 85 14 86 15 6 16 3 17 4 18 91 19 5 20 90 21 2 22 1 23 16 24
REMARK SMILES IDX 17 25 18 26 19 27 20 28 21 30 22 31 23 32 84 33 24 34 83 35
REMARK SMILES IDX 25 36 26 37 27 38 77 39 28 40 82 41 76 42 78 43 29 44 81 45
REMARK SMILES IDX 75 46 74 47 30 49 62 50 42 51 61 52 43 53 46 54 60 55 79 56
REMARK SMILES IDX 44 57 45 58 59 60 80 61 47 62 31 63 32 64 40 65 33 66 34 67
REMARK SMILES IDX 38 68 41 69 35 70 36 71 39 72 37 73 63 74 64 75 72 76 65 77
REMARK SMILES IDX 66 78 70 79 73 80 67 81 68 82 71 83 69 84 48 85 49 86 57 87
REMARK SMILES IDX 50 88 51 89 55 90 58 91 52 92 53 93 56 94 54 95
REMARK H PARENT 12 7 19 29 78 48 46 59
REMARK Flexibility Score: inf
ROOT
ATOM      1  C   UNL A   1      32.799  29.958  26.096  1.00  0.00     0.002 C 
ENDROOT
BRANCH   1   2
ATOM      2  C   UNL A   1      33.360  29.225  24.873  1.00  0.00     0.021 C 
BRANCH   2   3
ATOM      3  C   UNL A   1      32.377  28.947  23.739  1.00  0.00     0.116 C 
BRANCH   3   4
ATOM      4  N   UNL A   1      32.982  28.229  22.637  1.00  0.00    -0.351 N 
ATOM      5  C   UNL A   1      33.197  26.884  22.453  1.00  0.00     0.275 C 
ATOM      6  O   UNL A   1      33.625  26.510  21.362  1.00  0.00    -0.267 OA
ATOM      7  H   UNL A   1      33.292  28.800  21.897  1.00  0.00     0.163 HD
BRANCH   5   8
ATOM      8  C   UNL A   1      32.963  25.837  23.538  1.00  0.00     0.196 A 
ATOM      9  N   UNL A   1      33.908  24.282  24.955  1.00  0.00    -0.237 N 
ATOM     10  N   UNL A   1      34.044  25.310  24.052  1.00  0.00    -0.158 NA
ATOM     11  C   UNL A   1      32.714  24.028  25.638  1.00  0.00     0.044 A 
ATOM     12  C   UNL A   1      31.556  24.568  25.233  1.00  0.00     0.078 A 
ATOM     13  C   UNL A   1      32.704  23.170  26.882  1.00  0.00     0.067 C 
ATOM     14  C   UNL A   1      31.606  25.335  23.979  1.00  0.00     0.213 A 
ATOM     15  O   UNL A   1      30.593  25.556  23.335  1.00  0.00    -0.287 OA
BRANCH   9  16
ATOM     16  C   UNL A   1      35.070  23.456  25.046  1.00  0.00     0.065 A 
ATOM     17  C   UNL A   1      37.376  21.836  25.233  1.00  0.00     0.119 A 
ATOM     18  C   UNL A   1      37.381  23.135  25.742  1.00  0.00     0.048 A 
ATOM     19  C   UNL A   1      36.223  21.341  24.626  1.00  0.00     0.048 A 
ATOM     20  C   UNL A   1      36.248  23.946  25.627  1.00  0.00     0.032 A 
ATOM     21  C   UNL A   1      35.080  22.148  24.533  1.00  0.00     0.032 A 
BRANCH  17  22
ATOM     22  O   UNL A   1      38.524  21.119  25.431  1.00  0.00    -0.497 OA
ATOM     23  C   UNL A   1      39.556  21.812  26.126  1.00  0.00     0.278 C 
ENDBRANCH  17  22
ENDBRANCH   9  16
ENDBRANCH   5   8
ENDBRANCH   3   4
ENDBRANCH   2   3
ENDBRANCH   1   2
BRANCH   1  24
ATOM     24  C   UNL A   1      31.548  30.813  25.866  1.00  0.00     0.002 C 
BRANCH  24  25
ATOM     25  C   UNL A   1      31.363  32.003  26.810  1.00  0.00     0.021 C 
BRANCH  25  26
ATOM     26  C   UNL A   1      32.645  32.714  27.230  1.00  0.00     0.116 C 
BRANCH  26  27
ATOM     27  N   UNL A   1      32.415  34.096  27.622  1.00  0.00    -0.352 N 
ATOM     28  C   UNL A   1      33.002  34.830  28.620  1.00  0.00     0.251 C 
ATOM     29  H   UNL A   1      31.738  34.575  27.090  1.00  0.00     0.163 HD
ATOM     30  O   UNL A   1      32.552  35.933  28.920  1.00  0.00    -0.269 OA
BRANCH  28  31
ATOM     31  C   UNL A   1      34.167  34.292  29.354  1.00  0.00     0.039 A 
ATOM     32  C   UNL A   1      33.956  33.644  30.575  1.00  0.00     0.014 A 
ATOM     33  C   UNL A   1      35.463  34.443  28.856  1.00  0.00     0.014 A 
ATOM     34  C   UNL A   1      35.038  33.095  31.265  1.00  0.00     0.010 A 
ATOM     35  C   UNL A   1      36.533  33.833  29.508  1.00  0.00     0.010 A 
ATOM     36  C   UNL A   1      36.332  33.156  30.722  1.00  0.00    -0.014 A 
BRANCH  36  37
ATOM     37  C   UNL A   1      37.484  32.518  31.406  1.00  0.00     0.031 A 
ATOM     38  C   UNL A   1      38.190  31.352  30.772  1.00  0.00     0.074 A 
ATOM     39  C   UNL A   1      37.853  32.947  32.629  1.00  0.00     0.049 A 
ATOM     40  N   UNL A   1      39.167  30.618  31.243  1.00  0.00    -0.248 NA
ATOM     41  C   UNL A   1      37.719  30.939  29.441  1.00  0.00     0.031 C 
ATOM     42  C   UNL A   1      37.217  34.040  33.367  1.00  0.00     0.029 A 
ATOM     43  N   UNL A   1      38.843  32.509  33.472  1.00  0.00    -0.354 N 
ATOM     44  C   UNL A   1      39.416  29.653  30.275  1.00  0.00     0.074 A 
ATOM     45  C   UNL A   1      38.453  29.860  29.216  1.00  0.00     0.031 C 
ATOM     46  C   UNL A   1      37.847  34.201  34.542  1.00  0.00     0.029 A 
ATOM     47  C   UNL A   1      38.900  33.198  34.659  1.00  0.00     0.049 A 
ATOM     48  H   UNL A   1      39.455  31.772  33.247  1.00  0.00     0.167 HD
ATOM     49  C   UNL A   1      40.376  28.698  30.262  1.00  0.00     0.037 A 
ATOM     50  C   UNL A   1      39.705  33.031  35.726  1.00  0.00     0.037 A 
ATOM     51  C   UNL A   1      41.344  28.511  31.311  1.00  0.00     0.049 A 
ATOM     52  C   UNL A   1      40.751  31.951  35.693  1.00  0.00     0.074 A 
ATOM     53  C   UNL A   1      42.394  27.609  31.367  1.00  0.00     0.029 A 
ATOM     54  N   UNL A   1      41.378  29.235  32.494  1.00  0.00    -0.354 N 
ATOM     55  N   UNL A   1      41.023  31.090  34.744  1.00  0.00    -0.248 NA
ATOM     56  C   UNL A   1      41.608  31.823  36.880  1.00  0.00     0.031 C 
ATOM     57  C   UNL A   1      43.028  27.752  32.605  1.00  0.00     0.029 A 
ATOM     58  C   UNL A   1      42.413  28.783  33.297  1.00  0.00     0.049 A 
ATOM     59  H   UNL A   1      40.759  29.964  32.728  1.00  0.00     0.167 HD
ATOM     60  C   UNL A   1      42.099  30.341  35.202  1.00  0.00     0.074 A 
ATOM     61  C   UNL A   1      42.438  30.859  36.511  1.00  0.00     0.031 C 
ATOM     62  C   UNL A   1      42.745  29.315  34.595  1.00  0.00     0.037 A 
BRANCH  49  63
ATOM     63  C   UNL A   1      40.428  27.778  29.076  1.00  0.00     0.064 A 
ATOM     64  C   UNL A   1      39.667  26.599  29.023  1.00  0.00     0.173 A 
ATOM     65  C   UNL A   1      41.216  28.098  27.960  1.00  0.00     0.173 A 
ATOM     66  F   UNL A   1      38.904  26.241  30.066  1.00  0.00    -0.203 F 
ATOM     67  C   UNL A   1      39.719  25.761  27.913  1.00  0.00     0.198 A 
ATOM     68  C   UNL A   1      41.239  27.274  26.837  1.00  0.00     0.198 A 
ATOM     69  F   UNL A   1      41.957  29.216  27.953  1.00  0.00    -0.203 F 
ATOM     70  F   UNL A   1      39.025  24.614  27.907  1.00  0.00    -0.200 F 
ATOM     71  C   UNL A   1      40.498  26.102  26.818  1.00  0.00     0.200 A 
ATOM     72  F   UNL A   1      41.982  27.613  25.774  1.00  0.00    -0.200 F 
ATOM     73  F   UNL A   1      40.540  25.299  25.746  1.00  0.00    -0.200 F 
ENDBRANCH  49  63
BRANCH  50  74
ATOM     74  C   UNL A   1      39.563  33.921  36.910  1.00  0.00     0.064 A 
ATOM     75  C   UNL A   1      38.759  33.550  37.998  1.00  0.00     0.173 A 
ATOM     76  C   UNL A   1      40.216  35.160  36.976  1.00  0.00     0.173 A 
ATOM     77  F   UNL A   1      38.098  32.384  37.974  1.00  0.00    -0.203 F 
ATOM     78  C   UNL A   1      38.598  34.393  39.095  1.00  0.00     0.198 A 
ATOM     79  C   UNL A   1      40.078  35.990  38.086  1.00  0.00     0.198 A 
ATOM     80  F   UNL A   1      40.999  35.561  35.963  1.00  0.00    -0.203 F 
ATOM     81  F   UNL A   1      37.785  34.036  40.098  1.00  0.00    -0.200 F 
ATOM     82  C   UNL A   1      39.262  35.610  39.140  1.00  0.00     0.200 A 
ATOM     83  F   UNL A   1      40.733  37.157  38.133  1.00  0.00    -0.200 F 
ATOM     84  F   UNL A   1      39.108  36.420  40.197  1.00  0.00    -0.200 F 
ENDBRANCH  50  74
BRANCH  62  85
ATOM     85  C   UNL A   1      43.911  28.709  35.321  1.00  0.00     0.064 A 
ATOM     86  C   UNL A   1      45.214  29.207  35.173  1.00  0.00     0.173 A 
ATOM     87  C   UNL A   1      43.715  27.640  36.210  1.00  0.00     0.173 A 
ATOM     88  F   UNL A   1      45.456  30.218  34.324  1.00  0.00    -0.203 F 
ATOM     89  C   UNL A   1      46.280  28.641  35.866  1.00  0.00     0.198 A 
ATOM     90  C   UNL A   1      44.778  27.099  36.927  1.00  0.00     0.198 A 
ATOM     91  F   UNL A   1      42.488  27.129  36.394  1.00  0.00    -0.203 F 
ATOM     92  F   UNL A   1      47.524  29.102  35.671  1.00  0.00    -0.200 F 
ATOM     93  C   UNL A   1      46.060  27.594  36.749  1.00  0.00     0.200 A 
ATOM     94  F   UNL A   1      44.560  26.098  37.791  1.00  0.00    -0.200 F 
ATOM     95  F   UNL A   1      47.086  27.058  37.423  1.00  0.00    -0.200 F 
ENDBRANCH  62  85
ENDBRANCH  36  37
ENDBRANCH  28  31
ENDBRANCH  26  27
ENDBRANCH  25  26
ENDBRANCH  24  25
ENDBRANCH   1  24
TORSDOF 15
ENDMDL
MODEL 2
REMARK VINA RESULT:     -12.2      3.629      8.492
REMARK SMILES COc1ccc(-n2nc(C(=O)NCCCCCCNC(=O)c3ccc(-c4c5nc(c(-c6c(F)c(F)c(F)c(F)c6F)c6ccc([nH]6)c(-c6c(F)c(F)c(F)c(F)c6F)c6nc(c(-c7c(F)c(F)c(F)c(F)c7F)c7ccc4[nH]7)C=C6)C=C5)cc3)c(=O)cc2C)cc1
REMARK SMILES IDX 15 1 14 2 13 3 12 4 10 5 11 6 9 8 7 9 8 10 88 11 87 12 89 13
REMARK SMILES IDX 85 14 86 15 6 16 3 17 4 18 91 19 5 20 90 21 2 22 1 23 16 24
REMARK SMILES IDX 17 25 18 26 19 27 20 28 21 30 22 31 23 32 84 33 24 34 83 35
REMARK SMILES IDX 25 36 26 37 27 38 77 39 28 40 82 41 76 42 78 43 29 44 81 45
REMARK SMILES IDX 75 46 74 47 30 49 62 50 42 51 61 52 43 53 46 54 60 55 79 56
REMARK SMILES IDX 44 57 45 58 59 60 80 61 47 62 31 63 32 64 40 65 33 66 34 67
REMARK SMILES IDX 38 68 41 69 35 70 36 71 39 72 37 73 63 74 64 75 72 76 65 77
REMARK SMILES IDX 66 78 70 79 73 80 67 81 68 82 71 83 69 84 48 85 49 86 57 87
REMARK SMILES IDX 50 88 51 89 55 90 58 91 52 92 53 93 56 94 54 95
REMARK H PARENT 12 7 19 29 78 48 46 59
REMARK Flexibility Score: inf
ROOT
ATOM      1  C   UNL A   1      31.094  27.916  24.637  1.00  0.00     0.002 C 
ENDROOT
BRANCH   1   2
ATOM      2  C   UNL A   1      31.694  28.585  23.395  1.00  0.00     0.021 C 
BRANCH   2   3
ATOM      3  C   UNL A   1      33.153  28.259  23.086  1.00  0.00     0.116 C 
BRANCH   3   4
ATOM      4  N   UNL A   1      33.299  27.324  21.992  1.00  0.00    -0.351 N 
ATOM      5  C   UNL A   1      33.200  25.953  21.965  1.00  0.00     0.275 C 
ATOM      6  O   UNL A   1      33.245  25.391  20.872  1.00  0.00    -0.267 OA
ATOM      7  H   UNL A   1      33.502  27.738  21.123  1.00  0.00     0.163 HD
BRANCH   5   8
ATOM      8  C   UNL A   1      33.070  25.093  23.219  1.00  0.00     0.196 A 
ATOM      9  N   UNL A   1      34.162  23.889  24.856  1.00  0.00    -0.237 N 
ATOM     10  N   UNL A   1      34.198  24.754  23.787  1.00  0.00    -0.158 NA
ATOM     11  C   UNL A   1      33.002  23.658  25.602  1.00  0.00     0.044 A 
ATOM     12  C   UNL A   1      31.797  24.021  25.141  1.00  0.00     0.078 A 
ATOM     13  C   UNL A   1      33.081  23.029  26.974  1.00  0.00     0.067 C 
ATOM     14  C   UNL A   1      31.767  24.563  23.774  1.00  0.00     0.213 A 
ATOM     15  O   UNL A   1      30.731  24.584  23.128  1.00  0.00    -0.287 OA
BRANCH   9  16
ATOM     16  C   UNL A   1      35.392  23.192  25.056  1.00  0.00     0.065 A 
ATOM     17  C   UNL A   1      37.831  21.826  25.459  1.00  0.00     0.119 A 
ATOM     18  C   UNL A   1      37.693  23.157  25.853  1.00  0.00     0.048 A 
ATOM     19  C   UNL A   1      36.757  21.172  24.859  1.00  0.00     0.048 A 
ATOM     20  C   UNL A   1      36.493  23.841  25.631  1.00  0.00     0.032 A 
ATOM     21  C   UNL A   1      35.547  21.852  24.659  1.00  0.00     0.032 A 
BRANCH  17  22
ATOM     22  O   UNL A   1      39.033  21.244  25.756  1.00  0.00    -0.497 OA
ATOM     23  C   UNL A   1      39.107  19.845  25.499  1.00  0.00     0.278 C 
ENDBRANCH  17  22
ENDBRANCH   9  16
ENDBRANCH   5   8
ENDBRANCH   3   4
ENDBRANCH   2   3
ENDBRANCH   1   2
BRANCH   1  24
ATOM     24  C   UNL A   1      31.475  28.523  25.991  1.00  0.00     0.002 C 
BRANCH  24  25
ATOM     25  C   UNL A   1      32.496  27.737  26.818  1.00  0.00     0.021 C 
BRANCH  25  26
ATOM     26  C   UNL A   1      33.862  28.396  26.973  1.00  0.00     0.116 C 
BRANCH  26  27
ATOM     27  N   UNL A   1      33.768  29.798  27.348  1.00  0.00    -0.352 N 
ATOM     28  C   UNL A   1      34.660  30.581  28.034  1.00  0.00     0.251 C 
ATOM     29  H   UNL A   1      32.941  30.252  27.066  1.00  0.00     0.163 HD
ATOM     30  O   UNL A   1      34.331  31.702  28.416  1.00  0.00    -0.269 OA
BRANCH  28  31
ATOM     31  C   UNL A   1      36.017  30.076  28.336  1.00  0.00     0.039 A 
ATOM     32  C   UNL A   1      36.998  30.144  27.343  1.00  0.00     0.014 A 
ATOM     33  C   UNL A   1      36.316  29.518  29.581  1.00  0.00     0.014 A 
ATOM     34  C   UNL A   1      38.296  29.709  27.620  1.00  0.00     0.010 A 
ATOM     35  C   UNL A   1      37.626  29.151  29.880  1.00  0.00     0.010 A 
ATOM     36  C   UNL A   1      38.629  29.239  28.901  1.00  0.00    -0.014 A 
BRANCH  36  37
ATOM     37  C   UNL A   1      40.019  28.837  29.235  1.00  0.00     0.031 A 
ATOM     38  C   UNL A   1      40.909  29.766  30.013  1.00  0.00     0.074 A 
ATOM     39  C   UNL A   1      40.500  27.663  28.781  1.00  0.00     0.049 A 
ATOM     40  N   UNL A   1      42.169  29.626  30.340  1.00  0.00    -0.248 NA
ATOM     41  C   UNL A   1      40.310  31.031  30.463  1.00  0.00     0.031 C 
ATOM     42  C   UNL A   1      39.747  26.697  27.978  1.00  0.00     0.029 A 
ATOM     43  N   UNL A   1      41.738  27.088  28.918  1.00  0.00    -0.354 N 
ATOM     44  C   UNL A   1      42.515  30.787  31.019  1.00  0.00     0.074 A 
ATOM     45  C   UNL A   1      41.350  31.644  31.010  1.00  0.00     0.031 C 
ATOM     46  C   UNL A   1      40.532  25.641  27.713  1.00  0.00     0.029 A 
ATOM     47  C   UNL A   1      41.853  25.872  28.289  1.00  0.00     0.049 A 
ATOM     48  H   UNL A   1      42.473  27.506  29.421  1.00  0.00     0.167 HD
ATOM     49  C   UNL A   1      43.690  31.099  31.616  1.00  0.00     0.037 A 
ATOM     50  C   UNL A   1      42.909  25.043  28.180  1.00  0.00     0.037 A 
ATOM     51  C   UNL A   1      44.840  30.233  31.639  1.00  0.00     0.049 A 
ATOM     52  C   UNL A   1      44.209  25.422  28.838  1.00  0.00     0.074 A 
ATOM     53  C   UNL A   1      46.059  30.431  32.265  1.00  0.00     0.029 A 
ATOM     54  N   UNL A   1      44.916  29.003  31.000  1.00  0.00    -0.354 N 
ATOM     55  N   UNL A   1      44.503  26.491  29.536  1.00  0.00    -0.248 NA
ATOM     56  C   UNL A   1      45.323  24.474  28.696  1.00  0.00     0.031 C 
ATOM     57  C   UNL A   1      46.889  29.348  31.961  1.00  0.00     0.029 A 
ATOM     58  C   UNL A   1      46.169  28.444  31.195  1.00  0.00     0.049 A 
ATOM     59  H   UNL A   1      44.186  28.588  30.484  1.00  0.00     0.167 HD
ATOM     60  C   UNL A   1      45.821  26.331  29.943  1.00  0.00     0.074 A 
ATOM     61  C   UNL A   1      46.265  25.055  29.424  1.00  0.00     0.031 C 
ATOM     62  C   UNL A   1      46.594  27.168  30.678  1.00  0.00     0.037 A 
BRANCH  49  63
ATOM     63  C   UNL A   1      43.794  32.435  32.295  1.00  0.00     0.064 A 
ATOM     64  C   UNL A   1      43.436  32.608  33.642  1.00  0.00     0.173 A 
ATOM     65  C   UNL A   1      44.295  33.548  31.603  1.00  0.00     0.173 A 
ATOM     66  F   UNL A   1      42.943  31.579  34.346  1.00  0.00    -0.203 F 
ATOM     67  C   UNL A   1      43.547  33.851  34.259  1.00  0.00     0.198 A 
ATOM     68  C   UNL A   1      44.435  34.783  32.235  1.00  0.00     0.198 A 
ATOM     69  F   UNL A   1      44.659  33.439  30.317  1.00  0.00    -0.203 F 
ATOM     70  F   UNL A   1      43.149  34.003  35.531  1.00  0.00    -0.200 F 
ATOM     71  C   UNL A   1      44.053  34.935  33.558  1.00  0.00     0.200 A 
ATOM     72  F   UNL A   1      44.938  35.826  31.559  1.00  0.00    -0.200 F 
ATOM     73  F   UNL A   1      44.166  36.128  34.157  1.00  0.00    -0.200 F 
ENDBRANCH  49  63
BRANCH  50  74
ATOM     74  C   UNL A   1      42.776  23.765  27.432  1.00  0.00     0.064 A 
ATOM     75  C   UNL A   1      42.266  22.616  28.054  1.00  0.00     0.173 A 
ATOM     76  C   UNL A   1      43.163  23.659  26.088  1.00  0.00     0.173 A 
ATOM     77  F   UNL A   1      41.901  22.661  29.344  1.00  0.00    -0.203 F 
ATOM     78  C   UNL A   1      42.168  21.407  27.368  1.00  0.00     0.198 A 
ATOM     79  C   UNL A   1      43.038  22.458  25.394  1.00  0.00     0.198 A 
ATOM     80  F   UNL A   1      43.654  24.729  25.446  1.00  0.00    -0.203 F 
ATOM     81  F   UNL A   1      41.724  20.314  28.001  1.00  0.00    -0.200 F 
ATOM     82  C   UNL A   1      42.549  21.331  26.037  1.00  0.00     0.200 A 
ATOM     83  F   UNL A   1      43.392  22.393  24.104  1.00  0.00    -0.200 F 
ATOM     84  F   UNL A   1      42.453  20.170  25.376  1.00  0.00    -0.200 F 
ENDBRANCH  50  74
BRANCH  62  85
ATOM     85  C   UNL A   1      47.989  26.713  31.001  1.00  0.00     0.064 A 
ATOM     86  C   UNL A   1      49.084  27.062  30.198  1.00  0.00     0.173 A 
ATOM     87  C   UNL A   1      48.236  25.951  32.154  1.00  0.00     0.173 A 
ATOM     88  F   UNL A   1      48.898  27.776  29.077  1.00  0.00    -0.203 F 
ATOM     89  C   UNL A   1      50.371  26.643  30.522  1.00  0.00     0.198 A 
ATOM     90  C   UNL A   1      49.529  25.563  32.492  1.00  0.00     0.198 A 
ATOM     91  F   UNL A   1      47.225  25.596  32.961  1.00  0.00    -0.203 F 
ATOM     92  F   UNL A   1      51.396  26.946  29.712  1.00  0.00    -0.200 F 
ATOM     93  C   UNL A   1      50.594  25.902  31.673  1.00  0.00     0.200 A 
ATOM     94  F   UNL A   1      49.744  24.861  33.614  1.00  0.00    -0.200 F 
ATOM     95  F   UNL A   1      51.835  25.508  31.988  1.00  0.00    -0.200 F 
ENDBRANCH  62  85
ENDBRANCH  36  37
ENDBRANCH  28  31
ENDBRANCH  26  27
ENDBRANCH  25  26
ENDBRANCH  24  25
ENDBRANCH   1  24
TORSDOF 15
ENDMDL
MODEL 3
REMARK VINA RESULT:     -12.1      5.417     11.330
REMARK SMILES COc1ccc(-n2nc(C(=O)NCCCCCCNC(=O)c3ccc(-c4c5nc(c(-c6c(F)c(F)c(F)c(F)c6F)c6ccc([nH]6)c(-c6c(F)c(F)c(F)c(F)c6F)c6nc(c(-c7c(F)c(F)c(F)c(F)c7F)c7ccc4[nH]7)C=C6)C=C5)cc3)c(=O)cc2C)cc1
REMARK SMILES IDX 15 1 14 2 13 3 12 4 10 5 11 6 9 8 7 9 8 10 88 11 87 12 89 13
REMARK SMILES IDX 85 14 86 15 6 16 3 17 4 18 91 19 5 20 90 21 2 22 1 23 16 24
REMARK SMILES IDX 17 25 18 26 19 27 20 28 21 30 22 31 23 32 84 33 24 34 83 35
REMARK SMILES IDX 25 36 26 37 27 38 77 39 28 40 82 41 76 42 78 43 29 44 81 45
REMARK SMILES IDX 75 46 74 47 30 49 62 50 42 51 61 52 43 53 46 54 60 55 79 56
REMARK SMILES IDX 44 57 45 58 59 60 80 61 47 62 31 63 32 64 40 65 33 66 34 67
REMARK SMILES IDX 38 68 41 69 35 70 36 71 39 72 37 73 63 74 64 75 72 76 65 77
REMARK SMILES IDX 66 78 70 79 73 80 67 81 68 82 71 83 69 84 48 85 49 86 57 87
REMARK SMILES IDX 50 88 51 89 55 90 58 91 52 92 53 93 56 94 54 95
REMARK H PARENT 12 7 19 29 78 48 46 59
REMARK Flexibility Score: inf
ROOT
ATOM      1  C   UNL A   1      37.462  21.744  24.994  1.00  0.00     0.002 C 
ENDROOT
BRANCH   1   2
ATOM      2  C   UNL A   1      36.327  22.319  25.847  1.00  0.00     0.021 C 
BRANCH   2   3
ATOM      3  C   UNL A   1      35.076  21.454  25.985  1.00  0.00     0.116 C 
BRANCH   3   4
ATOM      4  N   UNL A   1      34.372  21.683  27.229  1.00  0.00    -0.351 N 
ATOM      5  C   UNL A   1      33.243  22.419  27.497  1.00  0.00     0.275 C 
ATOM      6  O   UNL A   1      32.766  22.355  28.630  1.00  0.00    -0.267 OA
ATOM      7  H   UNL A   1      34.768  21.237  28.012  1.00  0.00     0.163 HD
BRANCH   5   8
ATOM      8  C   UNL A   1      32.569  23.333  26.477  1.00  0.00     0.196 A 
ATOM      9  N   UNL A   1      32.329  25.481  25.673  1.00  0.00    -0.237 N 
ATOM     10  N   UNL A   1      32.969  24.578  26.488  1.00  0.00    -0.158 NA
ATOM     11  C   UNL A   1      31.557  25.092  24.574  1.00  0.00     0.044 A 
ATOM     12  C   UNL A   1      31.144  23.825  24.431  1.00  0.00     0.078 A 
ATOM     13  C   UNL A   1      31.201  26.084  23.491  1.00  0.00     0.067 C 
ATOM     14  C   UNL A   1      31.454  22.916  25.545  1.00  0.00     0.213 A 
ATOM     15  O   UNL A   1      30.837  21.874  25.698  1.00  0.00    -0.287 OA
BRANCH   9  16
ATOM     16  C   UNL A   1      32.457  26.831  26.120  1.00  0.00     0.065 A 
ATOM     17  C   UNL A   1      32.724  29.503  26.997  1.00  0.00     0.119 A 
ATOM     18  C   UNL A   1      33.719  28.911  26.219  1.00  0.00     0.048 A 
ATOM     19  C   UNL A   1      31.595  28.764  27.345  1.00  0.00     0.048 A 
ATOM     20  C   UNL A   1      33.598  27.581  25.806  1.00  0.00     0.032 A 
ATOM     21  C   UNL A   1      31.464  27.438  26.910  1.00  0.00     0.032 A 
BRANCH  17  22
ATOM     22  O   UNL A   1      32.926  30.817  27.315  1.00  0.00    -0.497 OA
ATOM     23  C   UNL A   1      34.229  31.129  27.798  1.00  0.00     0.278 C 
ENDBRANCH  17  22
ENDBRANCH   9  16
ENDBRANCH   5   8
ENDBRANCH   3   4
ENDBRANCH   2   3
ENDBRANCH   1   2
BRANCH   1  24
ATOM     24  C   UNL A   1      37.289  20.300  24.510  1.00  0.00     0.002 C 
BRANCH  24  25
ATOM     25  C   UNL A   1      38.257  19.272  25.099  1.00  0.00     0.021 C 
BRANCH  25  26
ATOM     26  C   UNL A   1      39.518  19.846  25.735  1.00  0.00     0.116 C 
BRANCH  26  27
ATOM     27  N   UNL A   1      40.571  18.854  25.885  1.00  0.00    -0.352 N 
ATOM     28  C   UNL A   1      41.915  19.030  26.090  1.00  0.00     0.251 C 
ATOM     29  H   UNL A   1      40.273  17.917  25.832  1.00  0.00     0.163 HD
ATOM     30  O   UNL A   1      42.681  18.072  26.014  1.00  0.00    -0.269 OA
BRANCH  28  31
ATOM     31  C   UNL A   1      42.454  20.375  26.385  1.00  0.00     0.039 A 
ATOM     32  C   UNL A   1      43.062  21.099  25.356  1.00  0.00     0.014 A 
ATOM     33  C   UNL A   1      42.382  20.912  27.673  1.00  0.00     0.014 A 
ATOM     34  C   UNL A   1      43.543  22.386  25.604  1.00  0.00     0.010 A 
ATOM     35  C   UNL A   1      42.796  22.222  27.902  1.00  0.00     0.010 A 
ATOM     36  C   UNL A   1      43.385  22.972  26.871  1.00  0.00    -0.014 A 
BRANCH  36  37
ATOM     37  C   UNL A   1      43.826  24.364  27.135  1.00  0.00     0.031 A 
ATOM     38  C   UNL A   1      42.843  25.389  27.630  1.00  0.00     0.074 A 
ATOM     39  C   UNL A   1      45.097  24.722  26.867  1.00  0.00     0.049 A 
ATOM     40  N   UNL A   1      43.020  26.667  27.850  1.00  0.00    -0.248 NA
ATOM     41  C   UNL A   1      41.474  24.920  27.887  1.00  0.00     0.031 C 
ATOM     42  C   UNL A   1      46.132  23.829  26.342  1.00  0.00     0.029 A 
ATOM     43  N   UNL A   1      45.733  25.932  26.988  1.00  0.00    -0.354 N 
ATOM     44  C   UNL A   1      41.784  27.155  28.258  1.00  0.00     0.074 A 
ATOM     45  C   UNL A   1      40.855  26.048  28.202  1.00  0.00     0.031 C 
ATOM     46  C   UNL A   1      47.277  24.516  26.206  1.00  0.00     0.029 A 
ATOM     47  C   UNL A   1      47.049  25.904  26.593  1.00  0.00     0.049 A 
ATOM     48  H   UNL A   1      45.289  26.742  27.326  1.00  0.00     0.167 HD
ATOM     49  C   UNL A   1      41.461  28.406  28.664  1.00  0.00     0.037 A 
ATOM     50  C   UNL A   1      47.964  26.891  26.539  1.00  0.00     0.037 A 
ATOM     51  C   UNL A   1      42.397  29.499  28.736  1.00  0.00     0.049 A 
ATOM     52  C   UNL A   1      47.574  28.276  26.980  1.00  0.00     0.074 A 
ATOM     53  C   UNL A   1      42.183  30.790  29.189  1.00  0.00     0.029 A 
ATOM     54  N   UNL A   1      43.725  29.430  28.339  1.00  0.00    -0.354 N 
ATOM     55  N   UNL A   1      46.422  28.709  27.429  1.00  0.00    -0.248 NA
ATOM     56  C   UNL A   1      48.616  29.310  26.910  1.00  0.00     0.031 C 
ATOM     57  C   UNL A   1      43.366  31.515  29.016  1.00  0.00     0.029 A 
ATOM     58  C   UNL A   1      44.334  30.663  28.511  1.00  0.00     0.049 A 
ATOM     59  H   UNL A   1      44.168  28.624  27.987  1.00  0.00     0.167 HD
ATOM     60  C   UNL A   1      46.607  30.053  27.725  1.00  0.00     0.074 A 
ATOM     61  C   UNL A   1      47.988  30.360  27.417  1.00  0.00     0.031 C 
ATOM     62  C   UNL A   1      45.713  30.952  28.207  1.00  0.00     0.037 A 
BRANCH  49  63
ATOM     63  C   UNL A   1      40.036  28.664  29.062  1.00  0.00     0.064 A 
ATOM     64  C   UNL A   1      39.079  29.102  28.133  1.00  0.00     0.173 A 
ATOM     65  C   UNL A   1      39.611  28.432  30.378  1.00  0.00     0.173 A 
ATOM     66  F   UNL A   1      39.434  29.348  26.863  1.00  0.00    -0.203 F 
ATOM     67  C   UNL A   1      37.760  29.328  28.515  1.00  0.00     0.198 A 
ATOM     68  C   UNL A   1      38.282  28.628  30.749  1.00  0.00     0.198 A 
ATOM     69  F   UNL A   1      40.481  28.005  31.306  1.00  0.00    -0.203 F 
ATOM     70  F   UNL A   1      36.876  29.797  27.622  1.00  0.00    -0.200 F 
ATOM     71  C   UNL A   1      37.360  29.084  29.820  1.00  0.00     0.200 A 
ATOM     72  F   UNL A   1      37.895  28.376  32.008  1.00  0.00    -0.200 F 
ATOM     73  F   UNL A   1      36.088  29.293  30.184  1.00  0.00    -0.200 F 
ENDBRANCH  49  63
BRANCH  50  74
ATOM     74  C   UNL A   1      49.343  26.600  26.065  1.00  0.00     0.064 A 
ATOM     75  C   UNL A   1      50.297  26.040  26.927  1.00  0.00     0.173 A 
ATOM     76  C   UNL A   1      49.740  26.884  24.750  1.00  0.00     0.173 A 
ATOM     77  F   UNL A   1      49.972  25.770  28.200  1.00  0.00    -0.203 F 
ATOM     78  C   UNL A   1      51.600  25.795  26.498  1.00  0.00     0.198 A 
ATOM     79  C   UNL A   1      51.034  26.610  24.313  1.00  0.00     0.198 A 
ATOM     80  F   UNL A   1      48.864  27.416  23.885  1.00  0.00    -0.203 F 
ATOM     81  F   UNL A   1      52.505  25.306  27.356  1.00  0.00    -0.200 F 
ATOM     82  C   UNL A   1      51.965  26.075  25.189  1.00  0.00     0.200 A 
ATOM     83  F   UNL A   1      51.379  26.868  23.045  1.00  0.00    -0.200 F 
ATOM     84  F   UNL A   1      53.218  25.837  24.776  1.00  0.00    -0.200 F 
ENDBRANCH  50  74
BRANCH  62  85
ATOM     85  C   UNL A   1      46.209  32.345  28.470  1.00  0.00     0.064 A 
ATOM     86  C   UNL A   1      46.135  33.351  27.496  1.00  0.00     0.173 A 
ATOM     87  C   UNL A   1      46.729  32.686  29.729  1.00  0.00     0.173 A 
ATOM     88  F   UNL A   1      45.661  33.072  26.272  1.00  0.00    -0.203 F 
ATOM     89  C   UNL A   1      46.587  34.640  27.764  1.00  0.00     0.198 A 
ATOM     90  C   UNL A   1      47.147  33.985  30.003  1.00  0.00     0.198 A 
ATOM     91  F   UNL A   1      46.816  31.763  30.698  1.00  0.00    -0.203 F 
ATOM     92  F   UNL A   1      46.552  35.574  26.802  1.00  0.00    -0.200 F 
ATOM     93  C   UNL A   1      47.084  34.959  29.019  1.00  0.00     0.200 A 
ATOM     94  F   UNL A   1      47.612  34.293  31.222  1.00  0.00    -0.200 F 
ATOM     95  F   UNL A   1      47.508  36.203  29.277  1.00  0.00    -0.200 F 
ENDBRANCH  62  85
ENDBRANCH  36  37
ENDBRANCH  28  31
ENDBRANCH  26  27
ENDBRANCH  25  26
ENDBRANCH  24  25
ENDBRANCH   1  24
TORSDOF 15
ENDMDL
