MODEL 1
REMARK VINA RESULT:     -13.9      0.000      0.000
REMARK SMILES O=C(NCCCCCCNC(=O)[C@@H]1[C@@H](C(=O)N2CC[NH+](C/C=C/c3ccccc3)CC2)[C@@H]2C=C[C@H]1C2)c1ccc(-c2c3nc(c(-c4c(F)c(F)c(F)c(F)c4F)c4ccc([nH]4)c(-c4c(F)c(F)c(F)c(F)c4F)c4nc(c(-c5c(F)c(F)c(F)c(F)c5F)c5ccc2[nH]5)C=C4)C=C3)cc1
REMARK SMILES IDX 7 1 6 2 5 3 4 4 3 5 1 6 2 7 37 9 38 10 99 11 39 12 98 13
REMARK SMILES IDX 40 14 41 15 42 16 92 17 43 18 97 19 91 20 93 21 44 22 96 23
REMARK SMILES IDX 90 24 89 25 45 27 77 28 57 29 76 30 58 31 61 32 75 33 94 34
REMARK SMILES IDX 59 35 60 36 74 38 95 39 62 40 46 41 47 42 55 43 48 44 49 45
REMARK SMILES IDX 53 46 56 47 50 48 51 49 54 50 52 51 78 52 79 53 87 54 80 55
REMARK SMILES IDX 81 56 85 57 88 58 82 59 83 60 86 61 84 62 63 63 64 64 72 65
REMARK SMILES IDX 65 66 66 67 70 68 73 69 67 70 68 71 71 72 69 73 8 74 9 75
REMARK SMILES IDX 10 76 11 77 12 79 13 80 14 81 35 82 32 83 34 84 36 85 33 86
REMARK SMILES IDX 15 87 16 88 17 89 18 90 31 91 19 92 30 93 20 94 21 96 22 97
REMARK SMILES IDX 23 98 24 99 25 100 29 101 26 102 28 103 27 104
REMARK H PARENT 3 8 93 26 61 37 10 78 20 95
REMARK Flexibility Score: inf
ROOT
ATOM      1  C   UNL A   1      32.138  29.696  27.185  1.00  0.00     0.002 C 
ENDROOT
BRANCH   1   2
ATOM      2  C   UNL A   1      31.704  30.775  26.187  1.00  0.00     0.002 C 
BRANCH   2   3
ATOM      3  C   UNL A   1      31.428  32.146  26.804  1.00  0.00     0.021 C 
BRANCH   3   4
ATOM      4  C   UNL A   1      32.674  32.892  27.261  1.00  0.00     0.116 C 
BRANCH   4   5
ATOM      5  N   UNL A   1      32.389  34.263  27.657  1.00  0.00    -0.352 N 
ATOM      6  O   UNL A   1      32.512  36.108  28.955  1.00  0.00    -0.269 OA
ATOM      7  C   UNL A   1      32.978  35.017  28.641  1.00  0.00     0.251 C 
ATOM      8  H   UNL A   1      31.675  34.710  27.148  1.00  0.00     0.163 HD
BRANCH   7   9
ATOM      9  C   UNL A   1      34.166  34.490  29.346  1.00  0.00     0.039 A 
ATOM     10  C   UNL A   1      35.438  34.623  28.785  1.00  0.00     0.014 A 
ATOM     11  C   UNL A   1      33.999  33.832  30.566  1.00  0.00     0.014 A 
ATOM     12  C   UNL A   1      36.514  33.960  29.361  1.00  0.00     0.010 A 
ATOM     13  C   UNL A   1      35.100  33.242  31.192  1.00  0.00     0.010 A 
ATOM     14  C   UNL A   1      36.359  33.265  30.571  1.00  0.00    -0.014 A 
BRANCH  14  15
ATOM     15  C   UNL A   1      37.539  32.593  31.173  1.00  0.00     0.031 A 
ATOM     16  C   UNL A   1      38.005  32.935  32.561  1.00  0.00     0.074 A 
ATOM     17  C   UNL A   1      38.164  31.629  30.470  1.00  0.00     0.049 A 
ATOM     18  N   UNL A   1      38.982  32.407  33.258  1.00  0.00    -0.248 NA
ATOM     19  C   UNL A   1      37.293  34.015  33.259  1.00  0.00     0.031 C 
ATOM     20  C   UNL A   1      37.811  31.220  29.108  1.00  0.00     0.029 A 
ATOM     21  N   UNL A   1      39.203  30.800  30.806  1.00  0.00    -0.354 N 
ATOM     22  C   UNL A   1      39.017  33.105  34.458  1.00  0.00     0.074 A 
ATOM     23  C   UNL A   1      37.978  34.111  34.390  1.00  0.00     0.031 C 
ATOM     24  C   UNL A   1      38.579  30.183  28.747  1.00  0.00     0.029 A 
ATOM     25  C   UNL A   1      39.515  29.889  29.827  1.00  0.00     0.049 A 
ATOM     26  H   UNL A   1      39.678  30.853  31.666  1.00  0.00     0.167 HD
ATOM     27  C   UNL A   1      39.836  32.916  35.520  1.00  0.00     0.037 A 
ATOM     28  C   UNL A   1      40.453  28.926  29.799  1.00  0.00     0.037 A 
ATOM     29  C   UNL A   1      40.850  31.893  35.596  1.00  0.00     0.049 A 
ATOM     30  C   UNL A   1      41.342  28.738  30.994  1.00  0.00     0.074 A 
ATOM     31  C   UNL A   1      41.699  31.595  36.646  1.00  0.00     0.029 A 
ATOM     32  N   UNL A   1      41.150  31.004  34.574  1.00  0.00    -0.354 N 
ATOM     33  N   UNL A   1      41.337  29.378  32.138  1.00  0.00    -0.248 NA
ATOM     34  C   UNL A   1      42.369  27.693  30.893  1.00  0.00     0.031 C 
ATOM     35  C   UNL A   1      42.542  30.552  36.247  1.00  0.00     0.029 A 
ATOM     36  C   UNL A   1      42.186  30.168  34.965  1.00  0.00     0.049 A 
ATOM     37  H   UNL A   1      40.696  30.971  33.702  1.00  0.00     0.167 HD
ATOM     38  C   UNL A   1      42.341  28.800  32.901  1.00  0.00     0.074 A 
ATOM     39  C   UNL A   1      42.922  27.744  32.096  1.00  0.00     0.031 C 
ATOM     40  C   UNL A   1      42.747  29.117  34.155  1.00  0.00     0.037 A 
BRANCH  27  41
ATOM     41  C   UNL A   1      39.687  33.846  36.691  1.00  0.00     0.064 A 
ATOM     42  C   UNL A   1      40.326  35.093  36.731  1.00  0.00     0.173 A 
ATOM     43  C   UNL A   1      38.852  33.503  37.765  1.00  0.00     0.173 A 
ATOM     44  F   UNL A   1      41.145  35.465  35.734  1.00  0.00    -0.203 F 
ATOM     45  C   UNL A   1      40.156  35.952  37.814  1.00  0.00     0.198 A 
ATOM     46  C   UNL A   1      38.663  34.375  38.834  1.00  0.00     0.198 A 
ATOM     47  F   UNL A   1      38.210  32.325  37.775  1.00  0.00    -0.203 F 
ATOM     48  F   UNL A   1      40.811  37.121  37.851  1.00  0.00    -0.200 F 
ATOM     49  C   UNL A   1      39.319  35.596  38.862  1.00  0.00     0.200 A 
ATOM     50  F   UNL A   1      37.842  34.034  39.839  1.00  0.00    -0.200 F 
ATOM     51  F   UNL A   1      39.149  36.427  39.899  1.00  0.00    -0.200 F 
ENDBRANCH  27  41
BRANCH  28  52
ATOM     52  C   UNL A   1      40.582  28.057  28.602  1.00  0.00     0.064 A 
ATOM     53  C   UNL A   1      39.922  26.822  28.535  1.00  0.00     0.173 A 
ATOM     54  C   UNL A   1      41.353  28.449  27.497  1.00  0.00     0.173 A 
ATOM     55  F   UNL A   1      39.188  26.398  29.574  1.00  0.00    -0.203 F 
ATOM     56  C   UNL A   1      40.043  26.004  27.415  1.00  0.00     0.198 A 
ATOM     57  C   UNL A   1      41.448  27.642  26.366  1.00  0.00     0.198 A 
ATOM     58  F   UNL A   1      41.997  29.624  27.510  1.00  0.00    -0.203 F 
ATOM     59  F   UNL A   1      39.435  24.810  27.392  1.00  0.00    -0.200 F 
ATOM     60  C   UNL A   1      40.799  26.418  26.328  1.00  0.00     0.200 A 
ATOM     61  F   UNL A   1      42.165  28.054  25.311  1.00  0.00    -0.200 F 
ATOM     62  F   UNL A   1      40.907  25.634  25.247  1.00  0.00    -0.200 F 
ENDBRANCH  28  52
BRANCH  40  63
ATOM     63  C   UNL A   1      43.846  28.284  34.745  1.00  0.00     0.064 A 
ATOM     64  C   UNL A   1      45.194  28.657  34.634  1.00  0.00     0.173 A 
ATOM     65  C   UNL A   1      43.544  27.105  35.443  1.00  0.00     0.173 A 
ATOM     66  F   UNL A   1      45.534  29.766  33.961  1.00  0.00    -0.203 F 
ATOM     67  C   UNL A   1      46.202  27.862  35.174  1.00  0.00     0.198 A 
ATOM     68  C   UNL A   1      44.553  26.329  36.006  1.00  0.00     0.198 A 
ATOM     69  F   UNL A   1      42.270  26.707  35.581  1.00  0.00    -0.203 F 
ATOM     70  F   UNL A   1      47.486  28.210  35.009  1.00  0.00    -0.200 F 
ATOM     71  C   UNL A   1      45.880  26.703  35.863  1.00  0.00     0.200 A 
ATOM     72  F   UNL A   1      44.240  25.214  36.681  1.00  0.00    -0.200 F 
ATOM     73  F   UNL A   1      46.852  25.939  36.381  1.00  0.00    -0.200 F 
ENDBRANCH  40  63
ENDBRANCH  14  15
ENDBRANCH   7   9
ENDBRANCH   4   5
ENDBRANCH   3   4
ENDBRANCH   2   3
ENDBRANCH   1   2
BRANCH   1  74
ATOM     74  C   UNL A   1      33.652  29.477  27.282  1.00  0.00     0.021 C 
BRANCH  74  75
ATOM     75  C   UNL A   1      34.173  28.358  26.381  1.00  0.00     0.116 C 
BRANCH  75  76
ATOM     76  N   UNL A   1      34.242  28.807  25.002  1.00  0.00    -0.356 N 
ATOM     77  C   UNL A   1      33.702  28.254  23.879  1.00  0.00     0.224 C 
ATOM     78  H   UNL A   1      34.754  29.635  24.856  1.00  0.00     0.163 HD
ATOM     79  O   UNL A   1      34.045  28.699  22.786  1.00  0.00    -0.275 OA
BRANCH  77  80
ATOM     80  C   UNL A   1      32.667  27.170  24.058  1.00  0.00     0.098 C 
ATOM     81  C   UNL A   1      32.353  26.333  22.785  1.00  0.00     0.098 C 
ATOM     82  C   UNL A   1      31.289  27.793  24.417  1.00  0.00     0.025 C 
ATOM     83  C   UNL A   1      30.805  26.346  22.774  1.00  0.00     0.025 C 
ATOM     84  C   UNL A   1      30.741  28.599  23.262  1.00  0.00    -0.027 C 
ATOM     85  C   UNL A   1      30.399  26.569  24.243  1.00  0.00     0.017 C 
ATOM     86  C   UNL A   1      30.427  27.734  22.283  1.00  0.00    -0.027 C 
BRANCH  81  87
ATOM     87  C   UNL A   1      33.100  24.996  22.757  1.00  0.00     0.227 C 
ATOM     88  O   UNL A   1      33.387  24.470  21.680  1.00  0.00    -0.275 OA
ATOM     89  N   UNL A   1      33.595  24.485  23.939  1.00  0.00    -0.331 N 
ATOM     90  C   UNL A   1      34.917  23.860  23.920  1.00  0.00     0.181 C 
ATOM     91  C   UNL A   1      32.723  23.975  24.985  1.00  0.00     0.181 C 
ATOM     92  C   UNL A   1      35.583  23.879  25.312  1.00  0.00     0.284 C 
ATOM     93  C   UNL A   1      33.392  24.097  26.367  1.00  0.00     0.284 C 
ATOM     94  N   UNL A   1      34.737  23.500  26.462  1.00  0.00    -0.329 N 
ATOM     95  H   UNL A   1      35.169  23.915  27.287  1.00  0.00     0.348 HD
BRANCH  94  96
ATOM     96  C   UNL A   1      34.758  22.068  26.785  1.00  0.00     0.291 C 
BRANCH  96  97
ATOM     97  C   UNL A   1      34.532  21.137  25.632  1.00  0.00     0.034 C 
ATOM     98  C   UNL A   1      33.496  20.292  25.524  1.00  0.00     0.009 C 
BRANCH  98  99
ATOM     99  C   UNL A   1      33.461  19.250  24.494  1.00  0.00    -0.026 A 
ATOM    100  C   UNL A   1      32.478  19.261  23.503  1.00  0.00     0.008 A 
ATOM    101  C   UNL A   1      34.377  18.190  24.533  1.00  0.00     0.008 A 
ATOM    102  C   UNL A   1      32.415  18.221  22.570  1.00  0.00     0.001 A 
ATOM    103  C   UNL A   1      34.313  17.152  23.605  1.00  0.00     0.001 A 
ATOM    104  C   UNL A   1      33.328  17.168  22.624  1.00  0.00     0.000 A 
ENDBRANCH  98  99
ENDBRANCH  96  97
ENDBRANCH  94  96
ENDBRANCH  81  87
ENDBRANCH  77  80
ENDBRANCH  75  76
ENDBRANCH  74  75
ENDBRANCH   1  74
TORSDOF 17
ENDMDL
MODEL 2
REMARK VINA RESULT:     -13.5      0.512      7.046
REMARK SMILES O=C(NCCCCCCNC(=O)[C@@H]1[C@@H](C(=O)N2CC[NH+](C/C=C/c3ccccc3)CC2)[C@@H]2C=C[C@H]1C2)c1ccc(-c2c3nc(c(-c4c(F)c(F)c(F)c(F)c4F)c4ccc([nH]4)c(-c4c(F)c(F)c(F)c(F)c4F)c4nc(c(-c5c(F)c(F)c(F)c(F)c5F)c5ccc2[nH]5)C=C4)C=C3)cc1
REMARK SMILES IDX 7 1 6 2 5 3 4 4 3 5 1 6 2 7 37 9 38 10 99 11 39 12 98 13
REMARK SMILES IDX 40 14 41 15 42 16 92 17 43 18 97 19 91 20 93 21 44 22 96 23
REMARK SMILES IDX 90 24 89 25 45 27 77 28 57 29 76 30 58 31 61 32 75 33 94 34
REMARK SMILES IDX 59 35 60 36 74 38 95 39 62 40 46 41 47 42 55 43 48 44 49 45
REMARK SMILES IDX 53 46 56 47 50 48 51 49 54 50 52 51 78 52 79 53 87 54 80 55
REMARK SMILES IDX 81 56 85 57 88 58 82 59 83 60 86 61 84 62 63 63 64 64 72 65
REMARK SMILES IDX 65 66 66 67 70 68 73 69 67 70 68 71 71 72 69 73 8 74 9 75
REMARK SMILES IDX 10 76 11 77 12 79 13 80 14 81 35 82 32 83 34 84 36 85 33 86
REMARK SMILES IDX 15 87 16 88 17 89 18 90 31 91 19 92 30 93 20 94 21 96 22 97
REMARK SMILES IDX 23 98 24 99 25 100 29 101 26 102 28 103 27 104
REMARK H PARENT 3 8 93 26 61 37 10 78 20 95
REMARK Flexibility Score: inf
ROOT
ATOM      1  C   UNL A   1      32.290  30.106  27.205  1.00  0.00     0.002 C 
ENDROOT
BRANCH   1   2
ATOM      2  C   UNL A   1      31.638  31.037  26.177  1.00  0.00     0.002 C 
BRANCH   2   3
ATOM      3  C   UNL A   1      31.423  32.472  26.656  1.00  0.00     0.021 C 
BRANCH   3   4
ATOM      4  C   UNL A   1      32.602  33.064  27.417  1.00  0.00     0.116 C 
BRANCH   4   5
ATOM      5  N   UNL A   1      32.396  34.461  27.765  1.00  0.00    -0.352 N 
ATOM      6  O   UNL A   1      32.595  36.332  29.017  1.00  0.00    -0.269 OA
ATOM      7  C   UNL A   1      32.999  35.203  28.750  1.00  0.00     0.251 C 
ATOM      8  H   UNL A   1      31.733  34.940  27.217  1.00  0.00     0.163 HD
BRANCH   7   9
ATOM      9  C   UNL A   1      34.121  34.619  29.514  1.00  0.00     0.039 A 
ATOM     10  C   UNL A   1      35.414  34.628  28.988  1.00  0.00     0.014 A 
ATOM     11  C   UNL A   1      33.869  34.034  30.756  1.00  0.00     0.014 A 
ATOM     12  C   UNL A   1      36.419  33.911  29.625  1.00  0.00     0.010 A 
ATOM     13  C   UNL A   1      34.904  33.391  31.442  1.00  0.00     0.010 A 
ATOM     14  C   UNL A   1      36.177  33.287  30.860  1.00  0.00    -0.014 A 
BRANCH  14  15
ATOM     15  C   UNL A   1      37.284  32.555  31.527  1.00  0.00     0.031 A 
ATOM     16  C   UNL A   1      38.025  31.452  30.821  1.00  0.00     0.074 A 
ATOM     17  C   UNL A   1      37.651  32.928  32.768  1.00  0.00     0.049 A 
ATOM     18  N   UNL A   1      39.050  30.749  31.237  1.00  0.00    -0.248 NA
ATOM     19  C   UNL A   1      37.553  31.081  29.479  1.00  0.00     0.031 C 
ATOM     20  C   UNL A   1      36.997  33.974  33.558  1.00  0.00     0.029 A 
ATOM     21  N   UNL A   1      38.673  32.494  33.572  1.00  0.00    -0.354 N 
ATOM     22  C   UNL A   1      39.325  29.840  30.224  1.00  0.00     0.074 A 
ATOM     23  C   UNL A   1      38.347  30.064  29.180  1.00  0.00     0.031 C 
ATOM     24  C   UNL A   1      37.668  34.141  34.707  1.00  0.00     0.029 A 
ATOM     25  C   UNL A   1      38.763  33.178  34.759  1.00  0.00     0.049 A 
ATOM     26  H   UNL A   1      39.284  31.765  33.322  1.00  0.00     0.167 HD
ATOM     27  C   UNL A   1      40.310  28.911  30.169  1.00  0.00     0.037 A 
ATOM     28  C   UNL A   1      39.628  33.044  35.780  1.00  0.00     0.037 A 
ATOM     29  C   UNL A   1      41.300  28.712  31.197  1.00  0.00     0.049 A 
ATOM     30  C   UNL A   1      40.711  32.009  35.687  1.00  0.00     0.074 A 
ATOM     31  C   UNL A   1      42.363  27.827  31.213  1.00  0.00     0.029 A 
ATOM     32  N   UNL A   1      41.344  29.410  32.396  1.00  0.00    -0.354 N 
ATOM     33  N   UNL A   1      40.986  31.184  34.706  1.00  0.00    -0.248 NA
ATOM     34  C   UNL A   1      41.606  31.885  36.845  1.00  0.00     0.031 C 
ATOM     35  C   UNL A   1      43.027  27.959  32.438  1.00  0.00     0.029 A 
ATOM     36  C   UNL A   1      42.407  28.961  33.166  1.00  0.00     0.049 A 
ATOM     37  H   UNL A   1      40.715  30.119  32.660  1.00  0.00     0.167 HD
ATOM     38  C   UNL A   1      42.096  30.461  35.117  1.00  0.00     0.074 A 
ATOM     39  C   UNL A   1      42.456  30.958  36.429  1.00  0.00     0.031 C 
ATOM     40  C   UNL A   1      42.756  29.472  34.466  1.00  0.00     0.037 A 
BRANCH  27  41
ATOM     41  C   UNL A   1      40.361  28.019  28.960  1.00  0.00     0.064 A 
ATOM     42  C   UNL A   1      41.117  28.351  27.827  1.00  0.00     0.173 A 
ATOM     43  C   UNL A   1      39.682  26.791  28.958  1.00  0.00     0.173 A 
ATOM     44  F   UNL A   1      41.776  29.519  27.773  1.00  0.00    -0.203 F 
ATOM     45  C   UNL A   1      41.170  27.500  26.726  1.00  0.00     0.198 A 
ATOM     46  C   UNL A   1      39.760  25.930  27.867  1.00  0.00     0.198 A 
ATOM     47  F   UNL A   1      38.950  26.420  30.020  1.00  0.00    -0.203 F 
ATOM     48  F   UNL A   1      41.865  27.857  25.637  1.00  0.00    -0.200 F 
ATOM     49  C   UNL A   1      40.498  26.286  26.750  1.00  0.00     0.200 A 
ATOM     50  F   UNL A   1      39.120  24.752  27.897  1.00  0.00    -0.200 F 
ATOM     51  F   UNL A   1      40.558  25.464  25.693  1.00  0.00    -0.200 F 
ENDBRANCH  27  41
BRANCH  28  52
ATOM     52  C   UNL A   1      39.511  33.927  36.968  1.00  0.00     0.064 A 
ATOM     53  C   UNL A   1      40.106  35.196  36.982  1.00  0.00     0.173 A 
ATOM     54  C   UNL A   1      38.790  33.529  38.103  1.00  0.00     0.173 A 
ATOM     55  F   UNL A   1      40.820  35.613  35.926  1.00  0.00    -0.203 F 
ATOM     56  C   UNL A   1      39.999  36.026  38.095  1.00  0.00     0.198 A 
ATOM     57  C   UNL A   1      38.659  34.373  39.203  1.00  0.00     0.198 A 
ATOM     58  F   UNL A   1      38.195  32.328  38.135  1.00  0.00    -0.203 F 
ATOM     59  F   UNL A   1      40.612  37.218  38.100  1.00  0.00    -0.200 F 
ATOM     60  C   UNL A   1      39.270  35.618  39.201  1.00  0.00     0.200 A 
ATOM     61  F   UNL A   1      37.939  33.981  40.263  1.00  0.00    -0.200 F 
ATOM     62  F   UNL A   1      39.160  36.421  40.268  1.00  0.00    -0.200 F 
ENDBRANCH  28  52
BRANCH  40  63
ATOM     63  C   UNL A   1      43.959  28.892  35.151  1.00  0.00     0.064 A 
ATOM     64  C   UNL A   1      43.858  27.782  36.003  1.00  0.00     0.173 A 
ATOM     65  C   UNL A   1      45.230  29.447  34.938  1.00  0.00     0.173 A 
ATOM     66  F   UNL A   1      42.662  27.229  36.251  1.00  0.00    -0.203 F 
ATOM     67  C   UNL A   1      44.983  27.268  36.643  1.00  0.00     0.198 A 
ATOM     68  C   UNL A   1      46.356  28.912  35.558  1.00  0.00     0.198 A 
ATOM     69  F   UNL A   1      45.380  30.505  34.129  1.00  0.00    -0.203 F 
ATOM     70  F   UNL A   1      44.855  26.242  37.495  1.00  0.00    -0.200 F 
ATOM     71  C   UNL A   1      46.230  27.830  36.415  1.00  0.00     0.200 A 
ATOM     72  F   UNL A   1      47.563  29.448  35.329  1.00  0.00    -0.200 F 
ATOM     73  F   UNL A   1      47.312  27.334  37.033  1.00  0.00    -0.200 F 
ENDBRANCH  40  63
ENDBRANCH  14  15
ENDBRANCH   7   9
ENDBRANCH   4   5
ENDBRANCH   3   4
ENDBRANCH   2   3
ENDBRANCH   1   2
BRANCH   1  74
ATOM     74  C   UNL A   1      33.801  29.906  27.028  1.00  0.00     0.021 C 
BRANCH  74  75
ATOM     75  C   UNL A   1      34.167  28.670  26.207  1.00  0.00     0.116 C 
BRANCH  75  76
ATOM     76  N   UNL A   1      34.278  29.010  24.801  1.00  0.00    -0.356 N 
ATOM     77  C   UNL A   1      33.772  28.371  23.708  1.00  0.00     0.224 C 
ATOM     78  H   UNL A   1      34.797  29.824  24.606  1.00  0.00     0.163 HD
ATOM     79  O   UNL A   1      34.147  28.728  22.594  1.00  0.00    -0.275 OA
BRANCH  77  80
ATOM     80  C   UNL A   1      32.729  27.304  23.940  1.00  0.00     0.098 C 
ATOM     81  C   UNL A   1      32.329  26.479  22.683  1.00  0.00     0.098 C 
ATOM     82  C   UNL A   1      31.386  27.948  24.381  1.00  0.00     0.025 C 
ATOM     83  C   UNL A   1      30.783  26.519  22.761  1.00  0.00     0.025 C 
ATOM     84  C   UNL A   1      30.787  28.770  23.263  1.00  0.00    -0.027 C 
ATOM     85  C   UNL A   1      30.466  26.740  24.251  1.00  0.00     0.017 C 
ATOM     86  C   UNL A   1      30.402  27.917  22.299  1.00  0.00    -0.027 C 
BRANCH  81  87
ATOM     87  C   UNL A   1      33.049  25.131  22.606  1.00  0.00     0.227 C 
ATOM     88  O   UNL A   1      33.247  24.596  21.513  1.00  0.00    -0.275 OA
ATOM     89  N   UNL A   1      33.621  24.614  23.750  1.00  0.00    -0.331 N 
ATOM     90  C   UNL A   1      34.928  23.967  23.636  1.00  0.00     0.181 C 
ATOM     91  C   UNL A   1      32.821  24.122  24.860  1.00  0.00     0.181 C 
ATOM     92  C   UNL A   1      35.695  23.979  24.975  1.00  0.00     0.284 C 
ATOM     93  C   UNL A   1      33.592  24.237  26.188  1.00  0.00     0.284 C 
ATOM     94  N   UNL A   1      34.930  23.617  26.186  1.00  0.00    -0.329 N 
ATOM     95  H   UNL A   1      35.429  24.028  26.975  1.00  0.00     0.348 HD
BRANCH  94  96
ATOM     96  C   UNL A   1      34.951  22.186  26.512  1.00  0.00     0.291 C 
BRANCH  96  97
ATOM     97  C   UNL A   1      34.382  21.272  25.471  1.00  0.00     0.034 C 
ATOM     98  C   UNL A   1      33.886  20.050  25.715  1.00  0.00     0.009 C 
BRANCH  98  99
ATOM     99  C   UNL A   1      33.564  19.122  24.627  1.00  0.00    -0.026 A 
ATOM    100  C   UNL A   1      34.318  17.964  24.433  1.00  0.00     0.008 A 
ATOM    101  C   UNL A   1      32.533  19.423  23.726  1.00  0.00     0.008 A 
ATOM    102  C   UNL A   1      34.043  17.124  23.348  1.00  0.00     0.001 A 
ATOM    103  C   UNL A   1      32.261  18.588  22.643  1.00  0.00     0.001 A 
ATOM    104  C   UNL A   1      33.020  17.439  22.454  1.00  0.00     0.000 A 
ENDBRANCH  98  99
ENDBRANCH  96  97
ENDBRANCH  94  96
ENDBRANCH  81  87
ENDBRANCH  77  80
ENDBRANCH  75  76
ENDBRANCH  74  75
ENDBRANCH   1  74
TORSDOF 17
ENDMDL
MODEL 3
REMARK VINA RESULT:     -13.2      2.213      7.602
REMARK SMILES O=C(NCCCCCCNC(=O)[C@@H]1[C@@H](C(=O)N2CC[NH+](C/C=C/c3ccccc3)CC2)[C@@H]2C=C[C@H]1C2)c1ccc(-c2c3nc(c(-c4c(F)c(F)c(F)c(F)c4F)c4ccc([nH]4)c(-c4c(F)c(F)c(F)c(F)c4F)c4nc(c(-c5c(F)c(F)c(F)c(F)c5F)c5ccc2[nH]5)C=C4)C=C3)cc1
REMARK SMILES IDX 7 1 6 2 5 3 4 4 3 5 1 6 2 7 37 9 38 10 99 11 39 12 98 13
REMARK SMILES IDX 40 14 41 15 42 16 92 17 43 18 97 19 91 20 93 21 44 22 96 23
REMARK SMILES IDX 90 24 89 25 45 27 77 28 57 29 76 30 58 31 61 32 75 33 94 34
REMARK SMILES IDX 59 35 60 36 74 38 95 39 62 40 46 41 47 42 55 43 48 44 49 45
REMARK SMILES IDX 53 46 56 47 50 48 51 49 54 50 52 51 78 52 79 53 87 54 80 55
REMARK SMILES IDX 81 56 85 57 88 58 82 59 83 60 86 61 84 62 63 63 64 64 72 65
REMARK SMILES IDX 65 66 66 67 70 68 73 69 67 70 68 71 71 72 69 73 8 74 9 75
REMARK SMILES IDX 10 76 11 77 12 79 13 80 14 81 35 82 32 83 34 84 36 85 33 86
REMARK SMILES IDX 15 87 16 88 17 89 18 90 31 91 19 92 30 93 20 94 21 96 22 97
REMARK SMILES IDX 23 98 24 99 25 100 29 101 26 102 28 103 27 104
REMARK H PARENT 3 8 93 26 61 37 10 78 20 95
REMARK Flexibility Score: inf
ROOT
ATOM      1  C   UNL A   1      32.576  30.078  27.228  1.00  0.00     0.002 C 
ENDROOT
BRANCH   1   2
ATOM      2  C   UNL A   1      31.587  30.815  26.319  1.00  0.00     0.002 C 
BRANCH   2   3
ATOM      3  C   UNL A   1      31.420  32.303  26.626  1.00  0.00     0.021 C 
BRANCH   3   4
ATOM      4  C   UNL A   1      32.639  32.953  27.267  1.00  0.00     0.116 C 
BRANCH   4   5
ATOM      5  N   UNL A   1      32.404  34.341  27.631  1.00  0.00    -0.352 N 
ATOM      6  O   UNL A   1      32.542  36.193  28.919  1.00  0.00    -0.269 OA
ATOM      7  C   UNL A   1      32.968  35.075  28.645  1.00  0.00     0.251 C 
ATOM      8  H   UNL A   1      31.748  34.819  27.075  1.00  0.00     0.163 HD
BRANCH   7   9
ATOM      9  C   UNL A   1      34.079  34.495  29.428  1.00  0.00     0.039 A 
ATOM     10  C   UNL A   1      35.396  34.610  28.980  1.00  0.00     0.014 A 
ATOM     11  C   UNL A   1      33.794  33.806  30.609  1.00  0.00     0.014 A 
ATOM     12  C   UNL A   1      36.404  33.901  29.621  1.00  0.00     0.010 A 
ATOM     13  C   UNL A   1      34.824  33.168  31.305  1.00  0.00     0.010 A 
ATOM     14  C   UNL A   1      36.131  33.174  30.792  1.00  0.00    -0.014 A 
BRANCH  14  15
ATOM     15  C   UNL A   1      37.239  32.453  31.468  1.00  0.00     0.031 A 
ATOM     16  C   UNL A   1      37.970  31.331  30.783  1.00  0.00     0.074 A 
ATOM     17  C   UNL A   1      37.617  32.853  32.697  1.00  0.00     0.049 A 
ATOM     18  N   UNL A   1      38.995  30.633  31.207  1.00  0.00    -0.248 NA
ATOM     19  C   UNL A   1      37.486  30.931  29.453  1.00  0.00     0.031 C 
ATOM     20  C   UNL A   1      36.974  33.920  33.468  1.00  0.00     0.029 A 
ATOM     21  N   UNL A   1      38.644  32.434  33.504  1.00  0.00    -0.354 N 
ATOM     22  C   UNL A   1      39.259  29.699  30.214  1.00  0.00     0.074 A 
ATOM     23  C   UNL A   1      38.274  29.903  29.173  1.00  0.00     0.031 C 
ATOM     24  C   UNL A   1      37.654  34.112  34.607  1.00  0.00     0.029 A 
ATOM     25  C   UNL A   1      38.745  33.145  34.674  1.00  0.00     0.049 A 
ATOM     26  H   UNL A   1      39.249  31.696  33.266  1.00  0.00     0.167 HD
ATOM     27  C   UNL A   1      40.239  28.765  30.173  1.00  0.00     0.037 A 
ATOM     28  C   UNL A   1      39.617  33.030  35.691  1.00  0.00     0.037 A 
ATOM     29  C   UNL A   1      41.236  28.585  31.199  1.00  0.00     0.049 A 
ATOM     30  C   UNL A   1      40.695  31.989  35.614  1.00  0.00     0.074 A 
ATOM     31  C   UNL A   1      42.295  27.696  31.228  1.00  0.00     0.029 A 
ATOM     32  N   UNL A   1      41.292  29.310  32.380  1.00  0.00    -0.354 N 
ATOM     33  N   UNL A   1      40.959  31.140  34.651  1.00  0.00    -0.248 NA
ATOM     34  C   UNL A   1      41.597  31.888  36.769  1.00  0.00     0.031 C 
ATOM     35  C   UNL A   1      42.969  27.853  32.444  1.00  0.00     0.029 A 
ATOM     36  C   UNL A   1      42.359  28.875  33.153  1.00  0.00     0.049 A 
ATOM     37  H   UNL A   1      40.668  30.028  32.633  1.00  0.00     0.167 HD
ATOM     38  C   UNL A   1      42.069  30.421  35.071  1.00  0.00     0.074 A 
ATOM     39  C   UNL A   1      42.441  30.947  36.368  1.00  0.00     0.031 C 
ATOM     40  C   UNL A   1      42.719  29.414  34.438  1.00  0.00     0.037 A 
BRANCH  27  41
ATOM     41  C   UNL A   1      40.277  27.844  28.986  1.00  0.00     0.064 A 
ATOM     42  C   UNL A   1      41.026  28.147  27.840  1.00  0.00     0.173 A 
ATOM     43  C   UNL A   1      39.593  26.620  29.017  1.00  0.00     0.173 A 
ATOM     44  F   UNL A   1      41.689  29.310  27.753  1.00  0.00    -0.203 F 
ATOM     45  C   UNL A   1      41.067  27.269  26.758  1.00  0.00     0.198 A 
ATOM     46  C   UNL A   1      39.658  25.732  27.946  1.00  0.00     0.198 A 
ATOM     47  F   UNL A   1      38.867  26.277  30.093  1.00  0.00    -0.203 F 
ATOM     48  F   UNL A   1      41.755  27.598  25.656  1.00  0.00    -0.200 F 
ATOM     49  C   UNL A   1      40.390  26.060  26.815  1.00  0.00     0.200 A 
ATOM     50  F   UNL A   1      39.013  24.558  28.009  1.00  0.00    -0.200 F 
ATOM     51  F   UNL A   1      40.438  25.213  25.778  1.00  0.00    -0.200 F 
ENDBRANCH  27  41
BRANCH  28  52
ATOM     52  C   UNL A   1      39.513  33.942  36.858  1.00  0.00     0.064 A 
ATOM     53  C   UNL A   1      40.127  35.202  36.845  1.00  0.00     0.173 A 
ATOM     54  C   UNL A   1      38.785  33.580  38.002  1.00  0.00     0.173 A 
ATOM     55  F   UNL A   1      40.847  35.584  35.780  1.00  0.00    -0.203 F 
ATOM     56  C   UNL A   1      40.033  36.058  37.939  1.00  0.00     0.198 A 
ATOM     57  C   UNL A   1      38.667  34.451  39.083  1.00  0.00     0.198 A 
ATOM     58  F   UNL A   1      38.173  32.389  38.061  1.00  0.00    -0.203 F 
ATOM     59  F   UNL A   1      40.663  37.240  37.917  1.00  0.00    -0.200 F 
ATOM     60  C   UNL A   1      39.296  35.686  39.053  1.00  0.00     0.200 A 
ATOM     61  F   UNL A   1      37.940  34.093  40.151  1.00  0.00    -0.200 F 
ATOM     62  F   UNL A   1      39.198  36.514  40.102  1.00  0.00    -0.200 F 
ENDBRANCH  28  52
BRANCH  40  63
ATOM     63  C   UNL A   1      43.925  28.845  35.127  1.00  0.00     0.064 A 
ATOM     64  C   UNL A   1      45.207  29.378  34.927  1.00  0.00     0.173 A 
ATOM     65  C   UNL A   1      43.791  27.763  36.010  1.00  0.00     0.173 A 
ATOM     66  F   UNL A   1      45.389  30.401  34.079  1.00  0.00    -0.203 F 
ATOM     67  C   UNL A   1      46.317  28.826  35.562  1.00  0.00     0.198 A 
ATOM     68  C   UNL A   1      44.899  27.233  36.665  1.00  0.00     0.198 A 
ATOM     69  F   UNL A   1      42.586  27.222  36.239  1.00  0.00    -0.203 F 
ATOM     70  F   UNL A   1      47.540  29.315  35.314  1.00  0.00    -0.200 F 
ATOM     71  C   UNL A   1      46.161  27.759  36.434  1.00  0.00     0.200 A 
ATOM     72  F   UNL A   1      44.746  26.209  37.516  1.00  0.00    -0.200 F 
ATOM     73  F   UNL A   1      47.231  27.228  37.044  1.00  0.00    -0.200 F 
ENDBRANCH  40  63
ENDBRANCH  14  15
ENDBRANCH   7   9
ENDBRANCH   4   5
ENDBRANCH   3   4
ENDBRANCH   2   3
ENDBRANCH   1   2
BRANCH   1  74
ATOM     74  C   UNL A   1      33.730  29.381  26.496  1.00  0.00     0.021 C 
BRANCH  74  75
ATOM     75  C   UNL A   1      33.617  27.857  26.476  1.00  0.00     0.116 C 
BRANCH  75  76
ATOM     76  N   UNL A   1      33.846  27.348  25.137  1.00  0.00    -0.356 N 
ATOM     77  C   UNL A   1      33.536  26.133  24.603  1.00  0.00     0.224 C 
ATOM     78  H   UNL A   1      34.290  27.975  24.520  1.00  0.00     0.163 HD
ATOM     79  O   UNL A   1      33.991  25.845  23.498  1.00  0.00    -0.275 OA
BRANCH  77  80
ATOM     80  C   UNL A   1      32.598  25.243  25.381  1.00  0.00     0.098 C 
ATOM     81  C   UNL A   1      32.680  23.727  25.039  1.00  0.00     0.098 C 
ATOM     82  C   UNL A   1      31.121  25.598  25.055  1.00  0.00     0.025 C 
ATOM     83  C   UNL A   1      31.185  23.365  24.861  1.00  0.00     0.025 C 
ATOM     84  C   UNL A   1      30.789  25.266  23.618  1.00  0.00    -0.027 C 
ATOM     85  C   UNL A   1      30.421  24.407  25.698  1.00  0.00     0.017 C 
ATOM     86  C   UNL A   1      30.803  23.929  23.501  1.00  0.00    -0.027 C 
BRANCH  81  87
ATOM     87  C   UNL A   1      33.537  22.941  26.034  1.00  0.00     0.227 C 
ATOM     88  O   UNL A   1      33.006  22.352  26.978  1.00  0.00    -0.275 OA
ATOM     89  N   UNL A   1      34.876  22.758  25.761  1.00  0.00    -0.331 N 
ATOM     90  C   UNL A   1      35.467  21.452  26.051  1.00  0.00     0.181 C 
ATOM     91  C   UNL A   1      35.831  23.854  25.807  1.00  0.00     0.181 C 
ATOM     92  C   UNL A   1      36.723  21.185  25.194  1.00  0.00     0.284 C 
ATOM     93  C   UNL A   1      37.023  23.587  24.869  1.00  0.00     0.284 C 
ATOM     94  N   UNL A   1      37.696  22.291  25.073  1.00  0.00    -0.329 N 
ATOM     95  H   UNL A   1      38.227  22.115  24.220  1.00  0.00     0.348 HD
BRANCH  94  96
ATOM     96  C   UNL A   1      38.744  22.292  26.100  1.00  0.00     0.291 C 
BRANCH  96  97
ATOM     97  C   UNL A   1      39.889  21.355  25.864  1.00  0.00     0.034 C 
ATOM     98  C   UNL A   1      40.988  21.282  26.630  1.00  0.00     0.009 C 
BRANCH  98  99
ATOM     99  C   UNL A   1      42.165  20.517  26.212  1.00  0.00    -0.026 A 
ATOM    100  C   UNL A   1      43.258  21.155  25.625  1.00  0.00     0.008 A 
ATOM    101  C   UNL A   1      42.178  19.120  26.335  1.00  0.00     0.008 A 
ATOM    102  C   UNL A   1      44.345  20.402  25.167  1.00  0.00     0.001 A 
ATOM    103  C   UNL A   1      43.258  18.369  25.876  1.00  0.00     0.001 A 
ATOM    104  C   UNL A   1      44.342  19.013  25.288  1.00  0.00     0.000 A 
ENDBRANCH  98  99
ENDBRANCH  96  97
ENDBRANCH  94  96
ENDBRANCH  81  87
ENDBRANCH  77  80
ENDBRANCH  75  76
ENDBRANCH  74  75
ENDBRANCH   1  74
TORSDOF 17
ENDMDL
