MODEL 1
REMARK VINA RESULT:     -12.0      0.000      0.000
REMARK SMILES COc1ccc(/C(=C/C(=O)NCCCCCCNC(=O)c2ccc(-c3c4nc(c(-c5c(F)c(F)c(F)c(F)c5F)c5ccc([nH]5)c(-c5c(F)c(F)c(F)c(F)c5F)c5nc(c(-c6c(F)c(F)c(F)c(F)c6F)c6ccc3[nH]6)C=C5)C=C4)cc2)C(C)C)cc1C
REMARK SMILES IDX 14 1 13 2 12 3 11 4 9 5 10 6 8 8 7 9 6 10 3 11 4 12 88 13
REMARK SMILES IDX 5 14 87 15 89 16 2 17 1 18 84 19 85 20 86 21 15 22 16 23
REMARK SMILES IDX 17 24 18 25 19 26 20 28 21 29 22 30 83 31 23 32 82 33 24 34
REMARK SMILES IDX 25 35 26 36 76 37 27 38 81 39 75 40 77 41 28 42 80 43 74 44
REMARK SMILES IDX 73 45 29 47 61 48 41 49 60 50 42 51 45 52 59 53 78 54 43 55
REMARK SMILES IDX 44 56 58 58 79 59 46 60 30 61 31 62 39 63 32 64 33 65 37 66
REMARK SMILES IDX 40 67 34 68 35 69 38 70 36 71 62 72 63 73 71 74 64 75 65 76
REMARK SMILES IDX 69 77 72 78 66 79 67 80 70 81 68 82 47 83 48 84 56 85 49 86
REMARK SMILES IDX 50 87 54 88 57 89 51 90 52 91 55 92 53 93
REMARK H PARENT 11 7 18 27 77 46 45 57
REMARK Flexibility Score: inf
ROOT
ATOM      1  C   UNL A   1      37.448  20.399  25.034  1.00  0.00     0.002 C 
ENDROOT
BRANCH   1   2
ATOM      2  C   UNL A   1      35.912  20.379  24.986  1.00  0.00     0.021 C 
BRANCH   2   3
ATOM      3  C   UNL A   1      35.201  21.722  25.243  1.00  0.00     0.116 C 
BRANCH   3   4
ATOM      4  N   UNL A   1      34.821  22.393  24.005  1.00  0.00    -0.353 N 
ATOM      5  C   UNL A   1      34.359  23.590  23.595  1.00  0.00     0.244 C 
ATOM      6  O   UNL A   1      34.374  23.751  22.365  1.00  0.00    -0.270 OA
ATOM      7  H   UNL A   1      34.936  21.788  23.237  1.00  0.00     0.163 HD
BRANCH   5   8
ATOM      8  C   UNL A   1      33.853  24.763  24.381  1.00  0.00     0.075 C 
ATOM      9  C   UNL A   1      32.685  25.225  24.895  1.00  0.00    -0.033 C 
BRANCH   9  10
ATOM     10  C   UNL A   1      32.595  26.645  25.439  1.00  0.00    -0.021 A 
ATOM     11  C   UNL A   1      32.427  29.371  26.354  1.00  0.00     0.121 A 
ATOM     12  C   UNL A   1      31.392  28.791  25.634  1.00  0.00     0.047 A 
ATOM     13  C   UNL A   1      33.572  28.610  26.609  1.00  0.00    -0.008 A 
ATOM     14  C   UNL A   1      31.476  27.459  25.204  1.00  0.00     0.012 A 
ATOM     15  C   UNL A   1      33.644  27.270  26.145  1.00  0.00     0.015 A 
ATOM     16  C   UNL A   1      34.736  29.163  27.389  1.00  0.00     0.048 C 
BRANCH  11  17
ATOM     17  O   UNL A   1      32.414  30.663  26.804  1.00  0.00    -0.496 OA
ATOM     18  C   UNL A   1      31.382  31.503  26.299  1.00  0.00     0.278 C 
ENDBRANCH  11  17
ENDBRANCH   9  10
BRANCH   9  19
ATOM     19  C   UNL A   1      31.443  24.357  24.916  1.00  0.00     0.014 C 
ATOM     20  C   UNL A   1      30.843  24.152  23.516  1.00  0.00     0.012 C 
ATOM     21  C   UNL A   1      31.482  23.079  25.759  1.00  0.00     0.012 C 
ENDBRANCH   9  19
ENDBRANCH   5   8
ENDBRANCH   3   4
ENDBRANCH   2   3
ENDBRANCH   1   2
BRANCH   1  22
ATOM     22  C   UNL A   1      38.121  21.731  25.397  1.00  0.00     0.002 C 
BRANCH  22  23
ATOM     23  C   UNL A   1      39.432  21.631  26.178  1.00  0.00     0.021 C 
BRANCH  23  24
ATOM     24  C   UNL A   1      39.942  22.962  26.713  1.00  0.00     0.116 C 
BRANCH  24  25
ATOM     25  N   UNL A   1      41.168  23.437  26.077  1.00  0.00    -0.352 N 
ATOM     26  C   UNL A   1      41.614  24.740  25.919  1.00  0.00     0.251 C 
ATOM     27  H   UNL A   1      41.757  22.737  25.712  1.00  0.00     0.163 HD
ATOM     28  O   UNL A   1      42.656  24.988  25.338  1.00  0.00    -0.269 OA
BRANCH  26  29
ATOM     29  C   UNL A   1      40.848  25.823  26.577  1.00  0.00     0.039 A 
ATOM     30  C   UNL A   1      40.983  27.121  26.076  1.00  0.00     0.014 A 
ATOM     31  C   UNL A   1      40.229  25.595  27.804  1.00  0.00     0.014 A 
ATOM     32  C   UNL A   1      40.732  28.202  26.917  1.00  0.00     0.010 A 
ATOM     33  C   UNL A   1      40.061  26.660  28.668  1.00  0.00     0.010 A 
ATOM     34  C   UNL A   1      40.380  27.955  28.246  1.00  0.00    -0.014 A 
BRANCH  34  35
ATOM     35  C   UNL A   1      40.418  28.987  29.274  1.00  0.00     0.031 A 
ATOM     36  C   UNL A   1      39.311  29.955  29.397  1.00  0.00     0.074 A 
ATOM     37  C   UNL A   1      41.461  29.065  30.131  1.00  0.00     0.049 A 
ATOM     38  N   UNL A   1      39.469  31.181  29.773  1.00  0.00    -0.248 NA
ATOM     39  C   UNL A   1      37.929  29.616  29.075  1.00  0.00     0.031 C 
ATOM     40  C   UNL A   1      41.554  29.906  31.322  1.00  0.00     0.029 A 
ATOM     41  N   UNL A   1      42.745  28.516  29.989  1.00  0.00    -0.354 N 
ATOM     42  C   UNL A   1      38.219  31.705  29.988  1.00  0.00     0.074 A 
ATOM     43  C   UNL A   1      37.291  30.719  29.479  1.00  0.00     0.031 C 
ATOM     44  C   UNL A   1      42.847  30.064  31.642  1.00  0.00     0.029 A 
ATOM     45  C   UNL A   1      43.635  29.429  30.603  1.00  0.00     0.049 A 
ATOM     46  H   UNL A   1      42.978  27.665  29.551  1.00  0.00     0.167 HD
ATOM     47  C   UNL A   1      38.071  32.857  30.699  1.00  0.00     0.037 A 
ATOM     48  C   UNL A   1      44.648  30.021  29.907  1.00  0.00     0.037 A 
ATOM     49  C   UNL A   1      39.347  33.394  31.152  1.00  0.00     0.049 A 
ATOM     50  C   UNL A   1      44.550  31.525  29.842  1.00  0.00     0.074 A 
ATOM     51  C   UNL A   1      40.038  33.260  32.345  1.00  0.00     0.029 A 
ATOM     52  N   UNL A   1      40.257  33.896  30.226  1.00  0.00    -0.354 N 
ATOM     53  N   UNL A   1      43.483  32.194  30.177  1.00  0.00    -0.248 NA
ATOM     54  C   UNL A   1      45.614  32.388  29.330  1.00  0.00     0.031 C 
ATOM     55  C   UNL A   1      41.387  33.619  32.118  1.00  0.00     0.029 A 
ATOM     56  C   UNL A   1      41.516  33.995  30.792  1.00  0.00     0.049 A 
ATOM     57  H   UNL A   1      40.037  34.144  29.299  1.00  0.00     0.167 HD
ATOM     58  C   UNL A   1      43.664  33.516  29.872  1.00  0.00     0.074 A 
ATOM     59  C   UNL A   1      45.025  33.595  29.379  1.00  0.00     0.031 C 
ATOM     60  C   UNL A   1      42.665  34.433  30.018  1.00  0.00     0.037 A 
BRANCH  47  61
ATOM     61  C   UNL A   1      36.724  33.268  31.226  1.00  0.00     0.064 A 
ATOM     62  C   UNL A   1      35.766  33.886  30.399  1.00  0.00     0.173 A 
ATOM     63  C   UNL A   1      36.365  33.137  32.579  1.00  0.00     0.173 A 
ATOM     64  F   UNL A   1      35.957  34.016  29.081  1.00  0.00    -0.203 F 
ATOM     65  C   UNL A   1      34.582  34.423  30.909  1.00  0.00     0.198 A 
ATOM     66  C   UNL A   1      35.205  33.719  33.098  1.00  0.00     0.198 A 
ATOM     67  F   UNL A   1      37.146  32.453  33.430  1.00  0.00    -0.203 F 
ATOM     68  F   UNL A   1      33.711  35.019  30.080  1.00  0.00    -0.200 F 
ATOM     69  C   UNL A   1      34.318  34.372  32.264  1.00  0.00     0.200 A 
ATOM     70  F   UNL A   1      34.964  33.666  34.416  1.00  0.00    -0.200 F 
ATOM     71  F   UNL A   1      33.215  34.947  32.760  1.00  0.00    -0.200 F 
ENDBRANCH  47  61
BRANCH  48  72
ATOM     72  C   UNL A   1      45.175  29.150  28.825  1.00  0.00     0.064 A 
ATOM     73  C   UNL A   1      45.994  28.070  29.207  1.00  0.00     0.173 A 
ATOM     74  C   UNL A   1      44.540  29.082  27.580  1.00  0.00     0.173 A 
ATOM     75  F   UNL A   1      46.639  28.103  30.385  1.00  0.00    -0.203 F 
ATOM     76  C   UNL A   1      46.026  26.896  28.462  1.00  0.00     0.198 A 
ATOM     77  C   UNL A   1      44.600  27.913  26.821  1.00  0.00     0.198 A 
ATOM     78  F   UNL A   1      43.758  30.086  27.161  1.00  0.00    -0.203 F 
ATOM     79  F   UNL A   1      46.681  25.825  28.933  1.00  0.00    -0.200 F 
ATOM     80  C   UNL A   1      45.295  26.804  27.290  1.00  0.00     0.200 A 
ATOM     81  F   UNL A   1      43.900  27.824  25.682  1.00  0.00    -0.200 F 
ATOM     82  F   UNL A   1      45.223  25.637  26.637  1.00  0.00    -0.200 F 
ENDBRANCH  48  72
BRANCH  60  83
ATOM     83  C   UNL A   1      42.738  35.851  29.534  1.00  0.00     0.064 A 
ATOM     84  C   UNL A   1      43.490  36.848  30.177  1.00  0.00     0.173 A 
ATOM     85  C   UNL A   1      42.130  36.222  28.316  1.00  0.00     0.173 A 
ATOM     86  F   UNL A   1      44.205  36.575  31.278  1.00  0.00    -0.203 F 
ATOM     87  C   UNL A   1      43.561  38.150  29.678  1.00  0.00     0.198 A 
ATOM     88  C   UNL A   1      42.243  37.509  27.794  1.00  0.00     0.198 A 
ATOM     89  F   UNL A   1      41.422  35.338  27.596  1.00  0.00    -0.203 F 
ATOM     90  F   UNL A   1      44.249  39.083  30.352  1.00  0.00    -0.200 F 
ATOM     91  C   UNL A   1      42.942  38.478  28.486  1.00  0.00     0.200 A 
ATOM     92  F   UNL A   1      41.680  37.801  26.612  1.00  0.00    -0.200 F 
ATOM     93  F   UNL A   1      43.035  39.722  27.996  1.00  0.00    -0.200 F 
ENDBRANCH  60  83
ENDBRANCH  34  35
ENDBRANCH  26  29
ENDBRANCH  24  25
ENDBRANCH  23  24
ENDBRANCH  22  23
ENDBRANCH   1  22
TORSDOF 16
ENDMDL
MODEL 2
REMARK VINA RESULT:     -11.4      1.455      2.184
REMARK SMILES COc1ccc(/C(=C/C(=O)NCCCCCCNC(=O)c2ccc(-c3c4nc(c(-c5c(F)c(F)c(F)c(F)c5F)c5ccc([nH]5)c(-c5c(F)c(F)c(F)c(F)c5F)c5nc(c(-c6c(F)c(F)c(F)c(F)c6F)c6ccc3[nH]6)C=C5)C=C4)cc2)C(C)C)cc1C
REMARK SMILES IDX 14 1 13 2 12 3 11 4 9 5 10 6 8 8 7 9 6 10 3 11 4 12 88 13
REMARK SMILES IDX 5 14 87 15 89 16 2 17 1 18 84 19 85 20 86 21 15 22 16 23
REMARK SMILES IDX 17 24 18 25 19 26 20 28 21 29 22 30 83 31 23 32 82 33 24 34
REMARK SMILES IDX 25 35 26 36 76 37 27 38 81 39 75 40 77 41 28 42 80 43 74 44
REMARK SMILES IDX 73 45 29 47 61 48 41 49 60 50 42 51 45 52 59 53 78 54 43 55
REMARK SMILES IDX 44 56 58 58 79 59 46 60 30 61 31 62 39 63 32 64 33 65 37 66
REMARK SMILES IDX 40 67 34 68 35 69 38 70 36 71 62 72 63 73 71 74 64 75 65 76
REMARK SMILES IDX 69 77 72 78 66 79 67 80 70 81 68 82 47 83 48 84 56 85 49 86
REMARK SMILES IDX 50 87 54 88 57 89 51 90 52 91 55 92 53 93
REMARK H PARENT 11 7 18 27 77 46 45 57
REMARK Flexibility Score: inf
ROOT
ATOM      1  C   UNL A   1      37.219  20.599  24.799  1.00  0.00     0.002 C 
ENDROOT
BRANCH   1   2
ATOM      2  C   UNL A   1      35.699  20.547  25.014  1.00  0.00     0.021 C 
BRANCH   2   3
ATOM      3  C   UNL A   1      34.908  21.808  24.617  1.00  0.00     0.116 C 
BRANCH   3   4
ATOM      4  N   UNL A   1      33.705  21.491  23.855  1.00  0.00    -0.353 N 
ATOM      5  C   UNL A   1      32.641  22.122  23.322  1.00  0.00     0.244 C 
ATOM      6  O   UNL A   1      31.955  21.417  22.566  1.00  0.00    -0.270 OA
ATOM      7  H   UNL A   1      33.656  20.525  23.678  1.00  0.00     0.163 HD
BRANCH   5   8
ATOM      8  C   UNL A   1      32.166  23.537  23.475  1.00  0.00     0.075 C 
ATOM      9  C   UNL A   1      31.599  24.331  24.417  1.00  0.00    -0.033 C 
BRANCH   9  10
ATOM     10  C   UNL A   1      31.047  25.699  24.037  1.00  0.00    -0.021 A 
ATOM     11  C   UNL A   1      30.045  28.329  23.422  1.00  0.00     0.121 A 
ATOM     12  C   UNL A   1      31.408  28.080  23.498  1.00  0.00     0.047 A 
ATOM     13  C   UNL A   1      29.159  27.276  23.674  1.00  0.00    -0.008 A 
ATOM     14  C   UNL A   1      31.888  26.793  23.785  1.00  0.00     0.012 A 
ATOM     15  C   UNL A   1      29.667  25.987  23.983  1.00  0.00     0.015 A 
ATOM     16  C   UNL A   1      27.666  27.461  23.605  1.00  0.00     0.048 C 
BRANCH  11  17
ATOM     17  O   UNL A   1      29.506  29.556  23.148  1.00  0.00    -0.496 OA
ATOM     18  C   UNL A   1      29.660  30.035  21.817  1.00  0.00     0.278 C 
ENDBRANCH  11  17
ENDBRANCH   9  10
BRANCH   9  19
ATOM     19  C   UNL A   1      31.475  23.870  25.856  1.00  0.00     0.014 C 
ATOM     20  C   UNL A   1      30.556  22.649  26.007  1.00  0.00     0.012 C 
ATOM     21  C   UNL A   1      32.759  23.778  26.685  1.00  0.00     0.012 C 
ENDBRANCH   9  19
ENDBRANCH   5   8
ENDBRANCH   3   4
ENDBRANCH   2   3
ENDBRANCH   1   2
BRANCH   1  22
ATOM     22  C   UNL A   1      37.971  21.800  25.391  1.00  0.00     0.002 C 
BRANCH  22  23
ATOM     23  C   UNL A   1      39.266  21.481  26.139  1.00  0.00     0.021 C 
BRANCH  23  24
ATOM     24  C   UNL A   1      39.851  22.662  26.903  1.00  0.00     0.116 C 
BRANCH  24  25
ATOM     25  N   UNL A   1      41.127  23.143  26.380  1.00  0.00    -0.352 N 
ATOM     26  C   UNL A   1      41.556  24.451  26.210  1.00  0.00     0.251 C 
ATOM     27  H   UNL A   1      41.769  22.446  26.113  1.00  0.00     0.163 HD
ATOM     28  O   UNL A   1      42.648  24.703  25.733  1.00  0.00    -0.269 OA
BRANCH  26  29
ATOM     29  C   UNL A   1      40.698  25.539  26.733  1.00  0.00     0.039 A 
ATOM     30  C   UNL A   1      40.840  26.812  26.175  1.00  0.00     0.014 A 
ATOM     31  C   UNL A   1      39.972  25.353  27.907  1.00  0.00     0.014 A 
ATOM     32  C   UNL A   1      40.477  27.926  26.927  1.00  0.00     0.010 A 
ATOM     33  C   UNL A   1      39.690  26.455  28.691  1.00  0.00     0.010 A 
ATOM     34  C   UNL A   1      40.008  27.737  28.229  1.00  0.00    -0.014 A 
BRANCH  34  35
ATOM     35  C   UNL A   1      39.915  28.822  29.197  1.00  0.00     0.031 A 
ATOM     36  C   UNL A   1      38.885  29.868  29.046  1.00  0.00     0.074 A 
ATOM     37  C   UNL A   1      40.765  28.880  30.247  1.00  0.00     0.049 A 
ATOM     38  N   UNL A   1      39.058  31.100  29.394  1.00  0.00    -0.248 NA
ATOM     39  C   UNL A   1      37.575  29.603  28.460  1.00  0.00     0.031 C 
ATOM     40  C   UNL A   1      40.679  29.781  31.395  1.00  0.00     0.029 A 
ATOM     41  N   UNL A   1      42.004  28.239  30.398  1.00  0.00    -0.354 N 
ATOM     42  C   UNL A   1      37.835  31.718  29.322  1.00  0.00     0.074 A 
ATOM     43  C   UNL A   1      36.956  30.768  28.675  1.00  0.00     0.031 C 
ATOM     44  C   UNL A   1      41.888  29.870  31.968  1.00  0.00     0.029 A 
ATOM     45  C   UNL A   1      42.819  29.125  31.143  1.00  0.00     0.049 A 
ATOM     46  H   UNL A   1      42.255  27.351  30.055  1.00  0.00     0.167 HD
ATOM     47  C   UNL A   1      37.634  32.917  29.937  1.00  0.00     0.037 A 
ATOM     48  C   UNL A   1      43.996  29.606  30.647  1.00  0.00     0.037 A 
ATOM     49  C   UNL A   1      38.829  33.393  30.621  1.00  0.00     0.049 A 
ATOM     50  C   UNL A   1      44.030  31.107  30.499  1.00  0.00     0.074 A 
ATOM     51  C   UNL A   1      39.251  33.282  31.935  1.00  0.00     0.029 A 
ATOM     52  N   UNL A   1      39.945  33.778  29.882  1.00  0.00    -0.354 N 
ATOM     53  N   UNL A   1      42.972  31.864  30.576  1.00  0.00    -0.248 NA
ATOM     54  C   UNL A   1      45.239  31.865  30.182  1.00  0.00     0.031 C 
ATOM     55  C   UNL A   1      40.641  33.537  31.977  1.00  0.00     0.029 A 
ATOM     56  C   UNL A   1      41.066  33.825  30.692  1.00  0.00     0.049 A 
ATOM     57  H   UNL A   1      39.938  33.986  28.920  1.00  0.00     0.167 HD
ATOM     58  C   UNL A   1      43.313  33.150  30.258  1.00  0.00     0.074 A 
ATOM     59  C   UNL A   1      44.748  33.110  30.055  1.00  0.00     0.031 C 
ATOM     60  C   UNL A   1      42.379  34.140  30.154  1.00  0.00     0.037 A 
BRANCH  47  61
ATOM     61  C   UNL A   1      36.245  33.448  30.155  1.00  0.00     0.064 A 
ATOM     62  C   UNL A   1      35.494  34.005  29.102  1.00  0.00     0.173 A 
ATOM     63  C   UNL A   1      35.640  33.494  31.424  1.00  0.00     0.173 A 
ATOM     64  F   UNL A   1      35.929  33.970  27.836  1.00  0.00    -0.203 F 
ATOM     65  C   UNL A   1      34.275  34.652  29.320  1.00  0.00     0.198 A 
ATOM     66  C   UNL A   1      34.446  34.184  31.650  1.00  0.00     0.198 A 
ATOM     67  F   UNL A   1      36.207  32.880  32.474  1.00  0.00    -0.203 F 
ATOM     68  F   UNL A   1      33.610  35.184  28.285  1.00  0.00    -0.200 F 
ATOM     69  C   UNL A   1      33.769  34.773  30.600  1.00  0.00     0.200 A 
ATOM     70  F   UNL A   1      33.968  34.297  32.898  1.00  0.00    -0.200 F 
ATOM     71  F   UNL A   1      32.635  35.451  30.816  1.00  0.00    -0.200 F 
ENDBRANCH  47  61
BRANCH  48  72
ATOM     72  C   UNL A   1      44.662  28.640  29.737  1.00  0.00     0.064 A 
ATOM     73  C   UNL A   1      44.502  28.841  28.352  1.00  0.00     0.173 A 
ATOM     74  C   UNL A   1      45.759  27.883  30.165  1.00  0.00     0.173 A 
ATOM     75  F   UNL A   1      43.452  29.544  27.895  1.00  0.00    -0.203 F 
ATOM     76  C   UNL A   1      45.492  28.463  27.452  1.00  0.00     0.198 A 
ATOM     77  C   UNL A   1      46.735  27.479  29.254  1.00  0.00     0.198 A 
ATOM     78  F   UNL A   1      45.955  27.651  31.470  1.00  0.00    -0.203 F 
ATOM     79  F   UNL A   1      45.392  28.813  26.162  1.00  0.00    -0.200 F 
ATOM     80  C   UNL A   1      46.628  27.818  27.911  1.00  0.00     0.200 A 
ATOM     81  F   UNL A   1      47.832  26.847  29.694  1.00  0.00    -0.200 F 
ATOM     82  F   UNL A   1      47.639  27.563  27.069  1.00  0.00    -0.200 F 
ENDBRANCH  48  72
BRANCH  60  83
ATOM     83  C   UNL A   1      42.659  35.519  29.636  1.00  0.00     0.064 A 
ATOM     84  C   UNL A   1      43.352  36.495  30.371  1.00  0.00     0.173 A 
ATOM     85  C   UNL A   1      42.328  35.862  28.307  1.00  0.00     0.173 A 
ATOM     86  F   UNL A   1      43.816  36.234  31.601  1.00  0.00    -0.203 F 
ATOM     87  C   UNL A   1      43.622  37.758  29.841  1.00  0.00     0.198 A 
ATOM     88  C   UNL A   1      42.644  37.106  27.764  1.00  0.00     0.198 A 
ATOM     89  F   UNL A   1      41.703  34.993  27.500  1.00  0.00    -0.203 F 
ATOM     90  F   UNL A   1      44.241  38.676  30.598  1.00  0.00    -0.200 F 
ATOM     91  C   UNL A   1      43.273  38.061  28.538  1.00  0.00     0.200 A 
ATOM     92  F   UNL A   1      42.344  37.371  26.484  1.00  0.00    -0.200 F 
ATOM     93  F   UNL A   1      43.559  39.265  28.025  1.00  0.00    -0.200 F 
ENDBRANCH  60  83
ENDBRANCH  34  35
ENDBRANCH  26  29
ENDBRANCH  24  25
ENDBRANCH  23  24
ENDBRANCH  22  23
ENDBRANCH   1  22
TORSDOF 16
ENDMDL
MODEL 3
REMARK VINA RESULT:     -11.4      2.360      3.816
REMARK SMILES COc1ccc(/C(=C/C(=O)NCCCCCCNC(=O)c2ccc(-c3c4nc(c(-c5c(F)c(F)c(F)c(F)c5F)c5ccc([nH]5)c(-c5c(F)c(F)c(F)c(F)c5F)c5nc(c(-c6c(F)c(F)c(F)c(F)c6F)c6ccc3[nH]6)C=C5)C=C4)cc2)C(C)C)cc1C
REMARK SMILES IDX 14 1 13 2 12 3 11 4 9 5 10 6 8 8 7 9 6 10 3 11 4 12 88 13
REMARK SMILES IDX 5 14 87 15 89 16 2 17 1 18 84 19 85 20 86 21 15 22 16 23
REMARK SMILES IDX 17 24 18 25 19 26 20 28 21 29 22 30 83 31 23 32 82 33 24 34
REMARK SMILES IDX 25 35 26 36 76 37 27 38 81 39 75 40 77 41 28 42 80 43 74 44
REMARK SMILES IDX 73 45 29 47 61 48 41 49 60 50 42 51 45 52 59 53 78 54 43 55
REMARK SMILES IDX 44 56 58 58 79 59 46 60 30 61 31 62 39 63 32 64 33 65 37 66
REMARK SMILES IDX 40 67 34 68 35 69 38 70 36 71 62 72 63 73 71 74 64 75 65 76
REMARK SMILES IDX 69 77 72 78 66 79 67 80 70 81 68 82 47 83 48 84 56 85 49 86
REMARK SMILES IDX 50 87 54 88 57 89 51 90 52 91 55 92 53 93
REMARK H PARENT 11 7 18 27 77 46 45 57
REMARK Flexibility Score: inf
ROOT
ATOM      1  C   UNL A   1      38.626  19.691  25.335  1.00  0.00     0.002 C 
ENDROOT
BRANCH   1   2
ATOM      2  C   UNL A   1      37.633  20.754  24.839  1.00  0.00     0.021 C 
BRANCH   2   3
ATOM      3  C   UNL A   1      36.140  20.374  24.892  1.00  0.00     0.116 C 
BRANCH   3   4
ATOM      4  N   UNL A   1      35.512  20.772  26.146  1.00  0.00    -0.353 N 
ATOM      5  C   UNL A   1      34.679  21.723  26.611  1.00  0.00     0.244 C 
ATOM      6  O   UNL A   1      34.263  21.522  27.762  1.00  0.00    -0.270 OA
ATOM      7  H   UNL A   1      35.775  20.163  26.871  1.00  0.00     0.163 HD
BRANCH   5   8
ATOM      8  C   UNL A   1      34.156  22.969  25.957  1.00  0.00     0.075 C 
ATOM      9  C   UNL A   1      34.629  24.052  25.291  1.00  0.00    -0.033 C 
BRANCH   9  10
ATOM     10  C   UNL A   1      33.716  25.237  25.006  1.00  0.00    -0.021 A 
ATOM     11  C   UNL A   1      32.086  27.542  24.434  1.00  0.00     0.121 A 
ATOM     12  C   UNL A   1      32.740  26.856  23.420  1.00  0.00     0.047 A 
ATOM     13  C   UNL A   1      32.252  27.105  25.752  1.00  0.00    -0.008 A 
ATOM     14  C   UNL A   1      33.521  25.727  23.706  1.00  0.00     0.012 A 
ATOM     15  C   UNL A   1      33.065  25.971  26.020  1.00  0.00     0.015 A 
ATOM     16  C   UNL A   1      31.572  27.789  26.908  1.00  0.00     0.048 C 
BRANCH  11  17
ATOM     17  O   UNL A   1      31.310  28.650  24.230  1.00  0.00    -0.496 OA
ATOM     18  C   UNL A   1      31.116  29.051  22.878  1.00  0.00     0.278 C 
ENDBRANCH  11  17
ENDBRANCH   9  10
BRANCH   9  19
ATOM     19  C   UNL A   1      36.075  24.121  24.840  1.00  0.00     0.014 C 
ATOM     20  C   UNL A   1      37.064  23.915  25.997  1.00  0.00     0.012 C 
ATOM     21  C   UNL A   1      36.459  23.368  23.563  1.00  0.00     0.012 C 
ENDBRANCH   9  19
ENDBRANCH   5   8
ENDBRANCH   3   4
ENDBRANCH   2   3
ENDBRANCH   1   2
BRANCH   1  22
ATOM     22  C   UNL A   1      39.872  20.190  26.082  1.00  0.00     0.002 C 
BRANCH  22  23
ATOM     23  C   UNL A   1      41.077  19.248  26.083  1.00  0.00     0.021 C 
BRANCH  23  24
ATOM     24  C   UNL A   1      42.256  19.747  26.908  1.00  0.00     0.116 C 
BRANCH  24  25
ATOM     25  N   UNL A   1      43.364  20.276  26.116  1.00  0.00    -0.352 N 
ATOM     26  C   UNL A   1      43.635  21.593  25.777  1.00  0.00     0.251 C 
ATOM     27  H   UNL A   1      44.003  19.608  25.777  1.00  0.00     0.163 HD
ATOM     28  O   UNL A   1      44.591  21.885  25.081  1.00  0.00    -0.269 OA
BRANCH  26  29
ATOM     29  C   UNL A   1      42.796  22.654  26.380  1.00  0.00     0.039 A 
ATOM     30  C   UNL A   1      42.749  23.895  25.739  1.00  0.00     0.014 A 
ATOM     31  C   UNL A   1      42.292  22.498  27.669  1.00  0.00     0.014 A 
ATOM     32  C   UNL A   1      42.433  25.030  26.483  1.00  0.00     0.010 A 
ATOM     33  C   UNL A   1      42.063  23.628  28.431  1.00  0.00     0.010 A 
ATOM     34  C   UNL A   1      42.203  24.895  27.854  1.00  0.00    -0.014 A 
BRANCH  34  35
ATOM     35  C   UNL A   1      42.192  26.032  28.766  1.00  0.00     0.031 A 
ATOM     36  C   UNL A   1      41.048  26.965  28.778  1.00  0.00     0.074 A 
ATOM     37  C   UNL A   1      43.223  26.242  29.614  1.00  0.00     0.049 A 
ATOM     38  N   UNL A   1      41.156  28.229  29.020  1.00  0.00    -0.248 NA
ATOM     39  C   UNL A   1      39.683  26.539  28.487  1.00  0.00     0.031 C 
ATOM     40  C   UNL A   1      43.273  27.209  30.709  1.00  0.00     0.029 A 
ATOM     41  N   UNL A   1      44.528  25.731  29.539  1.00  0.00    -0.354 N 
ATOM     42  C   UNL A   1      39.886  28.725  29.171  1.00  0.00     0.074 A 
ATOM     43  C   UNL A   1      39.000  27.654  28.766  1.00  0.00     0.031 C 
ATOM     44  C   UNL A   1      44.557  27.450  31.016  1.00  0.00     0.029 A 
ATOM     45  C   UNL A   1      45.377  26.739  30.055  1.00  0.00     0.049 A 
ATOM     46  H   UNL A   1      44.798  24.848  29.196  1.00  0.00     0.167 HD
ATOM     47  C   UNL A   1      39.687  29.939  29.754  1.00  0.00     0.037 A 
ATOM     48  C   UNL A   1      46.374  27.291  29.305  1.00  0.00     0.037 A 
ATOM     49  C   UNL A   1      40.938  30.571  30.152  1.00  0.00     0.049 A 
ATOM     50  C   UNL A   1      46.220  28.775  29.078  1.00  0.00     0.074 A 
ATOM     51  C   UNL A   1      41.622  30.593  31.356  1.00  0.00     0.029 A 
ATOM     52  N   UNL A   1      41.837  31.005  29.182  1.00  0.00    -0.354 N 
ATOM     53  N   UNL A   1      45.125  29.434  29.333  1.00  0.00    -0.248 NA
ATOM     54  C   UNL A   1      47.255  29.617  28.482  1.00  0.00     0.031 C 
ATOM     55  C   UNL A   1      42.959  30.977  31.098  1.00  0.00     0.029 A 
ATOM     56  C   UNL A   1      43.086  31.213  29.741  1.00  0.00     0.049 A 
ATOM     57  H   UNL A   1      41.616  31.144  28.233  1.00  0.00     0.167 HD
ATOM     58  C   UNL A   1      45.259  30.721  28.888  1.00  0.00     0.074 A 
ATOM     59  C   UNL A   1      46.621  30.799  28.397  1.00  0.00     0.031 C 
ATOM     60  C   UNL A   1      44.224  31.610  28.930  1.00  0.00     0.037 A 
BRANCH  47  61
ATOM     61  C   UNL A   1      38.321  30.353  30.225  1.00  0.00     0.064 A 
ATOM     62  C   UNL A   1      37.346  30.837  29.331  1.00  0.00     0.173 A 
ATOM     63  C   UNL A   1      37.956  30.358  31.584  1.00  0.00     0.173 A 
ATOM     64  F   UNL A   1      37.544  30.829  28.008  1.00  0.00    -0.203 F 
ATOM     65  C   UNL A   1      36.138  31.381  29.774  1.00  0.00     0.198 A 
ATOM     66  C   UNL A   1      36.770  30.947  32.030  1.00  0.00     0.198 A 
ATOM     67  F   UNL A   1      38.755  29.803  32.508  1.00  0.00    -0.203 F 
ATOM     68  F   UNL A   1      35.253  31.847  28.881  1.00  0.00    -0.200 F 
ATOM     69  C   UNL A   1      35.866  31.469  31.125  1.00  0.00     0.200 A 
ATOM     70  F   UNL A   1      36.520  31.029  33.345  1.00  0.00    -0.200 F 
ATOM     71  F   UNL A   1      34.737  32.050  31.550  1.00  0.00    -0.200 F 
ENDBRANCH  47  61
BRANCH  48  72
ATOM     72  C   UNL A   1      46.944  26.330  28.326  1.00  0.00     0.064 A 
ATOM     73  C   UNL A   1      46.510  26.435  26.990  1.00  0.00     0.173 A 
ATOM     74  C   UNL A   1      48.164  25.690  28.569  1.00  0.00     0.173 A 
ATOM     75  F   UNL A   1      45.334  27.023  26.712  1.00  0.00    -0.203 F 
ATOM     76  C   UNL A   1      47.345  26.085  25.935  1.00  0.00     0.198 A 
ATOM     77  C   UNL A   1      48.986  25.312  27.507  1.00  0.00     0.198 A 
ATOM     78  F   UNL A   1      48.620  25.552  29.821  1.00  0.00    -0.203 F 
ATOM     79  F   UNL A   1      46.974  26.349  24.674  1.00  0.00    -0.200 F 
ATOM     80  C   UNL A   1      48.600  25.561  26.196  1.00  0.00     0.200 A 
ATOM     81  F   UNL A   1      50.198  24.797  27.756  1.00  0.00    -0.200 F 
ATOM     82  F   UNL A   1      49.454  25.340  25.187  1.00  0.00    -0.200 F 
ENDBRANCH  48  72
BRANCH  60  83
ATOM     83  C   UNL A   1      44.249  32.969  28.296  1.00  0.00     0.064 A 
ATOM     84  C   UNL A   1      44.082  33.182  26.918  1.00  0.00     0.173 A 
ATOM     85  C   UNL A   1      44.328  34.128  29.098  1.00  0.00     0.173 A 
ATOM     86  F   UNL A   1      43.879  32.156  26.079  1.00  0.00    -0.203 F 
ATOM     87  C   UNL A   1      44.077  34.466  26.369  1.00  0.00     0.198 A 
ATOM     88  C   UNL A   1      44.273  35.409  28.553  1.00  0.00     0.198 A 
ATOM     89  F   UNL A   1      44.446  34.044  30.432  1.00  0.00    -0.203 F 
ATOM     90  F   UNL A   1      43.966  34.619  25.042  1.00  0.00    -0.200 F 
ATOM     91  C   UNL A   1      44.167  35.577  27.186  1.00  0.00     0.200 A 
ATOM     92  F   UNL A   1      44.311  36.480  29.360  1.00  0.00    -0.200 F 
ATOM     93  F   UNL A   1      44.135  36.808  26.658  1.00  0.00    -0.200 F 
ENDBRANCH  60  83
ENDBRANCH  34  35
ENDBRANCH  26  29
ENDBRANCH  24  25
ENDBRANCH  23  24
ENDBRANCH  22  23
ENDBRANCH   1  22
TORSDOF 16
ENDMDL
