MODEL 1
REMARK VINA RESULT:     -11.3      0.000      0.000
REMARK SMILES CO[C@H]1C[C@@H](C(=O)NCCCCCCNC(=O)c2ccc(-c3c4nc(c(-c5c(F)c(F)c(F)c(F)c5F)c5ccc([nH]5)c(-c5c(F)c(F)c(F)c(F)c5F)c5nc(c(-c6c(F)c(F)c(F)c(F)c6F)c6ccc3[nH]6)C=C5)C=C4)cc2)N(C(=O)CSc2cccs2)C1
REMARK SMILES IDX 10 1 9 2 8 3 6 4 7 5 5 7 3 8 4 9 91 10 81 11 2 12 1 13 82 14
REMARK SMILES IDX 83 15 84 16 85 17 86 18 87 19 90 20 88 21 89 22 11 23 12 24
REMARK SMILES IDX 13 25 14 26 15 27 16 28 17 30 18 31 19 32 80 33 20 34 79 35
REMARK SMILES IDX 21 36 22 37 23 38 73 39 24 40 78 41 72 42 74 43 25 44 77 45
REMARK SMILES IDX 71 46 70 47 26 49 58 50 38 51 57 52 39 53 42 54 56 55 75 56
REMARK SMILES IDX 40 57 41 58 55 60 76 61 43 62 27 63 28 64 36 65 29 66 30 67
REMARK SMILES IDX 34 68 37 69 31 70 32 71 35 72 33 73 59 74 60 75 68 76 61 77
REMARK SMILES IDX 62 78 66 79 69 80 63 81 64 82 67 83 65 84 44 85 45 86 53 87
REMARK SMILES IDX 46 88 47 89 51 90 54 91 48 92 49 93 52 94 50 95
REMARK H PARENT 8 6 15 29 74 48 42 59
REMARK Flexibility Score: inf
ROOT
ATOM      1  C   UNL A   1      33.733  29.267  26.418  1.00  0.00     0.021 C 
ENDROOT
BRANCH   1   2
ATOM      2  C   UNL A   1      33.464  27.771  26.576  1.00  0.00     0.116 C 
BRANCH   2   3
ATOM      3  N   UNL A   1      34.000  26.987  25.479  1.00  0.00    -0.354 N 
ATOM      4  C   UNL A   1      33.782  25.695  25.110  1.00  0.00     0.242 C 
ATOM      5  O   UNL A   1      34.260  25.328  24.033  1.00  0.00    -0.273 OA
ATOM      6  H   UNL A   1      34.631  27.475  24.901  1.00  0.00     0.163 HD
BRANCH   4   7
ATOM      7  C   UNL A   1      32.840  24.769  25.895  1.00  0.00     0.177 C 
ATOM      8  C   UNL A   1      32.395  22.419  26.229  1.00  0.00     0.139 C 
ATOM      9  C   UNL A   1      33.540  23.409  26.038  1.00  0.00     0.069 C 
ATOM     10  C   UNL A   1      31.250  23.018  25.412  1.00  0.00     0.152 C 
ATOM     11  N   UNL A   1      31.531  24.449  25.315  1.00  0.00    -0.327 N 
BRANCH   8  12
ATOM     12  O   UNL A   1      32.645  21.051  25.925  1.00  0.00    -0.380 OA
ATOM     13  C   UNL A   1      32.252  20.577  24.647  1.00  0.00     0.195 C 
ENDBRANCH   8  12
BRANCH  11  14
ATOM     14  C   UNL A   1      30.507  25.325  25.002  1.00  0.00     0.233 C 
ATOM     15  O   UNL A   1      29.711  25.690  25.874  1.00  0.00    -0.274 OA
BRANCH  14  16
ATOM     16  C   UNL A   1      30.288  25.749  23.554  1.00  0.00     0.175 C 
BRANCH  16  17
ATOM     17  S   UNL A   1      31.038  27.347  23.172  1.00  0.00    -0.105 SA
BRANCH  17  18
ATOM     18  C   UNL A   1      29.600  28.309  22.922  1.00  0.00     0.060 A 
ATOM     19  C   UNL A   1      28.339  27.960  23.351  1.00  0.00     0.027 A 
ATOM     20  S   UNL A   1      29.608  29.813  22.111  1.00  0.00    -0.137 S 
ATOM     21  C   UNL A   1      27.359  28.919  22.964  1.00  0.00     0.013 A 
ATOM     22  C   UNL A   1      27.913  29.973  22.271  1.00  0.00     0.066 A 
ENDBRANCH  17  18
ENDBRANCH  16  17
ENDBRANCH  14  16
ENDBRANCH  11  14
ENDBRANCH   4   7
ENDBRANCH   2   3
ENDBRANCH   1   2
BRANCH   1  23
ATOM     23  C   UNL A   1      32.827  30.163  27.269  1.00  0.00     0.002 C 
BRANCH  23  24
ATOM     24  C   UNL A   1      31.683  30.819  26.494  1.00  0.00     0.002 C 
BRANCH  24  25
ATOM     25  C   UNL A   1      31.509  32.314  26.765  1.00  0.00     0.021 C 
BRANCH  25  26
ATOM     26  C   UNL A   1      32.755  33.001  27.309  1.00  0.00     0.116 C 
BRANCH  26  27
ATOM     27  N   UNL A   1      32.488  34.379  27.688  1.00  0.00    -0.352 N 
ATOM     28  C   UNL A   1      33.019  35.095  28.729  1.00  0.00     0.251 C 
ATOM     29  H   UNL A   1      31.842  34.860  27.123  1.00  0.00     0.163 HD
ATOM     30  O   UNL A   1      32.531  36.174  29.059  1.00  0.00    -0.269 OA
BRANCH  28  31
ATOM     31  C   UNL A   1      34.175  34.550  29.467  1.00  0.00     0.039 A 
ATOM     32  C   UNL A   1      33.960  33.924  30.696  1.00  0.00     0.014 A 
ATOM     33  C   UNL A   1      35.465  34.646  28.936  1.00  0.00     0.014 A 
ATOM     34  C   UNL A   1      35.037  33.347  31.371  1.00  0.00     0.010 A 
ATOM     35  C   UNL A   1      36.523  34.004  29.573  1.00  0.00     0.010 A 
ATOM     36  C   UNL A   1      36.321  33.355  30.800  1.00  0.00    -0.014 A 
BRANCH  36  37
ATOM     37  C   UNL A   1      37.463  32.694  31.478  1.00  0.00     0.031 A 
ATOM     38  C   UNL A   1      38.160  31.533  30.826  1.00  0.00     0.074 A 
ATOM     39  C   UNL A   1      37.835  33.103  32.708  1.00  0.00     0.049 A 
ATOM     40  N   UNL A   1      39.138  30.791  31.282  1.00  0.00    -0.248 NA
ATOM     41  C   UNL A   1      37.677  31.136  29.493  1.00  0.00     0.031 C 
ATOM     42  C   UNL A   1      37.206  34.186  33.464  1.00  0.00     0.029 A 
ATOM     43  N   UNL A   1      38.826  32.648  33.541  1.00  0.00    -0.354 N 
ATOM     44  C   UNL A   1      39.375  29.836  30.302  1.00  0.00     0.074 A 
ATOM     45  C   UNL A   1      38.404  30.056  29.252  1.00  0.00     0.031 C 
ATOM     46  C   UNL A   1      37.839  34.327  34.639  1.00  0.00     0.029 A 
ATOM     47  C   UNL A   1      38.891  33.319  34.737  1.00  0.00     0.049 A 
ATOM     48  H   UNL A   1      39.434  31.910  33.304  1.00  0.00     0.167 HD
ATOM     49  C   UNL A   1      40.333  28.879  30.269  1.00  0.00     0.037 A 
ATOM     50  C   UNL A   1      39.701  33.136  35.798  1.00  0.00     0.037 A 
ATOM     51  C   UNL A   1      41.309  28.679  31.308  1.00  0.00     0.049 A 
ATOM     52  C   UNL A   1      40.748  32.056  35.741  1.00  0.00     0.074 A 
ATOM     53  C   UNL A   1      42.359  27.776  31.343  1.00  0.00     0.029 A 
ATOM     54  N   UNL A   1      41.352  29.388  32.500  1.00  0.00    -0.354 N 
ATOM     55  N   UNL A   1      41.013  31.209  34.778  1.00  0.00    -0.248 NA
ATOM     56  C   UNL A   1      41.616  31.915  36.919  1.00  0.00     0.031 C 
ATOM     57  C   UNL A   1      43.000  27.900  32.579  1.00  0.00     0.029 A 
ATOM     58  C   UNL A   1      42.393  28.923  33.290  1.00  0.00     0.049 A 
ATOM     59  H   UNL A   1      40.734  30.113  32.749  1.00  0.00     0.167 HD
ATOM     60  C   UNL A   1      42.093  30.454  35.217  1.00  0.00     0.074 A 
ATOM     61  C   UNL A   1      42.444  30.956  36.529  1.00  0.00     0.031 C 
ATOM     62  C   UNL A   1      42.735  29.437  34.591  1.00  0.00     0.037 A 
BRANCH  49  63
ATOM     63  C   UNL A   1      40.371  27.971  29.074  1.00  0.00     0.064 A 
ATOM     64  C   UNL A   1      39.628  26.781  29.026  1.00  0.00     0.173 A 
ATOM     65  C   UNL A   1      41.128  28.315  27.943  1.00  0.00     0.173 A 
ATOM     66  F   UNL A   1      38.895  26.400  30.083  1.00  0.00    -0.203 F 
ATOM     67  C   UNL A   1      39.665  25.956  27.904  1.00  0.00     0.198 A 
ATOM     68  C   UNL A   1      41.137  27.505  26.811  1.00  0.00     0.198 A 
ATOM     69  F   UNL A   1      41.853  29.444  27.932  1.00  0.00    -0.203 F 
ATOM     70  F   UNL A   1      38.986  24.800  27.903  1.00  0.00    -0.200 F 
ATOM     71  C   UNL A   1      40.411  26.323  26.795  1.00  0.00     0.200 A 
ATOM     72  F   UNL A   1      41.846  27.869  25.733  1.00  0.00    -0.200 F 
ATOM     73  F   UNL A   1      40.437  25.534  25.712  1.00  0.00    -0.200 F 
ENDBRANCH  49  63
BRANCH  50  74
ATOM     74  C   UNL A   1      39.564  34.005  36.996  1.00  0.00     0.064 A 
ATOM     75  C   UNL A   1      38.788  33.605  38.094  1.00  0.00     0.173 A 
ATOM     76  C   UNL A   1      40.198  35.253  37.068  1.00  0.00     0.173 A 
ATOM     77  F   UNL A   1      38.146  32.428  38.065  1.00  0.00    -0.203 F 
ATOM     78  C   UNL A   1      38.633  34.430  39.206  1.00  0.00     0.198 A 
ATOM     79  C   UNL A   1      40.069  36.064  38.194  1.00  0.00     0.198 A 
ATOM     80  F   UNL A   1      40.958  35.682  36.049  1.00  0.00    -0.203 F 
ATOM     81  F   UNL A   1      37.846  34.045  40.219  1.00  0.00    -0.200 F 
ATOM     82  C   UNL A   1      39.278  35.656  39.258  1.00  0.00     0.200 A 
ATOM     83  F   UNL A   1      40.710  37.239  38.247  1.00  0.00    -0.200 F 
ATOM     84  F   UNL A   1      39.133  36.448  40.330  1.00  0.00    -0.200 F 
ENDBRANCH  50  74
BRANCH  62  85
ATOM     85  C   UNL A   1      43.909  28.822  35.299  1.00  0.00     0.064 A 
ATOM     86  C   UNL A   1      43.755  27.763  36.205  1.00  0.00     0.173 A 
ATOM     87  C   UNL A   1      45.211  29.275  35.034  1.00  0.00     0.173 A 
ATOM     88  F   UNL A   1      42.530  27.303  36.503  1.00  0.00    -0.203 F 
ATOM     89  C   UNL A   1      44.858  27.197  36.840  1.00  0.00     0.198 A 
ATOM     90  C   UNL A   1      46.313  28.684  35.644  1.00  0.00     0.198 A 
ATOM     91  F   UNL A   1      45.415  30.281  34.170  1.00  0.00    -0.203 F 
ATOM     92  F   UNL A   1      44.681  26.220  37.739  1.00  0.00    -0.200 F 
ATOM     93  C   UNL A   1      46.136  27.653  36.552  1.00  0.00     0.200 A 
ATOM     94  F   UNL A   1      47.549  29.114  35.353  1.00  0.00    -0.200 F 
ATOM     95  F   UNL A   1      47.196  27.100  37.157  1.00  0.00    -0.200 F 
ENDBRANCH  62  85
ENDBRANCH  36  37
ENDBRANCH  28  31
ENDBRANCH  26  27
ENDBRANCH  25  26
ENDBRANCH  24  25
ENDBRANCH  23  24
ENDBRANCH   1  23
TORSDOF 18
ENDMDL
MODEL 2
REMARK VINA RESULT:     -11.1      1.779      7.890
REMARK SMILES CO[C@H]1C[C@@H](C(=O)NCCCCCCNC(=O)c2ccc(-c3c4nc(c(-c5c(F)c(F)c(F)c(F)c5F)c5ccc([nH]5)c(-c5c(F)c(F)c(F)c(F)c5F)c5nc(c(-c6c(F)c(F)c(F)c(F)c6F)c6ccc3[nH]6)C=C5)C=C4)cc2)N(C(=O)CSc2cccs2)C1
REMARK SMILES IDX 10 1 9 2 8 3 6 4 7 5 5 7 3 8 4 9 91 10 81 11 2 12 1 13 82 14
REMARK SMILES IDX 83 15 84 16 85 17 86 18 87 19 90 20 88 21 89 22 11 23 12 24
REMARK SMILES IDX 13 25 14 26 15 27 16 28 17 30 18 31 19 32 80 33 20 34 79 35
REMARK SMILES IDX 21 36 22 37 23 38 73 39 24 40 78 41 72 42 74 43 25 44 77 45
REMARK SMILES IDX 71 46 70 47 26 49 58 50 38 51 57 52 39 53 42 54 56 55 75 56
REMARK SMILES IDX 40 57 41 58 55 60 76 61 43 62 27 63 28 64 36 65 29 66 30 67
REMARK SMILES IDX 34 68 37 69 31 70 32 71 35 72 33 73 59 74 60 75 68 76 61 77
REMARK SMILES IDX 62 78 66 79 69 80 63 81 64 82 67 83 65 84 44 85 45 86 53 87
REMARK SMILES IDX 46 88 47 89 51 90 54 91 48 92 49 93 52 94 50 95
REMARK H PARENT 8 6 15 29 74 48 42 59
REMARK Flexibility Score: inf
ROOT
ATOM      1  C   UNL A   1      33.963  29.723  26.938  1.00  0.00     0.021 C 
ENDROOT
BRANCH   1   2
ATOM      2  C   UNL A   1      34.224  28.359  26.301  1.00  0.00     0.116 C 
BRANCH   2   3
ATOM      3  N   UNL A   1      33.087  27.464  26.411  1.00  0.00    -0.354 N 
ATOM      4  C   UNL A   1      32.145  27.095  25.500  1.00  0.00     0.242 C 
ATOM      5  O   UNL A   1      31.371  26.191  25.824  1.00  0.00    -0.273 OA
ATOM      6  H   UNL A   1      32.979  27.051  27.299  1.00  0.00     0.163 HD
BRANCH   4   7
ATOM      7  C   UNL A   1      32.139  27.642  24.065  1.00  0.00     0.177 C 
ATOM      8  C   UNL A   1      30.610  28.533  22.420  1.00  0.00     0.139 C 
ATOM      9  C   UNL A   1      30.903  28.543  23.917  1.00  0.00     0.069 C 
ATOM     10  C   UNL A   1      31.050  27.139  21.969  1.00  0.00     0.152 C 
ATOM     11  N   UNL A   1      32.032  26.690  22.953  1.00  0.00    -0.327 N 
BRANCH   8  12
ATOM     12  O   UNL A   1      29.291  28.867  22.001  1.00  0.00    -0.380 OA
ATOM     13  C   UNL A   1      29.039  30.212  21.626  1.00  0.00     0.195 C 
ENDBRANCH   8  12
BRANCH  11  14
ATOM     14  C   UNL A   1      32.909  25.672  22.626  1.00  0.00     0.233 C 
ATOM     15  O   UNL A   1      33.653  25.781  21.645  1.00  0.00    -0.274 OA
BRANCH  14  16
ATOM     16  C   UNL A   1      32.875  24.361  23.405  1.00  0.00     0.175 C 
BRANCH  16  17
ATOM     17  S   UNL A   1      34.019  23.128  22.751  1.00  0.00    -0.105 SA
BRANCH  17  18
ATOM     18  C   UNL A   1      35.308  23.251  23.927  1.00  0.00     0.060 A 
ATOM     19  C   UNL A   1      36.526  22.619  23.823  1.00  0.00     0.027 A 
ATOM     20  S   UNL A   1      35.190  24.189  25.351  1.00  0.00    -0.137 S 
ATOM     21  C   UNL A   1      37.357  22.870  24.954  1.00  0.00     0.013 A 
ATOM     22  C   UNL A   1      36.746  23.700  25.868  1.00  0.00     0.066 A 
ENDBRANCH  17  18
ENDBRANCH  16  17
ENDBRANCH  14  16
ENDBRANCH  11  14
ENDBRANCH   4   7
ENDBRANCH   2   3
ENDBRANCH   1   2
BRANCH   1  23
ATOM     23  C   UNL A   1      32.509  29.953  27.361  1.00  0.00     0.002 C 
BRANCH  23  24
ATOM     24  C   UNL A   1      31.702  30.823  26.396  1.00  0.00     0.002 C 
BRANCH  24  25
ATOM     25  C   UNL A   1      31.473  32.258  26.876  1.00  0.00     0.021 C 
BRANCH  25  26
ATOM     26  C   UNL A   1      32.726  33.125  26.876  1.00  0.00     0.116 C 
BRANCH  26  27
ATOM     27  N   UNL A   1      32.533  34.349  27.635  1.00  0.00    -0.352 N 
ATOM     28  C   UNL A   1      33.124  34.725  28.813  1.00  0.00     0.251 C 
ATOM     29  H   UNL A   1      31.895  34.993  27.253  1.00  0.00     0.163 HD
ATOM     30  O   UNL A   1      32.696  35.684  29.451  1.00  0.00    -0.269 OA
BRANCH  28  31
ATOM     31  C   UNL A   1      34.274  33.952  29.324  1.00  0.00     0.039 A 
ATOM     32  C   UNL A   1      35.567  34.415  29.074  1.00  0.00     0.014 A 
ATOM     33  C   UNL A   1      34.070  32.780  30.059  1.00  0.00     0.014 A 
ATOM     34  C   UNL A   1      36.658  33.727  29.607  1.00  0.00     0.010 A 
ATOM     35  C   UNL A   1      35.154  32.141  30.653  1.00  0.00     0.010 A 
ATOM     36  C   UNL A   1      36.459  32.603  30.427  1.00  0.00    -0.014 A 
BRANCH  36  37
ATOM     37  C   UNL A   1      37.606  31.898  31.049  1.00  0.00     0.031 A 
ATOM     38  C   UNL A   1      38.059  32.266  32.434  1.00  0.00     0.074 A 
ATOM     39  C   UNL A   1      38.278  30.966  30.343  1.00  0.00     0.049 A 
ATOM     40  N   UNL A   1      39.071  31.805  33.125  1.00  0.00    -0.248 NA
ATOM     41  C   UNL A   1      37.285  33.309  33.127  1.00  0.00     0.031 C 
ATOM     42  C   UNL A   1      37.966  30.557  28.973  1.00  0.00     0.029 A 
ATOM     43  N   UNL A   1      39.368  30.203  30.677  1.00  0.00    -0.354 N 
ATOM     44  C   UNL A   1      39.063  32.510  34.322  1.00  0.00     0.074 A 
ATOM     45  C   UNL A   1      37.981  33.467  34.243  1.00  0.00     0.031 C 
ATOM     46  C   UNL A   1      38.829  29.603  28.592  1.00  0.00     0.029 A 
ATOM     47  C   UNL A   1      39.780  29.361  29.674  1.00  0.00     0.049 A 
ATOM     48  H   UNL A   1      39.813  30.253  31.554  1.00  0.00     0.167 HD
ATOM     49  C   UNL A   1      39.869  32.355  35.399  1.00  0.00     0.037 A 
ATOM     50  C   UNL A   1      40.814  28.500  29.626  1.00  0.00     0.037 A 
ATOM     51  C   UNL A   1      40.931  31.386  35.479  1.00  0.00     0.049 A 
ATOM     52  C   UNL A   1      41.702  28.355  30.833  1.00  0.00     0.074 A 
ATOM     53  C   UNL A   1      41.765  31.108  36.549  1.00  0.00     0.029 A 
ATOM     54  N   UNL A   1      41.310  30.541  34.446  1.00  0.00    -0.354 N 
ATOM     55  N   UNL A   1      41.638  28.972  31.987  1.00  0.00    -0.248 NA
ATOM     56  C   UNL A   1      42.803  27.387  30.732  1.00  0.00     0.031 C 
ATOM     57  C   UNL A   1      42.685  30.136  36.144  1.00  0.00     0.029 A 
ATOM     58  C   UNL A   1      42.385  29.761  34.844  1.00  0.00     0.049 A 
ATOM     59  H   UNL A   1      40.880  30.502  33.561  1.00  0.00     0.167 HD
ATOM     60  C   UNL A   1      42.667  28.449  32.758  1.00  0.00     0.074 A 
ATOM     61  C   UNL A   1      43.330  27.451  31.945  1.00  0.00     0.031 C 
ATOM     62  C   UNL A   1      43.030  28.766  34.026  1.00  0.00     0.037 A 
BRANCH  49  63
ATOM     63  C   UNL A   1      39.637  33.254  36.579  1.00  0.00     0.064 A 
ATOM     64  C   UNL A   1      38.713  32.929  37.585  1.00  0.00     0.173 A 
ATOM     65  C   UNL A   1      40.378  34.436  36.730  1.00  0.00     0.173 A 
ATOM     66  F   UNL A   1      37.971  31.815  37.486  1.00  0.00    -0.203 F 
ATOM     67  C   UNL A   1      38.519  33.768  38.680  1.00  0.00     0.198 A 
ATOM     68  C   UNL A   1      40.206  35.256  37.842  1.00  0.00     0.198 A 
ATOM     69  F   UNL A   1      41.279  34.793  35.801  1.00  0.00    -0.203 F 
ATOM     70  F   UNL A   1      37.595  33.461  39.601  1.00  0.00    -0.200 F 
ATOM     71  C   UNL A   1      39.271  34.925  38.812  1.00  0.00     0.200 A 
ATOM     72  F   UNL A   1      40.944  36.366  37.976  1.00  0.00    -0.200 F 
ATOM     73  F   UNL A   1      39.091  35.725  39.871  1.00  0.00    -0.200 F 
ENDBRANCH  49  63
BRANCH  50  74
ATOM     74  C   UNL A   1      41.055  27.694  28.399  1.00  0.00     0.064 A 
ATOM     75  C   UNL A   1      40.416  26.461  28.209  1.00  0.00     0.173 A 
ATOM     76  C   UNL A   1      41.932  28.136  27.398  1.00  0.00     0.173 A 
ATOM     77  F   UNL A   1      39.584  25.986  29.146  1.00  0.00    -0.203 F 
ATOM     78  C   UNL A   1      40.664  25.690  27.074  1.00  0.00     0.198 A 
ATOM     79  C   UNL A   1      42.153  27.380  26.249  1.00  0.00     0.198 A 
ATOM     80  F   UNL A   1      42.563  29.312  27.527  1.00  0.00    -0.203 F 
ATOM     81  F   UNL A   1      40.078  24.492  26.941  1.00  0.00    -0.200 F 
ATOM     82  C   UNL A   1      41.527  26.152  26.093  1.00  0.00     0.200 A 
ATOM     83  F   UNL A   1      42.974  27.839  25.295  1.00  0.00    -0.200 F 
ATOM     84  F   UNL A   1      41.761  25.412  25.000  1.00  0.00    -0.200 F 
ENDBRANCH  50  74
BRANCH  62  85
ATOM     85  C   UNL A   1      44.174  28.001  34.628  1.00  0.00     0.064 A 
ATOM     86  C   UNL A   1      43.980  26.783  35.296  1.00  0.00     0.173 A 
ATOM     87  C   UNL A   1      45.489  28.475  34.497  1.00  0.00     0.173 A 
ATOM     88  F   UNL A   1      42.742  26.294  35.461  1.00  0.00    -0.203 F 
ATOM     89  C   UNL A   1      45.056  26.082  35.835  1.00  0.00     0.198 A 
ATOM     90  C   UNL A   1      46.565  27.755  35.005  1.00  0.00     0.198 A 
ATOM     91  F   UNL A   1      45.731  29.631  33.860  1.00  0.00    -0.203 F 
ATOM     92  F   UNL A   1      44.841  24.947  36.514  1.00  0.00    -0.200 F 
ATOM     93  C   UNL A   1      46.348  26.564  35.682  1.00  0.00     0.200 A 
ATOM     94  F   UNL A   1      47.814  28.214  34.842  1.00  0.00    -0.200 F 
ATOM     95  F   UNL A   1      47.383  25.883  36.192  1.00  0.00    -0.200 F 
ENDBRANCH  62  85
ENDBRANCH  36  37
ENDBRANCH  28  31
ENDBRANCH  26  27
ENDBRANCH  25  26
ENDBRANCH  24  25
ENDBRANCH  23  24
ENDBRANCH   1  23
TORSDOF 18
ENDMDL
MODEL 3
REMARK VINA RESULT:     -11.0      5.409      9.752
REMARK SMILES CO[C@H]1C[C@@H](C(=O)NCCCCCCNC(=O)c2ccc(-c3c4nc(c(-c5c(F)c(F)c(F)c(F)c5F)c5ccc([nH]5)c(-c5c(F)c(F)c(F)c(F)c5F)c5nc(c(-c6c(F)c(F)c(F)c(F)c6F)c6ccc3[nH]6)C=C5)C=C4)cc2)N(C(=O)CSc2cccs2)C1
REMARK SMILES IDX 10 1 9 2 8 3 6 4 7 5 5 7 3 8 4 9 91 10 81 11 2 12 1 13 82 14
REMARK SMILES IDX 83 15 84 16 85 17 86 18 87 19 90 20 88 21 89 22 11 23 12 24
REMARK SMILES IDX 13 25 14 26 15 27 16 28 17 30 18 31 19 32 80 33 20 34 79 35
REMARK SMILES IDX 21 36 22 37 23 38 73 39 24 40 78 41 72 42 74 43 25 44 77 45
REMARK SMILES IDX 71 46 70 47 26 49 58 50 38 51 57 52 39 53 42 54 56 55 75 56
REMARK SMILES IDX 40 57 41 58 55 60 76 61 43 62 27 63 28 64 36 65 29 66 30 67
REMARK SMILES IDX 34 68 37 69 31 70 32 71 35 72 33 73 59 74 60 75 68 76 61 77
REMARK SMILES IDX 62 78 66 79 69 80 63 81 64 82 67 83 65 84 44 85 45 86 53 87
REMARK SMILES IDX 46 88 47 89 51 90 54 91 48 92 49 93 52 94 50 95
REMARK H PARENT 8 6 15 29 74 48 42 59
REMARK Flexibility Score: inf
ROOT
ATOM      1  C   UNL A   1      37.652  23.703  25.560  1.00  0.00     0.021 C 
ENDROOT
BRANCH   1   2
ATOM      2  C   UNL A   1      36.336  23.877  24.802  1.00  0.00     0.116 C 
BRANCH   2   3
ATOM      3  N   UNL A   1      35.304  24.499  25.610  1.00  0.00    -0.354 N 
ATOM      4  C   UNL A   1      34.282  25.334  25.272  1.00  0.00     0.242 C 
ATOM      5  O   UNL A   1      33.454  25.593  26.149  1.00  0.00    -0.273 OA
ATOM      6  H   UNL A   1      35.350  24.279  26.569  1.00  0.00     0.163 HD
BRANCH   4   7
ATOM      7  C   UNL A   1      34.054  25.801  23.827  1.00  0.00     0.177 C 
ATOM      8  C   UNL A   1      32.834  27.475  22.584  1.00  0.00     0.139 C 
ATOM      9  C   UNL A   1      33.615  27.272  23.879  1.00  0.00     0.069 C 
ATOM     10  C   UNL A   1      32.187  26.113  22.328  1.00  0.00     0.152 C 
ATOM     11  N   UNL A   1      33.013  25.136  23.033  1.00  0.00    -0.327 N 
BRANCH   8  12
ATOM     12  O   UNL A   1      31.908  28.555  22.532  1.00  0.00    -0.380 OA
ATOM     13  C   UNL A   1      30.815  28.530  23.436  1.00  0.00     0.195 C 
ENDBRANCH   8  12
BRANCH  11  14
ATOM     14  C   UNL A   1      32.945  23.801  22.677  1.00  0.00     0.233 C 
ATOM     15  O   UNL A   1      33.686  23.353  21.795  1.00  0.00    -0.274 OA
BRANCH  14  16
ATOM     16  C   UNL A   1      31.872  22.907  23.288  1.00  0.00     0.175 C 
BRANCH  16  17
ATOM     17  S   UNL A   1      32.509  21.293  23.787  1.00  0.00    -0.105 SA
BRANCH  17  18
ATOM     18  C   UNL A   1      32.942  21.633  25.447  1.00  0.00     0.060 A 
ATOM     19  C   UNL A   1      34.108  21.222  26.053  1.00  0.00     0.027 A 
ATOM     20  S   UNL A   1      31.950  22.533  26.508  1.00  0.00    -0.137 S 
ATOM     21  C   UNL A   1      34.164  21.610  27.422  1.00  0.00     0.013 A 
ATOM     22  C   UNL A   1      33.046  22.319  27.804  1.00  0.00     0.066 A 
ENDBRANCH  17  18
ENDBRANCH  16  17
ENDBRANCH  14  16
ENDBRANCH  11  14
ENDBRANCH   4   7
ENDBRANCH   2   3
ENDBRANCH   1   2
BRANCH   1  23
ATOM     23  C   UNL A   1      37.996  22.249  25.898  1.00  0.00     0.002 C 
BRANCH  23  24
ATOM     24  C   UNL A   1      37.670  21.249  24.787  1.00  0.00     0.002 C 
BRANCH  24  25
ATOM     25  C   UNL A   1      38.406  19.913  24.900  1.00  0.00     0.021 C 
BRANCH  25  26
ATOM     26  C   UNL A   1      39.128  19.707  26.225  1.00  0.00     0.116 C 
BRANCH  26  27
ATOM     27  N   UNL A   1      40.362  18.956  26.055  1.00  0.00    -0.352 N 
ATOM     28  C   UNL A   1      41.646  19.430  25.985  1.00  0.00     0.251 C 
ATOM     29  H   UNL A   1      40.261  17.980  25.980  1.00  0.00     0.163 HD
ATOM     30  O   UNL A   1      42.563  18.700  25.614  1.00  0.00    -0.269 OA
BRANCH  28  31
ATOM     31  C   UNL A   1      41.918  20.836  26.342  1.00  0.00     0.039 A 
ATOM     32  C   UNL A   1      42.254  21.148  27.661  1.00  0.00     0.014 A 
ATOM     33  C   UNL A   1      41.855  21.840  25.371  1.00  0.00     0.014 A 
ATOM     34  C   UNL A   1      42.576  22.464  27.996  1.00  0.00     0.010 A 
ATOM     35  C   UNL A   1      42.251  23.135  25.690  1.00  0.00     0.010 A 
ATOM     36  C   UNL A   1      42.608  23.462  27.007  1.00  0.00    -0.014 A 
BRANCH  36  37
ATOM     37  C   UNL A   1      43.007  24.853  27.336  1.00  0.00     0.031 A 
ATOM     38  C   UNL A   1      44.422  25.307  27.108  1.00  0.00     0.074 A 
ATOM     39  C   UNL A   1      42.109  25.688  27.895  1.00  0.00     0.049 A 
ATOM     40  N   UNL A   1      44.975  26.461  27.383  1.00  0.00    -0.248 NA
ATOM     41  C   UNL A   1      45.344  24.325  26.515  1.00  0.00     0.031 C 
ATOM     42  C   UNL A   1      40.721  25.349  28.209  1.00  0.00     0.029 A 
ATOM     43  N   UNL A   1      42.234  26.991  28.306  1.00  0.00    -0.354 N 
ATOM     44  C   UNL A   1      46.308  26.339  27.010  1.00  0.00     0.074 A 
ATOM     45  C   UNL A   1      46.493  24.982  26.542  1.00  0.00     0.031 C 
ATOM     46  C   UNL A   1      40.116  26.422  28.743  1.00  0.00     0.029 A 
ATOM     47  C   UNL A   1      41.084  27.511  28.847  1.00  0.00     0.049 A 
ATOM     48  H   UNL A   1      43.070  27.506  28.222  1.00  0.00     0.167 HD
ATOM     49  C   UNL A   1      47.281  27.280  27.033  1.00  0.00     0.037 A 
ATOM     50  C   UNL A   1      40.839  28.725  29.376  1.00  0.00     0.037 A 
ATOM     51  C   UNL A   1      47.084  28.634  27.480  1.00  0.00     0.049 A 
ATOM     52  C   UNL A   1      41.942  29.749  29.400  1.00  0.00     0.074 A 
ATOM     53  C   UNL A   1      47.990  29.680  27.485  1.00  0.00     0.029 A 
ATOM     54  N   UNL A   1      45.900  29.127  28.009  1.00  0.00    -0.354 N 
ATOM     55  N   UNL A   1      43.177  29.646  28.975  1.00  0.00    -0.248 NA
ATOM     56  C   UNL A   1      41.613  31.062  29.972  1.00  0.00     0.031 C 
ATOM     57  C   UNL A   1      47.372  30.790  28.070  1.00  0.00     0.029 A 
ATOM     58  C   UNL A   1      46.061  30.456  28.371  1.00  0.00     0.049 A 
ATOM     59  H   UNL A   1      45.069  28.610  28.113  1.00  0.00     0.167 HD
ATOM     60  C   UNL A   1      43.763  30.884  29.199  1.00  0.00     0.074 A 
ATOM     61  C   UNL A   1      42.742  31.728  29.783  1.00  0.00     0.031 C 
ATOM     62  C   UNL A   1      45.033  31.286  28.944  1.00  0.00     0.037 A 
BRANCH  49  63
ATOM     63  C   UNL A   1      48.650  26.879  26.563  1.00  0.00     0.064 A 
ATOM     64  C   UNL A   1      49.598  26.323  27.437  1.00  0.00     0.173 A 
ATOM     65  C   UNL A   1      49.006  27.012  25.212  1.00  0.00     0.173 A 
ATOM     66  F   UNL A   1      49.312  26.183  28.741  1.00  0.00    -0.203 F 
ATOM     67  C   UNL A   1      50.858  25.945  26.983  1.00  0.00     0.198 A 
ATOM     68  C   UNL A   1      50.255  26.602  24.754  1.00  0.00     0.198 A 
ATOM     69  F   UNL A   1      48.137  27.531  24.331  1.00  0.00    -0.203 F 
ATOM     70  F   UNL A   1      51.763  25.464  27.847  1.00  0.00    -0.200 F 
ATOM     71  C   UNL A   1      51.183  26.076  25.641  1.00  0.00     0.200 A 
ATOM     72  F   UNL A   1      50.562  26.714  23.455  1.00  0.00    -0.200 F 
ATOM     73  F   UNL A   1      52.393  25.701  25.204  1.00  0.00    -0.200 F 
ENDBRANCH  49  63
BRANCH  50  74
ATOM     74  C   UNL A   1      39.488  29.044  29.911  1.00  0.00     0.064 A 
ATOM     75  C   UNL A   1      38.520  29.660  29.105  1.00  0.00     0.173 A 
ATOM     76  C   UNL A   1      39.140  28.748  31.236  1.00  0.00     0.173 A 
ATOM     77  F   UNL A   1      38.812  29.981  27.836  1.00  0.00    -0.203 F 
ATOM     78  C   UNL A   1      37.264  29.988  29.611  1.00  0.00     0.198 A 
ATOM     79  C   UNL A   1      37.873  29.047  31.732  1.00  0.00     0.198 A 
ATOM     80  F   UNL A   1      40.026  28.152  32.048  1.00  0.00    -0.203 F 
ATOM     81  F   UNL A   1      36.375  30.622  28.834  1.00  0.00    -0.200 F 
ATOM     82  C   UNL A   1      36.939  29.677  30.922  1.00  0.00     0.200 A 
ATOM     83  F   UNL A   1      37.557  28.727  32.994  1.00  0.00    -0.200 F 
ATOM     84  F   UNL A   1      35.729  29.988  31.408  1.00  0.00    -0.200 F 
ENDBRANCH  50  74
BRANCH  62  85
ATOM     85  C   UNL A   1      45.382  32.713  29.260  1.00  0.00     0.064 A 
ATOM     86  C   UNL A   1      45.939  33.084  30.492  1.00  0.00     0.173 A 
ATOM     87  C   UNL A   1      45.193  33.717  28.297  1.00  0.00     0.173 A 
ATOM     88  F   UNL A   1      46.127  32.165  31.452  1.00  0.00    -0.203 F 
ATOM     89  C   UNL A   1      46.269  34.410  30.759  1.00  0.00     0.198 A 
ATOM     90  C   UNL A   1      45.556  35.035  28.554  1.00  0.00     0.198 A 
ATOM     91  F   UNL A   1      44.671  33.415  27.098  1.00  0.00    -0.203 F 
ATOM     92  F   UNL A   1      46.752  34.749  31.962  1.00  0.00    -0.200 F 
ATOM     93  C   UNL A   1      46.085  35.382  29.787  1.00  0.00     0.200 A 
ATOM     94  F   UNL A   1      45.393  35.971  27.608  1.00  0.00    -0.200 F 
ATOM     95  F   UNL A   1      46.412  36.657  30.043  1.00  0.00    -0.200 F 
ENDBRANCH  62  85
ENDBRANCH  36  37
ENDBRANCH  28  31
ENDBRANCH  26  27
ENDBRANCH  25  26
ENDBRANCH  24  25
ENDBRANCH  23  24
ENDBRANCH   1  23
TORSDOF 18
ENDMDL
