MODEL 1
REMARK VINA RESULT:     -13.0      0.000      0.000
REMARK SMILES COC(=O)c1ccc(C)c(NC(=O)[C@H]2CC=CC[C@H]2C(=O)NCCCCCCNC(=O)c2ccc(-c3c4nc(c(-c5c(F)c(F)c(F)c(F)c5F)c5ccc([nH]5)c(-c5c(F)c(F)c(F)c(F)c5F)c5nc(c(-c6c(F)c(F)c(F)c(F)c6F)c6ccc3[nH]6)C=C5)C=C4)cc2)c1
REMARK SMILES IDX 24 1 23 2 22 3 20 4 21 5 19 7 14 8 15 9 16 10 18 11 17 12
REMARK SMILES IDX 12 13 11 14 13 16 10 17 5 18 6 19 95 20 7 21 8 22 9 23 3 24
REMARK SMILES IDX 4 25 2 26 1 27 25 28 26 29 27 30 28 31 29 32 30 33 31 35
REMARK SMILES IDX 32 36 33 37 94 38 34 39 93 40 35 41 36 42 37 43 87 44 38 45
REMARK SMILES IDX 92 46 86 47 88 48 39 49 91 50 85 51 84 52 40 54 72 55 52 56
REMARK SMILES IDX 71 57 53 58 56 59 70 60 89 61 54 62 55 63 69 65 90 66 57 67
REMARK SMILES IDX 41 68 42 69 50 70 43 71 44 72 48 73 51 74 45 75 46 76 49 77
REMARK SMILES IDX 47 78 73 79 74 80 82 81 75 82 76 83 80 84 83 85 77 86 78 87
REMARK SMILES IDX 81 88 79 89 58 90 59 91 67 92 60 93 61 94 65 95 68 96 62 97
REMARK SMILES IDX 63 98 66 99 64 100
REMARK H PARENT 22 6 11 15 29 34 88 53 56 64
REMARK Flexibility Score: inf
ROOT
ATOM      1  C   UNL A   1      30.187  28.415  23.468  1.00  0.00     0.021 C 
ENDROOT
BRANCH   1   2
ATOM      2  C   UNL A   1      31.135  27.726  22.483  1.00  0.00     0.116 C 
BRANCH   2   3
ATOM      3  N   UNL A   1      31.016  26.284  22.383  1.00  0.00    -0.356 N 
ATOM      4  C   UNL A   1      31.727  25.275  22.955  1.00  0.00     0.224 C 
ATOM      5  O   UNL A   1      31.206  24.155  22.951  1.00  0.00    -0.275 OA
ATOM      6  H   UNL A   1      30.288  25.979  21.794  1.00  0.00     0.163 HD
BRANCH   4   7
ATOM      7  C   UNL A   1      33.103  25.452  23.583  1.00  0.00     0.095 C 
ATOM      8  C   UNL A   1      33.137  25.676  25.116  1.00  0.00     0.095 C 
ATOM      9  C   UNL A   1      34.459  25.218  25.791  1.00  0.00     0.041 C 
ATOM     10  C   UNL A   1      35.179  24.078  25.145  1.00  0.00    -0.030 C 
ATOM     11  C   UNL A   1      34.106  24.473  22.938  1.00  0.00     0.041 C 
ATOM     12  C   UNL A   1      35.026  23.750  23.861  1.00  0.00    -0.030 C 
BRANCH   8  13
ATOM     13  C   UNL A   1      31.950  25.196  25.943  1.00  0.00     0.228 C 
ATOM     14  N   UNL A   1      31.666  23.908  26.265  1.00  0.00    -0.326 N 
ATOM     15  H   UNL A   1      30.791  23.834  26.710  1.00  0.00     0.169 HD
ATOM     16  O   UNL A   1      31.152  26.019  26.416  1.00  0.00    -0.274 OA
BRANCH  14  17
ATOM     17  C   UNL A   1      32.280  22.650  26.138  1.00  0.00     0.044 A 
ATOM     18  C   UNL A   1      32.589  20.848  24.491  1.00  0.00     0.062 A 
ATOM     19  C   UNL A   1      33.463  20.190  25.333  1.00  0.00     0.016 A 
ATOM     20  C   UNL A   1      32.035  22.059  24.897  1.00  0.00     0.042 A 
ATOM     21  C   UNL A   1      33.773  20.789  26.564  1.00  0.00     0.006 A 
ATOM     22  C   UNL A   1      33.198  22.024  26.983  1.00  0.00    -0.027 A 
ATOM     23  C   UNL A   1      33.713  22.640  28.246  1.00  0.00     0.046 C 
BRANCH  18  24
ATOM     24  C   UNL A   1      32.176  20.340  23.164  1.00  0.00     0.337 C 
ATOM     25  O   UNL A   1      31.969  21.023  22.189  1.00  0.00    -0.246 OA
BRANCH  24  26
ATOM     26  O   UNL A   1      32.231  18.983  23.248  1.00  0.00    -0.465 OA
ATOM     27  C   UNL A   1      32.343  18.254  22.026  1.00  0.00     0.282 C 
ENDBRANCH  24  26
ENDBRANCH  18  24
ENDBRANCH  14  17
ENDBRANCH   8  13
ENDBRANCH   4   7
ENDBRANCH   2   3
ENDBRANCH   1   2
BRANCH   1  28
ATOM     28  C   UNL A   1      30.674  29.599  24.305  1.00  0.00     0.002 C 
BRANCH  28  29
ATOM     29  C   UNL A   1      31.772  29.367  25.347  1.00  0.00     0.002 C 
BRANCH  29  30
ATOM     30  C   UNL A   1      32.068  30.559  26.259  1.00  0.00     0.021 C 
BRANCH  30  31
ATOM     31  C   UNL A   1      33.049  30.232  27.378  1.00  0.00     0.116 C 
BRANCH  31  32
ATOM     32  N   UNL A   1      33.911  31.334  27.778  1.00  0.00    -0.352 N 
ATOM     33  C   UNL A   1      34.945  31.319  28.700  1.00  0.00     0.251 C 
ATOM     34  H   UNL A   1      33.737  32.197  27.339  1.00  0.00     0.163 HD
ATOM     35  O   UNL A   1      35.134  32.306  29.407  1.00  0.00    -0.269 OA
BRANCH  33  36
ATOM     36  C   UNL A   1      35.971  30.245  28.654  1.00  0.00     0.039 A 
ATOM     37  C   UNL A   1      36.306  29.625  29.870  1.00  0.00     0.014 A 
ATOM     38  C   UNL A   1      36.770  30.041  27.541  1.00  0.00     0.014 A 
ATOM     39  C   UNL A   1      37.554  29.025  30.020  1.00  0.00     0.010 A 
ATOM     40  C   UNL A   1      38.058  29.592  27.722  1.00  0.00     0.010 A 
ATOM     41  C   UNL A   1      38.464  29.125  28.975  1.00  0.00    -0.014 A 
BRANCH  41  42
ATOM     42  C   UNL A   1      39.863  28.747  29.055  1.00  0.00     0.031 A 
ATOM     43  C   UNL A   1      40.240  27.357  28.719  1.00  0.00     0.074 A 
ATOM     44  C   UNL A   1      40.796  29.698  29.278  1.00  0.00     0.049 A 
ATOM     45  N   UNL A   1      41.384  26.834  28.991  1.00  0.00    -0.248 NA
ATOM     46  C   UNL A   1      39.315  26.404  28.103  1.00  0.00     0.031 C 
ATOM     47  C   UNL A   1      42.237  29.594  29.057  1.00  0.00     0.029 A 
ATOM     48  N   UNL A   1      40.636  30.931  29.941  1.00  0.00    -0.354 N 
ATOM     49  C   UNL A   1      41.453  25.616  28.356  1.00  0.00     0.074 A 
ATOM     50  C   UNL A   1      40.107  25.342  27.930  1.00  0.00     0.031 C 
ATOM     51  C   UNL A   1      42.860  30.516  29.809  1.00  0.00     0.029 A 
ATOM     52  C   UNL A   1      41.847  31.128  30.651  1.00  0.00     0.049 A 
ATOM     53  H   UNL A   1      39.853  31.526  29.917  1.00  0.00     0.167 HD
ATOM     54  C   UNL A   1      42.680  25.058  28.167  1.00  0.00     0.037 A 
ATOM     55  C   UNL A   1      41.878  31.121  32.015  1.00  0.00     0.037 A 
ATOM     56  C   UNL A   1      43.678  25.753  28.982  1.00  0.00     0.049 A 
ATOM     57  C   UNL A   1      42.751  30.038  32.602  1.00  0.00     0.074 A 
ATOM     58  C   UNL A   1      44.670  26.671  28.689  1.00  0.00     0.029 A 
ATOM     59  N   UNL A   1      43.531  25.752  30.367  1.00  0.00    -0.354 N 
ATOM     60  N   UNL A   1      43.107  28.959  31.959  1.00  0.00    -0.248 NA
ATOM     61  C   UNL A   1      43.273  30.075  33.965  1.00  0.00     0.031 C 
ATOM     62  C   UNL A   1      45.048  27.298  29.909  1.00  0.00     0.029 A 
ATOM     63  C   UNL A   1      44.324  26.725  30.942  1.00  0.00     0.049 A 
ATOM     64  H   UNL A   1      42.943  25.141  30.868  1.00  0.00     0.167 HD
ATOM     65  C   UNL A   1      43.855  28.162  32.785  1.00  0.00     0.074 A 
ATOM     66  C   UNL A   1      43.948  28.914  34.022  1.00  0.00     0.031 C 
ATOM     67  C   UNL A   1      44.317  26.940  32.384  1.00  0.00     0.037 A 
BRANCH  54  68
ATOM     68  C   UNL A   1      43.046  24.020  27.121  1.00  0.00     0.064 A 
ATOM     69  C   UNL A   1      42.713  22.662  27.336  1.00  0.00     0.173 A 
ATOM     70  C   UNL A   1      43.829  24.250  25.970  1.00  0.00     0.173 A 
ATOM     71  F   UNL A   1      41.967  22.287  28.385  1.00  0.00    -0.203 F 
ATOM     72  C   UNL A   1      43.153  21.633  26.494  1.00  0.00     0.198 A 
ATOM     73  C   UNL A   1      44.228  23.226  25.104  1.00  0.00     0.198 A 
ATOM     74  F   UNL A   1      44.297  25.458  25.648  1.00  0.00    -0.203 F 
ATOM     75  F   UNL A   1      42.854  20.360  26.788  1.00  0.00    -0.200 F 
ATOM     76  C   UNL A   1      43.906  21.915  25.375  1.00  0.00     0.200 A 
ATOM     77  F   UNL A   1      44.960  23.525  24.019  1.00  0.00    -0.200 F 
ATOM     78  F   UNL A   1      44.333  20.933  24.570  1.00  0.00    -0.200 F 
ENDBRANCH  54  68
BRANCH  55  79
ATOM     79  C   UNL A   1      40.632  31.648  32.630  1.00  0.00     0.064 A 
ATOM     80  C   UNL A   1      40.422  33.039  32.607  1.00  0.00     0.173 A 
ATOM     81  C   UNL A   1      39.516  30.827  32.838  1.00  0.00     0.173 A 
ATOM     82  F   UNL A   1      41.458  33.868  32.408  1.00  0.00    -0.203 F 
ATOM     83  C   UNL A   1      39.138  33.578  32.663  1.00  0.00     0.198 A 
ATOM     84  C   UNL A   1      38.231  31.373  32.895  1.00  0.00     0.198 A 
ATOM     85  F   UNL A   1      39.650  29.494  32.855  1.00  0.00    -0.203 F 
ATOM     86  F   UNL A   1      38.962  34.899  32.516  1.00  0.00    -0.200 F 
ATOM     87  C   UNL A   1      38.040  32.742  32.768  1.00  0.00     0.200 A 
ATOM     88  F   UNL A   1      37.166  30.562  32.979  1.00  0.00    -0.200 F 
ATOM     89  F   UNL A   1      36.802  33.249  32.703  1.00  0.00    -0.200 F 
ENDBRANCH  55  79
BRANCH  67  90
ATOM     90  C   UNL A   1      44.878  25.865  33.290  1.00  0.00     0.064 A 
ATOM     91  C   UNL A   1      44.097  25.069  34.147  1.00  0.00     0.173 A 
ATOM     92  C   UNL A   1      46.243  25.495  33.203  1.00  0.00     0.173 A 
ATOM     93  F   UNL A   1      42.769  25.220  34.225  1.00  0.00    -0.203 F 
ATOM     94  C   UNL A   1      44.650  24.037  34.912  1.00  0.00     0.198 A 
ATOM     95  C   UNL A   1      46.777  24.422  33.917  1.00  0.00     0.198 A 
ATOM     96  F   UNL A   1      47.096  26.142  32.397  1.00  0.00    -0.203 F 
ATOM     97  F   UNL A   1      43.868  23.342  35.749  1.00  0.00    -0.200 F 
ATOM     98  C   UNL A   1      45.985  23.706  34.787  1.00  0.00     0.200 A 
ATOM     99  F   UNL A   1      48.060  24.076  33.737  1.00  0.00    -0.200 F 
ATOM    100  F   UNL A   1      46.499  22.683  35.484  1.00  0.00    -0.200 F 
ENDBRANCH  67  90
ENDBRANCH  41  42
ENDBRANCH  33  36
ENDBRANCH  31  32
ENDBRANCH  30  31
ENDBRANCH  29  30
ENDBRANCH  28  29
ENDBRANCH   1  28
TORSDOF 17
ENDMDL
MODEL 2
REMARK VINA RESULT:     -12.8      2.956      8.957
REMARK SMILES COC(=O)c1ccc(C)c(NC(=O)[C@H]2CC=CC[C@H]2C(=O)NCCCCCCNC(=O)c2ccc(-c3c4nc(c(-c5c(F)c(F)c(F)c(F)c5F)c5ccc([nH]5)c(-c5c(F)c(F)c(F)c(F)c5F)c5nc(c(-c6c(F)c(F)c(F)c(F)c6F)c6ccc3[nH]6)C=C5)C=C4)cc2)c1
REMARK SMILES IDX 24 1 23 2 22 3 20 4 21 5 19 7 14 8 15 9 16 10 18 11 17 12
REMARK SMILES IDX 12 13 11 14 13 16 10 17 5 18 6 19 95 20 7 21 8 22 9 23 3 24
REMARK SMILES IDX 4 25 2 26 1 27 25 28 26 29 27 30 28 31 29 32 30 33 31 35
REMARK SMILES IDX 32 36 33 37 94 38 34 39 93 40 35 41 36 42 37 43 87 44 38 45
REMARK SMILES IDX 92 46 86 47 88 48 39 49 91 50 85 51 84 52 40 54 72 55 52 56
REMARK SMILES IDX 71 57 53 58 56 59 70 60 89 61 54 62 55 63 69 65 90 66 57 67
REMARK SMILES IDX 41 68 42 69 50 70 43 71 44 72 48 73 51 74 45 75 46 76 49 77
REMARK SMILES IDX 47 78 73 79 74 80 82 81 75 82 76 83 80 84 83 85 77 86 78 87
REMARK SMILES IDX 81 88 79 89 58 90 59 91 67 92 60 93 61 94 65 95 68 96 62 97
REMARK SMILES IDX 63 98 66 99 64 100
REMARK H PARENT 22 6 11 15 29 34 88 53 56 64
REMARK Flexibility Score: inf
ROOT
ATOM      1  C   UNL A   1      35.522  23.994  25.724  1.00  0.00     0.021 C 
ENDROOT
BRANCH   1   2
ATOM      2  C   UNL A   1      34.427  24.952  25.244  1.00  0.00     0.116 C 
BRANCH   2   3
ATOM      3  N   UNL A   1      33.336  25.190  26.170  1.00  0.00    -0.356 N 
ATOM      4  C   UNL A   1      32.414  26.188  26.245  1.00  0.00     0.224 C 
ATOM      5  O   UNL A   1      31.411  25.968  26.931  1.00  0.00    -0.275 OA
ATOM      6  H   UNL A   1      33.245  24.505  26.871  1.00  0.00     0.163 HD
BRANCH   4   7
ATOM      7  C   UNL A   1      32.556  27.533  25.544  1.00  0.00     0.095 C 
ATOM      8  C   UNL A   1      31.783  27.700  24.212  1.00  0.00     0.095 C 
ATOM      9  C   UNL A   1      31.415  29.172  23.877  1.00  0.00     0.041 C 
ATOM     10  C   UNL A   1      31.190  30.086  25.039  1.00  0.00    -0.030 C 
ATOM     11  C   UNL A   1      32.530  28.673  26.583  1.00  0.00     0.041 C 
ATOM     12  C   UNL A   1      31.699  29.864  26.252  1.00  0.00    -0.030 C 
BRANCH   8  13
ATOM     13  C   UNL A   1      30.575  26.803  23.959  1.00  0.00     0.228 C 
ATOM     14  N   UNL A   1      30.603  25.549  23.441  1.00  0.00    -0.326 N 
ATOM     15  H   UNL A   1      29.694  25.214  23.267  1.00  0.00     0.169 HD
ATOM     16  O   UNL A   1      29.439  27.195  24.264  1.00  0.00    -0.274 OA
BRANCH  14  17
ATOM     17  C   UNL A   1      31.574  24.598  23.084  1.00  0.00     0.044 A 
ATOM     18  C   UNL A   1      32.251  22.290  23.607  1.00  0.00     0.062 A 
ATOM     19  C   UNL A   1      33.189  22.307  22.595  1.00  0.00     0.016 A 
ATOM     20  C   UNL A   1      31.459  23.416  23.819  1.00  0.00     0.042 A 
ATOM     21  C   UNL A   1      33.288  23.461  21.802  1.00  0.00     0.006 A 
ATOM     22  C   UNL A   1      32.483  24.616  22.026  1.00  0.00    -0.027 A 
ATOM     23  C   UNL A   1      32.571  25.730  21.029  1.00  0.00     0.046 C 
BRANCH  18  24
ATOM     24  C   UNL A   1      32.031  21.143  24.516  1.00  0.00     0.337 C 
ATOM     25  O   UNL A   1      31.438  21.189  25.567  1.00  0.00    -0.246 OA
BRANCH  24  26
ATOM     26  O   UNL A   1      32.493  20.048  23.855  1.00  0.00    -0.465 OA
ATOM     27  C   UNL A   1      32.551  18.820  24.580  1.00  0.00     0.282 C 
ENDBRANCH  24  26
ENDBRANCH  18  24
ENDBRANCH  14  17
ENDBRANCH   8  13
ENDBRANCH   4   7
ENDBRANCH   2   3
ENDBRANCH   1   2
BRANCH   1  28
ATOM     28  C   UNL A   1      35.195  22.525  25.996  1.00  0.00     0.002 C 
BRANCH  28  29
ATOM     29  C   UNL A   1      35.732  21.458  25.038  1.00  0.00     0.002 C 
BRANCH  29  30
ATOM     30  C   UNL A   1      37.180  21.031  25.282  1.00  0.00     0.021 C 
BRANCH  30  31
ATOM     31  C   UNL A   1      38.171  22.185  25.200  1.00  0.00     0.116 C 
BRANCH  31  32
ATOM     32  N   UNL A   1      39.350  22.041  26.040  1.00  0.00    -0.352 N 
ATOM     33  C   UNL A   1      40.315  22.993  26.329  1.00  0.00     0.251 C 
ATOM     34  H   UNL A   1      39.478  21.158  26.454  1.00  0.00     0.163 HD
ATOM     35  O   UNL A   1      41.487  22.644  26.449  1.00  0.00    -0.269 OA
BRANCH  33  36
ATOM     36  C   UNL A   1      39.912  24.360  26.750  1.00  0.00     0.039 A 
ATOM     37  C   UNL A   1      40.556  25.440  26.123  1.00  0.00     0.014 A 
ATOM     38  C   UNL A   1      39.155  24.584  27.889  1.00  0.00     0.014 A 
ATOM     39  C   UNL A   1      40.643  26.668  26.776  1.00  0.00     0.010 A 
ATOM     40  C   UNL A   1      39.366  25.737  28.609  1.00  0.00     0.010 A 
ATOM     41  C   UNL A   1      40.147  26.763  28.070  1.00  0.00    -0.014 A 
BRANCH  41  42
ATOM     42  C   UNL A   1      40.353  27.895  28.956  1.00  0.00     0.031 A 
ATOM     43  C   UNL A   1      39.374  29.003  28.923  1.00  0.00     0.074 A 
ATOM     44  C   UNL A   1      41.330  27.841  29.887  1.00  0.00     0.049 A 
ATOM     45  N   UNL A   1      39.573  30.156  29.459  1.00  0.00    -0.248 NA
ATOM     46  C   UNL A   1      38.098  28.923  28.211  1.00  0.00     0.031 C 
ATOM     47  C   UNL A   1      41.478  28.694  31.065  1.00  0.00     0.029 A 
ATOM     48  N   UNL A   1      42.522  27.091  29.851  1.00  0.00    -0.354 N 
ATOM     49  C   UNL A   1      38.387  30.852  29.416  1.00  0.00     0.074 A 
ATOM     50  C   UNL A   1      37.547  30.099  28.524  1.00  0.00     0.031 C 
ATOM     51  C   UNL A   1      42.760  28.665  31.464  1.00  0.00     0.029 A 
ATOM     52  C   UNL A   1      43.498  27.920  30.459  1.00  0.00     0.049 A 
ATOM     53  H   UNL A   1      42.650  26.188  29.482  1.00  0.00     0.167 HD
ATOM     54  C   UNL A   1      38.236  31.916  30.251  1.00  0.00     0.037 A 
ATOM     55  C   UNL A   1      44.543  28.428  29.742  1.00  0.00     0.037 A 
ATOM     56  C   UNL A   1      39.529  32.296  30.819  1.00  0.00     0.049 A 
ATOM     57  C   UNL A   1      44.580  29.937  29.699  1.00  0.00     0.074 A 
ATOM     58  C   UNL A   1      40.109  32.119  32.062  1.00  0.00     0.029 A 
ATOM     59  N   UNL A   1      40.547  32.702  29.959  1.00  0.00    -0.354 N 
ATOM     60  N   UNL A   1      43.545  30.698  29.930  1.00  0.00    -0.248 NA
ATOM     61  C   UNL A   1      45.778  30.704  29.373  1.00  0.00     0.031 C 
ATOM     62  C   UNL A   1      41.509  32.323  31.917  1.00  0.00     0.029 A 
ATOM     63  C   UNL A   1      41.768  32.673  30.601  1.00  0.00     0.049 A 
ATOM     64  H   UNL A   1      40.414  32.971  29.021  1.00  0.00     0.167 HD
ATOM     65  C   UNL A   1      43.900  32.012  29.766  1.00  0.00     0.074 A 
ATOM     66  C   UNL A   1      45.313  31.963  29.439  1.00  0.00     0.031 C 
ATOM     67  C   UNL A   1      42.994  33.026  29.894  1.00  0.00     0.037 A 
BRANCH  54  68
ATOM     68  C   UNL A   1      36.921  32.512  30.721  1.00  0.00     0.064 A 
ATOM     69  C   UNL A   1      36.219  33.409  29.883  1.00  0.00     0.173 A 
ATOM     70  C   UNL A   1      36.361  32.363  32.008  1.00  0.00     0.173 A 
ATOM     71  F   UNL A   1      36.625  33.649  28.627  1.00  0.00    -0.203 F 
ATOM     72  C   UNL A   1      35.086  34.114  30.309  1.00  0.00     0.198 A 
ATOM     73  C   UNL A   1      35.202  33.033  32.417  1.00  0.00     0.198 A 
ATOM     74  F   UNL A   1      36.928  31.614  32.956  1.00  0.00    -0.203 F 
ATOM     75  F   UNL A   1      34.504  34.997  29.486  1.00  0.00    -0.200 F 
ATOM     76  C   UNL A   1      34.575  33.922  31.574  1.00  0.00     0.200 A 
ATOM     77  F   UNL A   1      34.722  32.828  33.652  1.00  0.00    -0.200 F 
ATOM     78  F   UNL A   1      33.494  34.598  31.987  1.00  0.00    -0.200 F 
ENDBRANCH  54  68
BRANCH  55  79
ATOM     79  C   UNL A   1      44.996  27.525  28.652  1.00  0.00     0.064 A 
ATOM     80  C   UNL A   1      45.694  26.357  29.009  1.00  0.00     0.173 A 
ATOM     81  C   UNL A   1      44.415  27.569  27.379  1.00  0.00     0.173 A 
ATOM     82  F   UNL A   1      46.266  26.264  30.220  1.00  0.00    -0.203 F 
ATOM     83  C   UNL A   1      45.702  25.237  28.180  1.00  0.00     0.198 A 
ATOM     84  C   UNL A   1      44.427  26.444  26.550  1.00  0.00     0.198 A 
ATOM     85  F   UNL A   1      43.724  28.649  26.986  1.00  0.00    -0.203 F 
ATOM     86  F   UNL A   1      46.273  24.099  28.602  1.00  0.00    -0.200 F 
ATOM     87  C   UNL A   1      45.036  25.269  26.968  1.00  0.00     0.200 A 
ATOM     88  F   UNL A   1      43.766  26.468  25.384  1.00  0.00    -0.200 F 
ATOM     89  F   UNL A   1      44.942  24.157  26.225  1.00  0.00    -0.200 F 
ENDBRANCH  55  79
BRANCH  67  90
ATOM     90  C   UNL A   1      43.197  34.457  29.445  1.00  0.00     0.064 A 
ATOM     91  C   UNL A   1      43.313  35.550  30.323  1.00  0.00     0.173 A 
ATOM     92  C   UNL A   1      43.441  34.752  28.081  1.00  0.00     0.173 A 
ATOM     93  F   UNL A   1      43.240  35.392  31.650  1.00  0.00    -0.203 F 
ATOM     94  C   UNL A   1      43.574  36.846  29.865  1.00  0.00     0.198 A 
ATOM     95  C   UNL A   1      43.767  36.035  27.637  1.00  0.00     0.198 A 
ATOM     96  F   UNL A   1      43.402  33.801  27.138  1.00  0.00    -0.203 F 
ATOM     97  F   UNL A   1      43.625  37.859  30.742  1.00  0.00    -0.200 F 
ATOM     98  C   UNL A   1      43.814  37.085  28.527  1.00  0.00     0.200 A 
ATOM     99  F   UNL A   1      44.058  36.237  26.344  1.00  0.00    -0.200 F 
ATOM    100  F   UNL A   1      44.115  38.319  28.101  1.00  0.00    -0.200 F 
ENDBRANCH  67  90
ENDBRANCH  41  42
ENDBRANCH  33  36
ENDBRANCH  31  32
ENDBRANCH  30  31
ENDBRANCH  29  30
ENDBRANCH  28  29
ENDBRANCH   1  28
TORSDOF 17
ENDMDL
MODEL 3
REMARK VINA RESULT:     -12.7      1.198      2.676
REMARK SMILES COC(=O)c1ccc(C)c(NC(=O)[C@H]2CC=CC[C@H]2C(=O)NCCCCCCNC(=O)c2ccc(-c3c4nc(c(-c5c(F)c(F)c(F)c(F)c5F)c5ccc([nH]5)c(-c5c(F)c(F)c(F)c(F)c5F)c5nc(c(-c6c(F)c(F)c(F)c(F)c6F)c6ccc3[nH]6)C=C5)C=C4)cc2)c1
REMARK SMILES IDX 24 1 23 2 22 3 20 4 21 5 19 7 14 8 15 9 16 10 18 11 17 12
REMARK SMILES IDX 12 13 11 14 13 16 10 17 5 18 6 19 95 20 7 21 8 22 9 23 3 24
REMARK SMILES IDX 4 25 2 26 1 27 25 28 26 29 27 30 28 31 29 32 30 33 31 35
REMARK SMILES IDX 32 36 33 37 94 38 34 39 93 40 35 41 36 42 37 43 87 44 38 45
REMARK SMILES IDX 92 46 86 47 88 48 39 49 91 50 85 51 84 52 40 54 72 55 52 56
REMARK SMILES IDX 71 57 53 58 56 59 70 60 89 61 54 62 55 63 69 65 90 66 57 67
REMARK SMILES IDX 41 68 42 69 50 70 43 71 44 72 48 73 51 74 45 75 46 76 49 77
REMARK SMILES IDX 47 78 73 79 74 80 82 81 75 82 76 83 80 84 83 85 77 86 78 87
REMARK SMILES IDX 81 88 79 89 58 90 59 91 67 92 60 93 61 94 65 95 68 96 62 97
REMARK SMILES IDX 63 98 66 99 64 100
REMARK H PARENT 22 6 11 15 29 34 88 53 56 64
REMARK Flexibility Score: inf
ROOT
ATOM      1  C   UNL A   1      33.587  27.799  24.898  1.00  0.00     0.021 C 
ENDROOT
BRANCH   1   2
ATOM      2  C   UNL A   1      33.922  26.311  25.035  1.00  0.00     0.116 C 
BRANCH   2   3
ATOM      3  N   UNL A   1      34.215  25.606  23.801  1.00  0.00    -0.356 N 
ATOM      4  C   UNL A   1      34.517  24.302  23.553  1.00  0.00     0.224 C 
ATOM      5  O   UNL A   1      34.399  23.916  22.386  1.00  0.00    -0.275 OA
ATOM      6  H   UNL A   1      34.192  26.173  22.997  1.00  0.00     0.163 HD
BRANCH   4   7
ATOM      7  C   UNL A   1      34.984  23.319  24.618  1.00  0.00     0.095 C 
ATOM      8  C   UNL A   1      33.947  22.266  25.085  1.00  0.00     0.095 C 
ATOM      9  C   UNL A   1      34.581  20.954  25.626  1.00  0.00     0.041 C 
ATOM     10  C   UNL A   1      35.898  20.558  25.042  1.00  0.00    -0.030 C 
ATOM     11  C   UNL A   1      36.433  22.877  24.328  1.00  0.00     0.041 C 
ATOM     12  C   UNL A   1      36.733  21.424  24.466  1.00  0.00    -0.030 C 
BRANCH   8  13
ATOM     13  C   UNL A   1      32.791  21.925  24.151  1.00  0.00     0.228 C 
ATOM     14  N   UNL A   1      31.623  22.607  24.039  1.00  0.00    -0.326 N 
ATOM     15  H   UNL A   1      30.987  22.135  23.454  1.00  0.00     0.169 HD
ATOM     16  O   UNL A   1      32.885  20.961  23.376  1.00  0.00    -0.274 OA
BRANCH  14  17
ATOM     17  C   UNL A   1      31.072  23.803  24.531  1.00  0.00     0.044 A 
ATOM     18  C   UNL A   1      30.381  26.033  23.753  1.00  0.00     0.062 A 
ATOM     19  C   UNL A   1      29.843  26.328  24.990  1.00  0.00     0.016 A 
ATOM     20  C   UNL A   1      30.962  24.786  23.544  1.00  0.00     0.042 A 
ATOM     21  C   UNL A   1      29.887  25.338  25.984  1.00  0.00     0.006 A 
ATOM     22  C   UNL A   1      30.491  24.064  25.772  1.00  0.00    -0.027 A 
ATOM     23  C   UNL A   1      30.348  23.038  26.852  1.00  0.00     0.046 C 
BRANCH  18  24
ATOM     24  C   UNL A   1      30.401  26.974  22.611  1.00  0.00     0.337 C 
ATOM     25  O   UNL A   1      31.051  26.835  21.603  1.00  0.00    -0.246 OA
BRANCH  24  26
ATOM     26  O   UNL A   1      29.447  27.907  22.879  1.00  0.00    -0.465 OA
ATOM     27  C   UNL A   1      29.824  29.280  22.773  1.00  0.00     0.282 C 
ENDBRANCH  24  26
ENDBRANCH  18  24
ENDBRANCH  14  17
ENDBRANCH   8  13
ENDBRANCH   4   7
ENDBRANCH   2   3
ENDBRANCH   1   2
BRANCH   1  28
ATOM     28  C   UNL A   1      32.366  28.382  25.611  1.00  0.00     0.002 C 
BRANCH  28  29
ATOM     29  C   UNL A   1      32.404  28.542  27.134  1.00  0.00     0.002 C 
BRANCH  29  30
ATOM     30  C   UNL A   1      33.593  29.336  27.677  1.00  0.00     0.021 C 
BRANCH  30  31
ATOM     31  C   UNL A   1      33.644  30.770  27.167  1.00  0.00     0.116 C 
BRANCH  31  32
ATOM     32  N   UNL A   1      34.440  31.680  27.977  1.00  0.00    -0.352 N 
ATOM     33  C   UNL A   1      35.295  31.369  29.022  1.00  0.00     0.251 C 
ATOM     34  H   UNL A   1      34.359  32.635  27.756  1.00  0.00     0.163 HD
ATOM     35  O   UNL A   1      35.372  32.130  29.983  1.00  0.00    -0.269 OA
BRANCH  33  36
ATOM     36  C   UNL A   1      36.296  30.282  28.868  1.00  0.00     0.039 A 
ATOM     37  C   UNL A   1      36.588  29.512  30.007  1.00  0.00     0.014 A 
ATOM     38  C   UNL A   1      37.117  30.190  27.755  1.00  0.00     0.014 A 
ATOM     39  C   UNL A   1      37.818  28.866  30.110  1.00  0.00     0.010 A 
ATOM     40  C   UNL A   1      38.389  29.690  27.907  1.00  0.00     0.010 A 
ATOM     41  C   UNL A   1      38.754  29.066  29.103  1.00  0.00    -0.014 A 
BRANCH  41  42
ATOM     42  C   UNL A   1      40.142  28.645  29.165  1.00  0.00     0.031 A 
ATOM     43  C   UNL A   1      40.474  27.251  28.799  1.00  0.00     0.074 A 
ATOM     44  C   UNL A   1      41.105  29.563  29.401  1.00  0.00     0.049 A 
ATOM     45  N   UNL A   1      41.604  26.689  29.052  1.00  0.00    -0.248 NA
ATOM     46  C   UNL A   1      39.517  26.340  28.170  1.00  0.00     0.031 C 
ATOM     47  C   UNL A   1      42.541  29.420  29.168  1.00  0.00     0.029 A 
ATOM     48  N   UNL A   1      40.986  30.786  30.090  1.00  0.00    -0.354 N 
ATOM     49  C   UNL A   1      41.632  25.482  28.392  1.00  0.00     0.074 A 
ATOM     50  C   UNL A   1      40.276  25.257  27.970  1.00  0.00     0.031 C 
ATOM     51  C   UNL A   1      43.195  30.307  29.934  1.00  0.00     0.029 A 
ATOM     52  C   UNL A   1      42.207  30.932  30.795  1.00  0.00     0.049 A 
ATOM     53  H   UNL A   1      40.221  31.405  30.084  1.00  0.00     0.167 HD
ATOM     54  C   UNL A   1      42.841  24.892  28.183  1.00  0.00     0.037 A 
ATOM     55  C   UNL A   1      42.246  30.896  32.159  1.00  0.00     0.037 A 
ATOM     56  C   UNL A   1      43.864  25.539  29.005  1.00  0.00     0.049 A 
ATOM     57  C   UNL A   1      43.090  29.775  32.718  1.00  0.00     0.074 A 
ATOM     58  C   UNL A   1      44.881  26.433  28.724  1.00  0.00     0.029 A 
ATOM     59  N   UNL A   1      43.726  25.514  30.391  1.00  0.00    -0.354 N 
ATOM     60  N   UNL A   1      43.409  28.700  32.050  1.00  0.00    -0.248 NA
ATOM     61  C   UNL A   1      43.622  29.768  34.078  1.00  0.00     0.031 C 
ATOM     62  C   UNL A   1      45.286  27.023  29.953  1.00  0.00     0.029 A 
ATOM     63  C   UNL A   1      44.551  26.451  30.980  1.00  0.00     0.049 A 
ATOM     64  H   UNL A   1      43.123  24.912  30.883  1.00  0.00     0.167 HD
ATOM     65  C   UNL A   1      44.138  27.863  32.854  1.00  0.00     0.074 A 
ATOM     66  C   UNL A   1      44.262  28.587  34.106  1.00  0.00     0.031 C 
ATOM     67  C   UNL A   1      44.560  26.637  32.426  1.00  0.00     0.037 A 
BRANCH  54  68
ATOM     68  C   UNL A   1      43.168  23.865  27.114  1.00  0.00     0.064 A 
ATOM     69  C   UNL A   1      42.781  22.517  27.295  1.00  0.00     0.173 A 
ATOM     70  C   UNL A   1      43.964  24.091  25.970  1.00  0.00     0.173 A 
ATOM     71  F   UNL A   1      42.017  22.148  28.334  1.00  0.00    -0.203 F 
ATOM     72  C   UNL A   1      43.182  21.491  26.431  1.00  0.00     0.198 A 
ATOM     73  C   UNL A   1      44.325  23.072  25.081  1.00  0.00     0.198 A 
ATOM     74  F   UNL A   1      44.480  25.286  25.678  1.00  0.00    -0.203 F 
ATOM     75  F   UNL A   1      42.832  20.225  26.694  1.00  0.00    -0.200 F 
ATOM     76  C   UNL A   1      43.950  21.769  25.320  1.00  0.00     0.200 A 
ATOM     77  F   UNL A   1      45.071  23.367  24.006  1.00  0.00    -0.200 F 
ATOM     78  F   UNL A   1      44.340  20.790  24.493  1.00  0.00    -0.200 F 
ENDBRANCH  54  68
BRANCH  55  79
ATOM     79  C   UNL A   1      41.021  31.447  32.793  1.00  0.00     0.064 A 
ATOM     80  C   UNL A   1      40.879  32.846  32.851  1.00  0.00     0.173 A 
ATOM     81  C   UNL A   1      39.864  30.672  32.943  1.00  0.00     0.173 A 
ATOM     82  F   UNL A   1      41.957  33.633  32.709  1.00  0.00    -0.203 F 
ATOM     83  C   UNL A   1      39.623  33.444  32.927  1.00  0.00     0.198 A 
ATOM     84  C   UNL A   1      38.606  31.277  33.021  1.00  0.00     0.198 A 
ATOM     85  F   UNL A   1      39.932  29.335  32.883  1.00  0.00    -0.203 F 
ATOM     86  F   UNL A   1      39.513  34.779  32.857  1.00  0.00    -0.200 F 
ATOM     87  C   UNL A   1      38.484  32.658  32.973  1.00  0.00     0.200 A 
ATOM     88  F   UNL A   1      37.502  30.516  33.048  1.00  0.00    -0.200 F 
ATOM     89  F   UNL A   1      37.273  33.229  32.927  1.00  0.00    -0.200 F 
ENDBRANCH  55  79
BRANCH  67  90
ATOM     90  C   UNL A   1      45.095  25.527  33.306  1.00  0.00     0.064 A 
ATOM     91  C   UNL A   1      44.284  24.646  34.044  1.00  0.00     0.173 A 
ATOM     92  C   UNL A   1      46.477  25.217  33.308  1.00  0.00     0.173 A 
ATOM     93  F   UNL A   1      42.948  24.740  34.021  1.00  0.00    -0.203 F 
ATOM     94  C   UNL A   1      44.820  23.588  34.785  1.00  0.00     0.198 A 
ATOM     95  C   UNL A   1      47.000  24.121  33.996  1.00  0.00     0.198 A 
ATOM     96  F   UNL A   1      47.363  25.949  32.618  1.00  0.00    -0.203 F 
ATOM     97  F   UNL A   1      44.004  22.809  35.510  1.00  0.00    -0.200 F 
ATOM     98  C   UNL A   1      46.174  23.318  34.751  1.00  0.00     0.200 A 
ATOM     99  F   UNL A   1      48.307  23.838  33.901  1.00  0.00    -0.200 F 
ATOM    100  F   UNL A   1      46.675  22.273  35.422  1.00  0.00    -0.200 F 
ENDBRANCH  67  90
ENDBRANCH  41  42
ENDBRANCH  33  36
ENDBRANCH  31  32
ENDBRANCH  30  31
ENDBRANCH  29  30
ENDBRANCH  28  29
ENDBRANCH   1  28
TORSDOF 17
ENDMDL
