MODEL 1
REMARK VINA RESULT:     -12.6      0.000      0.000
REMARK SMILES C/C=C(\C)[C@@H]1C=C[C@@H]2C[C@H](C)C[C@H](C)[C@@H]2[C@@H]1C(=O)C1=C(NCCCCCCNC(=O)c2ccc(-c3c4nc(c(-c5c(F)c(F)c(F)c(F)c5F)c5ccc([nH]5)c(-c5c(F)c(F)c(F)c(F)c5F)c5nc(c(-c6c(F)c(F)c(F)c(F)c6F)c6ccc3[nH]6)C=C5)C=C4)cc2)[C@H](C[C@](C)(O)C(=O)[O-])NC1=O
REMARK SMILES IDX 24 1 23 2 22 3 21 4 20 6 19 7 103 8 94 9 102 10 104 11 17 13
REMARK SMILES IDX 18 14 16 15 5 16 6 17 7 18 15 19 8 20 13 21 9 22 12 23 14 24
REMARK SMILES IDX 10 25 11 26 3 27 1 28 2 29 4 30 95 31 96 32 97 33 98 34
REMARK SMILES IDX 99 36 100 37 101 38 25 39 26 40 27 41 28 42 29 43 30 45
REMARK SMILES IDX 31 46 32 47 93 48 33 49 92 50 34 51 35 52 36 53 86 54 37 55
REMARK SMILES IDX 91 56 85 57 87 58 38 59 90 60 84 61 83 62 39 64 71 65 51 66
REMARK SMILES IDX 70 67 52 68 55 69 69 70 88 71 53 72 54 73 68 75 89 76 56 77
REMARK SMILES IDX 40 78 41 79 49 80 42 81 43 82 47 83 50 84 44 85 45 86 48 87
REMARK SMILES IDX 46 88 72 89 73 90 81 91 74 92 75 93 79 94 82 95 76 96 77 97
REMARK SMILES IDX 80 98 78 99 57 100 58 101 66 102 59 103 60 104 64 105 67 106
REMARK SMILES IDX 61 107 62 108 65 109 63 110
REMARK H PARENT 21 5 102 12 98 35 28 44 87 63 55 74
REMARK Flexibility Score: inf
ROOT
ATOM      1  C   UNL A   1      33.041  30.052  27.203  1.00  0.00     0.002 C 
ENDROOT
BRANCH   1   2
ATOM      2  C   UNL A   1      33.209  28.531  27.112  1.00  0.00     0.021 C 
BRANCH   2   3
ATOM      3  C   UNL A   1      34.373  28.014  26.266  1.00  0.00     0.112 C 
BRANCH   3   4
ATOM      4  N   UNL A   1      33.974  26.799  25.605  1.00  0.00    -0.386 N 
ATOM      5  H   UNL A   1      33.910  26.019  26.202  1.00  0.00     0.160 HD
BRANCH   4   6
ATOM      6  C   UNL A   1      33.668  26.532  24.290  1.00  0.00     0.050 C 
ATOM      7  C   UNL A   1      33.990  25.522  23.440  1.00  0.00     0.104 C 
ATOM      8  C   UNL A   1      33.384  25.942  22.144  1.00  0.00     0.257 C 
ATOM      9  C   UNL A   1      32.743  27.567  23.647  1.00  0.00     0.133 C 
ATOM     10  N   UNL A   1      32.840  27.183  22.286  1.00  0.00    -0.343 N 
ATOM     11  O   UNL A   1      33.300  25.361  21.074  1.00  0.00    -0.269 OA
ATOM     12  H   UNL A   1      32.548  27.746  21.532  1.00  0.00     0.164 HD
BRANCH   7  13
ATOM     13  C   UNL A   1      34.480  24.162  23.866  1.00  0.00     0.174 C 
ATOM     14  O   UNL A   1      34.989  23.467  22.970  1.00  0.00    -0.294 OA
BRANCH  13  15
ATOM     15  C   UNL A   1      34.349  23.504  25.285  1.00  0.00     0.076 C 
ATOM     16  C   UNL A   1      35.373  22.392  25.611  1.00  0.00     0.048 C 
ATOM     17  C   UNL A   1      35.023  21.172  24.789  1.00  0.00    -0.022 C 
ATOM     18  C   UNL A   1      33.744  20.922  24.413  1.00  0.00    -0.027 C 
ATOM     19  C   UNL A   1      32.966  22.897  25.721  1.00  0.00     0.010 C 
ATOM     20  C   UNL A   1      32.534  21.806  24.741  1.00  0.00     0.016 C 
ATOM     21  C   UNL A   1      31.788  23.800  26.123  1.00  0.00    -0.010 C 
ATOM     22  C   UNL A   1      31.792  22.427  23.534  1.00  0.00     0.011 C 
ATOM     23  C   UNL A   1      31.121  24.477  24.940  1.00  0.00     0.007 C 
ATOM     24  C   UNL A   1      32.145  24.786  27.233  1.00  0.00     0.008 C 
ATOM     25  C   UNL A   1      30.698  23.461  23.871  1.00  0.00    -0.013 C 
ATOM     26  C   UNL A   1      30.296  24.227  22.604  1.00  0.00     0.007 C 
BRANCH  16  27
ATOM     27  C   UNL A   1      36.820  22.870  25.769  1.00  0.00    -0.070 C 
ATOM     28  C   UNL A   1      39.272  22.023  25.886  1.00  0.00     0.035 C 
ATOM     29  C   UNL A   1      37.783  21.915  25.817  1.00  0.00    -0.031 C 
ATOM     30  C   UNL A   1      37.113  24.339  25.711  1.00  0.00     0.040 C 
ENDBRANCH  16  27
ENDBRANCH  13  15
ENDBRANCH   7  13
BRANCH   9  31
ATOM     31  C   UNL A   1      31.245  27.607  24.053  1.00  0.00     0.072 C 
BRANCH  31  32
ATOM     32  C   UNL A   1      30.144  28.069  23.079  1.00  0.00     0.103 C 
ATOM     33  C   UNL A   1      28.781  27.423  23.334  1.00  0.00     0.049 C 
BRANCH  32  34
ATOM     34  O   UNL A   1      30.561  27.586  21.771  1.00  0.00    -0.384 OA
ATOM     35  H   UNL A   1      30.666  28.338  21.167  1.00  0.00     0.211 HD
ENDBRANCH  32  34
BRANCH  32  36
ATOM     36  C   UNL A   1      30.036  29.587  22.885  1.00  0.00     0.073 C 
ATOM     37  O   UNL A   1      29.857  30.416  23.766  1.00  0.00    -0.547 OA
ATOM     38  O   UNL A   1      30.031  29.995  21.596  1.00  0.00    -0.547 OA
ENDBRANCH  32  36
ENDBRANCH  31  32
ENDBRANCH   9  31
ENDBRANCH   4   6
ENDBRANCH   3   4
ENDBRANCH   2   3
ENDBRANCH   1   2
BRANCH   1  39
ATOM     39  C   UNL A   1      31.708  30.598  26.692  1.00  0.00     0.002 C 
BRANCH  39  40
ATOM     40  C   UNL A   1      31.562  32.120  26.741  1.00  0.00     0.021 C 
BRANCH  40  41
ATOM     41  C   UNL A   1      32.768  32.887  27.278  1.00  0.00     0.116 C 
BRANCH  41  42
ATOM     42  N   UNL A   1      32.449  34.242  27.687  1.00  0.00    -0.352 N 
ATOM     43  C   UNL A   1      33.034  34.999  28.671  1.00  0.00     0.251 C 
ATOM     44  H   UNL A   1      31.715  34.675  27.196  1.00  0.00     0.163 HD
ATOM     45  O   UNL A   1      32.587  36.102  28.965  1.00  0.00    -0.269 OA
BRANCH  43  46
ATOM     46  C   UNL A   1      34.197  34.456  29.402  1.00  0.00     0.039 A 
ATOM     47  C   UNL A   1      33.983  33.829  30.632  1.00  0.00     0.014 A 
ATOM     48  C   UNL A   1      35.486  34.548  28.866  1.00  0.00     0.014 A 
ATOM     49  C   UNL A   1      35.056  33.243  31.302  1.00  0.00     0.010 A 
ATOM     50  C   UNL A   1      36.545  33.913  29.509  1.00  0.00     0.010 A 
ATOM     51  C   UNL A   1      36.340  33.261  30.735  1.00  0.00    -0.014 A 
BRANCH  51  52
ATOM     52  C   UNL A   1      37.483  32.613  31.422  1.00  0.00     0.031 A 
ATOM     53  C   UNL A   1      38.184  31.451  30.779  1.00  0.00     0.074 A 
ATOM     54  C   UNL A   1      37.849  33.030  32.647  1.00  0.00     0.049 A 
ATOM     55  N   UNL A   1      39.169  30.722  31.238  1.00  0.00    -0.248 NA
ATOM     56  C   UNL A   1      37.690  31.035  29.458  1.00  0.00     0.031 C 
ATOM     57  C   UNL A   1      37.206  34.108  33.399  1.00  0.00     0.029 A 
ATOM     58  N   UNL A   1      38.843  32.585  33.483  1.00  0.00    -0.354 N 
ATOM     59  C   UNL A   1      39.403  29.755  30.270  1.00  0.00     0.074 A 
ATOM     60  C   UNL A   1      38.425  29.959  29.223  1.00  0.00     0.031 C 
ATOM     61  C   UNL A   1      37.824  34.243  34.583  1.00  0.00     0.029 A 
ATOM     62  C   UNL A   1      38.891  33.252  34.681  1.00  0.00     0.049 A 
ATOM     63  H   UNL A   1      39.461  31.857  33.245  1.00  0.00     0.167 HD
ATOM     64  C   UNL A   1      40.360  28.797  30.248  1.00  0.00     0.037 A 
ATOM     65  C   UNL A   1      39.705  33.080  35.739  1.00  0.00     0.037 A 
ATOM     66  C   UNL A   1      41.348  28.614  31.277  1.00  0.00     0.049 A 
ATOM     67  C   UNL A   1      40.784  32.035  35.679  1.00  0.00     0.074 A 
ATOM     68  C   UNL A   1      42.406  27.725  31.312  1.00  0.00     0.029 A 
ATOM     69  N   UNL A   1      41.395  29.340  32.459  1.00  0.00    -0.354 N 
ATOM     70  N   UNL A   1      41.048  31.177  34.723  1.00  0.00    -0.248 NA
ATOM     71  C   UNL A   1      41.684  31.943  36.835  1.00  0.00     0.031 C 
ATOM     72  C   UNL A   1      43.075  27.886  32.532  1.00  0.00     0.029 A 
ATOM     73  C   UNL A   1      42.455  28.903  33.240  1.00  0.00     0.049 A 
ATOM     74  H   UNL A   1      40.770  30.058  32.708  1.00  0.00     0.167 HD
ATOM     75  C   UNL A   1      42.151  30.453  35.154  1.00  0.00     0.074 A 
ATOM     76  C   UNL A   1      42.517  30.985  36.452  1.00  0.00     0.031 C 
ATOM     77  C   UNL A   1      42.800  29.440  34.531  1.00  0.00     0.037 A 
BRANCH  64  78
ATOM     78  C   UNL A   1      40.378  27.875  29.064  1.00  0.00     0.064 A 
ATOM     79  C   UNL A   1      41.082  28.197  27.894  1.00  0.00     0.173 A 
ATOM     80  C   UNL A   1      39.688  26.655  29.102  1.00  0.00     0.173 A 
ATOM     81  F   UNL A   1      41.745  29.360  27.804  1.00  0.00    -0.203 F 
ATOM     82  C   UNL A   1      41.063  27.349  26.791  1.00  0.00     0.198 A 
ATOM     83  C   UNL A   1      39.695  25.795  28.006  1.00  0.00     0.198 A 
ATOM     84  F   UNL A   1      39.003  26.298  30.198  1.00  0.00    -0.203 F 
ATOM     85  F   UNL A   1      41.694  27.704  25.663  1.00  0.00    -0.200 F 
ATOM     86  C   UNL A   1      40.374  26.147  26.849  1.00  0.00     0.200 A 
ATOM     87  F   UNL A   1      39.036  24.630  28.066  1.00  0.00    -0.200 F 
ATOM     88  F   UNL A   1      40.354  25.332  25.785  1.00  0.00    -0.200 F 
ENDBRANCH  64  78
BRANCH  65  89
ATOM     89  C   UNL A   1      39.540  33.945  36.934  1.00  0.00     0.064 A 
ATOM     90  C   UNL A   1      40.127  35.215  36.991  1.00  0.00     0.173 A 
ATOM     91  C   UNL A   1      38.764  33.532  38.027  1.00  0.00     0.173 A 
ATOM     92  F   UNL A   1      40.893  35.644  35.975  1.00  0.00    -0.203 F 
ATOM     93  C   UNL A   1      39.952  36.039  38.100  1.00  0.00     0.198 A 
ATOM     94  C   UNL A   1      38.572  34.365  39.126  1.00  0.00     0.198 A 
ATOM     95  F   UNL A   1      38.176  32.327  38.016  1.00  0.00    -0.203 F 
ATOM     96  F   UNL A   1      40.546  37.240  38.140  1.00  0.00    -0.200 F 
ATOM     97  C   UNL A   1      39.168  35.617  39.164  1.00  0.00     0.200 A 
ATOM     98  F   UNL A   1      37.804  33.959  40.146  1.00  0.00    -0.200 F 
ATOM     99  F   UNL A   1      38.990  36.415  40.225  1.00  0.00    -0.200 F 
ENDBRANCH  65  89
BRANCH  77 100
ATOM    100  C   UNL A   1      43.981  28.845  35.239  1.00  0.00     0.064 A 
ATOM    101  C   UNL A   1      45.275  29.350  35.053  1.00  0.00     0.173 A 
ATOM    102  C   UNL A   1      43.809  27.787  36.144  1.00  0.00     0.173 A 
ATOM    103  F   UNL A   1      45.491  30.351  34.186  1.00  0.00    -0.203 F 
ATOM    104  C   UNL A   1      46.359  28.805  35.736  1.00  0.00     0.198 A 
ATOM    105  C   UNL A   1      44.892  27.260  36.843  1.00  0.00     0.198 A 
ATOM    106  F   UNL A   1      42.588  27.272  36.359  1.00  0.00    -0.203 F 
ATOM    107  F   UNL A   1      47.594  29.279  35.516  1.00  0.00    -0.200 F 
ATOM    108  C   UNL A   1      46.166  27.766  36.634  1.00  0.00     0.200 A 
ATOM    109  F   UNL A   1      44.701  26.262  37.716  1.00  0.00    -0.200 F 
ATOM    110  F   UNL A   1      47.210  27.247  37.295  1.00  0.00    -0.200 F 
ENDBRANCH  77 100
ENDBRANCH  51  52
ENDBRANCH  43  46
ENDBRANCH  41  42
ENDBRANCH  40  41
ENDBRANCH  39  40
ENDBRANCH   1  39
TORSDOF 20
ENDMDL
MODEL 2
REMARK VINA RESULT:     -12.4      0.710      6.862
REMARK SMILES C/C=C(\C)[C@@H]1C=C[C@@H]2C[C@H](C)C[C@H](C)[C@@H]2[C@@H]1C(=O)C1=C(NCCCCCCNC(=O)c2ccc(-c3c4nc(c(-c5c(F)c(F)c(F)c(F)c5F)c5ccc([nH]5)c(-c5c(F)c(F)c(F)c(F)c5F)c5nc(c(-c6c(F)c(F)c(F)c(F)c6F)c6ccc3[nH]6)C=C5)C=C4)cc2)[C@H](C[C@](C)(O)C(=O)[O-])NC1=O
REMARK SMILES IDX 24 1 23 2 22 3 21 4 20 6 19 7 103 8 94 9 102 10 104 11 17 13
REMARK SMILES IDX 18 14 16 15 5 16 6 17 7 18 15 19 8 20 13 21 9 22 12 23 14 24
REMARK SMILES IDX 10 25 11 26 3 27 1 28 2 29 4 30 95 31 96 32 97 33 98 34
REMARK SMILES IDX 99 36 100 37 101 38 25 39 26 40 27 41 28 42 29 43 30 45
REMARK SMILES IDX 31 46 32 47 93 48 33 49 92 50 34 51 35 52 36 53 86 54 37 55
REMARK SMILES IDX 91 56 85 57 87 58 38 59 90 60 84 61 83 62 39 64 71 65 51 66
REMARK SMILES IDX 70 67 52 68 55 69 69 70 88 71 53 72 54 73 68 75 89 76 56 77
REMARK SMILES IDX 40 78 41 79 49 80 42 81 43 82 47 83 50 84 44 85 45 86 48 87
REMARK SMILES IDX 46 88 72 89 73 90 81 91 74 92 75 93 79 94 82 95 76 96 77 97
REMARK SMILES IDX 80 98 78 99 57 100 58 101 66 102 59 103 60 104 64 105 67 106
REMARK SMILES IDX 61 107 62 108 65 109 63 110
REMARK H PARENT 21 5 102 12 98 35 28 44 87 63 55 74
REMARK Flexibility Score: inf
ROOT
ATOM      1  C   UNL A   1      33.010  29.805  27.347  1.00  0.00     0.002 C 
ENDROOT
BRANCH   1   2
ATOM      2  C   UNL A   1      33.247  28.297  27.207  1.00  0.00     0.021 C 
BRANCH   2   3
ATOM      3  C   UNL A   1      34.423  27.861  26.331  1.00  0.00     0.112 C 
BRANCH   3   4
ATOM      4  N   UNL A   1      34.082  26.635  25.658  1.00  0.00    -0.386 N 
ATOM      5  H   UNL A   1      34.066  25.844  26.243  1.00  0.00     0.160 HD
BRANCH   4   6
ATOM      6  C   UNL A   1      33.775  26.371  24.342  1.00  0.00     0.050 C 
ATOM      7  C   UNL A   1      34.089  25.358  23.493  1.00  0.00     0.104 C 
ATOM      8  C   UNL A   1      33.488  25.783  22.196  1.00  0.00     0.257 C 
ATOM      9  C   UNL A   1      32.860  27.414  23.698  1.00  0.00     0.133 C 
ATOM     10  N   UNL A   1      32.955  27.029  22.337  1.00  0.00    -0.343 N 
ATOM     11  O   UNL A   1      33.400  25.204  21.126  1.00  0.00    -0.269 OA
ATOM     12  H   UNL A   1      32.669  27.595  21.583  1.00  0.00     0.164 HD
BRANCH   7  13
ATOM     13  C   UNL A   1      34.566  23.994  23.920  1.00  0.00     0.174 C 
ATOM     14  O   UNL A   1      35.074  23.296  23.025  1.00  0.00    -0.294 OA
BRANCH  13  15
ATOM     15  C   UNL A   1      34.422  23.335  25.336  1.00  0.00     0.076 C 
ATOM     16  C   UNL A   1      35.432  22.210  25.663  1.00  0.00     0.048 C 
ATOM     17  C   UNL A   1      35.069  20.995  24.838  1.00  0.00    -0.022 C 
ATOM     18  C   UNL A   1      33.788  20.762  24.458  1.00  0.00    -0.027 C 
ATOM     19  C   UNL A   1      33.031  22.745  25.767  1.00  0.00     0.010 C 
ATOM     20  C   UNL A   1      32.588  21.660  24.784  1.00  0.00     0.016 C 
ATOM     21  C   UNL A   1      31.863  23.661  26.167  1.00  0.00    -0.010 C 
ATOM     22  C   UNL A   1      31.857  22.293  23.576  1.00  0.00     0.011 C 
ATOM     23  C   UNL A   1      31.208  24.348  24.984  1.00  0.00     0.007 C 
ATOM     24  C   UNL A   1      32.228  24.641  27.280  1.00  0.00     0.008 C 
ATOM     25  C   UNL A   1      30.775  23.339  23.912  1.00  0.00    -0.013 C 
ATOM     26  C   UNL A   1      30.387  24.112  22.645  1.00  0.00     0.007 C 
BRANCH  16  27
ATOM     27  C   UNL A   1      36.884  22.669  25.827  1.00  0.00    -0.070 C 
ATOM     28  C   UNL A   1      39.337  21.816  25.786  1.00  0.00     0.035 C 
ATOM     29  C   UNL A   1      37.846  21.715  25.750  1.00  0.00    -0.031 C 
ATOM     30  C   UNL A   1      37.179  24.137  25.910  1.00  0.00     0.040 C 
ENDBRANCH  16  27
ENDBRANCH  13  15
ENDBRANCH   7  13
BRANCH   9  31
ATOM     31  C   UNL A   1      31.362  27.468  24.102  1.00  0.00     0.072 C 
BRANCH  31  32
ATOM     32  C   UNL A   1      30.267  27.946  23.129  1.00  0.00     0.103 C 
ATOM     33  C   UNL A   1      28.892  27.330  23.394  1.00  0.00     0.049 C 
BRANCH  32  34
ATOM     34  O   UNL A   1      30.669  27.446  21.823  1.00  0.00    -0.384 OA
ATOM     35  H   UNL A   1      30.774  26.482  21.865  1.00  0.00     0.211 HD
ENDBRANCH  32  34
BRANCH  32  36
ATOM     36  C   UNL A   1      30.190  29.465  22.925  1.00  0.00     0.073 C 
ATOM     37  O   UNL A   1      30.150  30.310  23.808  1.00  0.00    -0.547 OA
ATOM     38  O   UNL A   1      30.041  29.857  21.640  1.00  0.00    -0.547 OA
ENDBRANCH  32  36
ENDBRANCH  31  32
ENDBRANCH   9  31
ENDBRANCH   4   6
ENDBRANCH   3   4
ENDBRANCH   2   3
ENDBRANCH   1   2
BRANCH   1  39
ATOM     39  C   UNL A   1      31.688  30.319  26.780  1.00  0.00     0.002 C 
BRANCH  39  40
ATOM     40  C   UNL A   1      31.533  31.840  26.754  1.00  0.00     0.021 C 
BRANCH  40  41
ATOM     41  C   UNL A   1      32.791  32.642  27.074  1.00  0.00     0.116 C 
BRANCH  41  42
ATOM     42  N   UNL A   1      32.509  33.978  27.565  1.00  0.00    -0.352 N 
ATOM     43  C   UNL A   1      33.123  34.662  28.585  1.00  0.00     0.251 C 
ATOM     44  H   UNL A   1      31.782  34.457  27.108  1.00  0.00     0.163 HD
ATOM     45  O   UNL A   1      32.706  35.757  28.948  1.00  0.00    -0.269 OA
BRANCH  43  46
ATOM     46  C   UNL A   1      34.278  34.049  29.270  1.00  0.00     0.039 A 
ATOM     47  C   UNL A   1      34.045  33.031  30.198  1.00  0.00     0.014 A 
ATOM     48  C   UNL A   1      35.583  34.463  28.982  1.00  0.00     0.014 A 
ATOM     49  C   UNL A   1      35.125  32.388  30.801  1.00  0.00     0.010 A 
ATOM     50  C   UNL A   1      36.661  33.782  29.542  1.00  0.00     0.010 A 
ATOM     51  C   UNL A   1      36.440  32.742  30.459  1.00  0.00    -0.014 A 
BRANCH  51  52
ATOM     52  C   UNL A   1      37.598  32.043  31.068  1.00  0.00     0.031 A 
ATOM     53  C   UNL A   1      38.071  32.429  32.440  1.00  0.00     0.074 A 
ATOM     54  C   UNL A   1      38.259  31.108  30.362  1.00  0.00     0.049 A 
ATOM     55  N   UNL A   1      39.090  31.972  33.122  1.00  0.00    -0.248 NA
ATOM     56  C   UNL A   1      37.315  33.490  33.121  1.00  0.00     0.031 C 
ATOM     57  C   UNL A   1      37.932  30.691  28.999  1.00  0.00     0.029 A 
ATOM     58  N   UNL A   1      39.355  30.349  30.691  1.00  0.00    -0.354 N 
ATOM     59  C   UNL A   1      39.105  32.699  34.305  1.00  0.00     0.074 A 
ATOM     60  C   UNL A   1      38.026  33.660  34.225  1.00  0.00     0.031 C 
ATOM     61  C   UNL A   1      38.806  29.750  28.608  1.00  0.00     0.029 A 
ATOM     62  C   UNL A   1      39.762  29.510  29.685  1.00  0.00     0.049 A 
ATOM     63  H   UNL A   1      39.805  30.402  31.565  1.00  0.00     0.167 HD
ATOM     64  C   UNL A   1      39.932  32.563  35.368  1.00  0.00     0.037 A 
ATOM     65  C   UNL A   1      40.795  28.648  29.637  1.00  0.00     0.037 A 
ATOM     66  C   UNL A   1      40.987  31.589  35.456  1.00  0.00     0.049 A 
ATOM     67  C   UNL A   1      41.678  28.486  30.842  1.00  0.00     0.074 A 
ATOM     68  C   UNL A   1      41.829  31.318  36.520  1.00  0.00     0.029 A 
ATOM     69  N   UNL A   1      41.344  30.722  34.433  1.00  0.00    -0.354 N 
ATOM     70  N   UNL A   1      41.635  29.123  31.987  1.00  0.00    -0.248 NA
ATOM     71  C   UNL A   1      42.744  27.480  30.754  1.00  0.00     0.031 C 
ATOM     72  C   UNL A   1      42.720  30.312  36.128  1.00  0.00     0.029 A 
ATOM     73  C   UNL A   1      42.408  29.929  34.834  1.00  0.00     0.049 A 
ATOM     74  H   UNL A   1      40.907  30.677  33.552  1.00  0.00     0.167 HD
ATOM     75  C   UNL A   1      42.655  28.587  32.761  1.00  0.00     0.074 A 
ATOM     76  C   UNL A   1      43.290  27.559  31.960  1.00  0.00     0.031 C 
ATOM     77  C   UNL A   1      43.031  28.916  34.021  1.00  0.00     0.037 A 
BRANCH  64  78
ATOM     78  C   UNL A   1      39.720  33.497  36.524  1.00  0.00     0.064 A 
ATOM     79  C   UNL A   1      38.886  33.156  37.599  1.00  0.00     0.173 A 
ATOM     80  C   UNL A   1      40.362  34.743  36.559  1.00  0.00     0.173 A 
ATOM     81  F   UNL A   1      38.239  31.981  37.605  1.00  0.00    -0.203 F 
ATOM     82  C   UNL A   1      38.671  34.045  38.649  1.00  0.00     0.198 A 
ATOM     83  C   UNL A   1      40.167  35.619  37.624  1.00  0.00     0.198 A 
ATOM     84  F   UNL A   1      41.173  35.115  35.558  1.00  0.00    -0.203 F 
ATOM     85  F   UNL A   1      37.824  33.721  39.636  1.00  0.00    -0.200 F 
ATOM     86  C   UNL A   1      39.315  35.273  38.663  1.00  0.00     0.200 A 
ATOM     87  F   UNL A   1      40.796  36.802  37.641  1.00  0.00    -0.200 F 
ATOM     88  F   UNL A   1      39.105  36.130  39.672  1.00  0.00    -0.200 F 
ENDBRANCH  64  78
BRANCH  65  89
ATOM     89  C   UNL A   1      41.023  27.851  28.405  1.00  0.00     0.064 A 
ATOM     90  C   UNL A   1      41.826  28.344  27.368  1.00  0.00     0.173 A 
ATOM     91  C   UNL A   1      40.473  26.570  28.256  1.00  0.00     0.173 A 
ATOM     92  F   UNL A   1      42.358  29.572  27.460  1.00  0.00    -0.203 F 
ATOM     93  C   UNL A   1      42.063  27.588  26.222  1.00  0.00     0.198 A 
ATOM     94  C   UNL A   1      40.728  25.807  27.120  1.00  0.00     0.198 A 
ATOM     95  F   UNL A   1      39.703  26.054  29.226  1.00  0.00    -0.203 F 
ATOM     96  F   UNL A   1      42.814  28.092  25.233  1.00  0.00    -0.200 F 
ATOM     97  C   UNL A   1      41.521  26.317  26.102  1.00  0.00     0.200 A 
ATOM     98  F   UNL A   1      40.212  24.575  27.014  1.00  0.00    -0.200 F 
ATOM     99  F   UNL A   1      41.759  25.585  25.005  1.00  0.00    -0.200 F 
ENDBRANCH  65  89
BRANCH  77 100
ATOM    100  C   UNL A   1      44.175  28.152  34.616  1.00  0.00     0.064 A 
ATOM    101  C   UNL A   1      43.973  26.936  35.283  1.00  0.00     0.173 A 
ATOM    102  C   UNL A   1      45.490  28.621  34.481  1.00  0.00     0.173 A 
ATOM    103  F   UNL A   1      42.732  26.455  35.450  1.00  0.00    -0.203 F 
ATOM    104  C   UNL A   1      45.048  26.223  35.810  1.00  0.00     0.198 A 
ATOM    105  C   UNL A   1      46.564  27.894  34.989  1.00  0.00     0.198 A 
ATOM    106  F   UNL A   1      45.735  29.778  33.848  1.00  0.00    -0.203 F 
ATOM    107  F   UNL A   1      44.829  25.081  36.476  1.00  0.00    -0.200 F 
ATOM    108  C   UNL A   1      46.341  26.699  35.656  1.00  0.00     0.200 A 
ATOM    109  F   UNL A   1      47.814  28.351  34.831  1.00  0.00    -0.200 F 
ATOM    110  F   UNL A   1      47.374  26.008  36.158  1.00  0.00    -0.200 F 
ENDBRANCH  77 100
ENDBRANCH  51  52
ENDBRANCH  43  46
ENDBRANCH  41  42
ENDBRANCH  40  41
ENDBRANCH  39  40
ENDBRANCH   1  39
TORSDOF 20
ENDMDL
MODEL 3
REMARK VINA RESULT:     -12.2      0.337      1.538
REMARK SMILES C/C=C(\C)[C@@H]1C=C[C@@H]2C[C@H](C)C[C@H](C)[C@@H]2[C@@H]1C(=O)C1=C(NCCCCCCNC(=O)c2ccc(-c3c4nc(c(-c5c(F)c(F)c(F)c(F)c5F)c5ccc([nH]5)c(-c5c(F)c(F)c(F)c(F)c5F)c5nc(c(-c6c(F)c(F)c(F)c(F)c6F)c6ccc3[nH]6)C=C5)C=C4)cc2)[C@H](C[C@](C)(O)C(=O)[O-])NC1=O
REMARK SMILES IDX 24 1 23 2 22 3 21 4 20 6 19 7 103 8 94 9 102 10 104 11 17 13
REMARK SMILES IDX 18 14 16 15 5 16 6 17 7 18 15 19 8 20 13 21 9 22 12 23 14 24
REMARK SMILES IDX 10 25 11 26 3 27 1 28 2 29 4 30 95 31 96 32 97 33 98 34
REMARK SMILES IDX 99 36 100 37 101 38 25 39 26 40 27 41 28 42 29 43 30 45
REMARK SMILES IDX 31 46 32 47 93 48 33 49 92 50 34 51 35 52 36 53 86 54 37 55
REMARK SMILES IDX 91 56 85 57 87 58 38 59 90 60 84 61 83 62 39 64 71 65 51 66
REMARK SMILES IDX 70 67 52 68 55 69 69 70 88 71 53 72 54 73 68 75 89 76 56 77
REMARK SMILES IDX 40 78 41 79 49 80 42 81 43 82 47 83 50 84 44 85 45 86 48 87
REMARK SMILES IDX 46 88 72 89 73 90 81 91 74 92 75 93 79 94 82 95 76 96 77 97
REMARK SMILES IDX 80 98 78 99 57 100 58 101 66 102 59 103 60 104 64 105 67 106
REMARK SMILES IDX 61 107 62 108 65 109 63 110
REMARK H PARENT 21 5 102 12 98 35 28 44 87 63 55 74
REMARK Flexibility Score: inf
ROOT
ATOM      1  C   UNL A   1      31.855  29.032  26.905  1.00  0.00     0.002 C 
ENDROOT
BRANCH   1   2
ATOM      2  C   UNL A   1      33.131  28.275  27.290  1.00  0.00     0.021 C 
BRANCH   2   3
ATOM      3  C   UNL A   1      34.174  28.075  26.190  1.00  0.00     0.112 C 
BRANCH   3   4
ATOM      4  N   UNL A   1      33.943  26.809  25.545  1.00  0.00    -0.386 N 
ATOM      5  H   UNL A   1      34.005  26.032  26.146  1.00  0.00     0.160 HD
BRANCH   4   6
ATOM      6  C   UNL A   1      33.653  26.490  24.237  1.00  0.00     0.050 C 
ATOM      7  C   UNL A   1      34.012  25.462  23.423  1.00  0.00     0.104 C 
ATOM      8  C   UNL A   1      33.401  25.821  22.111  1.00  0.00     0.257 C 
ATOM      9  C   UNL A   1      32.702  27.475  23.555  1.00  0.00     0.133 C 
ATOM     10  N   UNL A   1      32.818  27.049  22.208  1.00  0.00    -0.343 N 
ATOM     11  O   UNL A   1      33.341  25.204  21.059  1.00  0.00    -0.269 OA
ATOM     12  H   UNL A   1      32.514  27.578  21.435  1.00  0.00     0.164 HD
BRANCH   7  13
ATOM     13  C   UNL A   1      34.540  24.133  23.896  1.00  0.00     0.174 C 
ATOM     14  O   UNL A   1      35.097  23.436  23.031  1.00  0.00    -0.294 OA
BRANCH  13  15
ATOM     15  C   UNL A   1      34.397  23.506  25.327  1.00  0.00     0.076 C 
ATOM     16  C   UNL A   1      35.424  22.408  25.690  1.00  0.00     0.048 C 
ATOM     17  C   UNL A   1      35.091  21.168  24.891  1.00  0.00    -0.022 C 
ATOM     18  C   UNL A   1      33.818  20.901  24.507  1.00  0.00    -0.027 C 
ATOM     19  C   UNL A   1      33.013  22.900  25.761  1.00  0.00     0.010 C 
ATOM     20  C   UNL A   1      32.599  21.785  24.801  1.00  0.00     0.016 C 
ATOM     21  C   UNL A   1      31.825  23.804  26.129  1.00  0.00    -0.010 C 
ATOM     22  C   UNL A   1      31.867  22.374  23.572  1.00  0.00     0.011 C 
ATOM     23  C   UNL A   1      31.167  24.450  24.924  1.00  0.00     0.007 C 
ATOM     24  C   UNL A   1      32.162  24.817  27.221  1.00  0.00     0.008 C 
ATOM     25  C   UNL A   1      30.763  23.408  23.874  1.00  0.00    -0.013 C 
ATOM     26  C   UNL A   1      30.371  24.142  22.585  1.00  0.00     0.007 C 
BRANCH  16  27
ATOM     27  C   UNL A   1      36.866  22.899  25.853  1.00  0.00    -0.070 C 
ATOM     28  C   UNL A   1      39.332  22.086  25.888  1.00  0.00     0.035 C 
ATOM     29  C   UNL A   1      37.844  21.959  25.835  1.00  0.00    -0.031 C 
ATOM     30  C   UNL A   1      37.136  24.374  25.873  1.00  0.00     0.040 C 
ENDBRANCH  16  27
ENDBRANCH  13  15
ENDBRANCH   7  13
BRANCH   9  31
ATOM     31  C   UNL A   1      31.201  27.482  23.953  1.00  0.00     0.072 C 
BRANCH  31  32
ATOM     32  C   UNL A   1      30.107  28.020  23.010  1.00  0.00     0.103 C 
ATOM     33  C   UNL A   1      28.700  27.519  23.346  1.00  0.00     0.049 C 
BRANCH  32  34
ATOM     34  O   UNL A   1      30.415  27.456  21.704  1.00  0.00    -0.384 OA
ATOM     35  H   UNL A   1      31.021  26.706  21.810  1.00  0.00     0.211 HD
ENDBRANCH  32  34
BRANCH  32  36
ATOM     36  C   UNL A   1      30.137  29.534  22.766  1.00  0.00     0.073 C 
ATOM     37  O   UNL A   1      30.788  30.113  21.908  1.00  0.00    -0.547 OA
ATOM     38  O   UNL A   1      29.457  30.268  23.676  1.00  0.00    -0.547 OA
ENDBRANCH  32  36
ENDBRANCH  31  32
ENDBRANCH   9  31
ENDBRANCH   4   6
ENDBRANCH   3   4
ENDBRANCH   2   3
ENDBRANCH   1   2
BRANCH   1  39
ATOM     39  C   UNL A   1      32.065  30.291  26.065  1.00  0.00     0.002 C 
BRANCH  39  40
ATOM     40  C   UNL A   1      31.728  31.609  26.764  1.00  0.00     0.021 C 
BRANCH  40  41
ATOM     41  C   UNL A   1      32.920  32.415  27.273  1.00  0.00     0.116 C 
BRANCH  41  42
ATOM     42  N   UNL A   1      32.582  33.785  27.612  1.00  0.00    -0.352 N 
ATOM     43  C   UNL A   1      33.146  34.595  28.566  1.00  0.00     0.251 C 
ATOM     44  H   UNL A   1      31.852  34.187  27.089  1.00  0.00     0.163 HD
ATOM     45  O   UNL A   1      32.684  35.706  28.799  1.00  0.00    -0.269 OA
BRANCH  43  46
ATOM     46  C   UNL A   1      34.302  34.100  29.339  1.00  0.00     0.039 A 
ATOM     47  C   UNL A   1      34.065  33.324  30.477  1.00  0.00     0.014 A 
ATOM     48  C   UNL A   1      35.610  34.381  28.931  1.00  0.00     0.014 A 
ATOM     49  C   UNL A   1      35.142  32.784  31.179  1.00  0.00     0.010 A 
ATOM     50  C   UNL A   1      36.681  33.794  29.599  1.00  0.00     0.010 A 
ATOM     51  C   UNL A   1      36.456  32.995  30.732  1.00  0.00    -0.014 A 
BRANCH  51  52
ATOM     52  C   UNL A   1      37.608  32.399  31.450  1.00  0.00     0.031 A 
ATOM     53  C   UNL A   1      38.355  31.246  30.844  1.00  0.00     0.074 A 
ATOM     54  C   UNL A   1      37.941  32.854  32.671  1.00  0.00     0.049 A 
ATOM     55  N   UNL A   1      39.355  30.559  31.333  1.00  0.00    -0.248 NA
ATOM     56  C   UNL A   1      37.896  30.787  29.525  1.00  0.00     0.031 C 
ATOM     57  C   UNL A   1      37.254  33.927  33.390  1.00  0.00     0.029 A 
ATOM     58  N   UNL A   1      38.936  32.459  33.531  1.00  0.00    -0.354 N 
ATOM     59  C   UNL A   1      39.635  29.580  30.390  1.00  0.00     0.074 A 
ATOM     60  C   UNL A   1      38.667  29.730  29.324  1.00  0.00     0.031 C 
ATOM     61  C   UNL A   1      37.848  34.107  34.580  1.00  0.00     0.029 A 
ATOM     62  C   UNL A   1      38.944  33.153  34.715  1.00  0.00     0.049 A 
ATOM     63  H   UNL A   1      39.580  31.745  33.319  1.00  0.00     0.167 HD
ATOM     64  C   UNL A   1      40.621  28.652  30.404  1.00  0.00     0.037 A 
ATOM     65  C   UNL A   1      39.747  33.029  35.789  1.00  0.00     0.037 A 
ATOM     66  C   UNL A   1      41.598  28.523  31.451  1.00  0.00     0.049 A 
ATOM     67  C   UNL A   1      40.858  32.018  35.768  1.00  0.00     0.074 A 
ATOM     68  C   UNL A   1      42.684  27.668  31.522  1.00  0.00     0.029 A 
ATOM     69  N   UNL A   1      41.605  29.275  32.618  1.00  0.00    -0.354 N 
ATOM     70  N   UNL A   1      41.164  31.148  34.835  1.00  0.00    -0.248 NA
ATOM     71  C   UNL A   1      41.743  31.979  36.939  1.00  0.00     0.031 C 
ATOM     72  C   UNL A   1      43.327  27.877  32.747  1.00  0.00     0.029 A 
ATOM     73  C   UNL A   1      42.665  28.889  33.424  1.00  0.00     0.049 A 
ATOM     74  H   UNL A   1      40.953  29.978  32.841  1.00  0.00     0.167 HD
ATOM     75  C   UNL A   1      42.283  30.469  35.299  1.00  0.00     0.074 A 
ATOM     76  C   UNL A   1      42.611  31.040  36.590  1.00  0.00     0.031 C 
ATOM     77  C   UNL A   1      42.973  29.464  34.708  1.00  0.00     0.037 A 
BRANCH  64  78
ATOM     78  C   UNL A   1      40.687  27.706  29.241  1.00  0.00     0.064 A 
ATOM     79  C   UNL A   1      41.556  27.928  28.162  1.00  0.00     0.173 A 
ATOM     80  C   UNL A   1      39.876  26.563  29.207  1.00  0.00     0.173 A 
ATOM     81  F   UNL A   1      42.341  29.016  28.141  1.00  0.00    -0.203 F 
ATOM     82  C   UNL A   1      41.583  27.061  27.074  1.00  0.00     0.198 A 
ATOM     83  C   UNL A   1      39.926  25.681  28.129  1.00  0.00     0.198 A 
ATOM     84  F   UNL A   1      39.031  26.302  30.215  1.00  0.00    -0.203 F 
ATOM     85  F   UNL A   1      42.379  27.325  26.028  1.00  0.00    -0.200 F 
ATOM     86  C   UNL A   1      40.772  25.936  27.060  1.00  0.00     0.200 A 
ATOM     87  F   UNL A   1      39.148  24.591  28.121  1.00  0.00    -0.200 F 
ATOM     88  F   UNL A   1      40.796  25.103  26.010  1.00  0.00    -0.200 F 
ENDBRANCH  64  78
BRANCH  65  89
ATOM     89  C   UNL A   1      39.536  33.914  36.962  1.00  0.00     0.064 A 
ATOM     90  C   UNL A   1      38.798  33.477  38.070  1.00  0.00     0.173 A 
ATOM     91  C   UNL A   1      40.097  35.198  37.013  1.00  0.00     0.173 A 
ATOM     92  F   UNL A   1      38.228  32.263  38.057  1.00  0.00    -0.203 F 
ATOM     93  C   UNL A   1      38.620  34.295  39.183  1.00  0.00     0.198 A 
ATOM     94  C   UNL A   1      39.937  36.007  38.135  1.00  0.00     0.198 A 
ATOM     95  F   UNL A   1      40.817  35.657  35.979  1.00  0.00    -0.203 F 
ATOM     96  F   UNL A   1      37.888  33.864  40.219  1.00  0.00    -0.200 F 
ATOM     97  C   UNL A   1      39.196  35.557  39.218  1.00  0.00     0.200 A 
ATOM     98  F   UNL A   1      40.505  37.220  38.170  1.00  0.00    -0.200 F 
ATOM     99  F   UNL A   1      39.036  36.339  40.294  1.00  0.00    -0.200 F 
ENDBRANCH  65  89
BRANCH  77 100
ATOM    100  C   UNL A   1      44.160  28.922  35.446  1.00  0.00     0.064 A 
ATOM    101  C   UNL A   1      44.037  27.850  36.341  1.00  0.00     0.173 A 
ATOM    102  C   UNL A   1      45.439  29.454  35.225  1.00  0.00     0.173 A 
ATOM    103  F   UNL A   1      42.832  27.320  36.597  1.00  0.00    -0.203 F 
ATOM    104  C   UNL A   1      45.152  27.340  37.002  1.00  0.00     0.198 A 
ATOM    105  C   UNL A   1      46.555  28.926  35.870  1.00  0.00     0.198 A 
ATOM    106  F   UNL A   1      45.609  30.478  34.375  1.00  0.00    -0.203 F 
ATOM    107  F   UNL A   1      45.006  26.339  37.881  1.00  0.00    -0.200 F 
ATOM    108  C   UNL A   1      46.409  27.873  36.761  1.00  0.00     0.200 A 
ATOM    109  F   UNL A   1      47.770  29.436  35.628  1.00  0.00    -0.200 F 
ATOM    110  F   UNL A   1      47.481  27.376  37.393  1.00  0.00    -0.200 F 
ENDBRANCH  77 100
ENDBRANCH  51  52
ENDBRANCH  43  46
ENDBRANCH  41  42
ENDBRANCH  40  41
ENDBRANCH  39  40
ENDBRANCH   1  39
TORSDOF 20
ENDMDL
