MODEL 1
REMARK VINA RESULT:     -12.8      0.000      0.000
REMARK SMILES Cc1nn(CC(=O)NC(C)(C)C)c(C)c1S(=O)(=O)N1CCC[C@@H](C(=O)NCCCCCCNC(=O)c2ccc(-c3c4nc(c(-c5c(F)c(F)c(F)c(F)c5F)c5ccc([nH]5)c(-c5c(F)c(F)c(F)c(F)c5F)c5nc(c(-c6c(F)c(F)c(F)c(F)c6F)c6ccc3[nH]6)C=C5)C=C4)cc2)C1
REMARK SMILES IDX 28 1 27 2 26 3 24 4 25 5 23 7 19 8 20 9 99 10 21 11 22 12
REMARK SMILES IDX 16 13 17 14 18 15 15 16 1 17 2 18 3 19 4 20 13 21 14 22 5 23
REMARK SMILES IDX 6 24 7 25 8 26 9 28 10 29 11 30 12 31 29 32 30 33 31 34
REMARK SMILES IDX 32 35 33 36 34 37 35 39 36 40 37 41 98 42 38 43 97 44 39 45
REMARK SMILES IDX 40 46 41 47 91 48 42 49 96 50 90 51 92 52 43 53 95 54 89 55
REMARK SMILES IDX 88 56 44 58 76 59 56 60 75 61 57 62 60 63 74 64 93 65 58 66
REMARK SMILES IDX 59 67 73 69 94 70 61 71 45 72 46 73 54 74 47 75 48 76 52 77
REMARK SMILES IDX 55 78 49 79 50 80 53 81 51 82 77 83 78 84 86 85 79 86 80 87
REMARK SMILES IDX 84 88 87 89 81 90 82 91 85 92 83 93 62 94 63 95 71 96 64 97
REMARK SMILES IDX 65 98 69 99 72 100 66 101 67 102 70 103 68 104
REMARK H PARENT 26 6 8 27 33 38 92 57 60 68
REMARK Flexibility Score: inf
ROOT
ATOM      1  C   UNL A   1      39.655  22.813  26.287  1.00  0.00     0.021 C 
ENDROOT
BRANCH   1   2
ATOM      2  C   UNL A   1      38.289  23.491  26.233  1.00  0.00     0.116 C 
BRANCH   2   3
ATOM      3  N   UNL A   1      37.587  23.230  24.991  1.00  0.00    -0.356 N 
ATOM      4  C   UNL A   1      36.249  23.202  24.736  1.00  0.00     0.224 C 
ATOM      5  O   UNL A   1      35.884  23.008  23.576  1.00  0.00    -0.275 OA
ATOM      6  H   UNL A   1      38.164  23.043  24.215  1.00  0.00     0.163 HD
BRANCH   4   7
ATOM      7  C   UNL A   1      35.259  23.457  25.866  1.00  0.00     0.093 C 
ATOM      8  N   UNL A   1      32.838  24.082  26.195  1.00  0.00    -0.197 NA
ATOM      9  C   UNL A   1      32.620  22.952  27.119  1.00  0.00     0.102 C 
ATOM     10  C   UNL A   1      33.993  24.064  25.269  1.00  0.00     0.116 C 
ATOM     11  C   UNL A   1      33.923  22.434  27.702  1.00  0.00     0.018 C 
ATOM     12  C   UNL A   1      34.941  22.157  26.610  1.00  0.00     0.016 C 
BRANCH   8  13
ATOM     13  S   UNL A   1      31.439  24.852  25.630  1.00  0.00     0.246 S 
ATOM     14  O   UNL A   1      30.535  24.982  26.755  1.00  0.00    -0.207 OA
ATOM     15  O   UNL A   1      31.026  24.175  24.418  1.00  0.00    -0.207 OA
BRANCH  13  16
ATOM     16  C   UNL A   1      31.643  26.495  25.129  1.00  0.00     0.126 A 
ATOM     17  C   UNL A   1      33.921  27.423  26.172  1.00  0.00     0.070 C 
ATOM     18  C   UNL A   1      32.626  27.465  25.451  1.00  0.00     0.080 A 
ATOM     19  N   UNL A   1      32.257  28.676  25.011  1.00  0.00    -0.176 NA
ATOM     20  N   UNL A   1      31.043  28.497  24.473  1.00  0.00    -0.259 N 
ATOM     21  C   UNL A   1      30.720  27.171  24.333  1.00  0.00     0.056 A 
ATOM     22  C   UNL A   1      29.541  26.672  23.571  1.00  0.00     0.068 C 
BRANCH  20  23
ATOM     23  C   UNL A   1      30.253  29.655  24.100  1.00  0.00     0.244 C 
BRANCH  23  24
ATOM     24  C   UNL A   1      30.399  30.084  22.658  1.00  0.00     0.242 C 
ATOM     25  O   UNL A   1      31.241  29.534  21.935  1.00  0.00    -0.273 OA
ATOM     26  N   UNL A   1      29.556  30.939  22.019  1.00  0.00    -0.350 N 
ATOM     27  H   UNL A   1      29.641  30.850  21.043  1.00  0.00     0.164 HD
BRANCH  26  28
ATOM     28  C   UNL A   1      28.546  31.965  22.368  1.00  0.00     0.032 C 
ATOM     29  C   UNL A   1      29.271  33.129  23.064  1.00  0.00     0.034 C 
ATOM     30  C   UNL A   1      27.936  32.471  21.047  1.00  0.00     0.034 C 
ATOM     31  C   UNL A   1      27.387  31.515  23.250  1.00  0.00     0.034 C 
ENDBRANCH  26  28
ENDBRANCH  23  24
ENDBRANCH  20  23
ENDBRANCH  13  16
ENDBRANCH   8  13
ENDBRANCH   4   7
ENDBRANCH   2   3
ENDBRANCH   1   2
BRANCH   1  32
ATOM     32  C   UNL A   1      39.643  21.288  26.145  1.00  0.00     0.002 C 
BRANCH  32  33
ATOM     33  C   UNL A   1      40.722  20.515  26.913  1.00  0.00     0.002 C 
BRANCH  33  34
ATOM     34  C   UNL A   1      41.469  19.413  26.150  1.00  0.00     0.021 C 
BRANCH  34  35
ATOM     35  C   UNL A   1      42.943  19.260  26.504  1.00  0.00     0.116 C 
BRANCH  35  36
ATOM     36  N   UNL A   1      43.803  19.156  25.332  1.00  0.00    -0.352 N 
ATOM     37  C   UNL A   1      44.310  20.174  24.553  1.00  0.00     0.251 C 
ATOM     38  H   UNL A   1      44.054  18.243  25.062  1.00  0.00     0.163 HD
ATOM     39  O   UNL A   1      44.728  19.954  23.422  1.00  0.00    -0.269 OA
BRANCH  37  40
ATOM     40  C   UNL A   1      44.316  21.548  25.088  1.00  0.00     0.039 A 
ATOM     41  C   UNL A   1      43.277  22.430  24.785  1.00  0.00     0.014 A 
ATOM     42  C   UNL A   1      45.353  21.941  25.931  1.00  0.00     0.014 A 
ATOM     43  C   UNL A   1      43.232  23.674  25.415  1.00  0.00     0.010 A 
ATOM     44  C   UNL A   1      45.253  23.128  26.631  1.00  0.00     0.010 A 
ATOM     45  C   UNL A   1      44.206  24.016  26.368  1.00  0.00    -0.014 A 
BRANCH  45  46
ATOM     46  C   UNL A   1      44.055  25.246  27.162  1.00  0.00     0.031 A 
ATOM     47  C   UNL A   1      45.034  26.352  26.904  1.00  0.00     0.074 A 
ATOM     48  C   UNL A   1      42.963  25.526  27.909  1.00  0.00     0.049 A 
ATOM     49  N   UNL A   1      45.733  27.027  27.762  1.00  0.00    -0.248 NA
ATOM     50  C   UNL A   1      45.266  26.756  25.507  1.00  0.00     0.031 C 
ATOM     51  C   UNL A   1      41.737  24.734  28.055  1.00  0.00     0.029 A 
ATOM     52  N   UNL A   1      42.673  26.669  28.600  1.00  0.00    -0.354 N 
ATOM     53  C   UNL A   1      46.385  28.029  27.044  1.00  0.00     0.074 A 
ATOM     54  C   UNL A   1      46.125  27.766  25.652  1.00  0.00     0.031 C 
ATOM     55  C   UNL A   1      40.761  25.512  28.568  1.00  0.00     0.029 A 
ATOM     56  C   UNL A   1      41.335  26.791  28.944  1.00  0.00     0.049 A 
ATOM     57  H   UNL A   1      43.351  27.343  28.833  1.00  0.00     0.167 HD
ATOM     58  C   UNL A   1      46.960  29.107  27.650  1.00  0.00     0.037 A 
ATOM     59  C   UNL A   1      40.718  27.872  29.472  1.00  0.00     0.037 A 
ATOM     60  C   UNL A   1      47.222  28.868  29.042  1.00  0.00     0.049 A 
ATOM     61  C   UNL A   1      41.749  28.745  30.074  1.00  0.00     0.074 A 
ATOM     62  C   UNL A   1      47.962  27.940  29.751  1.00  0.00     0.029 A 
ATOM     63  N   UNL A   1      46.446  29.496  29.982  1.00  0.00    -0.354 N 
ATOM     64  N   UNL A   1      42.417  28.457  31.154  1.00  0.00    -0.248 NA
ATOM     65  C   UNL A   1      42.296  29.823  29.267  1.00  0.00     0.031 C 
ATOM     66  C   UNL A   1      47.223  27.714  30.950  1.00  0.00     0.029 A 
ATOM     67  C   UNL A   1      46.100  28.539  30.900  1.00  0.00     0.049 A 
ATOM     68  H   UNL A   1      46.189  30.446  29.995  1.00  0.00     0.167 HD
ATOM     69  C   UNL A   1      43.672  29.005  30.941  1.00  0.00     0.074 A 
ATOM     70  C   UNL A   1      43.493  29.945  29.842  1.00  0.00     0.031 C 
ATOM     71  C   UNL A   1      44.786  28.435  31.485  1.00  0.00     0.037 A 
BRANCH  58  72
ATOM     72  C   UNL A   1      47.025  30.494  27.052  1.00  0.00     0.064 A 
ATOM     73  C   UNL A   1      48.241  31.208  27.067  1.00  0.00     0.173 A 
ATOM     74  C   UNL A   1      45.878  31.255  26.742  1.00  0.00     0.173 A 
ATOM     75  F   UNL A   1      49.392  30.594  27.378  1.00  0.00    -0.203 F 
ATOM     76  C   UNL A   1      48.292  32.590  26.853  1.00  0.00     0.198 A 
ATOM     77  C   UNL A   1      45.940  32.623  26.476  1.00  0.00     0.198 A 
ATOM     78  F   UNL A   1      44.648  30.728  26.792  1.00  0.00    -0.203 F 
ATOM     79  F   UNL A   1      49.452  33.245  26.998  1.00  0.00    -0.200 F 
ATOM     80  C   UNL A   1      47.140  33.297  26.562  1.00  0.00     0.200 A 
ATOM     81  F   UNL A   1      44.810  33.296  26.216  1.00  0.00    -0.200 F 
ATOM     82  F   UNL A   1      47.177  34.628  26.416  1.00  0.00    -0.200 F 
ENDBRANCH  58  72
BRANCH  59  83
ATOM     83  C   UNL A   1      39.308  28.290  29.333  1.00  0.00     0.064 A 
ATOM     84  C   UNL A   1      38.468  28.401  30.451  1.00  0.00     0.173 A 
ATOM     85  C   UNL A   1      38.828  28.833  28.126  1.00  0.00     0.173 A 
ATOM     86  F   UNL A   1      38.871  27.946  31.647  1.00  0.00    -0.203 F 
ATOM     87  C   UNL A   1      37.226  29.038  30.371  1.00  0.00     0.198 A 
ATOM     88  C   UNL A   1      37.584  29.459  28.044  1.00  0.00     0.198 A 
ATOM     89  F   UNL A   1      39.594  28.847  27.026  1.00  0.00    -0.203 F 
ATOM     90  F   UNL A   1      36.477  29.178  31.473  1.00  0.00    -0.200 F 
ATOM     91  C   UNL A   1      36.789  29.572  29.171  1.00  0.00     0.200 A 
ATOM     92  F   UNL A   1      37.187  30.000  26.885  1.00  0.00    -0.200 F 
ATOM     93  F   UNL A   1      35.625  30.233  29.107  1.00  0.00    -0.200 F 
ENDBRANCH  59  83
BRANCH  71  94
ATOM     94  C   UNL A   1      44.593  27.415  32.570  1.00  0.00     0.064 A 
ATOM     95  C   UNL A   1      44.366  26.048  32.333  1.00  0.00     0.173 A 
ATOM     96  C   UNL A   1      44.750  27.820  33.902  1.00  0.00     0.173 A 
ATOM     97  F   UNL A   1      44.320  25.561  31.087  1.00  0.00    -0.203 F 
ATOM     98  C   UNL A   1      44.233  25.145  33.385  1.00  0.00     0.198 A 
ATOM     99  C   UNL A   1      44.658  26.908  34.950  1.00  0.00     0.198 A 
ATOM    100  F   UNL A   1      45.032  29.101  34.188  1.00  0.00    -0.203 F 
ATOM    101  F   UNL A   1      43.986  23.851  33.132  1.00  0.00    -0.200 F 
ATOM    102  C   UNL A   1      44.382  25.575  34.692  1.00  0.00     0.200 A 
ATOM    103  F   UNL A   1      44.854  27.318  36.211  1.00  0.00    -0.200 F 
ATOM    104  F   UNL A   1      44.284  24.700  35.704  1.00  0.00    -0.200 F 
ENDBRANCH  71  94
ENDBRANCH  45  46
ENDBRANCH  37  40
ENDBRANCH  35  36
ENDBRANCH  34  35
ENDBRANCH  33  34
ENDBRANCH  32  33
ENDBRANCH   1  32
TORSDOF 18
ENDMDL
MODEL 2
REMARK VINA RESULT:     -12.3      1.439      2.046
REMARK SMILES Cc1nn(CC(=O)NC(C)(C)C)c(C)c1S(=O)(=O)N1CCC[C@@H](C(=O)NCCCCCCNC(=O)c2ccc(-c3c4nc(c(-c5c(F)c(F)c(F)c(F)c5F)c5ccc([nH]5)c(-c5c(F)c(F)c(F)c(F)c5F)c5nc(c(-c6c(F)c(F)c(F)c(F)c6F)c6ccc3[nH]6)C=C5)C=C4)cc2)C1
REMARK SMILES IDX 28 1 27 2 26 3 24 4 25 5 23 7 19 8 20 9 99 10 21 11 22 12
REMARK SMILES IDX 16 13 17 14 18 15 15 16 1 17 2 18 3 19 4 20 13 21 14 22 5 23
REMARK SMILES IDX 6 24 7 25 8 26 9 28 10 29 11 30 12 31 29 32 30 33 31 34
REMARK SMILES IDX 32 35 33 36 34 37 35 39 36 40 37 41 98 42 38 43 97 44 39 45
REMARK SMILES IDX 40 46 41 47 91 48 42 49 96 50 90 51 92 52 43 53 95 54 89 55
REMARK SMILES IDX 88 56 44 58 76 59 56 60 75 61 57 62 60 63 74 64 93 65 58 66
REMARK SMILES IDX 59 67 73 69 94 70 61 71 45 72 46 73 54 74 47 75 48 76 52 77
REMARK SMILES IDX 55 78 49 79 50 80 53 81 51 82 77 83 78 84 86 85 79 86 80 87
REMARK SMILES IDX 84 88 87 89 81 90 82 91 85 92 83 93 62 94 63 95 71 96 64 97
REMARK SMILES IDX 65 98 69 99 72 100 66 101 67 102 70 103 68 104
REMARK H PARENT 26 6 8 27 33 38 92 57 60 68
REMARK Flexibility Score: inf
ROOT
ATOM      1  C   UNL A   1      39.625  22.556  26.462  1.00  0.00     0.021 C 
ENDROOT
BRANCH   1   2
ATOM      2  C   UNL A   1      38.244  22.000  26.131  1.00  0.00     0.116 C 
BRANCH   2   3
ATOM      3  N   UNL A   1      37.684  22.582  24.926  1.00  0.00    -0.356 N 
ATOM      4  C   UNL A   1      36.410  22.531  24.444  1.00  0.00     0.224 C 
ATOM      5  O   UNL A   1      36.156  23.156  23.413  1.00  0.00    -0.275 OA
ATOM      6  H   UNL A   1      38.321  23.090  24.371  1.00  0.00     0.163 HD
BRANCH   4   7
ATOM      7  C   UNL A   1      35.344  21.757  25.207  1.00  0.00     0.093 C 
ATOM      8  N   UNL A   1      32.899  21.929  25.801  1.00  0.00    -0.197 NA
ATOM      9  C   UNL A   1      32.633  20.561  25.315  1.00  0.00     0.102 C 
ATOM     10  C   UNL A   1      34.113  22.647  25.353  1.00  0.00     0.116 C 
ATOM     11  C   UNL A   1      33.900  19.727  25.239  1.00  0.00     0.018 C 
ATOM     12  C   UNL A   1      34.993  20.457  24.478  1.00  0.00     0.016 C 
BRANCH   8  13
ATOM     13  S   UNL A   1      31.532  22.884  26.095  1.00  0.00     0.246 S 
ATOM     14  O   UNL A   1      31.828  23.716  27.244  1.00  0.00    -0.207 OA
ATOM     15  O   UNL A   1      30.377  22.010  26.087  1.00  0.00    -0.207 OA
BRANCH  13  16
ATOM     16  C   UNL A   1      31.164  24.056  24.877  1.00  0.00     0.126 A 
ATOM     17  C   UNL A   1      32.422  23.361  22.625  1.00  0.00     0.070 C 
ATOM     18  C   UNL A   1      31.620  24.205  23.542  1.00  0.00     0.080 A 
ATOM     19  N   UNL A   1      31.243  25.391  23.044  1.00  0.00    -0.176 NA
ATOM     20  N   UNL A   1      30.611  26.009  24.052  1.00  0.00    -0.259 N 
ATOM     21  C   UNL A   1      30.357  25.169  25.107  1.00  0.00     0.056 A 
ATOM     22  C   UNL A   1      29.482  25.517  26.262  1.00  0.00     0.068 C 
BRANCH  20  23
ATOM     23  C   UNL A   1      30.269  27.412  23.922  1.00  0.00     0.244 C 
BRANCH  23  24
ATOM     24  C   UNL A   1      31.440  28.328  23.651  1.00  0.00     0.242 C 
ATOM     25  O   UNL A   1      31.549  28.875  22.545  1.00  0.00    -0.273 OA
ATOM     26  N   UNL A   1      32.329  28.742  24.593  1.00  0.00    -0.350 N 
ATOM     27  H   UNL A   1      32.810  29.545  24.291  1.00  0.00     0.164 HD
BRANCH  26  28
ATOM     28  C   UNL A   1      32.781  28.334  25.943  1.00  0.00     0.032 C 
ATOM     29  C   UNL A   1      33.491  26.975  25.817  1.00  0.00     0.034 C 
ATOM     30  C   UNL A   1      33.797  29.389  26.421  1.00  0.00     0.034 C 
ATOM     31  C   UNL A   1      31.710  28.227  27.023  1.00  0.00     0.034 C 
ENDBRANCH  26  28
ENDBRANCH  23  24
ENDBRANCH  20  23
ENDBRANCH  13  16
ENDBRANCH   8  13
ENDBRANCH   4   7
ENDBRANCH   2   3
ENDBRANCH   1   2
BRANCH   1  32
ATOM     32  C   UNL A   1      40.769  21.538  26.452  1.00  0.00     0.002 C 
BRANCH  32  33
ATOM     33  C   UNL A   1      40.398  20.085  26.129  1.00  0.00     0.002 C 
BRANCH  33  34
ATOM     34  C   UNL A   1      41.529  19.050  26.170  1.00  0.00     0.021 C 
BRANCH  34  35
ATOM     35  C   UNL A   1      42.921  19.616  26.424  1.00  0.00     0.116 C 
BRANCH  35  36
ATOM     36  N   UNL A   1      43.798  19.513  25.264  1.00  0.00    -0.352 N 
ATOM     37  C   UNL A   1      44.337  20.534  24.510  1.00  0.00     0.251 C 
ATOM     38  H   UNL A   1      44.035  18.600  24.983  1.00  0.00     0.163 HD
ATOM     39  O   UNL A   1      44.769  20.324  23.383  1.00  0.00    -0.269 OA
BRANCH  37  40
ATOM     40  C   UNL A   1      44.362  21.898  25.068  1.00  0.00     0.039 A 
ATOM     41  C   UNL A   1      43.473  22.869  24.602  1.00  0.00     0.014 A 
ATOM     42  C   UNL A   1      45.257  22.194  26.093  1.00  0.00     0.014 A 
ATOM     43  C   UNL A   1      43.419  24.108  25.242  1.00  0.00     0.010 A 
ATOM     44  C   UNL A   1      45.132  23.381  26.790  1.00  0.00     0.010 A 
ATOM     45  C   UNL A   1      44.229  24.358  26.362  1.00  0.00    -0.014 A 
BRANCH  45  46
ATOM     46  C   UNL A   1      44.040  25.591  27.142  1.00  0.00     0.031 A 
ATOM     47  C   UNL A   1      44.982  26.726  26.868  1.00  0.00     0.074 A 
ATOM     48  C   UNL A   1      42.943  25.843  27.891  1.00  0.00     0.049 A 
ATOM     49  N   UNL A   1      45.660  27.433  27.717  1.00  0.00    -0.248 NA
ATOM     50  C   UNL A   1      45.195  27.121  25.466  1.00  0.00     0.031 C 
ATOM     51  C   UNL A   1      41.744  25.013  28.050  1.00  0.00     0.029 A 
ATOM     52  N   UNL A   1      42.617  26.983  28.570  1.00  0.00    -0.354 N 
ATOM     53  C   UNL A   1      46.277  28.448  26.984  1.00  0.00     0.074 A 
ATOM     54  C   UNL A   1      46.020  28.161  25.596  1.00  0.00     0.031 C 
ATOM     55  C   UNL A   1      40.744  25.764  28.559  1.00  0.00     0.029 A 
ATOM     56  C   UNL A   1      41.277  27.066  28.918  1.00  0.00     0.049 A 
ATOM     57  H   UNL A   1      43.273  27.682  28.793  1.00  0.00     0.167 HD
ATOM     58  C   UNL A   1      46.818  29.551  27.576  1.00  0.00     0.037 A 
ATOM     59  C   UNL A   1      40.626  28.131  29.437  1.00  0.00     0.037 A 
ATOM     60  C   UNL A   1      47.093  29.337  28.970  1.00  0.00     0.049 A 
ATOM     61  C   UNL A   1      41.630  29.045  30.024  1.00  0.00     0.074 A 
ATOM     62  C   UNL A   1      47.865  28.442  29.686  1.00  0.00     0.029 A 
ATOM     63  N   UNL A   1      46.299  29.949  29.906  1.00  0.00    -0.354 N 
ATOM     64  N   UNL A   1      42.312  28.791  31.105  1.00  0.00    -0.248 NA
ATOM     65  C   UNL A   1      42.138  30.131  29.204  1.00  0.00     0.031 C 
ATOM     66  C   UNL A   1      47.138  28.205  30.891  1.00  0.00     0.029 A 
ATOM     67  C   UNL A   1      45.988  28.991  30.835  1.00  0.00     0.049 A 
ATOM     68  H   UNL A   1      46.011  30.890  29.909  1.00  0.00     0.167 HD
ATOM     69  C   UNL A   1      43.546  29.378  30.881  1.00  0.00     0.074 A 
ATOM     70  C   UNL A   1      43.333  30.299  29.773  1.00  0.00     0.031 C 
ATOM     71  C   UNL A   1      44.681  28.851  31.427  1.00  0.00     0.037 A 
BRANCH  58  72
ATOM     72  C   UNL A   1      46.835  30.933  26.962  1.00  0.00     0.064 A 
ATOM     73  C   UNL A   1      48.045  31.653  26.888  1.00  0.00     0.173 A 
ATOM     74  C   UNL A   1      45.666  31.685  26.724  1.00  0.00     0.173 A 
ATOM     75  F   UNL A   1      49.218  31.046  27.127  1.00  0.00    -0.203 F 
ATOM     76  C   UNL A   1      48.074  33.033  26.659  1.00  0.00     0.198 A 
ATOM     77  C   UNL A   1      45.702  33.051  26.443  1.00  0.00     0.198 A 
ATOM     78  F   UNL A   1      44.444  31.153  26.862  1.00  0.00    -0.203 F 
ATOM     79  F   UNL A   1      49.238  33.694  26.719  1.00  0.00    -0.200 F 
ATOM     80  C   UNL A   1      46.901  33.731  26.440  1.00  0.00     0.200 A 
ATOM     81  F   UNL A   1      44.553  33.716  26.254  1.00  0.00    -0.200 F 
ATOM     82  F   UNL A   1      46.921  35.061  26.280  1.00  0.00    -0.200 F 
ENDBRANCH  58  72
BRANCH  59  83
ATOM     83  C   UNL A   1      39.203  28.500  29.299  1.00  0.00     0.064 A 
ATOM     84  C   UNL A   1      38.364  28.596  30.419  1.00  0.00     0.173 A 
ATOM     85  C   UNL A   1      38.701  29.014  28.088  1.00  0.00     0.173 A 
ATOM     86  F   UNL A   1      38.786  28.169  31.617  1.00  0.00    -0.203 F 
ATOM     87  C   UNL A   1      37.101  29.191  30.336  1.00  0.00     0.198 A 
ATOM     88  C   UNL A   1      37.437  29.597  28.004  1.00  0.00     0.198 A 
ATOM     89  F   UNL A   1      39.462  29.041  26.984  1.00  0.00    -0.203 F 
ATOM     90  F   UNL A   1      36.351  29.319  31.440  1.00  0.00    -0.200 F 
ATOM     91  C   UNL A   1      36.642  29.697  29.132  1.00  0.00     0.200 A 
ATOM     92  F   UNL A   1      37.018  30.113  26.840  1.00  0.00    -0.200 F 
ATOM     93  F   UNL A   1      35.457  30.318  29.066  1.00  0.00    -0.200 F 
ENDBRANCH  59  83
BRANCH  71  94
ATOM     94  C   UNL A   1      44.526  27.837  32.524  1.00  0.00     0.064 A 
ATOM     95  C   UNL A   1      44.386  26.456  32.304  1.00  0.00     0.173 A 
ATOM     96  C   UNL A   1      44.629  28.271  33.853  1.00  0.00     0.173 A 
ATOM     97  F   UNL A   1      44.396  25.949  31.066  1.00  0.00    -0.203 F 
ATOM     98  C   UNL A   1      44.284  25.562  33.368  1.00  0.00     0.198 A 
ATOM     99  C   UNL A   1      44.569  27.371  34.913  1.00  0.00     0.198 A 
ATOM    100  F   UNL A   1      44.828  29.571  34.124  1.00  0.00    -0.203 F 
ATOM    101  F   UNL A   1      44.121  24.252  33.131  1.00  0.00    -0.200 F 
ATOM    102  C   UNL A   1      44.379  26.019  34.671  1.00  0.00     0.200 A 
ATOM    103  F   UNL A   1      44.712  27.811  36.170  1.00  0.00    -0.200 F 
ATOM    104  F   UNL A   1      44.312  25.155  35.695  1.00  0.00    -0.200 F 
ENDBRANCH  71  94
ENDBRANCH  45  46
ENDBRANCH  37  40
ENDBRANCH  35  36
ENDBRANCH  34  35
ENDBRANCH  33  34
ENDBRANCH  32  33
ENDBRANCH   1  32
TORSDOF 18
ENDMDL
MODEL 3
REMARK VINA RESULT:     -12.3      4.216     10.400
REMARK SMILES Cc1nn(CC(=O)NC(C)(C)C)c(C)c1S(=O)(=O)N1CCC[C@@H](C(=O)NCCCCCCNC(=O)c2ccc(-c3c4nc(c(-c5c(F)c(F)c(F)c(F)c5F)c5ccc([nH]5)c(-c5c(F)c(F)c(F)c(F)c5F)c5nc(c(-c6c(F)c(F)c(F)c(F)c6F)c6ccc3[nH]6)C=C5)C=C4)cc2)C1
REMARK SMILES IDX 28 1 27 2 26 3 24 4 25 5 23 7 19 8 20 9 99 10 21 11 22 12
REMARK SMILES IDX 16 13 17 14 18 15 15 16 1 17 2 18 3 19 4 20 13 21 14 22 5 23
REMARK SMILES IDX 6 24 7 25 8 26 9 28 10 29 11 30 12 31 29 32 30 33 31 34
REMARK SMILES IDX 32 35 33 36 34 37 35 39 36 40 37 41 98 42 38 43 97 44 39 45
REMARK SMILES IDX 40 46 41 47 91 48 42 49 96 50 90 51 92 52 43 53 95 54 89 55
REMARK SMILES IDX 88 56 44 58 76 59 56 60 75 61 57 62 60 63 74 64 93 65 58 66
REMARK SMILES IDX 59 67 73 69 94 70 61 71 45 72 46 73 54 74 47 75 48 76 52 77
REMARK SMILES IDX 55 78 49 79 50 80 53 81 51 82 77 83 78 84 86 85 79 86 80 87
REMARK SMILES IDX 84 88 87 89 81 90 82 91 85 92 83 93 62 94 63 95 71 96 64 97
REMARK SMILES IDX 65 98 69 99 72 100 66 101 67 102 70 103 68 104
REMARK H PARENT 26 6 8 27 33 38 92 57 60 68
REMARK Flexibility Score: inf
ROOT
ATOM      1  C   UNL A   1      34.019  31.736  28.198  1.00  0.00     0.021 C 
ENDROOT
BRANCH   1   2
ATOM      2  C   UNL A   1      34.195  30.459  27.382  1.00  0.00     0.116 C 
BRANCH   2   3
ATOM      3  N   UNL A   1      33.113  29.514  27.587  1.00  0.00    -0.356 N 
ATOM      4  C   UNL A   1      32.752  28.430  26.844  1.00  0.00     0.224 C 
ATOM      5  O   UNL A   1      31.818  27.736  27.249  1.00  0.00    -0.275 OA
ATOM      6  H   UNL A   1      32.555  29.683  28.380  1.00  0.00     0.163 HD
BRANCH   4   7
ATOM      7  C   UNL A   1      33.531  28.085  25.582  1.00  0.00     0.093 C 
ATOM      8  N   UNL A   1      33.508  26.392  23.712  1.00  0.00    -0.197 NA
ATOM      9  C   UNL A   1      33.563  27.452  22.685  1.00  0.00     0.102 C 
ATOM     10  C   UNL A   1      33.063  26.720  25.085  1.00  0.00     0.116 C 
ATOM     11  C   UNL A   1      34.078  28.764  23.249  1.00  0.00     0.018 C 
ATOM     12  C   UNL A   1      33.324  29.156  24.507  1.00  0.00     0.016 C 
BRANCH   8  13
ATOM     13  S   UNL A   1      33.121  24.843  23.150  1.00  0.00     0.246 S 
ATOM     14  O   UNL A   1      33.857  24.634  21.920  1.00  0.00    -0.207 OA
ATOM     15  O   UNL A   1      31.678  24.711  23.187  1.00  0.00    -0.207 OA
BRANCH  13  16
ATOM     16  C   UNL A   1      33.673  23.533  24.136  1.00  0.00     0.126 A 
ATOM     17  C   UNL A   1      35.517  24.465  25.829  1.00  0.00     0.070 C 
ATOM     18  C   UNL A   1      34.682  23.459  25.131  1.00  0.00     0.080 A 
ATOM     19  N   UNL A   1      34.919  22.185  25.469  1.00  0.00    -0.176 NA
ATOM     20  N   UNL A   1      34.125  21.457  24.672  1.00  0.00    -0.259 N 
ATOM     21  C   UNL A   1      33.208  22.226  24.000  1.00  0.00     0.056 A 
ATOM     22  C   UNL A   1      32.064  21.674  23.221  1.00  0.00     0.068 C 
BRANCH  20  23
ATOM     23  C   UNL A   1      34.296  20.017  24.619  1.00  0.00     0.244 C 
BRANCH  23  24
ATOM     24  C   UNL A   1      33.307  19.231  25.447  1.00  0.00     0.242 C 
ATOM     25  O   UNL A   1      32.526  19.827  26.202  1.00  0.00    -0.273 OA
ATOM     26  N   UNL A   1      33.082  17.896  25.317  1.00  0.00    -0.350 N 
ATOM     27  H   UNL A   1      32.217  17.646  25.714  1.00  0.00     0.164 HD
BRANCH  26  28
ATOM     28  C   UNL A   1      33.763  16.709  24.751  1.00  0.00     0.032 C 
ATOM     29  C   UNL A   1      32.947  15.463  25.135  1.00  0.00     0.034 C 
ATOM     30  C   UNL A   1      33.751  16.865  23.218  1.00  0.00     0.034 C 
ATOM     31  C   UNL A   1      35.214  16.488  25.163  1.00  0.00     0.034 C 
ENDBRANCH  26  28
ENDBRANCH  23  24
ENDBRANCH  20  23
ENDBRANCH  13  16
ENDBRANCH   8  13
ENDBRANCH   4   7
ENDBRANCH   2   3
ENDBRANCH   1   2
BRANCH   1  32
ATOM     32  C   UNL A   1      34.926  32.905  27.804  1.00  0.00     0.002 C 
BRANCH  32  33
ATOM     33  C   UNL A   1      34.845  34.166  28.673  1.00  0.00     0.002 C 
BRANCH  33  34
ATOM     34  C   UNL A   1      33.446  34.634  29.095  1.00  0.00     0.021 C 
BRANCH  34  35
ATOM     35  C   UNL A   1      33.402  35.964  29.838  1.00  0.00     0.116 C 
BRANCH  35  36
ATOM     36  N   UNL A   1      32.671  35.890  31.097  1.00  0.00    -0.352 N 
ATOM     37  C   UNL A   1      32.903  35.056  32.170  1.00  0.00     0.251 C 
ATOM     38  H   UNL A   1      31.916  36.515  31.194  1.00  0.00     0.163 HD
ATOM     39  O   UNL A   1      32.034  34.854  33.011  1.00  0.00    -0.269 OA
BRANCH  37  40
ATOM     40  C   UNL A   1      34.208  34.380  32.281  1.00  0.00     0.039 A 
ATOM     41  C   UNL A   1      34.310  33.002  32.082  1.00  0.00     0.014 A 
ATOM     42  C   UNL A   1      35.344  35.142  32.547  1.00  0.00     0.014 A 
ATOM     43  C   UNL A   1      35.573  32.408  32.052  1.00  0.00     0.010 A 
ATOM     44  C   UNL A   1      36.596  34.572  32.415  1.00  0.00     0.010 A 
ATOM     45  C   UNL A   1      36.726  33.199  32.188  1.00  0.00    -0.014 A 
BRANCH  45  46
ATOM     46  C   UNL A   1      38.053  32.602  31.973  1.00  0.00     0.031 A 
ATOM     47  C   UNL A   1      38.915  32.395  33.183  1.00  0.00     0.074 A 
ATOM     48  C   UNL A   1      38.432  32.014  30.816  1.00  0.00     0.049 A 
ATOM     49  N   UNL A   1      40.154  32.732  33.358  1.00  0.00    -0.248 NA
ATOM     50  C   UNL A   1      38.315  31.726  34.350  1.00  0.00     0.031 C 
ATOM     51  C   UNL A   1      37.639  31.811  29.599  1.00  0.00     0.029 A 
ATOM     52  N   UNL A   1      39.591  31.345  30.539  1.00  0.00    -0.354 N 
ATOM     53  C   UNL A   1      40.540  32.204  34.591  1.00  0.00     0.074 A 
ATOM     54  C   UNL A   1      39.347  31.664  35.192  1.00  0.00     0.031 C 
ATOM     55  C   UNL A   1      38.232  30.876  28.828  1.00  0.00     0.029 A 
ATOM     56  C   UNL A   1      39.521  30.545  29.408  1.00  0.00     0.049 A 
ATOM     57  H   UNL A   1      40.402  31.424  31.090  1.00  0.00     0.167 HD
ATOM     58  C   UNL A   1      41.846  32.097  34.963  1.00  0.00     0.037 A 
ATOM     59  C   UNL A   1      40.434  29.644  28.980  1.00  0.00     0.037 A 
ATOM     60  C   UNL A   1      42.698  32.970  34.204  1.00  0.00     0.049 A 
ATOM     61  C   UNL A   1      41.730  29.962  29.616  1.00  0.00     0.074 A 
ATOM     62  C   UNL A   1      42.758  34.335  33.994  1.00  0.00     0.029 A 
ATOM     63  N   UNL A   1      43.534  32.429  33.261  1.00  0.00    -0.354 N 
ATOM     64  N   UNL A   1      42.455  31.004  29.327  1.00  0.00    -0.248 NA
ATOM     65  C   UNL A   1      42.078  29.281  30.852  1.00  0.00     0.031 C 
ATOM     66  C   UNL A   1      43.200  34.485  32.646  1.00  0.00     0.029 A 
ATOM     67  C   UNL A   1      43.402  33.202  32.138  1.00  0.00     0.049 A 
ATOM     68  H   UNL A   1      44.115  31.642  33.371  1.00  0.00     0.167 HD
ATOM     69  C   UNL A   1      43.046  31.360  30.528  1.00  0.00     0.074 A 
ATOM     70  C   UNL A   1      42.893  30.192  31.385  1.00  0.00     0.031 C 
ATOM     71  C   UNL A   1      43.347  32.663  30.802  1.00  0.00     0.037 A 
BRANCH  58  72
ATOM     72  C   UNL A   1      42.406  30.986  35.823  1.00  0.00     0.064 A 
ATOM     73  C   UNL A   1      43.260  31.296  36.902  1.00  0.00     0.173 A 
ATOM     74  C   UNL A   1      42.375  29.628  35.444  1.00  0.00     0.173 A 
ATOM     75  F   UNL A   1      43.393  32.561  37.329  1.00  0.00    -0.203 F 
ATOM     76  C   UNL A   1      44.069  30.328  37.507  1.00  0.00     0.198 A 
ATOM     77  C   UNL A   1      43.144  28.656  36.086  1.00  0.00     0.198 A 
ATOM     78  F   UNL A   1      41.687  29.210  34.373  1.00  0.00    -0.203 F 
ATOM     79  F   UNL A   1      44.955  30.693  38.445  1.00  0.00    -0.200 F 
ATOM     80  C   UNL A   1      44.014  29.010  37.096  1.00  0.00     0.200 A 
ATOM     81  F   UNL A   1      43.092  27.386  35.659  1.00  0.00    -0.200 F 
ATOM     82  F   UNL A   1      44.830  28.094  37.633  1.00  0.00    -0.200 F 
ENDBRANCH  58  72
BRANCH  59  83
ATOM     83  C   UNL A   1      40.217  28.413  28.194  1.00  0.00     0.064 A 
ATOM     84  C   UNL A   1      40.856  28.215  26.961  1.00  0.00     0.173 A 
ATOM     85  C   UNL A   1      39.574  27.295  28.759  1.00  0.00     0.173 A 
ATOM     86  F   UNL A   1      41.527  29.219  26.379  1.00  0.00    -0.203 F 
ATOM     87  C   UNL A   1      40.869  26.963  26.338  1.00  0.00     0.198 A 
ATOM     88  C   UNL A   1      39.578  26.049  28.131  1.00  0.00     0.198 A 
ATOM     89  F   UNL A   1      39.008  27.367  29.972  1.00  0.00    -0.203 F 
ATOM     90  F   UNL A   1      41.540  26.797  25.190  1.00  0.00    -0.200 F 
ATOM     91  C   UNL A   1      40.237  25.881  26.927  1.00  0.00     0.200 A 
ATOM     92  F   UNL A   1      38.991  25.002  28.728  1.00  0.00    -0.200 F 
ATOM     93  F   UNL A   1      40.298  24.669  26.359  1.00  0.00    -0.200 F 
ENDBRANCH  59  83
BRANCH  71  94
ATOM     94  C   UNL A   1      43.329  33.641  29.663  1.00  0.00     0.064 A 
ATOM     95  C   UNL A   1      42.190  34.361  29.263  1.00  0.00     0.173 A 
ATOM     96  C   UNL A   1      44.538  33.939  29.020  1.00  0.00     0.173 A 
ATOM     97  F   UNL A   1      41.023  34.220  29.903  1.00  0.00    -0.203 F 
ATOM     98  C   UNL A   1      42.248  35.284  28.221  1.00  0.00     0.198 A 
ATOM     99  C   UNL A   1      44.601  34.892  28.007  1.00  0.00     0.198 A 
ATOM    100  F   UNL A   1      45.672  33.330  29.402  1.00  0.00    -0.203 F 
ATOM    101  F   UNL A   1      41.139  35.936  27.839  1.00  0.00    -0.200 F 
ATOM    102  C   UNL A   1      43.453  35.551  27.596  1.00  0.00     0.200 A 
ATOM    103  F   UNL A   1      45.779  35.184  27.439  1.00  0.00    -0.200 F 
ATOM    104  F   UNL A   1      43.516  36.461  26.613  1.00  0.00    -0.200 F 
ENDBRANCH  71  94
ENDBRANCH  45  46
ENDBRANCH  37  40
ENDBRANCH  35  36
ENDBRANCH  34  35
ENDBRANCH  33  34
ENDBRANCH  32  33
ENDBRANCH   1  32
TORSDOF 18
ENDMDL
