MODEL 1
REMARK VINA RESULT:     -12.6      0.000      0.000
REMARK SMILES O=C(NCCCCCCNC(=O)C1(C/C=C/c2ccccc2)Cc2ccccc2C1)c1ccc(-c2c3nc(c(-c4c(F)c(F)c(F)c(F)c4F)c4ccc([nH]4)c(-c4c(F)c(F)c(F)c(F)c4F)c4nc(c(-c5c(F)c(F)c(F)c(F)c5F)c5ccc2[nH]5)C=C4)C=C3)cc1
REMARK SMILES IDX 7 1 6 2 5 3 4 4 3 5 1 6 2 7 31 9 32 10 93 11 33 12 92 13
REMARK SMILES IDX 34 14 35 15 36 16 86 17 37 18 91 19 85 20 87 21 38 22 90 23
REMARK SMILES IDX 84 24 83 25 39 27 71 28 51 29 70 30 52 31 55 32 69 33 88 34
REMARK SMILES IDX 53 35 54 36 68 38 89 39 56 40 40 41 41 42 49 43 42 44 43 45
REMARK SMILES IDX 47 46 50 47 44 48 45 49 48 50 46 51 72 52 73 53 81 54 74 55
REMARK SMILES IDX 75 56 79 57 82 58 76 59 77 60 80 61 78 62 57 63 58 64 66 65
REMARK SMILES IDX 59 66 60 67 64 68 67 69 61 70 62 71 65 72 63 73 8 74 9 75
REMARK SMILES IDX 10 76 11 77 12 79 13 80 23 81 30 82 24 83 29 84 25 85 28 86
REMARK SMILES IDX 26 87 27 88 14 89 15 90 16 91 17 92 18 93 22 94 19 95 21 96
REMARK SMILES IDX 20 97
REMARK H PARENT 3 8 87 26 55 37 10 78
REMARK Flexibility Score: inf
ROOT
ATOM      1  C   UNL A   1      31.127  26.370  25.773  1.00  0.00     0.002 C 
ENDROOT
BRANCH   1   2
ATOM      2  C   UNL A   1      31.752  27.505  26.594  1.00  0.00     0.002 C 
BRANCH   2   3
ATOM      3  C   UNL A   1      33.281  27.482  26.711  1.00  0.00     0.021 C 
BRANCH   3   4
ATOM      4  C   UNL A   1      34.001  28.602  25.965  1.00  0.00     0.116 C 
BRANCH   4   5
ATOM      5  N   UNL A   1      33.715  29.910  26.535  1.00  0.00    -0.352 N 
ATOM      6  O   UNL A   1      33.862  31.613  28.008  1.00  0.00    -0.269 OA
ATOM      7  C   UNL A   1      34.371  30.604  27.518  1.00  0.00     0.251 C 
ATOM      8  H   UNL A   1      32.930  30.368  26.156  1.00  0.00     0.163 HD
BRANCH   7   9
ATOM      9  C   UNL A   1      35.689  30.147  28.009  1.00  0.00     0.039 A 
ATOM     10  C   UNL A   1      36.824  30.244  27.201  1.00  0.00     0.014 A 
ATOM     11  C   UNL A   1      35.805  29.670  29.318  1.00  0.00     0.014 A 
ATOM     12  C   UNL A   1      38.046  29.751  27.651  1.00  0.00     0.010 A 
ATOM     13  C   UNL A   1      37.050  29.253  29.799  1.00  0.00     0.010 A 
ATOM     14  C   UNL A   1      38.179  29.270  28.965  1.00  0.00    -0.014 A 
BRANCH  14  15
ATOM     15  C   UNL A   1      39.515  28.863  29.476  1.00  0.00     0.031 A 
ATOM     16  C   UNL A   1      40.258  29.706  30.474  1.00  0.00     0.074 A 
ATOM     17  C   UNL A   1      40.066  27.720  29.022  1.00  0.00     0.049 A 
ATOM     18  N   UNL A   1      41.450  29.523  30.988  1.00  0.00    -0.248 NA
ATOM     19  C   UNL A   1      39.580  30.919  30.954  1.00  0.00     0.031 C 
ATOM     20  C   UNL A   1      39.450  26.819  28.046  1.00  0.00     0.029 A 
ATOM     21  N   UNL A   1      41.263  27.117  29.317  1.00  0.00    -0.354 N 
ATOM     22  C   UNL A   1      41.671  30.600  31.837  1.00  0.00     0.074 A 
ATOM     23  C   UNL A   1      40.502  31.451  31.745  1.00  0.00     0.031 C 
ATOM     24  C   UNL A   1      40.253  25.764  27.850  1.00  0.00     0.029 A 
ATOM     25  C   UNL A   1      41.473  25.948  28.629  1.00  0.00     0.049 A 
ATOM     26  H   UNL A   1      41.910  27.488  29.961  1.00  0.00     0.167 HD
ATOM     27  C   UNL A   1      42.745  30.848  32.626  1.00  0.00     0.037 A 
ATOM     28  C   UNL A   1      42.539  25.126  28.603  1.00  0.00     0.037 A 
ATOM     29  C   UNL A   1      43.905  29.995  32.713  1.00  0.00     0.049 A 
ATOM     30  C   UNL A   1      43.739  25.456  29.444  1.00  0.00     0.074 A 
ATOM     31  C   UNL A   1      45.031  30.148  33.505  1.00  0.00     0.029 A 
ATOM     32  N   UNL A   1      44.093  28.833  31.977  1.00  0.00    -0.354 N 
ATOM     33  N   UNL A   1      43.921  26.459  30.267  1.00  0.00    -0.248 NA
ATOM     34  C   UNL A   1      44.883  24.541  29.348  1.00  0.00     0.031 C 
ATOM     35  C   UNL A   1      45.923  29.113  33.206  1.00  0.00     0.029 A 
ATOM     36  C   UNL A   1      45.327  28.276  32.276  1.00  0.00     0.049 A 
ATOM     37  H   UNL A   1      43.444  28.460  31.337  1.00  0.00     0.167 HD
ATOM     38  C   UNL A   1      45.187  26.283  30.808  1.00  0.00     0.074 A 
ATOM     39  C   UNL A   1      45.720  25.066  30.232  1.00  0.00     0.031 C 
ATOM     40  C   UNL A   1      45.847  27.061  31.700  1.00  0.00     0.037 A 
BRANCH  27  41
ATOM     41  C   UNL A   1      42.731  32.105  33.451  1.00  0.00     0.064 A 
ATOM     42  C   UNL A   1      42.172  32.138  34.738  1.00  0.00     0.173 A 
ATOM     43  C   UNL A   1      43.333  33.279  32.971  1.00  0.00     0.173 A 
ATOM     44  F   UNL A   1      41.578  31.047  35.245  1.00  0.00    -0.203 F 
ATOM     45  C   UNL A   1      42.191  33.305  35.499  1.00  0.00     0.198 A 
ATOM     46  C   UNL A   1      43.377  34.435  33.746  1.00  0.00     0.198 A 
ATOM     47  F   UNL A   1      43.891  33.303  31.751  1.00  0.00    -0.203 F 
ATOM     48  F   UNL A   1      41.608  33.325  36.706  1.00  0.00    -0.200 F 
ATOM     49  C   UNL A   1      42.799  34.449  35.006  1.00  0.00     0.200 A 
ATOM     50  F   UNL A   1      43.982  35.534  33.275  1.00  0.00    -0.200 F 
ATOM     51  F   UNL A   1      42.824  35.567  35.744  1.00  0.00    -0.200 F 
ENDBRANCH  27  41
BRANCH  28  52
ATOM     52  C   UNL A   1      42.517  23.914  27.741  1.00  0.00     0.064 A 
ATOM     53  C   UNL A   1      42.181  22.660  28.269  1.00  0.00     0.173 A 
ATOM     54  C   UNL A   1      42.830  23.983  26.376  1.00  0.00     0.173 A 
ATOM     55  F   UNL A   1      41.893  22.539  29.574  1.00  0.00    -0.203 F 
ATOM     56  C   UNL A   1      42.176  21.520  27.469  1.00  0.00     0.198 A 
ATOM     57  C   UNL A   1      42.792  22.849  25.568  1.00  0.00     0.198 A 
ATOM     58  F   UNL A   1      43.155  25.160  25.819  1.00  0.00    -0.203 F 
ATOM     59  F   UNL A   1      41.897  20.326  28.010  1.00  0.00    -0.200 F 
ATOM     60  C   UNL A   1      42.474  21.617  26.118  1.00  0.00     0.200 A 
ATOM     61  F   UNL A   1      43.062  22.951  24.260  1.00  0.00    -0.200 F 
ATOM     62  F   UNL A   1      42.462  20.521  25.347  1.00  0.00    -0.200 F 
ENDBRANCH  28  52
BRANCH  40  63
ATOM     63  C   UNL A   1      47.206  26.597  32.144  1.00  0.00     0.064 A 
ATOM     64  C   UNL A   1      47.370  25.710  33.218  1.00  0.00     0.173 A 
ATOM     65  C   UNL A   1      48.357  27.023  31.463  1.00  0.00     0.173 A 
ATOM     66  F   UNL A   1      46.304  25.285  33.913  1.00  0.00    -0.203 F 
ATOM     67  C   UNL A   1      48.638  25.291  33.613  1.00  0.00     0.198 A 
ATOM     68  C   UNL A   1      49.620  26.576  31.839  1.00  0.00     0.198 A 
ATOM     69  F   UNL A   1      48.256  27.867  30.426  1.00  0.00    -0.203 F 
ATOM     70  F   UNL A   1      48.775  24.487  34.677  1.00  0.00    -0.200 F 
ATOM     71  C   UNL A   1      49.761  25.717  32.919  1.00  0.00     0.200 A 
ATOM     72  F   UNL A   1      50.702  26.976  31.157  1.00  0.00    -0.200 F 
ATOM     73  F   UNL A   1      50.979  25.306  33.295  1.00  0.00    -0.200 F 
ENDBRANCH  40  63
ENDBRANCH  14  15
ENDBRANCH   7   9
ENDBRANCH   4   5
ENDBRANCH   3   4
ENDBRANCH   2   3
ENDBRANCH   1   2
BRANCH   1  74
ATOM     74  C   UNL A   1      30.921  26.693  24.294  1.00  0.00     0.021 C 
BRANCH  74  75
ATOM     75  C   UNL A   1      30.426  25.541  23.417  1.00  0.00     0.116 C 
BRANCH  75  76
ATOM     76  N   UNL A   1      31.398  25.239  22.384  1.00  0.00    -0.356 N 
ATOM     77  C   UNL A   1      32.687  24.826  22.399  1.00  0.00     0.227 C 
ATOM     78  H   UNL A   1      31.042  25.364  21.475  1.00  0.00     0.163 HD
ATOM     79  O   UNL A   1      33.282  25.060  21.336  1.00  0.00    -0.274 OA
BRANCH  77  80
ATOM     80  C   UNL A   1      33.381  23.979  23.495  1.00  0.00     0.061 C 
ATOM     81  C   UNL A   1      34.447  23.088  22.766  1.00  0.00     0.053 C 
ATOM     82  C   UNL A   1      34.277  24.939  24.363  1.00  0.00     0.053 C 
ATOM     83  C   UNL A   1      35.561  23.028  23.772  1.00  0.00    -0.044 A 
ATOM     84  C   UNL A   1      35.436  24.058  24.707  1.00  0.00    -0.044 A 
ATOM     85  C   UNL A   1      36.604  22.124  23.857  1.00  0.00     0.004 A 
ATOM     86  C   UNL A   1      36.308  24.185  25.773  1.00  0.00     0.004 A 
ATOM     87  C   UNL A   1      37.494  22.241  24.930  1.00  0.00     0.000 A 
ATOM     88  C   UNL A   1      37.340  23.256  25.889  1.00  0.00     0.000 A 
BRANCH  80  89
ATOM     89  C   UNL A   1      32.535  23.075  24.449  1.00  0.00     0.045 C 
BRANCH  89  90
ATOM     90  C   UNL A   1      32.518  21.614  24.097  1.00  0.00    -0.025 C 
ATOM     91  C   UNL A   1      33.027  20.632  24.857  1.00  0.00     0.004 C 
BRANCH  91  92
ATOM     92  C   UNL A   1      33.269  19.260  24.364  1.00  0.00    -0.026 A 
ATOM     93  C   UNL A   1      34.407  18.570  24.797  1.00  0.00     0.008 A 
ATOM     94  C   UNL A   1      32.509  18.698  23.323  1.00  0.00     0.008 A 
ATOM     95  C   UNL A   1      34.781  17.365  24.192  1.00  0.00     0.001 A 
ATOM     96  C   UNL A   1      32.891  17.506  22.709  1.00  0.00     0.001 A 
ATOM     97  C   UNL A   1      34.034  16.845  23.137  1.00  0.00     0.000 A 
ENDBRANCH  91  92
ENDBRANCH  89  90
ENDBRANCH  80  89
ENDBRANCH  77  80
ENDBRANCH  75  76
ENDBRANCH  74  75
ENDBRANCH   1  74
TORSDOF 16
ENDMDL
MODEL 2
REMARK VINA RESULT:     -12.6      3.382      9.135
REMARK SMILES O=C(NCCCCCCNC(=O)C1(C/C=C/c2ccccc2)Cc2ccccc2C1)c1ccc(-c2c3nc(c(-c4c(F)c(F)c(F)c(F)c4F)c4ccc([nH]4)c(-c4c(F)c(F)c(F)c(F)c4F)c4nc(c(-c5c(F)c(F)c(F)c(F)c5F)c5ccc2[nH]5)C=C4)C=C3)cc1
REMARK SMILES IDX 7 1 6 2 5 3 4 4 3 5 1 6 2 7 31 9 32 10 93 11 33 12 92 13
REMARK SMILES IDX 34 14 35 15 36 16 86 17 37 18 91 19 85 20 87 21 38 22 90 23
REMARK SMILES IDX 84 24 83 25 39 27 71 28 51 29 70 30 52 31 55 32 69 33 88 34
REMARK SMILES IDX 53 35 54 36 68 38 89 39 56 40 40 41 41 42 49 43 42 44 43 45
REMARK SMILES IDX 47 46 50 47 44 48 45 49 48 50 46 51 72 52 73 53 81 54 74 55
REMARK SMILES IDX 75 56 79 57 82 58 76 59 77 60 80 61 78 62 57 63 58 64 66 65
REMARK SMILES IDX 59 66 60 67 64 68 67 69 61 70 62 71 65 72 63 73 8 74 9 75
REMARK SMILES IDX 10 76 11 77 12 79 13 80 23 81 30 82 24 83 29 84 25 85 28 86
REMARK SMILES IDX 26 87 27 88 14 89 15 90 16 91 17 92 18 93 22 94 19 95 21 96
REMARK SMILES IDX 20 97
REMARK H PARENT 3 8 87 26 55 37 10 78
REMARK Flexibility Score: inf
ROOT
ATOM      1  C   UNL A   1      34.017  23.199  22.988  1.00  0.00     0.002 C 
ENDROOT
BRANCH   1   2
ATOM      2  C   UNL A   1      35.259  23.575  23.805  1.00  0.00     0.002 C 
BRANCH   2   3
ATOM      3  C   UNL A   1      35.336  22.981  25.217  1.00  0.00     0.021 C 
BRANCH   3   4
ATOM      4  C   UNL A   1      36.476  23.515  26.079  1.00  0.00     0.116 C 
BRANCH   4   5
ATOM      5  N   UNL A   1      37.622  22.616  26.089  1.00  0.00    -0.352 N 
ATOM      6  O   UNL A   1      39.798  22.023  26.125  1.00  0.00    -0.269 OA
ATOM      7  C   UNL A   1      38.940  22.873  26.363  1.00  0.00     0.251 C 
ATOM      8  H   UNL A   1      37.418  21.679  25.864  1.00  0.00     0.163 HD
BRANCH   7   9
ATOM      9  C   UNL A   1      39.348  24.173  26.938  1.00  0.00     0.039 A 
ATOM     10  C   UNL A   1      39.142  24.451  28.290  1.00  0.00     0.014 A 
ATOM     11  C   UNL A   1      40.001  25.106  26.127  1.00  0.00     0.014 A 
ATOM     12  C   UNL A   1      39.472  25.704  28.804  1.00  0.00     0.010 A 
ATOM     13  C   UNL A   1      40.408  26.331  26.663  1.00  0.00     0.010 A 
ATOM     14  C   UNL A   1      40.130  26.651  28.002  1.00  0.00    -0.014 A 
BRANCH  14  15
ATOM     15  C   UNL A   1      40.590  27.935  28.594  1.00  0.00     0.031 A 
ATOM     16  C   UNL A   1      42.032  28.152  28.963  1.00  0.00     0.074 A 
ATOM     17  C   UNL A   1      39.689  28.913  28.810  1.00  0.00     0.049 A 
ATOM     18  N   UNL A   1      42.594  29.192  29.530  1.00  0.00    -0.248 NA
ATOM     19  C   UNL A   1      42.966  27.057  28.664  1.00  0.00     0.031 C 
ATOM     20  C   UNL A   1      38.260  28.822  28.504  1.00  0.00     0.029 A 
ATOM     21  N   UNL A   1      39.835  30.173  29.334  1.00  0.00    -0.354 N 
ATOM     22  C   UNL A   1      43.938  28.873  29.669  1.00  0.00     0.074 A 
ATOM     23  C   UNL A   1      44.103  27.528  29.156  1.00  0.00     0.031 C 
ATOM     24  C   UNL A   1      37.668  29.985  28.811  1.00  0.00     0.029 A 
ATOM     25  C   UNL A   1      38.658  30.879  29.403  1.00  0.00     0.049 A 
ATOM     26  H   UNL A   1      40.700  30.538  29.632  1.00  0.00     0.167 HD
ATOM     27  C   UNL A   1      44.941  29.635  30.169  1.00  0.00     0.037 A 
ATOM     28  C   UNL A   1      38.395  32.097  29.910  1.00  0.00     0.037 A 
ATOM     29  C   UNL A   1      44.769  30.974  30.677  1.00  0.00     0.049 A 
ATOM     30  C   UNL A   1      39.516  32.897  30.510  1.00  0.00     0.074 A 
ATOM     31  C   UNL A   1      45.729  31.837  31.178  1.00  0.00     0.029 A 
ATOM     32  N   UNL A   1      43.555  31.643  30.757  1.00  0.00    -0.354 N 
ATOM     33  N   UNL A   1      40.788  32.597  30.604  1.00  0.00    -0.248 NA
ATOM     34  C   UNL A   1      39.163  34.204  31.078  1.00  0.00     0.031 C 
ATOM     35  C   UNL A   1      45.090  33.002  31.615  1.00  0.00     0.029 A 
ATOM     36  C   UNL A   1      43.739  32.895  31.325  1.00  0.00     0.049 A 
ATOM     37  H   UNL A   1      42.691  31.281  30.454  1.00  0.00     0.167 HD
ATOM     38  C   UNL A   1      41.392  33.686  31.217  1.00  0.00     0.074 A 
ATOM     39  C   UNL A   1      40.348  34.662  31.455  1.00  0.00     0.031 C 
ATOM     40  C   UNL A   1      42.693  33.861  31.553  1.00  0.00     0.037 A 
BRANCH  27  41
ATOM     41  C   UNL A   1      46.320  29.037  30.212  1.00  0.00     0.064 A 
ATOM     42  C   UNL A   1      47.217  29.171  29.141  1.00  0.00     0.173 A 
ATOM     43  C   UNL A   1      46.771  28.367  31.360  1.00  0.00     0.173 A 
ATOM     44  F   UNL A   1      46.837  29.795  28.016  1.00  0.00    -0.203 F 
ATOM     45  C   UNL A   1      48.500  28.632  29.207  1.00  0.00     0.198 A 
ATOM     46  C   UNL A   1      48.064  27.858  31.436  1.00  0.00     0.198 A 
ATOM     47  F   UNL A   1      45.959  28.219  32.419  1.00  0.00    -0.203 F 
ATOM     48  F   UNL A   1      49.322  28.731  28.152  1.00  0.00    -0.200 F 
ATOM     49  C   UNL A   1      48.925  27.983  30.357  1.00  0.00     0.200 A 
ATOM     50  F   UNL A   1      48.479  27.247  32.554  1.00  0.00    -0.200 F 
ATOM     51  F   UNL A   1      50.163  27.474  30.421  1.00  0.00    -0.200 F 
ENDBRANCH  27  41
BRANCH  28  52
ATOM     52  C   UNL A   1      37.007  32.628  29.877  1.00  0.00     0.064 A 
ATOM     53  C   UNL A   1      36.512  33.283  28.740  1.00  0.00     0.173 A 
ATOM     54  C   UNL A   1      36.147  32.492  30.976  1.00  0.00     0.173 A 
ATOM     55  F   UNL A   1      37.303  33.455  27.671  1.00  0.00    -0.203 F 
ATOM     56  C   UNL A   1      35.218  33.797  28.712  1.00  0.00     0.198 A 
ATOM     57  C   UNL A   1      34.841  32.976  30.935  1.00  0.00     0.198 A 
ATOM     58  F   UNL A   1      36.569  31.870  32.087  1.00  0.00    -0.203 F 
ATOM     59  F   UNL A   1      34.787  34.460  27.631  1.00  0.00    -0.200 F 
ATOM     60  C   UNL A   1      34.382  33.637  29.806  1.00  0.00     0.200 A 
ATOM     61  F   UNL A   1      34.031  32.801  31.987  1.00  0.00    -0.200 F 
ATOM     62  F   UNL A   1      33.134  34.124  29.775  1.00  0.00    -0.200 F 
ENDBRANCH  28  52
BRANCH  40  63
ATOM     63  C   UNL A   1      43.073  35.175  32.176  1.00  0.00     0.064 A 
ATOM     64  C   UNL A   1      43.524  36.256  31.404  1.00  0.00     0.173 A 
ATOM     65  C   UNL A   1      42.953  35.362  33.561  1.00  0.00     0.173 A 
ATOM     66  F   UNL A   1      43.673  36.124  30.077  1.00  0.00    -0.203 F 
ATOM     67  C   UNL A   1      43.870  37.466  32.001  1.00  0.00     0.198 A 
ATOM     68  C   UNL A   1      43.267  36.584  34.150  1.00  0.00     0.198 A 
ATOM     69  F   UNL A   1      42.522  34.364  34.345  1.00  0.00    -0.203 F 
ATOM     70  F   UNL A   1      44.351  38.467  31.250  1.00  0.00    -0.200 F 
ATOM     71  C   UNL A   1      43.734  37.632  33.371  1.00  0.00     0.200 A 
ATOM     72  F   UNL A   1      43.120  36.748  35.472  1.00  0.00    -0.200 F 
ATOM     73  F   UNL A   1      44.059  38.800  33.941  1.00  0.00    -0.200 F 
ENDBRANCH  40  63
ENDBRANCH  14  15
ENDBRANCH   7   9
ENDBRANCH   4   5
ENDBRANCH   3   4
ENDBRANCH   2   3
ENDBRANCH   1   2
BRANCH   1  74
ATOM     74  C   UNL A   1      32.975  22.384  23.753  1.00  0.00     0.021 C 
BRANCH  74  75
ATOM     75  C   UNL A   1      31.571  22.988  23.826  1.00  0.00     0.116 C 
BRANCH  75  76
ATOM     76  N   UNL A   1      31.235  23.320  25.196  1.00  0.00    -0.356 N 
ATOM     77  C   UNL A   1      31.567  24.339  26.024  1.00  0.00     0.227 C 
ATOM     78  H   UNL A   1      30.636  22.661  25.615  1.00  0.00     0.163 HD
ATOM     79  O   UNL A   1      31.400  24.061  27.222  1.00  0.00    -0.274 OA
BRANCH  77  80
ATOM     80  C   UNL A   1      31.942  25.786  25.617  1.00  0.00     0.061 C 
ATOM     81  C   UNL A   1      31.110  26.742  26.543  1.00  0.00     0.053 C 
ATOM     82  C   UNL A   1      33.419  26.060  26.084  1.00  0.00     0.053 C 
ATOM     83  C   UNL A   1      32.058  27.888  26.757  1.00  0.00    -0.044 A 
ATOM     84  C   UNL A   1      33.367  27.509  26.452  1.00  0.00    -0.044 A 
ATOM     85  C   UNL A   1      31.779  29.174  27.183  1.00  0.00     0.004 A 
ATOM     86  C   UNL A   1      34.419  28.405  26.513  1.00  0.00     0.004 A 
ATOM     87  C   UNL A   1      32.834  30.091  27.251  1.00  0.00     0.000 A 
ATOM     88  C   UNL A   1      34.142  29.713  26.905  1.00  0.00     0.000 A 
BRANCH  80  89
ATOM     89  C   UNL A   1      31.783  26.255  24.135  1.00  0.00     0.045 C 
BRANCH  89  90
ATOM     90  C   UNL A   1      30.626  27.181  23.878  1.00  0.00    -0.025 C 
ATOM     91  C   UNL A   1      30.732  28.436  23.413  1.00  0.00     0.004 C 
BRANCH  91  92
ATOM     92  C   UNL A   1      29.627  29.416  23.454  1.00  0.00    -0.026 A 
ATOM     93  C   UNL A   1      28.430  29.123  22.789  1.00  0.00     0.008 A 
ATOM     94  C   UNL A   1      29.803  30.715  23.962  1.00  0.00     0.008 A 
ATOM     95  C   UNL A   1      27.450  30.108  22.624  1.00  0.00     0.001 A 
ATOM     96  C   UNL A   1      28.833  31.701  23.783  1.00  0.00     0.001 A 
ATOM     97  C   UNL A   1      27.660  31.399  23.103  1.00  0.00     0.000 A 
ENDBRANCH  91  92
ENDBRANCH  89  90
ENDBRANCH  80  89
ENDBRANCH  77  80
ENDBRANCH  75  76
ENDBRANCH  74  75
ENDBRANCH   1  74
TORSDOF 16
ENDMDL
MODEL 3
REMARK VINA RESULT:     -12.6      3.341      8.777
REMARK SMILES O=C(NCCCCCCNC(=O)C1(C/C=C/c2ccccc2)Cc2ccccc2C1)c1ccc(-c2c3nc(c(-c4c(F)c(F)c(F)c(F)c4F)c4ccc([nH]4)c(-c4c(F)c(F)c(F)c(F)c4F)c4nc(c(-c5c(F)c(F)c(F)c(F)c5F)c5ccc2[nH]5)C=C4)C=C3)cc1
REMARK SMILES IDX 7 1 6 2 5 3 4 4 3 5 1 6 2 7 31 9 32 10 93 11 33 12 92 13
REMARK SMILES IDX 34 14 35 15 36 16 86 17 37 18 91 19 85 20 87 21 38 22 90 23
REMARK SMILES IDX 84 24 83 25 39 27 71 28 51 29 70 30 52 31 55 32 69 33 88 34
REMARK SMILES IDX 53 35 54 36 68 38 89 39 56 40 40 41 41 42 49 43 42 44 43 45
REMARK SMILES IDX 47 46 50 47 44 48 45 49 48 50 46 51 72 52 73 53 81 54 74 55
REMARK SMILES IDX 75 56 79 57 82 58 76 59 77 60 80 61 78 62 57 63 58 64 66 65
REMARK SMILES IDX 59 66 60 67 64 68 67 69 61 70 62 71 65 72 63 73 8 74 9 75
REMARK SMILES IDX 10 76 11 77 12 79 13 80 23 81 30 82 24 83 29 84 25 85 28 86
REMARK SMILES IDX 26 87 27 88 14 89 15 90 16 91 17 92 18 93 22 94 19 95 21 96
REMARK SMILES IDX 20 97
REMARK H PARENT 3 8 87 26 55 37 10 78
REMARK Flexibility Score: inf
ROOT
ATOM      1  C   UNL A   1      33.939  22.085  23.712  1.00  0.00     0.002 C 
ENDROOT
BRANCH   1   2
ATOM      2  C   UNL A   1      35.404  22.181  24.153  1.00  0.00     0.002 C 
BRANCH   2   3
ATOM      3  C   UNL A   1      35.902  23.584  24.521  1.00  0.00     0.021 C 
BRANCH   3   4
ATOM      4  C   UNL A   1      36.621  23.682  25.863  1.00  0.00     0.116 C 
BRANCH   4   5
ATOM      5  N   UNL A   1      37.710  22.723  25.970  1.00  0.00    -0.352 N 
ATOM      6  O   UNL A   1      39.842  22.013  26.185  1.00  0.00    -0.269 OA
ATOM      7  C   UNL A   1      39.015  22.912  26.348  1.00  0.00     0.251 C 
ATOM      8  H   UNL A   1      37.475  21.796  25.736  1.00  0.00     0.163 HD
BRANCH   7   9
ATOM      9  C   UNL A   1      39.446  24.194  26.945  1.00  0.00     0.039 A 
ATOM     10  C   UNL A   1      39.254  24.448  28.304  1.00  0.00     0.014 A 
ATOM     11  C   UNL A   1      40.107  25.133  26.148  1.00  0.00     0.014 A 
ATOM     12  C   UNL A   1      39.606  25.685  28.840  1.00  0.00     0.010 A 
ATOM     13  C   UNL A   1      40.537  26.341  26.706  1.00  0.00     0.010 A 
ATOM     14  C   UNL A   1      40.273  26.638  28.052  1.00  0.00    -0.014 A 
BRANCH  14  15
ATOM     15  C   UNL A   1      40.756  27.903  28.666  1.00  0.00     0.031 A 
ATOM     16  C   UNL A   1      42.204  28.092  29.026  1.00  0.00     0.074 A 
ATOM     17  C   UNL A   1      39.870  28.889  28.911  1.00  0.00     0.049 A 
ATOM     18  N   UNL A   1      42.785  29.113  29.610  1.00  0.00    -0.248 NA
ATOM     19  C   UNL A   1      43.120  26.990  28.697  1.00  0.00     0.031 C 
ATOM     20  C   UNL A   1      38.437  28.824  28.616  1.00  0.00     0.029 A 
ATOM     21  N   UNL A   1      40.038  30.136  29.459  1.00  0.00    -0.354 N 
ATOM     22  C   UNL A   1      44.126  28.772  29.730  1.00  0.00     0.074 A 
ATOM     23  C   UNL A   1      44.268  27.435  29.189  1.00  0.00     0.031 C 
ATOM     24  C   UNL A   1      37.865  29.989  28.952  1.00  0.00     0.029 A 
ATOM     25  C   UNL A   1      38.873  30.856  29.552  1.00  0.00     0.049 A 
ATOM     26  H   UNL A   1      40.911  30.482  29.757  1.00  0.00     0.167 HD
ATOM     27  C   UNL A   1      45.144  29.510  30.236  1.00  0.00     0.037 A 
ATOM     28  C   UNL A   1      38.631  32.067  30.087  1.00  0.00     0.037 A 
ATOM     29  C   UNL A   1      44.994  30.840  30.773  1.00  0.00     0.049 A 
ATOM     30  C   UNL A   1      39.769  32.839  30.693  1.00  0.00     0.074 A 
ATOM     31  C   UNL A   1      45.972  31.679  31.284  1.00  0.00     0.029 A 
ATOM     32  N   UNL A   1      43.791  31.524  30.878  1.00  0.00    -0.354 N 
ATOM     33  N   UNL A   1      41.037  32.519  30.770  1.00  0.00    -0.248 NA
ATOM     34  C   UNL A   1      39.438  34.139  31.291  1.00  0.00     0.031 C 
ATOM     35  C   UNL A   1      45.352  32.844  31.749  1.00  0.00     0.029 A 
ATOM     36  C   UNL A   1      43.997  32.761  31.469  1.00  0.00     0.049 A 
ATOM     37  H   UNL A   1      42.919  31.180  30.576  1.00  0.00     0.167 HD
ATOM     38  C   UNL A   1      41.661  33.587  31.400  1.00  0.00     0.074 A 
ATOM     39  C   UNL A   1      40.634  34.572  31.667  1.00  0.00     0.031 C 
ATOM     40  C   UNL A   1      42.968  33.737  31.727  1.00  0.00     0.037 A 
BRANCH  27  41
ATOM     41  C   UNL A   1      46.514  28.892  30.255  1.00  0.00     0.064 A 
ATOM     42  C   UNL A   1      47.011  28.229  31.387  1.00  0.00     0.173 A 
ATOM     43  C   UNL A   1      47.322  28.917  29.106  1.00  0.00     0.173 A 
ATOM     44  F   UNL A   1      46.285  28.182  32.514  1.00  0.00    -0.203 F 
ATOM     45  C   UNL A   1      48.274  27.641  31.378  1.00  0.00     0.198 A 
ATOM     46  C   UNL A   1      48.571  28.300  29.091  1.00  0.00     0.198 A 
ATOM     47  F   UNL A   1      46.894  29.528  27.991  1.00  0.00    -0.203 F 
ATOM     48  F   UNL A   1      48.746  27.055  32.488  1.00  0.00    -0.200 F 
ATOM     49  C   UNL A   1      49.049  27.670  30.229  1.00  0.00     0.200 A 
ATOM     50  F   UNL A   1      49.310  28.314  27.973  1.00  0.00    -0.200 F 
ATOM     51  F   UNL A   1      50.259  27.095  30.220  1.00  0.00    -0.200 F 
ENDBRANCH  27  41
BRANCH  28  52
ATOM     52  C   UNL A   1      37.250  32.618  30.077  1.00  0.00     0.064 A 
ATOM     53  C   UNL A   1      36.339  32.296  31.092  1.00  0.00     0.173 A 
ATOM     54  C   UNL A   1      36.813  33.475  29.057  1.00  0.00     0.173 A 
ATOM     55  F   UNL A   1      36.703  31.464  32.079  1.00  0.00    -0.203 F 
ATOM     56  C   UNL A   1      35.039  32.796  31.078  1.00  0.00     0.198 A 
ATOM     57  C   UNL A   1      35.525  34.003  29.061  1.00  0.00     0.198 A 
ATOM     58  F   UNL A   1      37.647  33.818  28.064  1.00  0.00    -0.203 F 
ATOM     59  F   UNL A   1      34.174  32.435  32.034  1.00  0.00    -0.200 F 
ATOM     60  C   UNL A   1      34.635  33.655  30.066  1.00  0.00     0.200 A 
ATOM     61  F   UNL A   1      35.146  34.848  28.092  1.00  0.00    -0.200 F 
ATOM     62  F   UNL A   1      33.388  34.143  30.057  1.00  0.00    -0.200 F 
ENDBRANCH  28  52
BRANCH  40  63
ATOM     63  C   UNL A   1      43.371  35.032  32.373  1.00  0.00     0.064 A 
ATOM     64  C   UNL A   1      43.436  35.174  33.767  1.00  0.00     0.173 A 
ATOM     65  C   UNL A   1      43.726  36.137  31.584  1.00  0.00     0.173 A 
ATOM     66  F   UNL A   1      43.091  34.154  34.568  1.00  0.00    -0.203 F 
ATOM     67  C   UNL A   1      43.813  36.383  34.346  1.00  0.00     0.198 A 
ATOM     68  C   UNL A   1      44.135  37.333  32.166  1.00  0.00     0.198 A 
ATOM     69  F   UNL A   1      43.686  36.054  30.246  1.00  0.00    -0.203 F 
ATOM     70  F   UNL A   1      43.815  36.513  35.681  1.00  0.00    -0.200 F 
ATOM     71  C   UNL A   1      44.170  37.459  33.547  1.00  0.00     0.200 A 
ATOM     72  F   UNL A   1      44.495  38.366  31.391  1.00  0.00    -0.200 F 
ATOM     73  F   UNL A   1      44.541  38.618  34.106  1.00  0.00    -0.200 F 
ENDBRANCH  40  63
ENDBRANCH  14  15
ENDBRANCH   7   9
ENDBRANCH   4   5
ENDBRANCH   3   4
ENDBRANCH   2   3
ENDBRANCH   1   2
BRANCH   1  74
ATOM     74  C   UNL A   1      33.018  21.381  24.708  1.00  0.00     0.021 C 
BRANCH  74  75
ATOM     75  C   UNL A   1      33.030  21.930  26.137  1.00  0.00     0.116 C 
BRANCH  75  76
ATOM     76  N   UNL A   1      31.681  22.233  26.572  1.00  0.00    -0.356 N 
ATOM     77  C   UNL A   1      30.951  23.371  26.646  1.00  0.00     0.227 C 
ATOM     78  H   UNL A   1      31.190  21.438  26.883  1.00  0.00     0.163 HD
ATOM     79  O   UNL A   1      29.994  23.280  27.431  1.00  0.00    -0.274 OA
BRANCH  77  80
ATOM     80  C   UNL A   1      31.096  24.630  25.757  1.00  0.00     0.061 C 
ATOM     81  C   UNL A   1      32.627  24.972  25.710  1.00  0.00     0.053 C 
ATOM     82  C   UNL A   1      30.794  24.218  24.268  1.00  0.00     0.053 C 
ATOM     83  C   UNL A   1      32.798  25.495  24.312  1.00  0.00    -0.044 A 
ATOM     84  C   UNL A   1      31.729  25.100  23.504  1.00  0.00    -0.044 A 
ATOM     85  C   UNL A   1      33.822  26.268  23.796  1.00  0.00     0.004 A 
ATOM     86  C   UNL A   1      31.625  25.504  22.185  1.00  0.00     0.004 A 
ATOM     87  C   UNL A   1      33.730  26.683  22.463  1.00  0.00     0.000 A 
ATOM     88  C   UNL A   1      32.632  26.315  21.667  1.00  0.00     0.000 A 
BRANCH  80  89
ATOM     89  C   UNL A   1      30.299  25.931  26.094  1.00  0.00     0.045 C 
BRANCH  89  90
ATOM     90  C   UNL A   1      31.086  26.998  26.805  1.00  0.00    -0.025 C 
ATOM     91  C   UNL A   1      31.464  28.166  26.264  1.00  0.00     0.004 C 
BRANCH  91  92
ATOM     92  C   UNL A   1      32.479  29.055  26.868  1.00  0.00    -0.026 A 
ATOM     93  C   UNL A   1      32.211  30.425  26.970  1.00  0.00     0.008 A 
ATOM     94  C   UNL A   1      33.780  28.610  27.157  1.00  0.00     0.008 A 
ATOM     95  C   UNL A   1      33.222  31.321  27.334  1.00  0.00     0.001 A 
ATOM     96  C   UNL A   1      34.792  29.505  27.504  1.00  0.00     0.001 A 
ATOM     97  C   UNL A   1      34.514  30.863  27.582  1.00  0.00     0.000 A 
ENDBRANCH  91  92
ENDBRANCH  89  90
ENDBRANCH  80  89
ENDBRANCH  77  80
ENDBRANCH  75  76
ENDBRANCH  74  75
ENDBRANCH   1  74
TORSDOF 16
ENDMDL
