MODEL 1
REMARK VINA RESULT:     -13.0      0.000      0.000
REMARK SMILES C[C@H]1[C@H](C(=O)NCCCCCCNC(=O)c2ccc(-c3c4nc(c(-c5c(F)c(F)c(F)c(F)c5F)c5ccc([nH]5)c(-c5c(F)c(F)c(F)c(F)c5F)c5nc(c(-c6c(F)c(F)c(F)c(F)c6F)c6ccc3[nH]6)C=C5)C=C4)cc2)CCN1C(=O)c1ccc2ccccc2c1
REMARK SMILES IDX 9 1 8 2 7 3 6 4 4 5 5 6 3 8 1 9 2 10 81 11 79 12 80 13 82 14
REMARK SMILES IDX 83 15 84 16 85 17 93 18 86 19 92 20 87 21 91 22 88 23 90 24
REMARK SMILES IDX 89 25 10 26 11 27 12 28 13 29 14 30 15 32 16 33 17 34 78 35
REMARK SMILES IDX 18 36 77 37 19 38 20 39 21 40 71 41 22 42 76 43 70 44 72 45
REMARK SMILES IDX 23 46 75 47 69 48 68 49 24 51 56 52 36 53 55 54 37 55 40 56
REMARK SMILES IDX 54 57 73 58 38 59 39 60 53 62 74 63 41 64 25 65 26 66 34 67
REMARK SMILES IDX 27 68 28 69 32 70 35 71 29 72 30 73 33 74 31 75 57 76 58 77
REMARK SMILES IDX 66 78 59 79 60 80 64 81 67 82 61 83 62 84 65 85 63 86 42 87
REMARK SMILES IDX 43 88 51 89 44 90 45 91 49 92 52 93 46 94 47 95 50 96 48 97
REMARK H PARENT 6 7 13 31 72 50 40 61
REMARK Flexibility Score: inf
ROOT
ATOM      1  C   UNL A   1      32.374  29.690  26.739  1.00  0.00     0.002 C 
ENDROOT
BRANCH   1   2
ATOM      2  C   UNL A   1      31.641  28.482  27.327  1.00  0.00     0.021 C 
BRANCH   2   3
ATOM      3  C   UNL A   1      31.441  27.344  26.332  1.00  0.00     0.116 C 
BRANCH   3   4
ATOM      4  N   UNL A   1      31.370  26.066  27.010  1.00  0.00    -0.356 N 
ATOM      5  C   UNL A   1      31.721  24.820  26.596  1.00  0.00     0.225 C 
ATOM      6  O   UNL A   1      31.480  23.879  27.357  1.00  0.00    -0.275 OA
ATOM      7  H   UNL A   1      31.005  26.106  27.923  1.00  0.00     0.163 HD
BRANCH   5   8
ATOM      8  C   UNL A   1      32.402  24.567  25.261  1.00  0.00     0.102 C 
ATOM      9  C   UNL A   1      31.330  23.296  23.373  1.00  0.00     0.032 C 
ATOM     10  C   UNL A   1      31.447  24.660  24.056  1.00  0.00     0.094 C 
ATOM     11  N   UNL A   1      32.040  25.683  23.189  1.00  0.00    -0.335 N 
ATOM     12  C   UNL A   1      33.566  25.526  24.995  1.00  0.00     0.037 C 
ATOM     13  C   UNL A   1      33.419  25.948  23.546  1.00  0.00     0.121 C 
BRANCH  11  14
ATOM     14  C   UNL A   1      31.433  26.428  22.193  1.00  0.00     0.254 C 
ATOM     15  O   UNL A   1      31.612  26.235  20.994  1.00  0.00    -0.269 OA
BRANCH  14  16
ATOM     16  C   UNL A   1      30.456  27.459  22.575  1.00  0.00     0.040 A 
ATOM     17  C   UNL A   1      29.293  27.029  23.217  1.00  0.00     0.014 A 
ATOM     18  C   UNL A   1      30.619  28.797  22.214  1.00  0.00     0.022 A 
ATOM     19  C   UNL A   1      28.318  27.956  23.573  1.00  0.00     0.009 A 
ATOM     20  C   UNL A   1      29.619  29.735  22.531  1.00  0.00    -0.018 A 
ATOM     21  C   UNL A   1      28.469  29.310  23.242  1.00  0.00    -0.018 A 
ATOM     22  C   UNL A   1      29.713  31.082  22.139  1.00  0.00     0.009 A 
ATOM     23  C   UNL A   1      27.478  30.243  23.581  1.00  0.00     0.009 A 
ATOM     24  C   UNL A   1      28.695  31.990  22.448  1.00  0.00     0.001 A 
ATOM     25  C   UNL A   1      27.587  31.574  23.180  1.00  0.00     0.001 A 
ENDBRANCH  14  16
ENDBRANCH  11  14
ENDBRANCH   5   8
ENDBRANCH   3   4
ENDBRANCH   2   3
ENDBRANCH   1   2
BRANCH   1  26
ATOM     26  C   UNL A   1      31.500  30.617  25.887  1.00  0.00     0.002 C 
BRANCH  26  27
ATOM     27  C   UNL A   1      31.266  32.009  26.480  1.00  0.00     0.021 C 
BRANCH  27  28
ATOM     28  C   UNL A   1      32.466  32.587  27.223  1.00  0.00     0.116 C 
BRANCH  28  29
ATOM     29  N   UNL A   1      32.299  34.004  27.501  1.00  0.00    -0.352 N 
ATOM     30  C   UNL A   1      32.921  34.787  28.440  1.00  0.00     0.251 C 
ATOM     31  H   UNL A   1      31.643  34.470  26.933  1.00  0.00     0.163 HD
ATOM     32  O   UNL A   1      32.500  35.912  28.685  1.00  0.00    -0.269 OA
BRANCH  30  33
ATOM     33  C   UNL A   1      34.096  34.263  29.167  1.00  0.00     0.039 A 
ATOM     34  C   UNL A   1      33.890  33.496  30.315  1.00  0.00     0.014 A 
ATOM     35  C   UNL A   1      35.393  34.537  28.725  1.00  0.00     0.014 A 
ATOM     36  C   UNL A   1      34.987  32.953  30.988  1.00  0.00     0.010 A 
ATOM     37  C   UNL A   1      36.479  33.932  29.349  1.00  0.00     0.010 A 
ATOM     38  C   UNL A   1      36.287  33.139  30.490  1.00  0.00    -0.014 A 
BRANCH  38  39
ATOM     39  C   UNL A   1      37.457  32.506  31.152  1.00  0.00     0.031 A 
ATOM     40  C   UNL A   1      38.194  31.384  30.476  1.00  0.00     0.074 A 
ATOM     41  C   UNL A   1      37.820  32.908  32.385  1.00  0.00     0.049 A 
ATOM     42  N   UNL A   1      39.204  30.674  30.913  1.00  0.00    -0.248 NA
ATOM     43  C   UNL A   1      37.717  30.988  29.141  1.00  0.00     0.031 C 
ATOM     44  C   UNL A   1      37.154  33.955  33.161  1.00  0.00     0.029 A 
ATOM     45  N   UNL A   1      38.831  32.477  33.206  1.00  0.00    -0.354 N 
ATOM     46  C   UNL A   1      39.475  29.748  29.916  1.00  0.00     0.074 A 
ATOM     47  C   UNL A   1      38.488  29.943  28.877  1.00  0.00     0.031 C 
ATOM     48  C   UNL A   1      37.791  34.105  34.333  1.00  0.00     0.029 A 
ATOM     49  C   UNL A   1      38.879  33.136  34.411  1.00  0.00     0.049 A 
ATOM     50  H   UNL A   1      39.462  31.764  32.956  1.00  0.00     0.167 HD
ATOM     51  C   UNL A   1      40.473  28.833  29.860  1.00  0.00     0.037 A 
ATOM     52  C   UNL A   1      39.703  32.968  35.463  1.00  0.00     0.037 A 
ATOM     53  C   UNL A   1      41.461  28.651  30.892  1.00  0.00     0.049 A 
ATOM     54  C   UNL A   1      40.785  31.924  35.388  1.00  0.00     0.074 A 
ATOM     55  C   UNL A   1      42.545  27.792  30.907  1.00  0.00     0.029 A 
ATOM     56  N   UNL A   1      41.477  29.336  32.099  1.00  0.00    -0.354 N 
ATOM     57  N   UNL A   1      41.080  31.106  34.407  1.00  0.00    -0.248 NA
ATOM     58  C   UNL A   1      41.653  31.787  36.565  1.00  0.00     0.031 C 
ATOM     59  C   UNL A   1      43.181  27.912  32.146  1.00  0.00     0.029 A 
ATOM     60  C   UNL A   1      42.535  28.895  32.879  1.00  0.00     0.049 A 
ATOM     61  H   UNL A   1      40.833  30.033  32.363  1.00  0.00     0.167 HD
ATOM     62  C   UNL A   1      42.182  30.377  34.836  1.00  0.00     0.074 A 
ATOM     63  C   UNL A   1      42.514  30.866  36.158  1.00  0.00     0.031 C 
ATOM     64  C   UNL A   1      42.856  29.392  34.193  1.00  0.00     0.037 A 
BRANCH  51  65
ATOM     65  C   UNL A   1      40.545  27.956  28.642  1.00  0.00     0.064 A 
ATOM     66  C   UNL A   1      41.303  28.315  27.517  1.00  0.00     0.173 A 
ATOM     67  C   UNL A   1      39.873  26.725  28.610  1.00  0.00     0.173 A 
ATOM     68  F   UNL A   1      41.958  29.485  27.489  1.00  0.00    -0.203 F 
ATOM     69  C   UNL A   1      41.358  27.493  26.395  1.00  0.00     0.198 A 
ATOM     70  C   UNL A   1      39.958  25.888  27.500  1.00  0.00     0.198 A 
ATOM     71  F   UNL A   1      39.138  26.327  29.660  1.00  0.00    -0.203 F 
ATOM     72  F   UNL A   1      42.043  27.884  25.311  1.00  0.00    -0.200 F 
ATOM     73  C   UNL A   1      40.692  26.277  26.390  1.00  0.00     0.200 A 
ATOM     74  F   UNL A   1      39.326  24.706  27.504  1.00  0.00    -0.200 F 
ATOM     75  F   UNL A   1      40.751  25.482  25.312  1.00  0.00    -0.200 F 
ENDBRANCH  51  65
BRANCH  52  76
ATOM     76  C   UNL A   1      39.548  33.820  36.671  1.00  0.00     0.064 A 
ATOM     77  C   UNL A   1      40.188  35.065  36.763  1.00  0.00     0.173 A 
ATOM     78  C   UNL A   1      38.766  33.409  37.762  1.00  0.00     0.173 A 
ATOM     79  F   UNL A   1      40.963  35.494  35.756  1.00  0.00    -0.203 F 
ATOM     80  C   UNL A   1      40.072  35.852  37.906  1.00  0.00     0.198 A 
ATOM     81  C   UNL A   1      38.624  34.213  38.890  1.00  0.00     0.198 A 
ATOM     82  F   UNL A   1      38.128  32.231  37.724  1.00  0.00    -0.203 F 
ATOM     83  F   UNL A   1      40.737  37.014  37.986  1.00  0.00    -0.200 F 
ATOM     84  C   UNL A   1      39.285  35.429  38.966  1.00  0.00     0.200 A 
ATOM     85  F   UNL A   1      37.849  33.808  39.906  1.00  0.00    -0.200 F 
ATOM     86  F   UNL A   1      39.171  36.190  40.064  1.00  0.00    -0.200 F 
ENDBRANCH  52  76
BRANCH  64  87
ATOM     87  C   UNL A   1      44.045  28.799  34.895  1.00  0.00     0.064 A 
ATOM     88  C   UNL A   1      45.333  29.337  34.752  1.00  0.00     0.173 A 
ATOM     89  C   UNL A   1      43.886  27.698  35.752  1.00  0.00     0.173 A 
ATOM     90  F   UNL A   1      45.541  30.379  33.932  1.00  0.00    -0.203 F 
ATOM     91  C   UNL A   1      46.420  28.778  35.417  1.00  0.00     0.198 A 
ATOM     92  C   UNL A   1      44.970  27.166  36.444  1.00  0.00     0.198 A 
ATOM     93  F   UNL A   1      42.677  27.149  35.932  1.00  0.00    -0.203 F 
ATOM     94  F   UNL A   1      47.650  29.276  35.221  1.00  0.00    -0.200 F 
ATOM     95  C   UNL A   1      46.238  27.700  36.269  1.00  0.00     0.200 A 
ATOM     96  F   UNL A   1      44.789  26.134  37.280  1.00  0.00    -0.200 F 
ATOM     97  F   UNL A   1      47.285  27.170  36.916  1.00  0.00    -0.200 F 
ENDBRANCH  64  87
ENDBRANCH  38  39
ENDBRANCH  30  33
ENDBRANCH  28  29
ENDBRANCH  27  28
ENDBRANCH  26  27
ENDBRANCH   1  26
TORSDOF 15
ENDMDL
MODEL 2
REMARK VINA RESULT:     -13.0      0.455      7.083
REMARK SMILES C[C@H]1[C@H](C(=O)NCCCCCCNC(=O)c2ccc(-c3c4nc(c(-c5c(F)c(F)c(F)c(F)c5F)c5ccc([nH]5)c(-c5c(F)c(F)c(F)c(F)c5F)c5nc(c(-c6c(F)c(F)c(F)c(F)c6F)c6ccc3[nH]6)C=C5)C=C4)cc2)CCN1C(=O)c1ccc2ccccc2c1
REMARK SMILES IDX 9 1 8 2 7 3 6 4 4 5 5 6 3 8 1 9 2 10 81 11 79 12 80 13 82 14
REMARK SMILES IDX 83 15 84 16 85 17 93 18 86 19 92 20 87 21 91 22 88 23 90 24
REMARK SMILES IDX 89 25 10 26 11 27 12 28 13 29 14 30 15 32 16 33 17 34 78 35
REMARK SMILES IDX 18 36 77 37 19 38 20 39 21 40 71 41 22 42 76 43 70 44 72 45
REMARK SMILES IDX 23 46 75 47 69 48 68 49 24 51 56 52 36 53 55 54 37 55 40 56
REMARK SMILES IDX 54 57 73 58 38 59 39 60 53 62 74 63 41 64 25 65 26 66 34 67
REMARK SMILES IDX 27 68 28 69 32 70 35 71 29 72 30 73 33 74 31 75 57 76 58 77
REMARK SMILES IDX 66 78 59 79 60 80 64 81 67 82 61 83 62 84 65 85 63 86 42 87
REMARK SMILES IDX 43 88 51 89 44 90 45 91 49 92 52 93 46 94 47 95 50 96 48 97
REMARK H PARENT 6 7 13 31 72 50 40 61
REMARK Flexibility Score: inf
ROOT
ATOM      1  C   UNL A   1      32.411  29.729  26.645  1.00  0.00     0.002 C 
ENDROOT
BRANCH   1   2
ATOM      2  C   UNL A   1      31.828  28.496  27.339  1.00  0.00     0.021 C 
BRANCH   2   3
ATOM      3  C   UNL A   1      31.347  27.419  26.373  1.00  0.00     0.116 C 
BRANCH   3   4
ATOM      4  N   UNL A   1      31.309  26.121  27.017  1.00  0.00    -0.356 N 
ATOM      5  C   UNL A   1      31.716  24.901  26.580  1.00  0.00     0.225 C 
ATOM      6  O   UNL A   1      31.494  23.931  27.310  1.00  0.00    -0.275 OA
ATOM      7  H   UNL A   1      30.922  26.123  27.922  1.00  0.00     0.163 HD
BRANCH   5   8
ATOM      8  C   UNL A   1      32.436  24.709  25.256  1.00  0.00     0.102 C 
ATOM      9  C   UNL A   1      31.471  23.419  23.323  1.00  0.00     0.032 C 
ATOM     10  C   UNL A   1      31.502  24.774  24.032  1.00  0.00     0.094 C 
ATOM     11  N   UNL A   1      32.059  25.842  23.196  1.00  0.00    -0.335 N 
ATOM     12  C   UNL A   1      33.554  25.731  25.031  1.00  0.00     0.037 C 
ATOM     13  C   UNL A   1      33.414  26.172  23.587  1.00  0.00     0.121 C 
BRANCH  11  14
ATOM     14  C   UNL A   1      31.433  26.574  22.201  1.00  0.00     0.254 C 
ATOM     15  O   UNL A   1      31.610  26.380  21.002  1.00  0.00    -0.269 OA
BRANCH  14  16
ATOM     16  C   UNL A   1      30.440  27.589  22.585  1.00  0.00     0.040 A 
ATOM     17  C   UNL A   1      29.254  27.133  23.164  1.00  0.00     0.014 A 
ATOM     18  C   UNL A   1      30.614  28.940  22.282  1.00  0.00     0.022 A 
ATOM     19  C   UNL A   1      28.264  28.045  23.519  1.00  0.00     0.009 A 
ATOM     20  C   UNL A   1      29.600  29.864  22.596  1.00  0.00    -0.018 A 
ATOM     21  C   UNL A   1      28.424  29.410  23.246  1.00  0.00    -0.018 A 
ATOM     22  C   UNL A   1      29.705  31.225  22.261  1.00  0.00     0.009 A 
ATOM     23  C   UNL A   1      27.419  30.329  23.582  1.00  0.00     0.009 A 
ATOM     24  C   UNL A   1      28.675  32.119  22.565  1.00  0.00     0.001 A 
ATOM     25  C   UNL A   1      27.540  31.674  23.237  1.00  0.00     0.001 A 
ENDBRANCH  14  16
ENDBRANCH  11  14
ENDBRANCH   5   8
ENDBRANCH   3   4
ENDBRANCH   2   3
ENDBRANCH   1   2
BRANCH   1  26
ATOM     26  C   UNL A   1      31.393  30.560  25.856  1.00  0.00     0.002 C 
BRANCH  26  27
ATOM     27  C   UNL A   1      31.313  32.035  26.260  1.00  0.00     0.021 C 
BRANCH  27  28
ATOM     28  C   UNL A   1      32.417  32.488  27.209  1.00  0.00     0.116 C 
BRANCH  28  29
ATOM     29  N   UNL A   1      32.324  33.907  27.508  1.00  0.00    -0.352 N 
ATOM     30  C   UNL A   1      33.010  34.649  28.437  1.00  0.00     0.251 C 
ATOM     31  H   UNL A   1      31.673  34.411  26.967  1.00  0.00     0.163 HD
ATOM     32  O   UNL A   1      32.648  35.788  28.708  1.00  0.00    -0.269 OA
BRANCH  30  33
ATOM     33  C   UNL A   1      34.180  34.063  29.122  1.00  0.00     0.039 A 
ATOM     34  C   UNL A   1      33.969  33.224  30.218  1.00  0.00     0.014 A 
ATOM     35  C   UNL A   1      35.479  34.347  28.692  1.00  0.00     0.014 A 
ATOM     36  C   UNL A   1      35.061  32.624  30.847  1.00  0.00     0.010 A 
ATOM     37  C   UNL A   1      36.559  33.688  29.269  1.00  0.00     0.010 A 
ATOM     38  C   UNL A   1      36.362  32.824  30.356  1.00  0.00    -0.014 A 
BRANCH  38  39
ATOM     39  C   UNL A   1      37.526  32.134  30.968  1.00  0.00     0.031 A 
ATOM     40  C   UNL A   1      38.008  32.530  32.335  1.00  0.00     0.074 A 
ATOM     41  C   UNL A   1      38.180  31.188  30.268  1.00  0.00     0.049 A 
ATOM     42  N   UNL A   1      39.034  32.081  33.014  1.00  0.00    -0.248 NA
ATOM     43  C   UNL A   1      37.253  33.590  33.022  1.00  0.00     0.031 C 
ATOM     44  C   UNL A   1      37.835  30.749  28.915  1.00  0.00     0.029 A 
ATOM     45  N   UNL A   1      39.277  30.431  30.593  1.00  0.00    -0.354 N 
ATOM     46  C   UNL A   1      39.052  32.808  34.197  1.00  0.00     0.074 A 
ATOM     47  C   UNL A   1      37.973  33.768  34.120  1.00  0.00     0.031 C 
ATOM     48  C   UNL A   1      38.685  29.781  28.537  1.00  0.00     0.029 A 
ATOM     49  C   UNL A   1      39.661  29.564  29.599  1.00  0.00     0.049 A 
ATOM     50  H   UNL A   1      39.745  30.502  31.456  1.00  0.00     0.167 HD
ATOM     51  C   UNL A   1      39.878  32.669  35.262  1.00  0.00     0.037 A 
ATOM     52  C   UNL A   1      40.692  28.698  29.547  1.00  0.00     0.037 A 
ATOM     53  C   UNL A   1      40.943  31.703  35.338  1.00  0.00     0.049 A 
ATOM     54  C   UNL A   1      41.613  28.584  30.732  1.00  0.00     0.074 A 
ATOM     55  C   UNL A   1      41.800  31.444  36.393  1.00  0.00     0.029 A 
ATOM     56  N   UNL A   1      41.303  30.841  34.311  1.00  0.00    -0.354 N 
ATOM     57  N   UNL A   1      41.573  29.222  31.877  1.00  0.00    -0.248 NA
ATOM     58  C   UNL A   1      42.719  27.624  30.619  1.00  0.00     0.031 C 
ATOM     59  C   UNL A   1      42.716  30.470  35.984  1.00  0.00     0.029 A 
ATOM     60  C   UNL A   1      42.390  30.073  34.697  1.00  0.00     0.049 A 
ATOM     61  H   UNL A   1      40.853  30.784  33.437  1.00  0.00     0.167 HD
ATOM     62  C   UNL A   1      42.629  28.723  32.630  1.00  0.00     0.074 A 
ATOM     63  C   UNL A   1      43.277  27.714  31.818  1.00  0.00     0.031 C 
ATOM     64  C   UNL A   1      43.025  29.069  33.879  1.00  0.00     0.037 A 
BRANCH  51  65
ATOM     65  C   UNL A   1      39.663  33.587  36.432  1.00  0.00     0.064 A 
ATOM     66  C   UNL A   1      40.263  34.854  36.497  1.00  0.00     0.173 A 
ATOM     67  C   UNL A   1      38.821  33.209  37.489  1.00  0.00     0.173 A 
ATOM     68  F   UNL A   1      41.085  35.263  35.519  1.00  0.00    -0.203 F 
ATOM     69  C   UNL A   1      40.056  35.692  37.589  1.00  0.00     0.198 A 
ATOM     70  C   UNL A   1      38.588  34.064  38.564  1.00  0.00     0.198 A 
ATOM     71  F   UNL A   1      38.215  32.011  37.477  1.00  0.00    -0.203 F 
ATOM     72  F   UNL A   1      40.685  36.874  37.654  1.00  0.00    -0.200 F 
ATOM     73  C   UNL A   1      39.213  35.300  38.617  1.00  0.00     0.200 A 
ATOM     74  F   UNL A   1      37.760  33.689  39.549  1.00  0.00    -0.200 F 
ATOM     75  F   UNL A   1      39.009  36.110  39.665  1.00  0.00    -0.200 F 
ENDBRANCH  51  65
BRANCH  52  76
ATOM     76  C   UNL A   1      40.897  27.858  28.338  1.00  0.00     0.064 A 
ATOM     77  C   UNL A   1      41.661  28.322  27.258  1.00  0.00     0.173 A 
ATOM     78  C   UNL A   1      40.331  26.578  28.232  1.00  0.00     0.173 A 
ATOM     79  F   UNL A   1      42.206  29.547  27.302  1.00  0.00    -0.203 F 
ATOM     80  C   UNL A   1      41.829  27.552  26.110  1.00  0.00     0.198 A 
ATOM     81  C   UNL A   1      40.529  25.795  27.097  1.00  0.00     0.198 A 
ATOM     82  F   UNL A   1      39.597  26.083  29.239  1.00  0.00    -0.203 F 
ATOM     83  F   UNL A   1      42.521  28.043  25.072  1.00  0.00    -0.200 F 
ATOM     84  C   UNL A   1      41.269  26.286  26.033  1.00  0.00     0.200 A 
ATOM     85  F   UNL A   1      39.999  24.566  27.034  1.00  0.00    -0.200 F 
ATOM     86  F   UNL A   1      41.435  25.543  24.929  1.00  0.00    -0.200 F 
ENDBRANCH  52  76
BRANCH  64  87
ATOM     87  C   UNL A   1      44.193  28.327  34.463  1.00  0.00     0.064 A 
ATOM     88  C   UNL A   1      45.506  28.809  34.351  1.00  0.00     0.173 A 
ATOM     89  C   UNL A   1      43.992  27.135  35.177  1.00  0.00     0.173 A 
ATOM     90  F   UNL A   1      45.755  29.935  33.665  1.00  0.00    -0.203 F 
ATOM     91  C   UNL A   1      46.575  28.111  34.905  1.00  0.00     0.198 A 
ATOM     92  C   UNL A   1      45.059  26.460  35.762  1.00  0.00     0.198 A 
ATOM     93  F   UNL A   1      42.757  26.634  35.322  1.00  0.00    -0.203 F 
ATOM     94  F   UNL A   1      47.826  28.564  34.738  1.00  0.00    -0.200 F 
ATOM     95  C   UNL A   1      46.350  26.944  35.618  1.00  0.00     0.200 A 
ATOM     96  F   UNL A   1      44.838  25.341  36.465  1.00  0.00    -0.200 F 
ATOM     97  F   UNL A   1      47.381  26.279  36.160  1.00  0.00    -0.200 F 
ENDBRANCH  64  87
ENDBRANCH  38  39
ENDBRANCH  30  33
ENDBRANCH  28  29
ENDBRANCH  27  28
ENDBRANCH  26  27
ENDBRANCH   1  26
TORSDOF 15
ENDMDL
MODEL 3
REMARK VINA RESULT:     -13.0      5.626     10.825
REMARK SMILES C[C@H]1[C@H](C(=O)NCCCCCCNC(=O)c2ccc(-c3c4nc(c(-c5c(F)c(F)c(F)c(F)c5F)c5ccc([nH]5)c(-c5c(F)c(F)c(F)c(F)c5F)c5nc(c(-c6c(F)c(F)c(F)c(F)c6F)c6ccc3[nH]6)C=C5)C=C4)cc2)CCN1C(=O)c1ccc2ccccc2c1
REMARK SMILES IDX 9 1 8 2 7 3 6 4 4 5 5 6 3 8 1 9 2 10 81 11 79 12 80 13 82 14
REMARK SMILES IDX 83 15 84 16 85 17 93 18 86 19 92 20 87 21 91 22 88 23 90 24
REMARK SMILES IDX 89 25 10 26 11 27 12 28 13 29 14 30 15 32 16 33 17 34 78 35
REMARK SMILES IDX 18 36 77 37 19 38 20 39 21 40 71 41 22 42 76 43 70 44 72 45
REMARK SMILES IDX 23 46 75 47 69 48 68 49 24 51 56 52 36 53 55 54 37 55 40 56
REMARK SMILES IDX 54 57 73 58 38 59 39 60 53 62 74 63 41 64 25 65 26 66 34 67
REMARK SMILES IDX 27 68 28 69 32 70 35 71 29 72 30 73 33 74 31 75 57 76 58 77
REMARK SMILES IDX 66 78 59 79 60 80 64 81 67 82 61 83 62 84 65 85 63 86 42 87
REMARK SMILES IDX 43 88 51 89 44 90 45 91 49 92 52 93 46 94 47 95 50 96 48 97
REMARK H PARENT 6 7 13 31 72 50 40 61
REMARK Flexibility Score: inf
ROOT
ATOM      1  C   UNL A   1      37.737  22.016  25.396  1.00  0.00     0.002 C 
ENDROOT
BRANCH   1   2
ATOM      2  C   UNL A   1      36.939  23.177  24.798  1.00  0.00     0.021 C 
BRANCH   2   3
ATOM      3  C   UNL A   1      35.985  23.839  25.787  1.00  0.00     0.116 C 
BRANCH   3   4
ATOM      4  N   UNL A   1      35.425  22.865  26.702  1.00  0.00    -0.356 N 
ATOM      5  C   UNL A   1      34.246  22.190  26.668  1.00  0.00     0.225 C 
ATOM      6  O   UNL A   1      33.978  21.465  27.630  1.00  0.00    -0.275 OA
ATOM      7  H   UNL A   1      35.993  22.659  27.479  1.00  0.00     0.163 HD
BRANCH   5   8
ATOM      8  C   UNL A   1      33.285  22.289  25.496  1.00  0.00     0.102 C 
ATOM      9  C   UNL A   1      31.268  23.793  25.478  1.00  0.00     0.032 C 
ATOM     10  C   UNL A   1      32.776  23.721  25.237  1.00  0.00     0.094 C 
ATOM     11  N   UNL A   1      33.146  24.000  23.846  1.00  0.00    -0.335 N 
ATOM     12  C   UNL A   1      33.886  21.775  24.185  1.00  0.00     0.037 C 
ATOM     13  C   UNL A   1      33.481  22.786  23.130  1.00  0.00     0.121 C 
BRANCH  11  14
ATOM     14  C   UNL A   1      33.281  25.227  23.219  1.00  0.00     0.254 C 
ATOM     15  O   UNL A   1      33.651  25.360  22.056  1.00  0.00    -0.269 OA
BRANCH  14  16
ATOM     16  C   UNL A   1      32.887  26.443  23.948  1.00  0.00     0.040 A 
ATOM     17  C   UNL A   1      31.778  27.143  23.466  1.00  0.00     0.014 A 
ATOM     18  C   UNL A   1      33.647  26.947  25.003  1.00  0.00     0.022 A 
ATOM     19  C   UNL A   1      31.378  28.318  24.097  1.00  0.00     0.009 A 
ATOM     20  C   UNL A   1      33.276  28.158  25.618  1.00  0.00    -0.018 A 
ATOM     21  C   UNL A   1      32.112  28.834  25.173  1.00  0.00    -0.018 A 
ATOM     22  C   UNL A   1      34.042  28.734  26.647  1.00  0.00     0.009 A 
ATOM     23  C   UNL A   1      31.724  30.029  25.796  1.00  0.00     0.009 A 
ATOM     24  C   UNL A   1      33.663  29.947  27.227  1.00  0.00     0.001 A 
ATOM     25  C   UNL A   1      32.498  30.587  26.812  1.00  0.00     0.001 A 
ENDBRANCH  14  16
ENDBRANCH  11  14
ENDBRANCH   5   8
ENDBRANCH   3   4
ENDBRANCH   2   3
ENDBRANCH   1   2
BRANCH   1  26
ATOM     26  C   UNL A   1      37.395  20.639  24.817  1.00  0.00     0.002 C 
BRANCH  26  27
ATOM     27  C   UNL A   1      38.479  19.574  25.002  1.00  0.00     0.021 C 
BRANCH  27  28
ATOM     28  C   UNL A   1      39.535  19.925  26.044  1.00  0.00     0.116 C 
BRANCH  28  29
ATOM     29  N   UNL A   1      40.606  18.944  26.081  1.00  0.00    -0.352 N 
ATOM     30  C   UNL A   1      41.964  19.137  26.127  1.00  0.00     0.251 C 
ATOM     31  H   UNL A   1      40.316  18.003  26.071  1.00  0.00     0.163 HD
ATOM     32  O   UNL A   1      42.729  18.200  25.929  1.00  0.00    -0.269 OA
BRANCH  30  33
ATOM     33  C   UNL A   1      42.502  20.485  26.403  1.00  0.00     0.039 A 
ATOM     34  C   UNL A   1      43.021  21.233  25.343  1.00  0.00     0.014 A 
ATOM     35  C   UNL A   1      42.506  21.004  27.700  1.00  0.00     0.014 A 
ATOM     36  C   UNL A   1      43.490  22.526  25.578  1.00  0.00     0.010 A 
ATOM     37  C   UNL A   1      42.900  22.320  27.918  1.00  0.00     0.010 A 
ATOM     38  C   UNL A   1      43.402  23.092  26.860  1.00  0.00    -0.014 A 
BRANCH  38  39
ATOM     39  C   UNL A   1      43.827  24.493  27.110  1.00  0.00     0.031 A 
ATOM     40  C   UNL A   1      42.826  25.522  27.556  1.00  0.00     0.074 A 
ATOM     41  C   UNL A   1      45.106  24.849  26.882  1.00  0.00     0.049 A 
ATOM     42  N   UNL A   1      42.994  26.801  27.776  1.00  0.00    -0.248 NA
ATOM     43  C   UNL A   1      41.444  25.056  27.757  1.00  0.00     0.031 C 
ATOM     44  C   UNL A   1      46.159  23.952  26.404  1.00  0.00     0.029 A 
ATOM     45  N   UNL A   1      45.735  26.062  27.011  1.00  0.00    -0.354 N 
ATOM     46  C   UNL A   1      41.744  27.291  28.130  1.00  0.00     0.074 A 
ATOM     47  C   UNL A   1      40.815  26.187  28.038  1.00  0.00     0.031 C 
ATOM     48  C   UNL A   1      47.309  24.637  26.308  1.00  0.00     0.029 A 
ATOM     49  C   UNL A   1      47.066  26.029  26.672  1.00  0.00     0.049 A 
ATOM     50  H   UNL A   1      45.277  26.876  27.319  1.00  0.00     0.167 HD
ATOM     51  C   UNL A   1      41.408  28.544  28.521  1.00  0.00     0.037 A 
ATOM     52  C   UNL A   1      47.983  27.015  26.647  1.00  0.00     0.037 A 
ATOM     53  C   UNL A   1      42.340  29.637  28.622  1.00  0.00     0.049 A 
ATOM     54  C   UNL A   1      47.576  28.405  27.058  1.00  0.00     0.074 A 
ATOM     55  C   UNL A   1      42.111  30.929  29.062  1.00  0.00     0.029 A 
ATOM     56  N   UNL A   1      43.681  29.567  28.269  1.00  0.00    -0.354 N 
ATOM     57  N   UNL A   1      46.409  28.840  27.466  1.00  0.00    -0.248 NA
ATOM     58  C   UNL A   1      48.619  29.440  27.011  1.00  0.00     0.031 C 
ATOM     59  C   UNL A   1      43.296  31.657  28.917  1.00  0.00     0.029 A 
ATOM     60  C   UNL A   1      44.282  30.802  28.451  1.00  0.00     0.049 A 
ATOM     61  H   UNL A   1      44.137  28.760  27.938  1.00  0.00     0.167 HD
ATOM     62  C   UNL A   1      46.582  30.189  27.750  1.00  0.00     0.074 A 
ATOM     63  C   UNL A   1      47.973  30.494  27.487  1.00  0.00     0.031 C 
ATOM     64  C   UNL A   1      45.670  31.092  28.188  1.00  0.00     0.037 A 
BRANCH  51  65
ATOM     65  C   UNL A   1      39.968  28.801  28.867  1.00  0.00     0.064 A 
ATOM     66  C   UNL A   1      39.475  28.608  30.167  1.00  0.00     0.173 A 
ATOM     67  C   UNL A   1      39.076  29.277  27.894  1.00  0.00     0.173 A 
ATOM     68  F   UNL A   1      40.281  28.145  31.133  1.00  0.00    -0.203 F 
ATOM     69  C   UNL A   1      38.138  28.848  30.471  1.00  0.00     0.198 A 
ATOM     70  C   UNL A   1      37.747  29.551  28.210  1.00  0.00     0.198 A 
ATOM     71  F   UNL A   1      39.494  29.487  26.636  1.00  0.00    -0.203 F 
ATOM     72  F   UNL A   1      37.677  28.602  31.705  1.00  0.00    -0.200 F 
ATOM     73  C   UNL A   1      37.277  29.327  29.495  1.00  0.00     0.200 A 
ATOM     74  F   UNL A   1      36.921  30.028  27.269  1.00  0.00    -0.200 F 
ATOM     75  F   UNL A   1      35.991  29.564  29.790  1.00  0.00    -0.200 F 
ENDBRANCH  51  65
BRANCH  52  76
ATOM     76  C   UNL A   1      49.381  26.720  26.235  1.00  0.00     0.064 A 
ATOM     77  C   UNL A   1      49.792  26.889  24.905  1.00  0.00     0.173 A 
ATOM     78  C   UNL A   1      50.333  26.258  27.156  1.00  0.00     0.173 A 
ATOM     79  F   UNL A   1      48.913  27.309  23.982  1.00  0.00    -0.203 F 
ATOM     80  C   UNL A   1      51.091  26.583  24.507  1.00  0.00     0.198 A 
ATOM     81  C   UNL A   1      51.641  25.985  26.763  1.00  0.00     0.198 A 
ATOM     82  F   UNL A   1      49.995  26.085  28.442  1.00  0.00    -0.203 F 
ATOM     83  F   UNL A   1      51.441  26.705  23.219  1.00  0.00    -0.200 F 
ATOM     84  C   UNL A   1      52.017  26.138  25.438  1.00  0.00     0.200 A 
ATOM     85  F   UNL A   1      52.537  25.570  27.670  1.00  0.00    -0.200 F 
ATOM     86  F   UNL A   1      53.269  25.848  25.056  1.00  0.00    -0.200 F 
ENDBRANCH  52  76
BRANCH  64  87
ATOM     87  C   UNL A   1      46.155  32.491  28.446  1.00  0.00     0.064 A 
ATOM     88  C   UNL A   1      46.696  32.869  29.683  1.00  0.00     0.173 A 
ATOM     89  C   UNL A   1      46.110  33.456  27.427  1.00  0.00     0.173 A 
ATOM     90  F   UNL A   1      46.747  31.989  30.695  1.00  0.00    -0.203 F 
ATOM     91  C   UNL A   1      47.147  34.168  29.901  1.00  0.00     0.198 A 
ATOM     92  C   UNL A   1      46.596  34.743  27.637  1.00  0.00     0.198 A 
ATOM     93  F   UNL A   1      45.609  33.147  26.223  1.00  0.00    -0.203 F 
ATOM     94  F   UNL A   1      47.610  34.520  31.109  1.00  0.00    -0.200 F 
ATOM     95  C   UNL A   1      47.106  35.101  28.876  1.00  0.00     0.200 A 
ATOM     96  F   UNL A   1      46.571  35.638  26.640  1.00  0.00    -0.200 F 
ATOM     97  F   UNL A   1      47.550  36.348  29.085  1.00  0.00    -0.200 F 
ENDBRANCH  64  87
ENDBRANCH  38  39
ENDBRANCH  30  33
ENDBRANCH  28  29
ENDBRANCH  27  28
ENDBRANCH  26  27
ENDBRANCH   1  26
TORSDOF 15
ENDMDL
