MODEL 1
REMARK VINA RESULT:     -12.1      0.000      0.000
REMARK SMILES CCOc1cc(C(=O)NCCCCCCNC(=O)c2ccc(-c3c4nc(c(-c5c(F)c(F)c(F)c(F)c5F)c5ccc([nH]5)c(-c5c(F)c(F)c(F)c(F)c5F)c5nc(c(-c6c(F)c(F)c(F)c(F)c6F)c6ccc3[nH]6)C=C5)C=C4)cc2)c(NC(=O)c2ccccc2OC)cc1OC
REMARK SMILES IDX 12 1 11 2 10 3 9 4 7 5 8 6 6 8 4 9 5 10 95 11 94 12 82 13
REMARK SMILES IDX 3 14 2 15 1 16 96 17 97 18 83 19 84 20 85 22 86 23 87 24
REMARK SMILES IDX 91 25 88 26 90 27 89 28 92 29 93 30 13 31 14 32 15 33 16 34
REMARK SMILES IDX 17 35 18 37 19 38 20 39 81 40 21 41 80 42 22 43 23 44 24 45
REMARK SMILES IDX 74 46 25 47 79 48 73 49 75 50 26 51 78 52 72 53 71 54 27 56
REMARK SMILES IDX 59 57 39 58 58 59 40 60 43 61 57 62 76 63 41 64 42 65 56 67
REMARK SMILES IDX 77 68 44 69 28 70 29 71 37 72 30 73 31 74 35 75 38 76 32 77
REMARK SMILES IDX 33 78 36 79 34 80 60 81 61 82 69 83 62 84 63 85 67 86 70 87
REMARK SMILES IDX 64 88 65 89 68 90 66 91 45 92 46 93 54 94 47 95 48 96 52 97
REMARK SMILES IDX 55 98 49 99 50 100 53 101 51 102
REMARK H PARENT 9 7 83 21 16 36 75 55 43 66
REMARK Flexibility Score: inf
ROOT
ATOM      1  C   UNL A   1      32.396  29.324  26.808  1.00  0.00     0.002 C 
ENDROOT
BRANCH   1   2
ATOM      2  C   UNL A   1      31.579  28.030  26.922  1.00  0.00     0.021 C 
BRANCH   2   3
ATOM      3  C   UNL A   1      32.308  26.746  26.532  1.00  0.00     0.116 C 
BRANCH   3   4
ATOM      4  N   UNL A   1      31.540  25.532  26.751  1.00  0.00    -0.352 N 
ATOM      5  C   UNL A   1      31.035  24.625  25.841  1.00  0.00     0.253 C 
ATOM      6  O   UNL A   1      30.282  23.742  26.248  1.00  0.00    -0.269 OA
ATOM      7  H   UNL A   1      31.350  25.324  27.695  1.00  0.00     0.163 HD
BRANCH   5   8
ATOM      8  C   UNL A   1      31.281  24.760  24.376  1.00  0.00     0.067 A 
ATOM      9  C   UNL A   1      31.263  26.355  22.536  1.00  0.00     0.162 A 
ATOM     10  C   UNL A   1      30.797  25.943  23.785  1.00  0.00     0.066 A 
ATOM     11  C   UNL A   1      32.322  25.674  21.940  1.00  0.00     0.162 A 
ATOM     12  C   UNL A   1      32.674  24.421  22.450  1.00  0.00     0.077 A 
ATOM     13  C   UNL A   1      32.062  23.897  23.601  1.00  0.00     0.058 A 
BRANCH   9  14
ATOM     14  O   UNL A   1      30.712  27.469  21.966  1.00  0.00    -0.490 OA
BRANCH  14  15
ATOM     15  C   UNL A   1      31.017  28.649  22.729  1.00  0.00     0.226 C 
ATOM     16  C   UNL A   1      29.777  29.528  22.812  1.00  0.00     0.049 C 
ENDBRANCH  14  15
ENDBRANCH   9  14
BRANCH  11  17
ATOM     17  O   UNL A   1      33.026  26.065  20.837  1.00  0.00    -0.493 OA
ATOM     18  C   UNL A   1      32.657  25.462  19.596  1.00  0.00     0.278 C 
ENDBRANCH  11  17
BRANCH  13  19
ATOM     19  N   UNL A   1      32.276  22.518  23.813  1.00  0.00    -0.321 N 
ATOM     20  C   UNL A   1      33.384  21.792  24.199  1.00  0.00     0.259 C 
ATOM     21  H   UNL A   1      31.477  21.965  23.653  1.00  0.00     0.170 HD
ATOM     22  O   UNL A   1      33.312  20.562  24.178  1.00  0.00    -0.269 OA
BRANCH  20  23
ATOM     23  C   UNL A   1      34.641  22.410  24.668  1.00  0.00     0.082 A 
ATOM     24  C   UNL A   1      35.744  22.256  23.803  1.00  0.00     0.018 A 
ATOM     25  C   UNL A   1      34.801  23.117  25.865  1.00  0.00     0.131 A 
ATOM     26  C   UNL A   1      36.956  22.894  24.051  1.00  0.00     0.001 A 
ATOM     27  C   UNL A   1      36.033  23.750  26.104  1.00  0.00     0.047 A 
ATOM     28  C   UNL A   1      37.095  23.656  25.201  1.00  0.00     0.004 A 
BRANCH  25  29
ATOM     29  O   UNL A   1      33.888  23.334  26.859  1.00  0.00    -0.496 OA
ATOM     30  C   UNL A   1      33.621  22.282  27.776  1.00  0.00     0.278 C 
ENDBRANCH  25  29
ENDBRANCH  20  23
ENDBRANCH  13  19
ENDBRANCH   5   8
ENDBRANCH   3   4
ENDBRANCH   2   3
ENDBRANCH   1   2
BRANCH   1  31
ATOM     31  C   UNL A   1      31.812  30.456  25.959  1.00  0.00     0.002 C 
BRANCH  31  32
ATOM     32  C   UNL A   1      31.464  31.768  26.654  1.00  0.00     0.021 C 
BRANCH  32  33
ATOM     33  C   UNL A   1      32.629  32.526  27.264  1.00  0.00     0.116 C 
BRANCH  33  34
ATOM     34  N   UNL A   1      32.341  33.917  27.558  1.00  0.00    -0.352 N 
ATOM     35  C   UNL A   1      32.983  34.771  28.430  1.00  0.00     0.251 C 
ATOM     36  H   UNL A   1      31.581  34.307  27.067  1.00  0.00     0.163 HD
ATOM     37  O   UNL A   1      32.577  35.905  28.600  1.00  0.00    -0.269 OA
BRANCH  35  38
ATOM     38  C   UNL A   1      34.151  34.278  29.201  1.00  0.00     0.039 A 
ATOM     39  C   UNL A   1      33.919  33.541  30.364  1.00  0.00     0.014 A 
ATOM     40  C   UNL A   1      35.458  34.516  28.770  1.00  0.00     0.014 A 
ATOM     41  C   UNL A   1      34.995  32.984  31.058  1.00  0.00     0.010 A 
ATOM     42  C   UNL A   1      36.522  33.886  29.410  1.00  0.00     0.010 A 
ATOM     43  C   UNL A   1      36.302  33.120  30.563  1.00  0.00    -0.014 A 
BRANCH  43  44
ATOM     44  C   UNL A   1      37.455  32.481  31.246  1.00  0.00     0.031 A 
ATOM     45  C   UNL A   1      38.167  31.328  30.595  1.00  0.00     0.074 A 
ATOM     46  C   UNL A   1      37.819  32.894  32.474  1.00  0.00     0.049 A 
ATOM     47  N   UNL A   1      39.150  30.594  31.054  1.00  0.00    -0.248 NA
ATOM     48  C   UNL A   1      37.688  30.924  29.264  1.00  0.00     0.031 C 
ATOM     49  C   UNL A   1      37.175  33.970  33.229  1.00  0.00     0.029 A 
ATOM     50  N   UNL A   1      38.814  32.452  33.309  1.00  0.00    -0.354 N 
ATOM     51  C   UNL A   1      39.392  29.637  30.078  1.00  0.00     0.074 A 
ATOM     52  C   UNL A   1      38.415  29.842  29.031  1.00  0.00     0.031 C 
ATOM     53  C   UNL A   1      37.809  34.124  34.403  1.00  0.00     0.029 A 
ATOM     54  C   UNL A   1      38.877  33.134  34.500  1.00  0.00     0.049 A 
ATOM     55  H   UNL A   1      39.425  31.716  33.077  1.00  0.00     0.167 HD
ATOM     56  C   UNL A   1      40.359  28.689  30.046  1.00  0.00     0.037 A 
ATOM     57  C   UNL A   1      39.702  32.973  35.553  1.00  0.00     0.037 A 
ATOM     58  C   UNL A   1      41.343  28.505  31.079  1.00  0.00     0.049 A 
ATOM     59  C   UNL A   1      40.763  31.907  35.497  1.00  0.00     0.074 A 
ATOM     60  C   UNL A   1      42.405  27.619  31.114  1.00  0.00     0.029 A 
ATOM     61  N   UNL A   1      41.383  29.223  32.267  1.00  0.00    -0.354 N 
ATOM     62  N   UNL A   1      41.031  31.055  34.538  1.00  0.00    -0.248 NA
ATOM     63  C   UNL A   1      41.640  31.786  36.670  1.00  0.00     0.031 C 
ATOM     64  C   UNL A   1      43.055  27.763  32.344  1.00  0.00     0.029 A 
ATOM     65  C   UNL A   1      42.434  28.778  33.053  1.00  0.00     0.049 A 
ATOM     66  H   UNL A   1      40.756  29.940  32.514  1.00  0.00     0.167 HD
ATOM     67  C   UNL A   1      42.123  30.317  34.976  1.00  0.00     0.074 A 
ATOM     68  C   UNL A   1      42.475  30.832  36.283  1.00  0.00     0.031 C 
ATOM     69  C   UNL A   1      42.774  29.305  34.351  1.00  0.00     0.037 A 
BRANCH  56  70
ATOM     70  C   UNL A   1      40.391  27.775  28.854  1.00  0.00     0.064 A 
ATOM     71  C   UNL A   1      41.149  28.077  27.711  1.00  0.00     0.173 A 
ATOM     72  C   UNL A   1      39.665  26.574  28.857  1.00  0.00     0.173 A 
ATOM     73  F   UNL A   1      41.853  29.217  27.650  1.00  0.00    -0.203 F 
ATOM     74  C   UNL A   1      41.147  27.232  26.603  1.00  0.00     0.198 A 
ATOM     75  C   UNL A   1      39.692  25.715  27.762  1.00  0.00     0.198 A 
ATOM     76  F   UNL A   1      38.928  26.232  29.925  1.00  0.00    -0.203 F 
ATOM     77  F   UNL A   1      41.828  27.574  25.501  1.00  0.00    -0.200 F 
ATOM     78  C   UNL A   1      40.424  26.050  26.631  1.00  0.00     0.200 A 
ATOM     79  F   UNL A   1      39.004  24.566  27.795  1.00  0.00    -0.200 F 
ATOM     80  F   UNL A   1      40.423  25.237  25.566  1.00  0.00    -0.200 F 
ENDBRANCH  56  70
BRANCH  57  81
ATOM     81  C   UNL A   1      39.577  33.868  36.733  1.00  0.00     0.064 A 
ATOM     82  C   UNL A   1      38.819  33.484  37.847  1.00  0.00     0.173 A 
ATOM     83  C   UNL A   1      40.215  35.117  36.777  1.00  0.00     0.173 A 
ATOM     84  F   UNL A   1      38.173  32.308  37.843  1.00  0.00    -0.203 F 
ATOM     85  C   UNL A   1      38.691  34.320  38.955  1.00  0.00     0.198 A 
ATOM     86  C   UNL A   1      40.109  35.939  37.896  1.00  0.00     0.198 A 
ATOM     87  F   UNL A   1      40.955  35.530  35.737  1.00  0.00    -0.203 F 
ATOM     88  F   UNL A   1      37.926  33.945  39.989  1.00  0.00    -0.200 F 
ATOM     89  C   UNL A   1      39.341  35.543  38.982  1.00  0.00     0.200 A 
ATOM     90  F   UNL A   1      40.750  37.116  37.924  1.00  0.00    -0.200 F 
ATOM     91  F   UNL A   1      39.223  36.344  40.049  1.00  0.00    -0.200 F 
ENDBRANCH  57  81
BRANCH  69  92
ATOM     92  C   UNL A   1      43.958  28.709  35.057  1.00  0.00     0.064 A 
ATOM     93  C   UNL A   1      45.251  29.228  34.899  1.00  0.00     0.173 A 
ATOM     94  C   UNL A   1      43.787  27.630  35.938  1.00  0.00     0.173 A 
ATOM     95  F   UNL A   1      45.470  30.249  34.057  1.00  0.00    -0.203 F 
ATOM     96  C   UNL A   1      46.333  28.672  35.575  1.00  0.00     0.198 A 
ATOM     97  C   UNL A   1      44.866  27.097  36.638  1.00  0.00     0.198 A 
ATOM     98  F   UNL A   1      42.569  27.101  36.131  1.00  0.00    -0.203 F 
ATOM     99  F   UNL A   1      47.568  29.153  35.371  1.00  0.00    -0.200 F 
ATOM    100  C   UNL A   1      46.138  27.613  36.451  1.00  0.00     0.200 A 
ATOM    101  F   UNL A   1      44.672  26.085  37.495  1.00  0.00    -0.200 F 
ATOM    102  F   UNL A   1      47.180  27.086  37.108  1.00  0.00    -0.200 F 
ENDBRANCH  69  92
ENDBRANCH  43  44
ENDBRANCH  35  38
ENDBRANCH  33  34
ENDBRANCH  32  33
ENDBRANCH  31  32
ENDBRANCH   1  31
TORSDOF 19
ENDMDL
MODEL 2
REMARK VINA RESULT:     -12.0      0.517      7.021
REMARK SMILES CCOc1cc(C(=O)NCCCCCCNC(=O)c2ccc(-c3c4nc(c(-c5c(F)c(F)c(F)c(F)c5F)c5ccc([nH]5)c(-c5c(F)c(F)c(F)c(F)c5F)c5nc(c(-c6c(F)c(F)c(F)c(F)c6F)c6ccc3[nH]6)C=C5)C=C4)cc2)c(NC(=O)c2ccccc2OC)cc1OC
REMARK SMILES IDX 12 1 11 2 10 3 9 4 7 5 8 6 6 8 4 9 5 10 95 11 94 12 82 13
REMARK SMILES IDX 3 14 2 15 1 16 96 17 97 18 83 19 84 20 85 22 86 23 87 24
REMARK SMILES IDX 91 25 88 26 90 27 89 28 92 29 93 30 13 31 14 32 15 33 16 34
REMARK SMILES IDX 17 35 18 37 19 38 20 39 81 40 21 41 80 42 22 43 23 44 24 45
REMARK SMILES IDX 74 46 25 47 79 48 73 49 75 50 26 51 78 52 72 53 71 54 27 56
REMARK SMILES IDX 59 57 39 58 58 59 40 60 43 61 57 62 76 63 41 64 42 65 56 67
REMARK SMILES IDX 77 68 44 69 28 70 29 71 37 72 30 73 31 74 35 75 38 76 32 77
REMARK SMILES IDX 33 78 36 79 34 80 60 81 61 82 69 83 62 84 63 85 67 86 70 87
REMARK SMILES IDX 64 88 65 89 68 90 66 91 45 92 46 93 54 94 47 95 48 96 52 97
REMARK SMILES IDX 55 98 49 99 50 100 53 101 51 102
REMARK H PARENT 9 7 83 21 16 36 75 55 43 66
REMARK Flexibility Score: inf
ROOT
ATOM      1  C   UNL A   1      32.223  29.703  27.111  1.00  0.00     0.002 C 
ENDROOT
BRANCH   1   2
ATOM      2  C   UNL A   1      31.521  28.352  27.305  1.00  0.00     0.021 C 
BRANCH   2   3
ATOM      3  C   UNL A   1      32.084  27.187  26.494  1.00  0.00     0.116 C 
BRANCH   3   4
ATOM      4  N   UNL A   1      31.470  25.903  26.786  1.00  0.00    -0.352 N 
ATOM      5  C   UNL A   1      31.045  24.908  25.929  1.00  0.00     0.253 C 
ATOM      6  O   UNL A   1      30.413  23.961  26.396  1.00  0.00    -0.269 OA
ATOM      7  H   UNL A   1      31.336  25.714  27.743  1.00  0.00     0.163 HD
BRANCH   5   8
ATOM      8  C   UNL A   1      31.227  25.009  24.452  1.00  0.00     0.067 A 
ATOM      9  C   UNL A   1      31.186  26.575  22.588  1.00  0.00     0.162 A 
ATOM     10  C   UNL A   1      30.764  26.202  23.864  1.00  0.00     0.066 A 
ATOM     11  C   UNL A   1      32.187  25.842  21.955  1.00  0.00     0.162 A 
ATOM     12  C   UNL A   1      32.512  24.583  22.470  1.00  0.00     0.077 A 
ATOM     13  C   UNL A   1      31.934  24.103  23.657  1.00  0.00     0.058 A 
BRANCH   9  14
ATOM     14  O   UNL A   1      30.654  27.702  22.025  1.00  0.00    -0.490 OA
BRANCH  14  15
ATOM     15  C   UNL A   1      29.503  28.155  22.756  1.00  0.00     0.226 C 
ATOM     16  C   UNL A   1      29.698  29.612  23.149  1.00  0.00     0.049 C 
ENDBRANCH  14  15
ENDBRANCH   9  14
BRANCH  11  17
ATOM     17  O   UNL A   1      32.853  26.186  20.813  1.00  0.00    -0.493 OA
ATOM     18  C   UNL A   1      32.547  25.430  19.642  1.00  0.00     0.278 C 
ENDBRANCH  11  17
BRANCH  13  19
ATOM     19  N   UNL A   1      32.103  22.719  23.882  1.00  0.00    -0.321 N 
ATOM     20  C   UNL A   1      33.200  21.953  24.217  1.00  0.00     0.259 C 
ATOM     21  H   UNL A   1      31.272  22.199  23.781  1.00  0.00     0.170 HD
ATOM     22  O   UNL A   1      33.075  20.727  24.225  1.00  0.00    -0.269 OA
BRANCH  20  23
ATOM     23  C   UNL A   1      34.507  22.524  24.599  1.00  0.00     0.082 A 
ATOM     24  C   UNL A   1      35.516  22.420  23.619  1.00  0.00     0.018 A 
ATOM     25  C   UNL A   1      34.798  23.142  25.820  1.00  0.00     0.131 A 
ATOM     26  C   UNL A   1      36.757  23.027  23.787  1.00  0.00     0.001 A 
ATOM     27  C   UNL A   1      36.058  23.745  25.978  1.00  0.00     0.047 A 
ATOM     28  C   UNL A   1      37.023  23.705  24.967  1.00  0.00     0.004 A 
BRANCH  25  29
ATOM     29  O   UNL A   1      33.992  23.298  26.913  1.00  0.00    -0.496 OA
ATOM     30  C   UNL A   1      33.854  22.207  27.814  1.00  0.00     0.278 C 
ENDBRANCH  25  29
ENDBRANCH  20  23
ENDBRANCH  13  19
ENDBRANCH   5   8
ENDBRANCH   3   4
ENDBRANCH   2   3
ENDBRANCH   1   2
BRANCH   1  31
ATOM     31  C   UNL A   1      31.607  30.682  26.108  1.00  0.00     0.002 C 
BRANCH  31  32
ATOM     32  C   UNL A   1      31.404  32.128  26.547  1.00  0.00     0.021 C 
BRANCH  32  33
ATOM     33  C   UNL A   1      32.593  32.792  27.217  1.00  0.00     0.116 C 
BRANCH  33  34
ATOM     34  N   UNL A   1      32.346  34.156  27.643  1.00  0.00    -0.352 N 
ATOM     35  C   UNL A   1      33.027  34.911  28.575  1.00  0.00     0.251 C 
ATOM     36  H   UNL A   1      31.586  34.607  27.208  1.00  0.00     0.163 HD
ATOM     37  O   UNL A   1      32.652  36.034  28.857  1.00  0.00    -0.269 OA
BRANCH  35  38
ATOM     38  C   UNL A   1      34.198  34.323  29.270  1.00  0.00     0.039 A 
ATOM     39  C   UNL A   1      33.973  33.526  30.395  1.00  0.00     0.014 A 
ATOM     40  C   UNL A   1      35.499  34.531  28.806  1.00  0.00     0.014 A 
ATOM     41  C   UNL A   1      35.047  32.882  31.013  1.00  0.00     0.010 A 
ATOM     42  C   UNL A   1      36.555  33.820  29.367  1.00  0.00     0.010 A 
ATOM     43  C   UNL A   1      36.341  32.993  30.479  1.00  0.00    -0.014 A 
BRANCH  43  44
ATOM     44  C   UNL A   1      37.488  32.266  31.079  1.00  0.00     0.031 A 
ATOM     45  C   UNL A   1      37.983  32.641  32.448  1.00  0.00     0.074 A 
ATOM     46  C   UNL A   1      38.123  31.315  30.368  1.00  0.00     0.049 A 
ATOM     47  N   UNL A   1      39.006  32.174  33.117  1.00  0.00    -0.248 NA
ATOM     48  C   UNL A   1      37.248  33.709  33.143  1.00  0.00     0.031 C 
ATOM     49  C   UNL A   1      37.767  30.895  29.012  1.00  0.00     0.029 A 
ATOM     50  N   UNL A   1      39.206  30.534  30.684  1.00  0.00    -0.354 N 
ATOM     51  C   UNL A   1      39.046  32.901  34.299  1.00  0.00     0.074 A 
ATOM     52  C   UNL A   1      37.984  33.881  34.231  1.00  0.00     0.031 C 
ATOM     53  C   UNL A   1      38.598  29.914  28.623  1.00  0.00     0.029 A 
ATOM     54  C   UNL A   1      39.568  29.664  29.685  1.00  0.00     0.049 A 
ATOM     55  H   UNL A   1      39.679  30.593  31.545  1.00  0.00     0.167 HD
ATOM     56  C   UNL A   1      39.876  32.748  35.358  1.00  0.00     0.037 A 
ATOM     57  C   UNL A   1      40.572  28.767  29.632  1.00  0.00     0.037 A 
ATOM     58  C   UNL A   1      40.915  31.754  35.431  1.00  0.00     0.049 A 
ATOM     59  C   UNL A   1      41.487  28.621  30.818  1.00  0.00     0.074 A 
ATOM     60  C   UNL A   1      41.767  31.471  36.483  1.00  0.00     0.029 A 
ATOM     61  N   UNL A   1      41.245  30.881  34.403  1.00  0.00    -0.354 N 
ATOM     62  N   UNL A   1      41.471  29.262  31.961  1.00  0.00    -0.248 NA
ATOM     63  C   UNL A   1      42.557  27.620  30.707  1.00  0.00     0.031 C 
ATOM     64  C   UNL A   1      42.648  30.464  36.075  1.00  0.00     0.029 A 
ATOM     65  C   UNL A   1      42.307  30.079  34.788  1.00  0.00     0.049 A 
ATOM     66  H   UNL A   1      40.792  30.840  33.531  1.00  0.00     0.167 HD
ATOM     67  C   UNL A   1      42.504  28.725  32.716  1.00  0.00     0.074 A 
ATOM     68  C   UNL A   1      43.121  27.695  31.905  1.00  0.00     0.031 C 
ATOM     69  C   UNL A   1      42.906  29.055  33.969  1.00  0.00     0.037 A 
BRANCH  56  70
ATOM     70  C   UNL A   1      39.694  33.682  36.521  1.00  0.00     0.064 A 
ATOM     71  C   UNL A   1      40.336  34.930  36.574  1.00  0.00     0.173 A 
ATOM     72  C   UNL A   1      38.856  33.333  37.591  1.00  0.00     0.173 A 
ATOM     73  F   UNL A   1      41.158  35.309  35.583  1.00  0.00    -0.203 F 
ATOM     74  C   UNL A   1      40.179  35.773  37.671  1.00  0.00     0.198 A 
ATOM     75  C   UNL A   1      38.673  34.193  38.670  1.00  0.00     0.198 A 
ATOM     76  F   UNL A   1      38.213  32.156  37.590  1.00  0.00    -0.203 F 
ATOM     77  F   UNL A   1      40.852  36.930  37.726  1.00  0.00    -0.200 F 
ATOM     78  C   UNL A   1      39.343  35.408  38.715  1.00  0.00     0.200 A 
ATOM     79  F   UNL A   1      37.855  33.845  39.672  1.00  0.00    -0.200 F 
ATOM     80  F   UNL A   1      39.191  36.220  39.769  1.00  0.00    -0.200 F 
ENDBRANCH  56  70
BRANCH  57  81
ATOM     81  C   UNL A   1      40.741  27.916  28.426  1.00  0.00     0.064 A 
ATOM     82  C   UNL A   1      41.528  28.346  27.349  1.00  0.00     0.173 A 
ATOM     83  C   UNL A   1      40.129  26.658  28.325  1.00  0.00     0.173 A 
ATOM     84  F   UNL A   1      42.116  29.551  27.390  1.00  0.00    -0.203 F 
ATOM     85  C   UNL A   1      41.686  27.557  26.211  1.00  0.00     0.198 A 
ATOM     86  C   UNL A   1      40.310  25.859  27.198  1.00  0.00     0.198 A 
ATOM     87  F   UNL A   1      39.367  26.199  29.329  1.00  0.00    -0.203 F 
ATOM     88  F   UNL A   1      42.411  28.011  25.179  1.00  0.00    -0.200 F 
ATOM     89  C   UNL A   1      41.082  26.312  26.139  1.00  0.00     0.200 A 
ATOM     90  F   UNL A   1      39.736  24.649  27.138  1.00  0.00    -0.200 F 
ATOM     91  F   UNL A   1      41.239  25.551  25.048  1.00  0.00    -0.200 F 
ENDBRANCH  57  81
BRANCH  69  92
ATOM     92  C   UNL A   1      44.046  28.272  34.554  1.00  0.00     0.064 A 
ATOM     93  C   UNL A   1      45.374  28.714  34.455  1.00  0.00     0.173 A 
ATOM     94  C   UNL A   1      43.800  27.084  35.260  1.00  0.00     0.173 A 
ATOM     95  F   UNL A   1      45.663  29.834  33.778  1.00  0.00    -0.203 F 
ATOM     96  C   UNL A   1      46.415  27.982  35.019  1.00  0.00     0.198 A 
ATOM     97  C   UNL A   1      44.840  26.371  35.850  1.00  0.00     0.198 A 
ATOM     98  F   UNL A   1      42.547  26.621  35.390  1.00  0.00    -0.203 F 
ATOM     99  F   UNL A   1      47.681  28.397  34.870  1.00  0.00    -0.200 F 
ATOM    100  C   UNL A   1      46.147  26.816  35.723  1.00  0.00     0.200 A 
ATOM    101  F   UNL A   1      44.577  25.255  36.543  1.00  0.00    -0.200 F 
ATOM    102  F   UNL A   1      47.150  26.118  36.273  1.00  0.00    -0.200 F 
ENDBRANCH  69  92
ENDBRANCH  43  44
ENDBRANCH  35  38
ENDBRANCH  33  34
ENDBRANCH  32  33
ENDBRANCH  31  32
ENDBRANCH   1  31
TORSDOF 19
ENDMDL
MODEL 3
REMARK VINA RESULT:     -11.5      1.057      7.703
REMARK SMILES CCOc1cc(C(=O)NCCCCCCNC(=O)c2ccc(-c3c4nc(c(-c5c(F)c(F)c(F)c(F)c5F)c5ccc([nH]5)c(-c5c(F)c(F)c(F)c(F)c5F)c5nc(c(-c6c(F)c(F)c(F)c(F)c6F)c6ccc3[nH]6)C=C5)C=C4)cc2)c(NC(=O)c2ccccc2OC)cc1OC
REMARK SMILES IDX 12 1 11 2 10 3 9 4 7 5 8 6 6 8 4 9 5 10 95 11 94 12 82 13
REMARK SMILES IDX 3 14 2 15 1 16 96 17 97 18 83 19 84 20 85 22 86 23 87 24
REMARK SMILES IDX 91 25 88 26 90 27 89 28 92 29 93 30 13 31 14 32 15 33 16 34
REMARK SMILES IDX 17 35 18 37 19 38 20 39 81 40 21 41 80 42 22 43 23 44 24 45
REMARK SMILES IDX 74 46 25 47 79 48 73 49 75 50 26 51 78 52 72 53 71 54 27 56
REMARK SMILES IDX 59 57 39 58 58 59 40 60 43 61 57 62 76 63 41 64 42 65 56 67
REMARK SMILES IDX 77 68 44 69 28 70 29 71 37 72 30 73 31 74 35 75 38 76 32 77
REMARK SMILES IDX 33 78 36 79 34 80 60 81 61 82 69 83 62 84 63 85 67 86 70 87
REMARK SMILES IDX 64 88 65 89 68 90 66 91 45 92 46 93 54 94 47 95 48 96 52 97
REMARK SMILES IDX 55 98 49 99 50 100 53 101 51 102
REMARK H PARENT 9 7 83 21 16 36 75 55 43 66
REMARK Flexibility Score: inf
ROOT
ATOM      1  C   UNL A   1      32.247  29.699  27.234  1.00  0.00     0.002 C 
ENDROOT
BRANCH   1   2
ATOM      2  C   UNL A   1      31.737  28.252  27.282  1.00  0.00     0.021 C 
BRANCH   2   3
ATOM      3  C   UNL A   1      32.489  27.252  26.407  1.00  0.00     0.116 C 
BRANCH   3   4
ATOM      4  N   UNL A   1      33.123  27.838  25.238  1.00  0.00    -0.352 N 
ATOM      5  C   UNL A   1      33.836  27.236  24.221  1.00  0.00     0.253 C 
ATOM      6  O   UNL A   1      34.413  27.953  23.405  1.00  0.00    -0.269 OA
ATOM      7  H   UNL A   1      33.030  28.815  25.161  1.00  0.00     0.163 HD
BRANCH   5   8
ATOM      8  C   UNL A   1      34.021  25.758  24.156  1.00  0.00     0.067 A 
ATOM      9  C   UNL A   1      34.748  23.827  25.449  1.00  0.00     0.162 A 
ATOM     10  C   UNL A   1      34.797  25.197  25.189  1.00  0.00     0.066 A 
ATOM     11  C   UNL A   1      33.816  23.035  24.784  1.00  0.00     0.162 A 
ATOM     12  C   UNL A   1      33.178  23.565  23.659  1.00  0.00     0.077 A 
ATOM     13  C   UNL A   1      33.379  24.898  23.260  1.00  0.00     0.058 A 
BRANCH   9  14
ATOM     14  O   UNL A   1      35.574  23.313  26.411  1.00  0.00    -0.490 OA
BRANCH  14  15
ATOM     15  C   UNL A   1      36.956  23.505  26.066  1.00  0.00     0.226 C 
ATOM     16  C   UNL A   1      37.423  22.345  25.199  1.00  0.00     0.049 C 
ENDBRANCH  14  15
ENDBRANCH   9  14
BRANCH  11  17
ATOM     17  O   UNL A   1      33.498  21.737  25.067  1.00  0.00    -0.493 OA
ATOM     18  C   UNL A   1      32.606  21.086  24.163  1.00  0.00     0.278 C 
ENDBRANCH  11  17
BRANCH  13  19
ATOM     19  N   UNL A   1      32.938  25.200  21.953  1.00  0.00    -0.321 N 
ATOM     20  C   UNL A   1      31.915  25.990  21.470  1.00  0.00     0.259 C 
ATOM     21  H   UNL A   1      33.465  24.759  21.247  1.00  0.00     0.170 HD
ATOM     22  O   UNL A   1      31.681  25.966  20.261  1.00  0.00    -0.269 OA
BRANCH  20  23
ATOM     23  C   UNL A   1      31.109  26.889  22.320  1.00  0.00     0.082 A 
ATOM     24  C   UNL A   1      31.240  28.263  22.031  1.00  0.00     0.018 A 
ATOM     25  C   UNL A   1      30.252  26.484  23.349  1.00  0.00     0.131 A 
ATOM     26  C   UNL A   1      30.445  29.217  22.660  1.00  0.00     0.001 A 
ATOM     27  C   UNL A   1      29.461  27.459  23.980  1.00  0.00     0.047 A 
ATOM     28  C   UNL A   1      29.541  28.810  23.629  1.00  0.00     0.004 A 
BRANCH  25  29
ATOM     29  O   UNL A   1      30.022  25.222  23.824  1.00  0.00    -0.496 OA
ATOM     30  C   UNL A   1      30.191  24.980  25.214  1.00  0.00     0.278 C 
ENDBRANCH  25  29
ENDBRANCH  20  23
ENDBRANCH  13  19
ENDBRANCH   5   8
ENDBRANCH   3   4
ENDBRANCH   2   3
ENDBRANCH   1   2
BRANCH   1  31
ATOM     31  C   UNL A   1      31.598  30.643  26.219  1.00  0.00     0.002 C 
BRANCH  31  32
ATOM     32  C   UNL A   1      31.390  32.099  26.623  1.00  0.00     0.021 C 
BRANCH  32  33
ATOM     33  C   UNL A   1      32.606  32.814  27.181  1.00  0.00     0.116 C 
BRANCH  33  34
ATOM     34  N   UNL A   1      32.343  34.169  27.627  1.00  0.00    -0.352 N 
ATOM     35  C   UNL A   1      33.007  34.913  28.579  1.00  0.00     0.251 C 
ATOM     36  H   UNL A   1      31.585  34.621  27.189  1.00  0.00     0.163 HD
ATOM     37  O   UNL A   1      32.620  36.029  28.875  1.00  0.00    -0.269 OA
BRANCH  35  38
ATOM     38  C   UNL A   1      34.175  34.324  29.278  1.00  0.00     0.039 A 
ATOM     39  C   UNL A   1      33.942  33.482  30.368  1.00  0.00     0.014 A 
ATOM     40  C   UNL A   1      35.481  34.573  28.850  1.00  0.00     0.014 A 
ATOM     41  C   UNL A   1      35.015  32.836  30.987  1.00  0.00     0.010 A 
ATOM     42  C   UNL A   1      36.538  33.862  29.408  1.00  0.00     0.010 A 
ATOM     43  C   UNL A   1      36.318  32.992  30.486  1.00  0.00    -0.014 A 
BRANCH  43  44
ATOM     44  C   UNL A   1      37.465  32.265  31.084  1.00  0.00     0.031 A 
ATOM     45  C   UNL A   1      37.948  32.626  32.461  1.00  0.00     0.074 A 
ATOM     46  C   UNL A   1      38.113  31.328  30.365  1.00  0.00     0.049 A 
ATOM     47  N   UNL A   1      38.970  32.158  33.132  1.00  0.00    -0.248 NA
ATOM     48  C   UNL A   1      37.200  33.679  33.165  1.00  0.00     0.031 C 
ATOM     49  C   UNL A   1      37.770  30.924  29.001  1.00  0.00     0.029 A 
ATOM     50  N   UNL A   1      39.200  30.552  30.679  1.00  0.00    -0.354 N 
ATOM     51  C   UNL A   1      38.995  32.869  34.324  1.00  0.00     0.074 A 
ATOM     52  C   UNL A   1      37.927  33.842  34.260  1.00  0.00     0.031 C 
ATOM     53  C   UNL A   1      38.611  29.955  28.605  1.00  0.00     0.029 A 
ATOM     54  C   UNL A   1      39.575  29.698  29.671  1.00  0.00     0.049 A 
ATOM     55  H   UNL A   1      39.666  30.603  31.543  1.00  0.00     0.167 HD
ATOM     56  C   UNL A   1      39.820  32.709  35.387  1.00  0.00     0.037 A 
ATOM     57  C   UNL A   1      40.586  28.810  29.614  1.00  0.00     0.037 A 
ATOM     58  C   UNL A   1      40.865  31.722  35.454  1.00  0.00     0.049 A 
ATOM     59  C   UNL A   1      41.494  28.654  30.804  1.00  0.00     0.074 A 
ATOM     60  C   UNL A   1      41.712  31.432  36.508  1.00  0.00     0.029 A 
ATOM     61  N   UNL A   1      41.209  30.866  34.417  1.00  0.00    -0.354 N 
ATOM     62  N   UNL A   1      41.465  29.280  31.955  1.00  0.00    -0.248 NA
ATOM     63  C   UNL A   1      42.573  27.663  30.688  1.00  0.00     0.031 C 
ATOM     64  C   UNL A   1      42.604  30.437  36.093  1.00  0.00     0.029 A 
ATOM     65  C   UNL A   1      42.275  30.066  34.798  1.00  0.00     0.049 A 
ATOM     66  H   UNL A   1      40.763  30.832  33.541  1.00  0.00     0.167 HD
ATOM     67  C   UNL A   1      42.497  28.741  32.711  1.00  0.00     0.074 A 
ATOM     68  C   UNL A   1      43.127  27.727  31.891  1.00  0.00     0.031 C 
ATOM     69  C   UNL A   1      42.888  29.058  33.970  1.00  0.00     0.037 A 
BRANCH  56  70
ATOM     70  C   UNL A   1      39.622  33.626  36.560  1.00  0.00     0.064 A 
ATOM     71  C   UNL A   1      38.818  33.266  37.653  1.00  0.00     0.173 A 
ATOM     72  C   UNL A   1      40.254  34.878  36.599  1.00  0.00     0.173 A 
ATOM     73  F   UNL A   1      38.181  32.085  37.662  1.00  0.00    -0.203 F 
ATOM     74  C   UNL A   1      38.623  34.139  38.721  1.00  0.00     0.198 A 
ATOM     75  C   UNL A   1      40.085  35.735  37.683  1.00  0.00     0.198 A 
ATOM     76  F   UNL A   1      41.039  35.272  35.584  1.00  0.00    -0.203 F 
ATOM     77  F   UNL A   1      37.801  33.797  39.721  1.00  0.00    -0.200 F 
ATOM     78  C   UNL A   1      39.261  35.369  38.738  1.00  0.00     0.200 A 
ATOM     79  F   UNL A   1      40.713  36.918  37.705  1.00  0.00    -0.200 F 
ATOM     80  F   UNL A   1      39.075  36.209  39.766  1.00  0.00    -0.200 F 
ENDBRANCH  56  70
BRANCH  57  81
ATOM     81  C   UNL A   1      40.770  27.976  28.397  1.00  0.00     0.064 A 
ATOM     82  C   UNL A   1      40.181  26.707  28.301  1.00  0.00     0.173 A 
ATOM     83  C   UNL A   1      41.527  28.428  27.306  1.00  0.00     0.173 A 
ATOM     84  F   UNL A   1      39.466  26.223  29.327  1.00  0.00    -0.203 F 
ATOM     85  C   UNL A   1      40.355  25.916  27.167  1.00  0.00     0.198 A 
ATOM     86  C   UNL A   1      41.677  27.647  26.162  1.00  0.00     0.198 A 
ATOM     87  F   UNL A   1      42.109  29.635  27.347  1.00  0.00    -0.203 F 
ATOM     88  F   UNL A   1      39.815  24.690  27.120  1.00  0.00    -0.200 F 
ATOM     89  C   UNL A   1      41.096  26.389  26.096  1.00  0.00     0.200 A 
ATOM     90  F   UNL A   1      42.383  28.113  25.123  1.00  0.00    -0.200 F 
ATOM     91  F   UNL A   1      41.258  25.631  25.003  1.00  0.00    -0.200 F 
ENDBRANCH  57  81
BRANCH  69  92
ATOM     92  C   UNL A   1      44.029  28.275  34.554  1.00  0.00     0.064 A 
ATOM     93  C   UNL A   1      45.354  28.729  34.470  1.00  0.00     0.173 A 
ATOM     94  C   UNL A   1      43.788  27.077  35.242  1.00  0.00     0.173 A 
ATOM     95  F   UNL A   1      45.640  29.860  33.809  1.00  0.00    -0.203 F 
ATOM     96  C   UNL A   1      46.396  27.997  35.032  1.00  0.00     0.198 A 
ATOM     97  C   UNL A   1      44.829  26.364  35.830  1.00  0.00     0.198 A 
ATOM     98  F   UNL A   1      42.537  26.602  35.357  1.00  0.00    -0.203 F 
ATOM     99  F   UNL A   1      47.661  28.424  34.897  1.00  0.00    -0.200 F 
ATOM    100  C   UNL A   1      46.133  26.821  35.719  1.00  0.00     0.200 A 
ATOM    101  F   UNL A   1      44.569  25.237  36.507  1.00  0.00    -0.200 F 
ATOM    102  F   UNL A   1      47.138  26.123  36.266  1.00  0.00    -0.200 F 
ENDBRANCH  69  92
ENDBRANCH  43  44
ENDBRANCH  35  38
ENDBRANCH  33  34
ENDBRANCH  32  33
ENDBRANCH  31  32
ENDBRANCH   1  31
TORSDOF 19
ENDMDL
