MODEL 1
REMARK VINA RESULT:     -11.6      0.000      0.000
REMARK SMILES CO[C@H]1C[C@@H](C(=O)NCCCCCCNC(=O)c2ccc(-c3c4nc(c(-c5c(F)c(F)c(F)c(F)c5F)c5ccc([nH]5)c(-c5c(F)c(F)c(F)c(F)c5F)c5nc(c(-c6c(F)c(F)c(F)c(F)c6F)c6ccc3[nH]6)C=C5)C=C4)cc2)N(C(=O)c2cc(SC)ccc2C)C1
REMARK SMILES IDX 11 1 10 2 9 3 8 4 6 5 7 6 5 8 3 9 4 10 93 11 81 12 2 13 1 14
REMARK SMILES IDX 82 15 83 16 84 17 85 18 91 19 86 20 90 21 92 22 89 23 87 24
REMARK SMILES IDX 88 25 12 26 13 27 14 28 15 29 16 30 17 32 18 33 19 34 80 35
REMARK SMILES IDX 20 36 79 37 21 38 22 39 23 40 73 41 24 42 78 43 72 44 74 45
REMARK SMILES IDX 25 46 77 47 71 48 70 49 26 51 58 52 38 53 57 54 39 55 42 56
REMARK SMILES IDX 56 57 75 58 40 59 41 60 55 62 76 63 43 64 27 65 28 66 36 67
REMARK SMILES IDX 29 68 30 69 34 70 37 71 31 72 32 73 35 74 33 75 59 76 60 77
REMARK SMILES IDX 68 78 61 79 62 80 66 81 69 82 63 83 64 84 67 85 65 86 44 87
REMARK SMILES IDX 45 88 53 89 46 90 47 91 51 92 54 93 48 94 49 95 52 96 50 97
REMARK H PARENT 8 7 15 31 74 50 42 61
REMARK Flexibility Score: inf
ROOT
ATOM      1  C   UNL A   1      31.996  29.465  26.813  1.00  0.00     0.002 C 
ENDROOT
BRANCH   1   2
ATOM      2  C   UNL A   1      33.471  29.084  26.625  1.00  0.00     0.021 C 
BRANCH   2   3
ATOM      3  C   UNL A   1      33.687  27.777  25.867  1.00  0.00     0.116 C 
BRANCH   3   4
ATOM      4  N   UNL A   1      34.052  27.981  24.479  1.00  0.00    -0.354 N 
ATOM      5  C   UNL A   1      33.364  27.908  23.312  1.00  0.00     0.242 C 
ATOM      6  O   UNL A   1      33.868  28.546  22.377  1.00  0.00    -0.273 OA
ATOM      7  H   UNL A   1      34.999  28.223  24.358  1.00  0.00     0.163 HD
BRANCH   5   8
ATOM      8  C   UNL A   1      32.081  27.074  23.051  1.00  0.00     0.177 C 
ATOM      9  C   UNL A   1      29.873  26.288  23.679  1.00  0.00     0.139 C 
ATOM     10  C   UNL A   1      30.907  27.366  23.972  1.00  0.00     0.069 C 
ATOM     11  C   UNL A   1      30.730  25.094  23.255  1.00  0.00     0.152 C 
ATOM     12  N   UNL A   1      32.091  25.596  23.070  1.00  0.00    -0.324 N 
BRANCH   9  13
ATOM     13  O   UNL A   1      29.115  25.965  24.847  1.00  0.00    -0.380 OA
ATOM     14  C   UNL A   1      29.910  25.579  25.962  1.00  0.00     0.195 C 
ENDBRANCH   9  13
BRANCH  12  15
ATOM     15  C   UNL A   1      33.015  24.709  22.534  1.00  0.00     0.254 C 
ATOM     16  O   UNL A   1      33.276  24.672  21.332  1.00  0.00    -0.269 OA
BRANCH  15  17
ATOM     17  C   UNL A   1      33.639  23.679  23.388  1.00  0.00     0.044 A 
ATOM     18  C   UNL A   1      34.793  24.052  24.099  1.00  0.00     0.029 A 
ATOM     19  C   UNL A   1      33.188  22.347  23.413  1.00  0.00    -0.038 A 
ATOM     20  C   UNL A   1      35.469  23.131  24.907  1.00  0.00     0.008 A 
ATOM     21  C   UNL A   1      33.846  21.442  24.258  1.00  0.00     0.005 A 
ATOM     22  C   UNL A   1      32.077  21.818  22.553  1.00  0.00     0.045 C 
ATOM     23  C   UNL A   1      34.961  21.833  25.005  1.00  0.00     0.015 A 
BRANCH  20  24
ATOM     24  S   UNL A   1      36.941  23.700  25.752  1.00  0.00    -0.130 SA
ATOM     25  C   UNL A   1      38.013  22.236  25.746  1.00  0.00     0.091 C 
ENDBRANCH  20  24
ENDBRANCH  15  17
ENDBRANCH  12  15
ENDBRANCH   5   8
ENDBRANCH   3   4
ENDBRANCH   2   3
ENDBRANCH   1   2
BRANCH   1  26
ATOM     26  C   UNL A   1      31.474  30.558  25.872  1.00  0.00     0.002 C 
BRANCH  26  27
ATOM     27  C   UNL A   1      31.354  31.954  26.495  1.00  0.00     0.021 C 
BRANCH  27  28
ATOM     28  C   UNL A   1      32.674  32.551  26.964  1.00  0.00     0.116 C 
BRANCH  28  29
ATOM     29  N   UNL A   1      32.509  33.911  27.449  1.00  0.00    -0.352 N 
ATOM     30  C   UNL A   1      33.115  34.538  28.505  1.00  0.00     0.251 C 
ATOM     31  H   UNL A   1      31.868  34.463  26.944  1.00  0.00     0.163 HD
ATOM     32  O   UNL A   1      32.688  35.619  28.910  1.00  0.00    -0.269 OA
BRANCH  30  33
ATOM     33  C   UNL A   1      34.276  33.913  29.172  1.00  0.00     0.039 A 
ATOM     34  C   UNL A   1      34.053  32.997  30.203  1.00  0.00     0.014 A 
ATOM     35  C   UNL A   1      35.583  34.243  28.798  1.00  0.00     0.014 A 
ATOM     36  C   UNL A   1      35.138  32.370  30.820  1.00  0.00     0.010 A 
ATOM     37  C   UNL A   1      36.658  33.563  29.361  1.00  0.00     0.010 A 
ATOM     38  C   UNL A   1      36.448  32.623  30.382  1.00  0.00    -0.014 A 
BRANCH  38  39
ATOM     39  C   UNL A   1      37.609  31.920  30.986  1.00  0.00     0.031 A 
ATOM     40  C   UNL A   1      38.100  32.310  32.354  1.00  0.00     0.074 A 
ATOM     41  C   UNL A   1      38.252  30.967  30.283  1.00  0.00     0.049 A 
ATOM     42  N   UNL A   1      39.141  31.872  33.017  1.00  0.00    -0.248 NA
ATOM     43  C   UNL A   1      37.332  33.348  33.062  1.00  0.00     0.031 C 
ATOM     44  C   UNL A   1      37.897  30.527  28.933  1.00  0.00     0.029 A 
ATOM     45  N   UNL A   1      39.347  30.202  30.603  1.00  0.00    -0.354 N 
ATOM     46  C   UNL A   1      39.149  32.575  34.214  1.00  0.00     0.074 A 
ATOM     47  C   UNL A   1      38.051  33.516  34.162  1.00  0.00     0.031 C 
ATOM     48  C   UNL A   1      38.747  29.563  28.546  1.00  0.00     0.029 A 
ATOM     49  C   UNL A   1      39.732  29.344  29.601  1.00  0.00     0.049 A 
ATOM     50  H   UNL A   1      39.812  30.263  31.469  1.00  0.00     0.167 HD
ATOM     51  C   UNL A   1      39.977  32.427  35.276  1.00  0.00     0.037 A 
ATOM     52  C   UNL A   1      40.771  28.489  29.536  1.00  0.00     0.037 A 
ATOM     53  C   UNL A   1      41.062  31.483  35.331  1.00  0.00     0.049 A 
ATOM     54  C   UNL A   1      41.696  28.372  30.719  1.00  0.00     0.074 A 
ATOM     55  C   UNL A   1      41.947  31.245  36.369  1.00  0.00     0.029 A 
ATOM     56  N   UNL A   1      41.408  30.618  34.304  1.00  0.00    -0.354 N 
ATOM     57  N   UNL A   1      41.661  29.005  31.865  1.00  0.00    -0.248 NA
ATOM     58  C   UNL A   1      42.803  27.411  30.601  1.00  0.00     0.031 C 
ATOM     59  C   UNL A   1      42.854  30.265  35.954  1.00  0.00     0.029 A 
ATOM     60  C   UNL A   1      42.501  29.853  34.679  1.00  0.00     0.049 A 
ATOM     61  H   UNL A   1      40.946  30.556  33.437  1.00  0.00     0.167 HD
ATOM     62  C   UNL A   1      42.714  28.497  32.615  1.00  0.00     0.074 A 
ATOM     63  C   UNL A   1      43.357  27.488  31.802  1.00  0.00     0.031 C 
ATOM     64  C   UNL A   1      43.115  28.837  33.864  1.00  0.00     0.037 A 
BRANCH  51  65
ATOM     65  C   UNL A   1      39.731  33.291  36.479  1.00  0.00     0.064 A 
ATOM     66  C   UNL A   1      40.364  34.536  36.625  1.00  0.00     0.173 A 
ATOM     67  C   UNL A   1      38.810  32.905  37.465  1.00  0.00     0.173 A 
ATOM     68  F   UNL A   1      41.262  34.947  35.717  1.00  0.00    -0.203 F 
ATOM     69  C   UNL A   1      40.098  35.352  37.720  1.00  0.00     0.198 A 
ATOM     70  C   UNL A   1      38.523  33.739  38.543  1.00  0.00     0.198 A 
ATOM     71  F   UNL A   1      38.173  31.728  37.371  1.00  0.00    -0.203 F 
ATOM     72  F   UNL A   1      40.745  36.518  37.858  1.00  0.00    -0.200 F 
ATOM     73  C   UNL A   1      39.171  34.958  38.673  1.00  0.00     0.200 A 
ATOM     74  F   UNL A   1      37.616  33.362  39.455  1.00  0.00    -0.200 F 
ATOM     75  F   UNL A   1      38.903  35.752  39.719  1.00  0.00    -0.200 F 
ENDBRANCH  51  65
BRANCH  52  76
ATOM     76  C   UNL A   1      41.002  27.676  28.311  1.00  0.00     0.064 A 
ATOM     77  C   UNL A   1      40.424  26.408  28.162  1.00  0.00     0.173 A 
ATOM     78  C   UNL A   1      41.843  28.131  27.284  1.00  0.00     0.173 A 
ATOM     79  F   UNL A   1      39.626  25.920  29.123  1.00  0.00    -0.203 F 
ATOM     80  C   UNL A   1      40.711  25.609  27.057  1.00  0.00     0.198 A 
ATOM     81  C   UNL A   1      42.101  27.346  26.162  1.00  0.00     0.198 A 
ATOM     82  F   UNL A   1      42.417  29.341  27.370  1.00  0.00    -0.203 F 
ATOM     83  F   UNL A   1      40.200  24.373  26.977  1.00  0.00    -0.200 F 
ATOM     84  C   UNL A   1      41.547  26.081  26.056  1.00  0.00     0.200 A 
ATOM     85  F   UNL A   1      42.896  27.814  25.189  1.00  0.00    -0.200 F 
ATOM     86  F   UNL A   1      41.829  25.309  24.998  1.00  0.00    -0.200 F 
ENDBRANCH  52  76
BRANCH  64  87
ATOM     87  C   UNL A   1      44.274  28.079  34.447  1.00  0.00     0.064 A 
ATOM     88  C   UNL A   1      45.592  28.545  34.340  1.00  0.00     0.173 A 
ATOM     89  C   UNL A   1      44.054  26.887  35.154  1.00  0.00     0.173 A 
ATOM     90  F   UNL A   1      45.857  29.671  33.661  1.00  0.00    -0.203 F 
ATOM     91  C   UNL A   1      46.651  27.829  34.892  1.00  0.00     0.198 A 
ATOM     92  C   UNL A   1      45.110  26.192  35.735  1.00  0.00     0.198 A 
ATOM     93  F   UNL A   1      42.810  26.402  35.294  1.00  0.00    -0.203 F 
ATOM     94  F   UNL A   1      47.908  28.265  34.730  1.00  0.00    -0.200 F 
ATOM     95  C   UNL A   1      46.409  26.658  35.596  1.00  0.00     0.200 A 
ATOM     96  F   UNL A   1      44.872  25.070  36.429  1.00  0.00    -0.200 F 
ATOM     97  F   UNL A   1      47.428  25.975  36.134  1.00  0.00    -0.200 F 
ENDBRANCH  64  87
ENDBRANCH  38  39
ENDBRANCH  30  33
ENDBRANCH  28  29
ENDBRANCH  27  28
ENDBRANCH  26  27
ENDBRANCH   1  26
TORSDOF 17
ENDMDL
MODEL 2
REMARK VINA RESULT:     -11.6      1.732      7.889
REMARK SMILES CO[C@H]1C[C@@H](C(=O)NCCCCCCNC(=O)c2ccc(-c3c4nc(c(-c5c(F)c(F)c(F)c(F)c5F)c5ccc([nH]5)c(-c5c(F)c(F)c(F)c(F)c5F)c5nc(c(-c6c(F)c(F)c(F)c(F)c6F)c6ccc3[nH]6)C=C5)C=C4)cc2)N(C(=O)c2cc(SC)ccc2C)C1
REMARK SMILES IDX 11 1 10 2 9 3 8 4 6 5 7 6 5 8 3 9 4 10 93 11 81 12 2 13 1 14
REMARK SMILES IDX 82 15 83 16 84 17 85 18 91 19 86 20 90 21 92 22 89 23 87 24
REMARK SMILES IDX 88 25 12 26 13 27 14 28 15 29 16 30 17 32 18 33 19 34 80 35
REMARK SMILES IDX 20 36 79 37 21 38 22 39 23 40 73 41 24 42 78 43 72 44 74 45
REMARK SMILES IDX 25 46 77 47 71 48 70 49 26 51 58 52 38 53 57 54 39 55 42 56
REMARK SMILES IDX 56 57 75 58 40 59 41 60 55 62 76 63 43 64 27 65 28 66 36 67
REMARK SMILES IDX 29 68 30 69 34 70 37 71 31 72 32 73 35 74 33 75 59 76 60 77
REMARK SMILES IDX 68 78 61 79 62 80 66 81 69 82 63 83 64 84 67 85 65 86 44 87
REMARK SMILES IDX 45 88 53 89 46 90 47 91 51 92 54 93 48 94 49 95 52 96 50 97
REMARK H PARENT 8 7 15 31 74 50 42 61
REMARK Flexibility Score: inf
ROOT
ATOM      1  C   UNL A   1      32.732  30.136  26.491  1.00  0.00     0.002 C 
ENDROOT
BRANCH   1   2
ATOM      2  C   UNL A   1      32.838  28.652  26.114  1.00  0.00     0.021 C 
BRANCH   2   3
ATOM      3  C   UNL A   1      32.280  27.700  27.168  1.00  0.00     0.116 C 
BRANCH   3   4
ATOM      4  N   UNL A   1      31.066  27.031  26.740  1.00  0.00    -0.354 N 
ATOM      5  C   UNL A   1      30.794  25.770  26.318  1.00  0.00     0.242 C 
ATOM      6  O   UNL A   1      29.609  25.432  26.441  1.00  0.00    -0.273 OA
ATOM      7  H   UNL A   1      30.273  27.615  26.760  1.00  0.00     0.163 HD
BRANCH   5   8
ATOM      8  C   UNL A   1      31.797  24.782  25.664  1.00  0.00     0.177 C 
ATOM      9  C   UNL A   1      33.970  23.711  25.533  1.00  0.00     0.139 C 
ATOM     10  C   UNL A   1      33.062  24.504  26.461  1.00  0.00     0.069 C 
ATOM     11  C   UNL A   1      33.576  24.221  24.146  1.00  0.00     0.152 C 
ATOM     12  N   UNL A   1      32.360  25.015  24.318  1.00  0.00    -0.324 N 
BRANCH   9  13
ATOM     13  O   UNL A   1      35.348  23.990  25.791  1.00  0.00    -0.380 OA
ATOM     14  C   UNL A   1      36.199  23.771  24.673  1.00  0.00     0.195 C 
ENDBRANCH   9  13
BRANCH  12  15
ATOM     15  C   UNL A   1      31.734  25.454  23.159  1.00  0.00     0.254 C 
ATOM     16  O   UNL A   1      31.563  24.725  22.183  1.00  0.00    -0.269 OA
BRANCH  15  17
ATOM     17  C   UNL A   1      31.350  26.873  23.013  1.00  0.00     0.044 A 
ATOM     18  C   UNL A   1      29.979  27.174  23.088  1.00  0.00     0.029 A 
ATOM     19  C   UNL A   1      32.283  27.875  22.694  1.00  0.00    -0.038 A 
ATOM     20  C   UNL A   1      29.522  28.488  22.928  1.00  0.00     0.008 A 
ATOM     21  C   UNL A   1      31.822  29.194  22.576  1.00  0.00     0.005 A 
ATOM     22  C   UNL A   1      33.736  27.617  22.418  1.00  0.00     0.045 C 
ATOM     23  C   UNL A   1      30.463  29.497  22.706  1.00  0.00     0.015 A 
BRANCH  20  24
ATOM     24  S   UNL A   1      27.755  28.762  23.019  1.00  0.00    -0.130 SA
ATOM     25  C   UNL A   1      27.616  30.570  22.957  1.00  0.00     0.091 C 
ENDBRANCH  20  24
ENDBRANCH  15  17
ENDBRANCH  12  15
ENDBRANCH   5   8
ENDBRANCH   3   4
ENDBRANCH   2   3
ENDBRANCH   1   2
BRANCH   1  26
ATOM     26  C   UNL A   1      31.401  30.811  26.139  1.00  0.00     0.002 C 
BRANCH  26  27
ATOM     27  C   UNL A   1      31.307  32.299  26.493  1.00  0.00     0.021 C 
BRANCH  27  28
ATOM     28  C   UNL A   1      32.517  32.847  27.238  1.00  0.00     0.116 C 
BRANCH  28  29
ATOM     29  N   UNL A   1      32.341  34.244  27.599  1.00  0.00    -0.352 N 
ATOM     30  C   UNL A   1      32.962  34.975  28.577  1.00  0.00     0.251 C 
ATOM     31  H   UNL A   1      31.679  34.737  27.062  1.00  0.00     0.163 HD
ATOM     32  O   UNL A   1      32.527  36.082  28.892  1.00  0.00    -0.269 OA
BRANCH  30  33
ATOM     33  C   UNL A   1      34.149  34.431  29.269  1.00  0.00     0.039 A 
ATOM     34  C   UNL A   1      33.978  33.760  30.483  1.00  0.00     0.014 A 
ATOM     35  C   UNL A   1      35.431  34.597  28.735  1.00  0.00     0.014 A 
ATOM     36  C   UNL A   1      35.084  33.208  31.132  1.00  0.00     0.010 A 
ATOM     37  C   UNL A   1      36.522  33.984  29.344  1.00  0.00     0.010 A 
ATOM     38  C   UNL A   1      36.361  33.287  30.552  1.00  0.00    -0.014 A 
BRANCH  38  39
ATOM     39  C   UNL A   1      37.539  32.654  31.199  1.00  0.00     0.031 A 
ATOM     40  C   UNL A   1      38.224  31.486  30.543  1.00  0.00     0.074 A 
ATOM     41  C   UNL A   1      37.960  33.098  32.399  1.00  0.00     0.049 A 
ATOM     42  N   UNL A   1      39.214  30.752  30.985  1.00  0.00    -0.248 NA
ATOM     43  C   UNL A   1      37.715  31.075  29.225  1.00  0.00     0.031 C 
ATOM     44  C   UNL A   1      37.355  34.197  33.155  1.00  0.00     0.029 A 
ATOM     45  N   UNL A   1      38.989  32.673  33.202  1.00  0.00    -0.354 N 
ATOM     46  C   UNL A   1      39.445  29.798  30.002  1.00  0.00     0.074 A 
ATOM     47  C   UNL A   1      38.451  30.003  28.971  1.00  0.00     0.031 C 
ATOM     48  C   UNL A   1      38.031  34.368  34.302  1.00  0.00     0.029 A 
ATOM     49  C   UNL A   1      39.091  33.367  34.384  1.00  0.00     0.049 A 
ATOM     50  H   UNL A   1      39.599  31.940  32.954  1.00  0.00     0.167 HD
ATOM     51  C   UNL A   1      40.418  28.857  29.948  1.00  0.00     0.037 A 
ATOM     52  C   UNL A   1      39.933  33.203  35.423  1.00  0.00     0.037 A 
ATOM     53  C   UNL A   1      41.413  28.663  30.970  1.00  0.00     0.049 A 
ATOM     54  C   UNL A   1      40.982  32.125  35.350  1.00  0.00     0.074 A 
ATOM     55  C   UNL A   1      42.452  27.748  31.000  1.00  0.00     0.029 A 
ATOM     56  N   UNL A   1      41.494  29.398  32.143  1.00  0.00    -0.354 N 
ATOM     57  N   UNL A   1      41.223  31.265  34.391  1.00  0.00    -0.248 NA
ATOM     58  C   UNL A   1      41.886  32.002  36.503  1.00  0.00     0.031 C 
ATOM     59  C   UNL A   1      43.136  27.902  32.209  1.00  0.00     0.029 A 
ATOM     60  C   UNL A   1      42.558  28.949  32.909  1.00  0.00     0.049 A 
ATOM     61  H   UNL A   1      40.886  30.130  32.394  1.00  0.00     0.167 HD
ATOM     62  C   UNL A   1      42.322  30.525  34.808  1.00  0.00     0.074 A 
ATOM     63  C   UNL A   1      42.714  31.050  36.097  1.00  0.00     0.031 C 
ATOM     64  C   UNL A   1      42.948  29.499  34.181  1.00  0.00     0.037 A 
BRANCH  51  65
ATOM     65  C   UNL A   1      40.472  27.978  28.733  1.00  0.00     0.064 A 
ATOM     66  C   UNL A   1      41.236  28.331  27.610  1.00  0.00     0.173 A 
ATOM     67  C   UNL A   1      39.807  26.742  28.711  1.00  0.00     0.173 A 
ATOM     68  F   UNL A   1      41.882  29.507  27.575  1.00  0.00    -0.203 F 
ATOM     69  C   UNL A   1      41.317  27.490  26.504  1.00  0.00     0.198 A 
ATOM     70  C   UNL A   1      39.916  25.890  27.615  1.00  0.00     0.198 A 
ATOM     71  F   UNL A   1      39.067  26.353  29.761  1.00  0.00    -0.203 F 
ATOM     72  F   UNL A   1      42.020  27.868  25.427  1.00  0.00    -0.200 F 
ATOM     73  C   UNL A   1      40.665  26.267  26.511  1.00  0.00     0.200 A 
ATOM     74  F   UNL A   1      39.297  24.701  27.629  1.00  0.00    -0.200 F 
ATOM     75  F   UNL A   1      40.757  25.451  25.451  1.00  0.00    -0.200 F 
ENDBRANCH  51  65
BRANCH  52  76
ATOM     76  C   UNL A   1      39.823  34.072  36.626  1.00  0.00     0.064 A 
ATOM     77  C   UNL A   1      40.567  35.256  36.736  1.00  0.00     0.173 A 
ATOM     78  C   UNL A   1      39.009  33.714  37.711  1.00  0.00     0.173 A 
ATOM     79  F   UNL A   1      41.373  35.634  35.733  1.00  0.00    -0.203 F 
ATOM     80  C   UNL A   1      40.534  36.024  37.897  1.00  0.00     0.198 A 
ATOM     81  C   UNL A   1      38.949  34.502  38.858  1.00  0.00     0.198 A 
ATOM     82  F   UNL A   1      38.270  32.595  37.658  1.00  0.00    -0.203 F 
ATOM     83  F   UNL A   1      41.309  37.112  38.001  1.00  0.00    -0.200 F 
ATOM     84  C   UNL A   1      39.722  35.648  38.957  1.00  0.00     0.200 A 
ATOM     85  F   UNL A   1      38.150  34.143  39.873  1.00  0.00    -0.200 F 
ATOM     86  F   UNL A   1      39.696  36.383  40.077  1.00  0.00    -0.200 F 
ENDBRANCH  52  76
BRANCH  64  87
ATOM     87  C   UNL A   1      44.153  28.910  34.857  1.00  0.00     0.064 A 
ATOM     88  C   UNL A   1      44.050  27.825  35.739  1.00  0.00     0.173 A 
ATOM     89  C   UNL A   1      45.433  29.419  34.589  1.00  0.00     0.173 A 
ATOM     90  F   UNL A   1      42.848  27.311  36.041  1.00  0.00    -0.203 F 
ATOM     91  C   UNL A   1      45.181  27.291  36.352  1.00  0.00     0.198 A 
ATOM     92  C   UNL A   1      46.565  28.861  35.176  1.00  0.00     0.198 A 
ATOM     93  F   UNL A   1      45.588  30.451  33.746  1.00  0.00    -0.203 F 
ATOM     94  F   UNL A   1      45.052  26.289  37.233  1.00  0.00    -0.200 F 
ATOM     95  C   UNL A   1      46.437  27.803  36.064  1.00  0.00     0.200 A 
ATOM     96  F   UNL A   1      47.779  29.347  34.883  1.00  0.00    -0.200 F 
ATOM     97  F   UNL A   1      47.525  27.282  36.648  1.00  0.00    -0.200 F 
ENDBRANCH  64  87
ENDBRANCH  38  39
ENDBRANCH  30  33
ENDBRANCH  28  29
ENDBRANCH  27  28
ENDBRANCH  26  27
ENDBRANCH   1  26
TORSDOF 17
ENDMDL
MODEL 3
REMARK VINA RESULT:     -11.5      1.698      7.679
REMARK SMILES CO[C@H]1C[C@@H](C(=O)NCCCCCCNC(=O)c2ccc(-c3c4nc(c(-c5c(F)c(F)c(F)c(F)c5F)c5ccc([nH]5)c(-c5c(F)c(F)c(F)c(F)c5F)c5nc(c(-c6c(F)c(F)c(F)c(F)c6F)c6ccc3[nH]6)C=C5)C=C4)cc2)N(C(=O)c2cc(SC)ccc2C)C1
REMARK SMILES IDX 11 1 10 2 9 3 8 4 6 5 7 6 5 8 3 9 4 10 93 11 81 12 2 13 1 14
REMARK SMILES IDX 82 15 83 16 84 17 85 18 91 19 86 20 90 21 92 22 89 23 87 24
REMARK SMILES IDX 88 25 12 26 13 27 14 28 15 29 16 30 17 32 18 33 19 34 80 35
REMARK SMILES IDX 20 36 79 37 21 38 22 39 23 40 73 41 24 42 78 43 72 44 74 45
REMARK SMILES IDX 25 46 77 47 71 48 70 49 26 51 58 52 38 53 57 54 39 55 42 56
REMARK SMILES IDX 56 57 75 58 40 59 41 60 55 62 76 63 43 64 27 65 28 66 36 67
REMARK SMILES IDX 29 68 30 69 34 70 37 71 31 72 32 73 35 74 33 75 59 76 60 77
REMARK SMILES IDX 68 78 61 79 62 80 66 81 69 82 63 83 64 84 67 85 65 86 44 87
REMARK SMILES IDX 45 88 53 89 46 90 47 91 51 92 54 93 48 94 49 95 52 96 50 97
REMARK H PARENT 8 7 15 31 74 50 42 61
REMARK Flexibility Score: inf
ROOT
ATOM      1  C   UNL A   1      31.807  29.459  27.202  1.00  0.00     0.002 C 
ENDROOT
BRANCH   1   2
ATOM      2  C   UNL A   1      32.756  28.299  26.875  1.00  0.00     0.021 C 
BRANCH   2   3
ATOM      3  C   UNL A   1      32.051  26.969  26.619  1.00  0.00     0.116 C 
BRANCH   3   4
ATOM      4  N   UNL A   1      32.302  26.441  25.293  1.00  0.00    -0.354 N 
ATOM      5  C   UNL A   1      32.769  25.251  24.835  1.00  0.00     0.242 C 
ATOM      6  O   UNL A   1      32.459  24.995  23.663  1.00  0.00    -0.273 OA
ATOM      7  H   UNL A   1      32.091  27.079  24.573  1.00  0.00     0.163 HD
BRANCH   5   8
ATOM      8  C   UNL A   1      33.673  24.257  25.611  1.00  0.00     0.177 C 
ATOM      9  C   UNL A   1      35.820  23.224  26.068  1.00  0.00     0.139 C 
ATOM     10  C   UNL A   1      35.170  24.429  25.406  1.00  0.00     0.069 C 
ATOM     11  C   UNL A   1      34.759  22.132  25.917  1.00  0.00     0.152 C 
ATOM     12  N   UNL A   1      33.537  22.794  25.461  1.00  0.00    -0.324 N 
BRANCH   9  13
ATOM     13  O   UNL A   1      37.021  22.845  25.391  1.00  0.00    -0.380 OA
ATOM     14  C   UNL A   1      37.181  21.439  25.244  1.00  0.00     0.195 C 
ENDBRANCH   9  13
BRANCH  12  15
ATOM     15  C   UNL A   1      32.391  22.011  25.401  1.00  0.00     0.254 C 
ATOM     16  O   UNL A   1      31.381  22.266  26.057  1.00  0.00    -0.269 OA
BRANCH  15  17
ATOM     17  C   UNL A   1      32.387  20.755  24.624  1.00  0.00     0.044 A 
ATOM     18  C   UNL A   1      32.595  19.562  25.338  1.00  0.00     0.029 A 
ATOM     19  C   UNL A   1      32.300  20.739  23.221  1.00  0.00    -0.038 A 
ATOM     20  C   UNL A   1      32.640  18.328  24.678  1.00  0.00     0.008 A 
ATOM     21  C   UNL A   1      32.304  19.496  22.572  1.00  0.00     0.005 A 
ATOM     22  C   UNL A   1      32.256  21.972  22.366  1.00  0.00     0.045 C 
ATOM     23  C   UNL A   1      32.457  18.308  23.292  1.00  0.00     0.015 A 
BRANCH  20  24
ATOM     24  S   UNL A   1      32.934  16.871  25.675  1.00  0.00    -0.130 SA
ATOM     25  C   UNL A   1      34.437  16.167  24.943  1.00  0.00     0.091 C 
ENDBRANCH  20  24
ENDBRANCH  15  17
ENDBRANCH  12  15
ENDBRANCH   5   8
ENDBRANCH   3   4
ENDBRANCH   2   3
ENDBRANCH   1   2
BRANCH   1  26
ATOM     26  C   UNL A   1      31.595  30.474  26.072  1.00  0.00     0.002 C 
BRANCH  26  27
ATOM     27  C   UNL A   1      31.429  31.930  26.522  1.00  0.00     0.021 C 
BRANCH  27  28
ATOM     28  C   UNL A   1      32.657  32.525  27.198  1.00  0.00     0.116 C 
BRANCH  28  29
ATOM     29  N   UNL A   1      32.457  33.921  27.549  1.00  0.00    -0.352 N 
ATOM     30  C   UNL A   1      33.054  34.665  28.532  1.00  0.00     0.251 C 
ATOM     31  H   UNL A   1      31.795  34.402  27.000  1.00  0.00     0.163 HD
ATOM     32  O   UNL A   1      32.598  35.768  28.835  1.00  0.00    -0.269 OA
BRANCH  30  33
ATOM     33  C   UNL A   1      34.238  34.141  29.243  1.00  0.00     0.039 A 
ATOM     34  C   UNL A   1      34.051  33.337  30.371  1.00  0.00     0.014 A 
ATOM     35  C   UNL A   1      35.531  34.457  28.814  1.00  0.00     0.014 A 
ATOM     36  C   UNL A   1      35.159  32.805  31.033  1.00  0.00     0.010 A 
ATOM     37  C   UNL A   1      36.630  33.865  29.430  1.00  0.00     0.010 A 
ATOM     38  C   UNL A   1      36.456  33.037  30.550  1.00  0.00    -0.014 A 
BRANCH  38  39
ATOM     39  C   UNL A   1      37.642  32.429  31.207  1.00  0.00     0.031 A 
ATOM     40  C   UNL A   1      38.381  31.302  30.538  1.00  0.00     0.074 A 
ATOM     41  C   UNL A   1      38.022  32.858  32.426  1.00  0.00     0.049 A 
ATOM     42  N   UNL A   1      39.386  30.591  30.985  1.00  0.00    -0.248 NA
ATOM     43  C   UNL A   1      37.913  30.905  29.200  1.00  0.00     0.031 C 
ATOM     44  C   UNL A   1      37.364  33.916  33.194  1.00  0.00     0.029 A 
ATOM     45  N   UNL A   1      39.048  32.448  33.241  1.00  0.00    -0.354 N 
ATOM     46  C   UNL A   1      39.670  29.670  29.984  1.00  0.00     0.074 A 
ATOM     47  C   UNL A   1      38.691  29.866  28.937  1.00  0.00     0.031 C 
ATOM     48  C   UNL A   1      38.009  34.083  34.360  1.00  0.00     0.029 A 
ATOM     49  C   UNL A   1      39.101  33.116  34.441  1.00  0.00     0.049 A 
ATOM     50  H   UNL A   1      39.688  31.743  32.989  1.00  0.00     0.167 HD
ATOM     51  C   UNL A   1      40.676  28.765  29.930  1.00  0.00     0.037 A 
ATOM     52  C   UNL A   1      39.926  32.956  35.493  1.00  0.00     0.037 A 
ATOM     53  C   UNL A   1      41.656  28.579  30.968  1.00  0.00     0.049 A 
ATOM     54  C   UNL A   1      41.014  31.916  35.418  1.00  0.00     0.074 A 
ATOM     55  C   UNL A   1      42.724  27.700  30.999  1.00  0.00     0.029 A 
ATOM     56  N   UNL A   1      41.687  29.288  32.159  1.00  0.00    -0.354 N 
ATOM     57  N   UNL A   1      41.304  31.089  34.444  1.00  0.00    -0.248 NA
ATOM     58  C   UNL A   1      41.897  31.796  36.587  1.00  0.00     0.031 C 
ATOM     59  C   UNL A   1      43.378  27.848  32.226  1.00  0.00     0.029 A 
ATOM     60  C   UNL A   1      42.750  28.857  32.937  1.00  0.00     0.049 A 
ATOM     61  H   UNL A   1      41.048  29.993  32.415  1.00  0.00     0.167 HD
ATOM     62  C   UNL A   1      42.419  30.377  34.867  1.00  0.00     0.074 A 
ATOM     63  C   UNL A   1      42.766  30.884  36.177  1.00  0.00     0.031 C 
ATOM     64  C   UNL A   1      43.093  29.389  34.230  1.00  0.00     0.037 A 
BRANCH  51  65
ATOM     65  C   UNL A   1      40.786  27.917  28.695  1.00  0.00     0.064 A 
ATOM     66  C   UNL A   1      40.050  26.730  28.558  1.00  0.00     0.173 A 
ATOM     67  C   UNL A   1      41.582  28.323  27.614  1.00  0.00     0.173 A 
ATOM     68  F   UNL A   1      39.282  26.291  29.568  1.00  0.00    -0.203 F 
ATOM     69  C   UNL A   1      40.122  25.971  27.394  1.00  0.00     0.198 A 
ATOM     70  C   UNL A   1      41.627  27.577  26.438  1.00  0.00     0.198 A 
ATOM     71  F   UNL A   1      42.302  29.453  27.690  1.00  0.00    -0.203 F 
ATOM     72  F   UNL A   1      39.441  24.820  27.302  1.00  0.00    -0.200 F 
ATOM     73  C   UNL A   1      40.902  26.400  26.331  1.00  0.00     0.200 A 
ATOM     74  F   UNL A   1      42.371  28.002  25.406  1.00  0.00    -0.200 F 
ATOM     75  F   UNL A   1      40.958  25.678  25.204  1.00  0.00    -0.200 F 
ENDBRANCH  51  65
BRANCH  52  76
ATOM     76  C   UNL A   1      39.762  33.791  36.715  1.00  0.00     0.064 A 
ATOM     77  C   UNL A   1      38.946  33.372  37.776  1.00  0.00     0.173 A 
ATOM     78  C   UNL A   1      40.378  35.047  36.826  1.00  0.00     0.173 A 
ATOM     79  F   UNL A   1      38.320  32.188  37.710  1.00  0.00    -0.203 F 
ATOM     80  C   UNL A   1      38.720  34.192  38.880  1.00  0.00     0.198 A 
ATOM     81  C   UNL A   1      40.181  35.850  37.947  1.00  0.00     0.198 A 
ATOM     82  F   UNL A   1      41.175  35.495  35.844  1.00  0.00    -0.203 F 
ATOM     83  F   UNL A   1      37.881  33.795  39.845  1.00  0.00    -0.200 F 
ATOM     84  C   UNL A   1      39.341  35.429  38.965  1.00  0.00     0.200 A 
ATOM     85  F   UNL A   1      40.796  37.038  38.034  1.00  0.00    -0.200 F 
ATOM     86  F   UNL A   1      39.117  36.220  40.023  1.00  0.00    -0.200 F 
ENDBRANCH  52  76
BRANCH  64  87
ATOM     87  C   UNL A   1      44.304  28.825  34.919  1.00  0.00     0.064 A 
ATOM     88  C   UNL A   1      44.220  27.714  35.770  1.00  0.00     0.173 A 
ATOM     89  C   UNL A   1      45.570  29.385  34.692  1.00  0.00     0.173 A 
ATOM     90  F   UNL A   1      43.031  27.151  36.032  1.00  0.00    -0.203 F 
ATOM     91  C   UNL A   1      45.355  27.204  36.394  1.00  0.00     0.198 A 
ATOM     92  C   UNL A   1      46.708  28.852  35.290  1.00  0.00     0.198 A 
ATOM     93  F   UNL A   1      45.707  30.444  33.879  1.00  0.00    -0.203 F 
ATOM     94  F   UNL A   1      45.244  26.176  37.247  1.00  0.00    -0.200 F 
ATOM     95  C   UNL A   1      46.599  27.767  36.148  1.00  0.00     0.200 A 
ATOM     96  F   UNL A   1      47.910  29.387  35.036  1.00  0.00    -0.200 F 
ATOM     97  F   UNL A   1      47.691  27.270  36.743  1.00  0.00    -0.200 F 
ENDBRANCH  64  87
ENDBRANCH  38  39
ENDBRANCH  30  33
ENDBRANCH  28  29
ENDBRANCH  27  28
ENDBRANCH  26  27
ENDBRANCH   1  26
TORSDOF 17
ENDMDL
