MODEL 1
REMARK VINA RESULT:     -11.2      0.000      0.000
REMARK SMILES CCCC[C@@H](C(=O)NCCCCCCNC(=O)c1ccc(-c2c3nc(c(-c4c(F)c(F)c(F)c(F)c4F)c4ccc([nH]4)c(-c4c(F)c(F)c(F)c(F)c4F)c4nc(c(-c5c(F)c(F)c(F)c(F)c5F)c5ccc2[nH]5)C=C4)C=C3)cc1)[C@H](O)c1ccc(Br)cc1F
REMARK SMILES IDX 11 1 10 2 9 3 8 4 6 5 7 6 5 8 4 9 3 10 2 11 1 12 81 13 83 14
REMARK SMILES IDX 84 15 89 16 85 17 88 18 90 19 86 20 87 21 82 22 12 24 13 25
REMARK SMILES IDX 14 26 15 27 16 28 17 30 18 31 19 32 80 33 20 34 79 35 21 36
REMARK SMILES IDX 22 37 23 38 73 39 24 40 78 41 72 42 74 43 25 44 77 45 71 46
REMARK SMILES IDX 70 47 26 49 58 50 38 51 57 52 39 53 42 54 56 55 75 56 40 57
REMARK SMILES IDX 41 58 55 60 76 61 43 62 27 63 28 64 36 65 29 66 30 67 34 68
REMARK SMILES IDX 37 69 31 70 32 71 35 72 33 73 59 74 60 75 68 76 61 77 62 78
REMARK SMILES IDX 66 79 69 80 63 81 64 82 67 83 65 84 44 85 45 86 53 87 46 88
REMARK SMILES IDX 47 89 51 90 54 91 48 92 49 93 52 94 50 95
REMARK H PARENT 8 7 82 23 15 29 74 48 42 59
REMARK Flexibility Score: inf
ROOT
ATOM      1  C   UNL A   1      32.139  29.810  27.097  1.00  0.00     0.002 C 
ENDROOT
BRANCH   1   2
ATOM      2  C   UNL A   1      33.491  29.255  26.650  1.00  0.00     0.021 C 
BRANCH   2   3
ATOM      3  C   UNL A   1      33.422  27.850  26.041  1.00  0.00     0.116 C 
BRANCH   3   4
ATOM      4  N   UNL A   1      32.149  27.237  26.352  1.00  0.00    -0.356 N 
ATOM      5  C   UNL A   1      31.713  25.952  26.268  1.00  0.00     0.226 C 
ATOM      6  O   UNL A   1      30.521  25.784  26.536  1.00  0.00    -0.275 OA
ATOM      7  H   UNL A   1      31.471  27.868  26.684  1.00  0.00     0.163 HD
BRANCH   5   8
ATOM      8  C   UNL A   1      32.650  24.782  25.925  1.00  0.00     0.112 C 
BRANCH   8   9
ATOM      9  C   UNL A   1      33.170  24.754  24.471  1.00  0.00     0.016 C 
BRANCH   9  10
ATOM     10  C   UNL A   1      34.650  24.502  24.185  1.00  0.00     0.001 C 
BRANCH  10  11
ATOM     11  C   UNL A   1      34.964  23.325  23.259  1.00  0.00    -0.003 C 
ATOM     12  C   UNL A   1      36.370  22.775  23.443  1.00  0.00     0.004 C 
ENDBRANCH  10  11
ENDBRANCH   9  10
ENDBRANCH   8   9
BRANCH   8  13
ATOM     13  C   UNL A   1      31.895  23.444  26.273  1.00  0.00     0.160 C 
BRANCH  13  14
ATOM     14  C   UNL A   1      32.524  22.112  25.867  1.00  0.00     0.017 A 
ATOM     15  C   UNL A   1      31.839  21.261  24.980  1.00  0.00     0.010 A 
ATOM     16  C   UNL A   1      33.774  21.674  26.328  1.00  0.00     0.130 A 
ATOM     17  C   UNL A   1      32.411  20.064  24.532  1.00  0.00     0.016 A 
ATOM     18  C   UNL A   1      34.368  20.500  25.866  1.00  0.00     0.055 A 
ATOM     19  F   UNL A   1      34.443  22.364  27.259  1.00  0.00    -0.207 F 
ATOM     20  C   UNL A   1      33.684  19.701  24.961  1.00  0.00     0.020 A 
ATOM     21  Br  UNL A   1      34.483  18.114  24.320  1.00  0.00    -0.051 Br
ENDBRANCH  13  14
BRANCH  13  22
ATOM     22  O   UNL A   1      31.588  23.438  27.674  1.00  0.00    -0.387 OA
ATOM     23  H   UNL A   1      30.807  23.989  27.837  1.00  0.00     0.211 HD
ENDBRANCH  13  22
ENDBRANCH   8  13
ENDBRANCH   5   8
ENDBRANCH   3   4
ENDBRANCH   2   3
ENDBRANCH   1   2
BRANCH   1  24
ATOM     24  C   UNL A   1      31.519  30.822  26.126  1.00  0.00     0.002 C 
BRANCH  24  25
ATOM     25  C   UNL A   1      31.379  32.253  26.659  1.00  0.00     0.021 C 
BRANCH  25  26
ATOM     26  C   UNL A   1      32.673  32.896  27.154  1.00  0.00     0.116 C 
BRANCH  26  27
ATOM     27  N   UNL A   1      32.466  34.257  27.618  1.00  0.00    -0.352 N 
ATOM     28  C   UNL A   1      33.037  34.929  28.668  1.00  0.00     0.251 C 
ATOM     29  H   UNL A   1      31.814  34.779  27.097  1.00  0.00     0.163 HD
ATOM     30  O   UNL A   1      32.575  36.006  29.032  1.00  0.00    -0.269 OA
BRANCH  28  31
ATOM     31  C   UNL A   1      34.202  34.359  29.379  1.00  0.00     0.039 A 
ATOM     32  C   UNL A   1      33.985  33.663  30.572  1.00  0.00     0.014 A 
ATOM     33  C   UNL A   1      35.502  34.544  28.903  1.00  0.00     0.014 A 
ATOM     34  C   UNL A   1      35.067  33.106  31.258  1.00  0.00     0.010 A 
ATOM     35  C   UNL A   1      36.574  33.937  29.555  1.00  0.00     0.010 A 
ATOM     36  C   UNL A   1      36.367  33.215  30.739  1.00  0.00    -0.014 A 
BRANCH  36  37
ATOM     37  C   UNL A   1      37.517  32.570  31.422  1.00  0.00     0.031 A 
ATOM     38  C   UNL A   1      38.242  31.424  30.776  1.00  0.00     0.074 A 
ATOM     39  C   UNL A   1      37.871  32.985  32.654  1.00  0.00     0.049 A 
ATOM     40  N   UNL A   1      39.234  30.704  31.239  1.00  0.00    -0.248 NA
ATOM     41  C   UNL A   1      37.776  31.015  29.442  1.00  0.00     0.031 C 
ATOM     42  C   UNL A   1      37.215  34.056  33.405  1.00  0.00     0.029 A 
ATOM     43  N   UNL A   1      38.864  32.549  33.495  1.00  0.00    -0.354 N 
ATOM     44  C   UNL A   1      39.502  29.755  30.262  1.00  0.00     0.074 A 
ATOM     45  C   UNL A   1      38.538  29.957  29.202  1.00  0.00     0.031 C 
ATOM     46  C   UNL A   1      37.833  34.207  34.586  1.00  0.00     0.029 A 
ATOM     47  C   UNL A   1      38.909  33.224  34.690  1.00  0.00     0.049 A 
ATOM     48  H   UNL A   1      39.486  31.822  33.263  1.00  0.00     0.167 HD
ATOM     49  C   UNL A   1      40.476  28.814  30.243  1.00  0.00     0.037 A 
ATOM     50  C   UNL A   1      39.722  33.066  35.750  1.00  0.00     0.037 A 
ATOM     51  C   UNL A   1      41.448  28.630  31.289  1.00  0.00     0.049 A 
ATOM     52  C   UNL A   1      40.797  32.015  35.702  1.00  0.00     0.074 A 
ATOM     53  C   UNL A   1      42.512  27.747  31.335  1.00  0.00     0.029 A 
ATOM     54  N   UNL A   1      41.472  29.344  32.478  1.00  0.00    -0.354 N 
ATOM     55  N   UNL A   1      41.084  31.169  34.743  1.00  0.00    -0.248 NA
ATOM     56  C   UNL A   1      41.666  31.903  36.882  1.00  0.00     0.031 C 
ATOM     57  C   UNL A   1      43.155  27.898  32.568  1.00  0.00     0.029 A 
ATOM     58  C   UNL A   1      42.519  28.907  33.273  1.00  0.00     0.049 A 
ATOM     59  H   UNL A   1      40.837  30.057  32.722  1.00  0.00     0.167 HD
ATOM     60  C   UNL A   1      42.176  30.440  35.192  1.00  0.00     0.074 A 
ATOM     61  C   UNL A   1      42.514  30.957  36.503  1.00  0.00     0.031 C 
ATOM     62  C   UNL A   1      42.841  29.433  34.575  1.00  0.00     0.037 A 
BRANCH  49  63
ATOM     63  C   UNL A   1      40.542  27.909  29.048  1.00  0.00     0.064 A 
ATOM     64  C   UNL A   1      39.765  26.744  28.964  1.00  0.00     0.173 A 
ATOM     65  C   UNL A   1      41.364  28.230  27.955  1.00  0.00     0.173 A 
ATOM     66  F   UNL A   1      38.972  26.388  29.985  1.00  0.00    -0.203 F 
ATOM     67  C   UNL A   1      39.828  25.919  27.844  1.00  0.00     0.198 A 
ATOM     68  C   UNL A   1      41.402  27.417  26.825  1.00  0.00     0.198 A 
ATOM     69  F   UNL A   1      42.122  29.335  27.980  1.00  0.00    -0.203 F 
ATOM     70  F   UNL A   1      39.111  24.787  27.807  1.00  0.00    -0.200 F 
ATOM     71  C   UNL A   1      40.640  26.259  26.773  1.00  0.00     0.200 A 
ATOM     72  F   UNL A   1      42.178  27.754  25.785  1.00  0.00    -0.200 F 
ATOM     73  F   UNL A   1      40.695  25.467  25.692  1.00  0.00    -0.200 F 
ENDBRANCH  49  63
BRANCH  50  74
ATOM     74  C   UNL A   1      39.568  33.944  36.938  1.00  0.00     0.064 A 
ATOM     75  C   UNL A   1      38.808  33.532  38.042  1.00  0.00     0.173 A 
ATOM     76  C   UNL A   1      40.175  35.206  36.998  1.00  0.00     0.173 A 
ATOM     77  F   UNL A   1      38.192  32.340  38.023  1.00  0.00    -0.203 F 
ATOM     78  C   UNL A   1      38.646  34.357  39.153  1.00  0.00     0.198 A 
ATOM     79  C   UNL A   1      40.033  36.020  38.120  1.00  0.00     0.198 A 
ATOM     80  F   UNL A   1      40.916  35.645  35.970  1.00  0.00    -0.203 F 
ATOM     81  F   UNL A   1      37.880  33.956  40.176  1.00  0.00    -0.200 F 
ATOM     82  C   UNL A   1      39.264  35.598  39.193  1.00  0.00     0.200 A 
ATOM     83  F   UNL A   1      40.643  37.212  38.161  1.00  0.00    -0.200 F 
ATOM     84  F   UNL A   1      39.111  36.390  40.263  1.00  0.00    -0.200 F 
ENDBRANCH  50  74
BRANCH  62  85
ATOM     85  C   UNL A   1      44.013  28.841  35.301  1.00  0.00     0.064 A 
ATOM     86  C   UNL A   1      43.854  27.791  36.217  1.00  0.00     0.173 A 
ATOM     87  C   UNL A   1      45.313  29.310  35.056  1.00  0.00     0.173 A 
ATOM     88  F   UNL A   1      42.630  27.320  36.498  1.00  0.00    -0.203 F 
ATOM     89  C   UNL A   1      44.952  27.250  36.881  1.00  0.00     0.198 A 
ATOM     90  C   UNL A   1      46.410  28.747  35.701  1.00  0.00     0.198 A 
ATOM     91  F   UNL A   1      45.517  30.309  34.185  1.00  0.00    -0.203 F 
ATOM     92  F   UNL A   1      44.772  26.280  37.789  1.00  0.00    -0.200 F 
ATOM     93  C   UNL A   1      46.228  27.723  36.618  1.00  0.00     0.200 A 
ATOM     94  F   UNL A   1      47.644  29.198  35.437  1.00  0.00    -0.200 F 
ATOM     95  F   UNL A   1      47.284  27.199  37.256  1.00  0.00    -0.200 F 
ENDBRANCH  62  85
ENDBRANCH  36  37
ENDBRANCH  28  31
ENDBRANCH  26  27
ENDBRANCH  25  26
ENDBRANCH  24  25
ENDBRANCH   1  24
TORSDOF 19
ENDMDL
MODEL 2
REMARK VINA RESULT:     -11.2      2.357      3.584
REMARK SMILES CCCC[C@@H](C(=O)NCCCCCCNC(=O)c1ccc(-c2c3nc(c(-c4c(F)c(F)c(F)c(F)c4F)c4ccc([nH]4)c(-c4c(F)c(F)c(F)c(F)c4F)c4nc(c(-c5c(F)c(F)c(F)c(F)c5F)c5ccc2[nH]5)C=C4)C=C3)cc1)[C@H](O)c1ccc(Br)cc1F
REMARK SMILES IDX 11 1 10 2 9 3 8 4 6 5 7 6 5 8 4 9 3 10 2 11 1 12 81 13 83 14
REMARK SMILES IDX 84 15 89 16 85 17 88 18 90 19 86 20 87 21 82 22 12 24 13 25
REMARK SMILES IDX 14 26 15 27 16 28 17 30 18 31 19 32 80 33 20 34 79 35 21 36
REMARK SMILES IDX 22 37 23 38 73 39 24 40 78 41 72 42 74 43 25 44 77 45 71 46
REMARK SMILES IDX 70 47 26 49 58 50 38 51 57 52 39 53 42 54 56 55 75 56 40 57
REMARK SMILES IDX 41 58 55 60 76 61 43 62 27 63 28 64 36 65 29 66 30 67 34 68
REMARK SMILES IDX 37 69 31 70 32 71 35 72 33 73 59 74 60 75 68 76 61 77 62 78
REMARK SMILES IDX 66 79 69 80 63 81 64 82 67 83 65 84 44 85 45 86 53 87 46 88
REMARK SMILES IDX 47 89 51 90 54 91 48 92 49 93 52 94 50 95
REMARK H PARENT 8 7 82 23 15 29 74 48 42 59
REMARK Flexibility Score: inf
ROOT
ATOM      1  C   UNL A   1      32.710  30.033  26.177  1.00  0.00     0.002 C 
ENDROOT
BRANCH   1   2
ATOM      2  C   UNL A   1      33.136  28.998  25.137  1.00  0.00     0.021 C 
BRANCH   2   3
ATOM      3  C   UNL A   1      33.108  27.552  25.642  1.00  0.00     0.116 C 
BRANCH   3   4
ATOM      4  N   UNL A   1      33.708  26.672  24.661  1.00  0.00    -0.356 N 
ATOM      5  C   UNL A   1      33.168  25.771  23.798  1.00  0.00     0.226 C 
ATOM      6  O   UNL A   1      33.985  25.115  23.148  1.00  0.00    -0.275 OA
ATOM      7  H   UNL A   1      34.688  26.738  24.611  1.00  0.00     0.163 HD
BRANCH   5   8
ATOM      8  C   UNL A   1      31.651  25.623  23.598  1.00  0.00     0.112 C 
BRANCH   8   9
ATOM      9  C   UNL A   1      31.149  24.176  23.393  1.00  0.00     0.016 C 
BRANCH   9  10
ATOM     10  C   UNL A   1      31.045  23.220  24.580  1.00  0.00     0.001 C 
BRANCH  10  11
ATOM     11  C   UNL A   1      30.770  23.865  25.941  1.00  0.00    -0.003 C 
ATOM     12  C   UNL A   1      31.968  23.828  26.876  1.00  0.00     0.004 C 
ENDBRANCH  10  11
ENDBRANCH   9  10
ENDBRANCH   8   9
BRANCH   8  13
ATOM     13  C   UNL A   1      31.235  26.534  22.383  1.00  0.00     0.160 C 
BRANCH  13  14
ATOM     14  C   UNL A   1      30.357  27.758  22.642  1.00  0.00     0.017 A 
ATOM     15  C   UNL A   1      30.861  29.044  22.375  1.00  0.00     0.010 A 
ATOM     16  C   UNL A   1      29.046  27.680  23.134  1.00  0.00     0.130 A 
ATOM     17  C   UNL A   1      30.066  30.185  22.535  1.00  0.00     0.016 A 
ATOM     18  C   UNL A   1      28.234  28.806  23.267  1.00  0.00     0.055 A 
ATOM     19  F   UNL A   1      28.526  26.510  23.520  1.00  0.00    -0.207 F 
ATOM     20  C   UNL A   1      28.747  30.058  22.959  1.00  0.00     0.020 A 
ATOM     21  Br  UNL A   1      27.653  31.587  23.127  1.00  0.00    -0.051 Br
ENDBRANCH  13  14
BRANCH  13  22
ATOM     22  O   UNL A   1      32.418  26.918  21.668  1.00  0.00    -0.387 OA
ATOM     23  H   UNL A   1      32.232  27.704  21.132  1.00  0.00     0.211 HD
ENDBRANCH  13  22
ENDBRANCH   8  13
ENDBRANCH   5   8
ENDBRANCH   3   4
ENDBRANCH   2   3
ENDBRANCH   1   2
BRANCH   1  24
ATOM     24  C   UNL A   1      31.429  30.797  25.822  1.00  0.00     0.002 C 
BRANCH  24  25
ATOM     25  C   UNL A   1      31.259  32.161  26.502  1.00  0.00     0.021 C 
BRANCH  25  26
ATOM     26  C   UNL A   1      32.496  32.688  27.227  1.00  0.00     0.116 C 
BRANCH  26  27
ATOM     27  N   UNL A   1      32.358  34.085  27.601  1.00  0.00    -0.352 N 
ATOM     28  C   UNL A   1      32.985  34.802  28.588  1.00  0.00     0.251 C 
ATOM     29  H   UNL A   1      31.711  34.598  27.063  1.00  0.00     0.163 HD
ATOM     30  O   UNL A   1      32.577  35.919  28.889  1.00  0.00    -0.269 OA
BRANCH  28  31
ATOM     31  C   UNL A   1      34.146  34.232  29.305  1.00  0.00     0.039 A 
ATOM     32  C   UNL A   1      33.921  33.520  30.487  1.00  0.00     0.014 A 
ATOM     33  C   UNL A   1      35.451  34.435  28.847  1.00  0.00     0.014 A 
ATOM     34  C   UNL A   1      35.000  32.964  31.179  1.00  0.00     0.010 A 
ATOM     35  C   UNL A   1      36.520  33.829  29.504  1.00  0.00     0.010 A 
ATOM     36  C   UNL A   1      36.305  33.090  30.677  1.00  0.00    -0.014 A 
BRANCH  36  37
ATOM     37  C   UNL A   1      37.452  32.447  31.365  1.00  0.00     0.031 A 
ATOM     38  C   UNL A   1      38.173  31.292  30.728  1.00  0.00     0.074 A 
ATOM     39  C   UNL A   1      37.808  32.870  32.593  1.00  0.00     0.049 A 
ATOM     40  N   UNL A   1      39.161  30.572  31.198  1.00  0.00    -0.248 NA
ATOM     41  C   UNL A   1      37.705  30.873  29.399  1.00  0.00     0.031 C 
ATOM     42  C   UNL A   1      37.157  33.950  33.335  1.00  0.00     0.029 A 
ATOM     43  N   UNL A   1      38.800  32.437  33.438  1.00  0.00    -0.354 N 
ATOM     44  C   UNL A   1      39.425  29.613  30.229  1.00  0.00     0.074 A 
ATOM     45  C   UNL A   1      38.462  29.810  29.168  1.00  0.00     0.031 C 
ATOM     46  C   UNL A   1      37.776  34.109  34.515  1.00  0.00     0.029 A 
ATOM     47  C   UNL A   1      38.847  33.123  34.627  1.00  0.00     0.049 A 
ATOM     48  H   UNL A   1      39.418  31.706  33.212  1.00  0.00     0.167 HD
ATOM     49  C   UNL A   1      40.395  28.668  30.219  1.00  0.00     0.037 A 
ATOM     50  C   UNL A   1      39.660  32.970  35.689  1.00  0.00     0.037 A 
ATOM     51  C   UNL A   1      41.367  28.489  31.266  1.00  0.00     0.049 A 
ATOM     52  C   UNL A   1      40.731  31.915  35.649  1.00  0.00     0.074 A 
ATOM     53  C   UNL A   1      42.427  27.602  31.319  1.00  0.00     0.029 A 
ATOM     54  N   UNL A   1      41.394  29.213  32.449  1.00  0.00    -0.354 N 
ATOM     55  N   UNL A   1      41.014  31.059  34.698  1.00  0.00    -0.248 NA
ATOM     56  C   UNL A   1      41.599  31.809  36.831  1.00  0.00     0.031 C 
ATOM     57  C   UNL A   1      43.071  27.761  32.551  1.00  0.00     0.029 A 
ATOM     58  C   UNL A   1      42.439  28.778  33.248  1.00  0.00     0.049 A 
ATOM     59  H   UNL A   1      40.762  29.931  32.686  1.00  0.00     0.167 HD
ATOM     60  C   UNL A   1      42.103  30.330  35.153  1.00  0.00     0.074 A 
ATOM     61  C   UNL A   1      42.443  30.857  36.459  1.00  0.00     0.031 C 
ATOM     62  C   UNL A   1      42.764  29.314  34.545  1.00  0.00     0.037 A 
BRANCH  49  63
ATOM     63  C   UNL A   1      40.458  27.753  29.031  1.00  0.00     0.064 A 
ATOM     64  C   UNL A   1      39.688  26.582  28.964  1.00  0.00     0.173 A 
ATOM     65  C   UNL A   1      41.268  28.068  27.928  1.00  0.00     0.173 A 
ATOM     66  F   UNL A   1      38.906  26.229  29.995  1.00  0.00    -0.203 F 
ATOM     67  C   UNL A   1      39.747  25.746  27.852  1.00  0.00     0.198 A 
ATOM     68  C   UNL A   1      41.302  27.245  26.805  1.00  0.00     0.198 A 
ATOM     69  F   UNL A   1      42.019  29.179  27.937  1.00  0.00    -0.203 F 
ATOM     70  F   UNL A   1      39.037  24.610  27.831  1.00  0.00    -0.200 F 
ATOM     71  C   UNL A   1      40.548  26.082  26.770  1.00  0.00     0.200 A 
ATOM     72  F   UNL A   1      42.068  27.577  25.756  1.00  0.00    -0.200 F 
ATOM     73  F   UNL A   1      40.599  25.281  25.697  1.00  0.00    -0.200 F 
ENDBRANCH  49  63
BRANCH  50  74
ATOM     74  C   UNL A   1      39.510  33.859  36.869  1.00  0.00     0.064 A 
ATOM     75  C   UNL A   1      40.138  35.111  36.909  1.00  0.00     0.173 A 
ATOM     76  C   UNL A   1      38.738  33.480  37.977  1.00  0.00     0.173 A 
ATOM     77  F   UNL A   1      40.903  35.509  35.881  1.00  0.00    -0.203 F 
ATOM     78  C   UNL A   1      40.015  35.944  38.020  1.00  0.00     0.198 A 
ATOM     79  C   UNL A   1      38.595  34.324  39.076  1.00  0.00     0.198 A 
ATOM     80  F   UNL A   1      38.113  32.293  37.985  1.00  0.00    -0.203 F 
ATOM     81  F   UNL A   1      40.660  37.117  38.049  1.00  0.00    -0.200 F 
ATOM     82  C   UNL A   1      39.239  35.551  39.099  1.00  0.00     0.200 A 
ATOM     83  F   UNL A   1      37.833  33.948  40.112  1.00  0.00    -0.200 F 
ATOM     84  F   UNL A   1      39.118  36.353  40.166  1.00  0.00    -0.200 F 
ENDBRANCH  50  74
BRANCH  62  85
ATOM     85  C   UNL A   1      43.933  28.723  35.275  1.00  0.00     0.064 A 
ATOM     86  C   UNL A   1      43.780  27.634  36.146  1.00  0.00     0.173 A 
ATOM     87  C   UNL A   1      45.226  29.235  35.081  1.00  0.00     0.173 A 
ATOM     88  F   UNL A   1      42.562  27.122  36.378  1.00  0.00    -0.203 F 
ATOM     89  C   UNL A   1      44.876  27.095  36.815  1.00  0.00     0.198 A 
ATOM     90  C   UNL A   1      46.322  28.675  35.731  1.00  0.00     0.198 A 
ATOM     91  F   UNL A   1      45.425  30.272  34.255  1.00  0.00    -0.203 F 
ATOM     92  F   UNL A   1      44.700  26.086  37.680  1.00  0.00    -0.200 F 
ATOM     93  C   UNL A   1      46.145  27.611  36.602  1.00  0.00     0.200 A 
ATOM     94  F   UNL A   1      47.550  29.167  35.515  1.00  0.00    -0.200 F 
ATOM     95  F   UNL A   1      47.199  27.089  37.245  1.00  0.00    -0.200 F 
ENDBRANCH  62  85
ENDBRANCH  36  37
ENDBRANCH  28  31
ENDBRANCH  26  27
ENDBRANCH  25  26
ENDBRANCH  24  25
ENDBRANCH   1  24
TORSDOF 19
ENDMDL
MODEL 3
REMARK VINA RESULT:     -11.1      0.992      2.098
REMARK SMILES CCCC[C@@H](C(=O)NCCCCCCNC(=O)c1ccc(-c2c3nc(c(-c4c(F)c(F)c(F)c(F)c4F)c4ccc([nH]4)c(-c4c(F)c(F)c(F)c(F)c4F)c4nc(c(-c5c(F)c(F)c(F)c(F)c5F)c5ccc2[nH]5)C=C4)C=C3)cc1)[C@H](O)c1ccc(Br)cc1F
REMARK SMILES IDX 11 1 10 2 9 3 8 4 6 5 7 6 5 8 4 9 3 10 2 11 1 12 81 13 83 14
REMARK SMILES IDX 84 15 89 16 85 17 88 18 90 19 86 20 87 21 82 22 12 24 13 25
REMARK SMILES IDX 14 26 15 27 16 28 17 30 18 31 19 32 80 33 20 34 79 35 21 36
REMARK SMILES IDX 22 37 23 38 73 39 24 40 78 41 72 42 74 43 25 44 77 45 71 46
REMARK SMILES IDX 70 47 26 49 58 50 38 51 57 52 39 53 42 54 56 55 75 56 40 57
REMARK SMILES IDX 41 58 55 60 76 61 43 62 27 63 28 64 36 65 29 66 30 67 34 68
REMARK SMILES IDX 37 69 31 70 32 71 35 72 33 73 59 74 60 75 68 76 61 77 62 78
REMARK SMILES IDX 66 79 69 80 63 81 64 82 67 83 65 84 44 85 45 86 53 87 46 88
REMARK SMILES IDX 47 89 51 90 54 91 48 92 49 93 52 94 50 95
REMARK H PARENT 8 7 82 23 15 29 74 48 42 59
REMARK Flexibility Score: inf
ROOT
ATOM      1  C   UNL A   1      32.590  30.118  26.496  1.00  0.00     0.002 C 
ENDROOT
BRANCH   1   2
ATOM      2  C   UNL A   1      32.723  28.722  25.888  1.00  0.00     0.021 C 
BRANCH   2   3
ATOM      3  C   UNL A   1      32.690  27.585  26.914  1.00  0.00     0.116 C 
BRANCH   3   4
ATOM      4  N   UNL A   1      31.373  26.987  26.950  1.00  0.00    -0.356 N 
ATOM      5  C   UNL A   1      30.810  25.983  26.226  1.00  0.00     0.226 C 
ATOM      6  O   UNL A   1      29.616  25.776  26.457  1.00  0.00    -0.275 OA
ATOM      7  H   UNL A   1      30.771  27.382  27.621  1.00  0.00     0.163 HD
BRANCH   5   8
ATOM      8  C   UNL A   1      31.615  25.124  25.237  1.00  0.00     0.112 C 
BRANCH   8   9
ATOM      9  C   UNL A   1      30.878  24.752  23.932  1.00  0.00     0.016 C 
BRANCH   9  10
ATOM     10  C   UNL A   1      31.263  25.418  22.611  1.00  0.00     0.001 C 
BRANCH  10  11
ATOM     11  C   UNL A   1      32.220  26.609  22.713  1.00  0.00    -0.003 C 
ATOM     12  C   UNL A   1      33.645  26.270  22.307  1.00  0.00     0.004 C 
ENDBRANCH  10  11
ENDBRANCH   9  10
ENDBRANCH   8   9
BRANCH   8  13
ATOM     13  C   UNL A   1      32.087  23.829  25.999  1.00  0.00     0.160 C 
BRANCH  13  14
ATOM     14  C   UNL A   1      33.543  23.384  25.873  1.00  0.00     0.017 A 
ATOM     15  C   UNL A   1      34.504  24.283  25.375  1.00  0.00     0.010 A 
ATOM     16  C   UNL A   1      33.997  22.109  26.238  1.00  0.00     0.130 A 
ATOM     17  C   UNL A   1      35.859  23.936  25.308  1.00  0.00     0.016 A 
ATOM     18  C   UNL A   1      35.348  21.762  26.205  1.00  0.00     0.055 A 
ATOM     19  F   UNL A   1      33.138  21.155  26.615  1.00  0.00    -0.207 F 
ATOM     20  C   UNL A   1      36.277  22.683  25.745  1.00  0.00     0.020 A 
ATOM     21  Br  UNL A   1      38.109  22.228  25.706  1.00  0.00    -0.051 Br
ENDBRANCH  13  14
BRANCH  13  22
ATOM     22  O   UNL A   1      31.726  23.950  27.382  1.00  0.00    -0.387 OA
ATOM     23  H   UNL A   1      32.417  23.552  27.934  1.00  0.00     0.211 HD
ENDBRANCH  13  22
ENDBRANCH   8  13
ENDBRANCH   5   8
ENDBRANCH   3   4
ENDBRANCH   2   3
ENDBRANCH   1   2
BRANCH   1  24
ATOM     24  C   UNL A   1      31.336  30.883  26.058  1.00  0.00     0.002 C 
BRANCH  24  25
ATOM     25  C   UNL A   1      31.280  32.359  26.470  1.00  0.00     0.021 C 
BRANCH  25  26
ATOM     26  C   UNL A   1      32.509  32.875  27.217  1.00  0.00     0.116 C 
BRANCH  26  27
ATOM     27  N   UNL A   1      32.358  34.262  27.625  1.00  0.00    -0.352 N 
ATOM     28  C   UNL A   1      32.979  34.959  28.629  1.00  0.00     0.251 C 
ATOM     29  H   UNL A   1      31.709  34.782  27.098  1.00  0.00     0.163 HD
ATOM     30  O   UNL A   1      32.562  36.066  28.956  1.00  0.00    -0.269 OA
BRANCH  28  31
ATOM     31  C   UNL A   1      34.144  34.382  29.334  1.00  0.00     0.039 A 
ATOM     32  C   UNL A   1      33.933  33.716  30.546  1.00  0.00     0.014 A 
ATOM     33  C   UNL A   1      35.440  34.532  28.834  1.00  0.00     0.014 A 
ATOM     34  C   UNL A   1      35.015  33.154  31.227  1.00  0.00     0.010 A 
ATOM     35  C   UNL A   1      36.510  33.918  29.482  1.00  0.00     0.010 A 
ATOM     36  C   UNL A   1      36.308  33.226  30.685  1.00  0.00    -0.014 A 
BRANCH  36  37
ATOM     37  C   UNL A   1      37.456  32.574  31.364  1.00  0.00     0.031 A 
ATOM     38  C   UNL A   1      38.169  31.420  30.718  1.00  0.00     0.074 A 
ATOM     39  C   UNL A   1      37.821  32.990  32.592  1.00  0.00     0.049 A 
ATOM     40  N   UNL A   1      39.157  30.693  31.179  1.00  0.00    -0.248 NA
ATOM     41  C   UNL A   1      37.692  31.010  29.388  1.00  0.00     0.031 C 
ATOM     42  C   UNL A   1      37.178  34.069  33.343  1.00  0.00     0.029 A 
ATOM     43  N   UNL A   1      38.815  32.548  33.430  1.00  0.00    -0.354 N 
ATOM     44  C   UNL A   1      39.411  29.738  30.203  1.00  0.00     0.074 A 
ATOM     45  C   UNL A   1      38.443  29.945  29.147  1.00  0.00     0.031 C 
ATOM     46  C   UNL A   1      37.804  34.218  34.521  1.00  0.00     0.029 A 
ATOM     47  C   UNL A   1      38.871  33.227  34.622  1.00  0.00     0.049 A 
ATOM     48  H   UNL A   1      39.429  31.816  33.197  1.00  0.00     0.167 HD
ATOM     49  C   UNL A   1      40.377  28.789  30.182  1.00  0.00     0.037 A 
ATOM     50  C   UNL A   1      39.689  33.066  35.679  1.00  0.00     0.037 A 
ATOM     51  C   UNL A   1      41.354  28.601  31.224  1.00  0.00     0.049 A 
ATOM     52  C   UNL A   1      40.755  32.006  35.628  1.00  0.00     0.074 A 
ATOM     53  C   UNL A   1      42.410  27.709  31.266  1.00  0.00     0.029 A 
ATOM     54  N   UNL A   1      41.390  29.319  32.410  1.00  0.00    -0.354 N 
ATOM     55  N   UNL A   1      41.030  31.154  34.671  1.00  0.00    -0.248 NA
ATOM     56  C   UNL A   1      41.630  31.891  36.804  1.00  0.00     0.031 C 
ATOM     57  C   UNL A   1      43.062  27.859  32.496  1.00  0.00     0.029 A 
ATOM     58  C   UNL A   1      42.438  28.875  33.201  1.00  0.00     0.049 A 
ATOM     59  H   UNL A   1      40.763  30.038  32.654  1.00  0.00     0.167 HD
ATOM     60  C   UNL A   1      42.118  30.418  35.116  1.00  0.00     0.074 A 
ATOM     61  C   UNL A   1      42.467  30.937  36.423  1.00  0.00     0.031 C 
ATOM     62  C   UNL A   1      42.772  29.403  34.499  1.00  0.00     0.037 A 
BRANCH  49  63
ATOM     63  C   UNL A   1      40.430  27.880  28.989  1.00  0.00     0.064 A 
ATOM     64  C   UNL A   1      41.254  28.160  27.889  1.00  0.00     0.173 A 
ATOM     65  C   UNL A   1      39.678  26.695  28.961  1.00  0.00     0.173 A 
ATOM     66  F   UNL A   1      41.985  29.284  27.862  1.00  0.00    -0.203 F 
ATOM     67  C   UNL A   1      41.303  27.302  26.793  1.00  0.00     0.198 A 
ATOM     68  C   UNL A   1      39.751  25.826  27.875  1.00  0.00     0.198 A 
ATOM     69  F   UNL A   1      38.878  26.377  29.989  1.00  0.00    -0.203 F 
ATOM     70  F   UNL A   1      42.062  27.613  25.733  1.00  0.00    -0.200 F 
ATOM     71  C   UNL A   1      40.557  26.133  26.790  1.00  0.00     0.200 A 
ATOM     72  F   UNL A   1      39.038  24.690  27.879  1.00  0.00    -0.200 F 
ATOM     73  F   UNL A   1      40.609  25.305  25.737  1.00  0.00    -0.200 F 
ENDBRANCH  49  63
BRANCH  50  74
ATOM     74  C   UNL A   1      39.549  33.949  36.864  1.00  0.00     0.064 A 
ATOM     75  C   UNL A   1      38.778  33.554  37.967  1.00  0.00     0.173 A 
ATOM     76  C   UNL A   1      40.179  35.200  36.923  1.00  0.00     0.173 A 
ATOM     77  F   UNL A   1      38.140  32.374  37.949  1.00  0.00    -0.203 F 
ATOM     78  C   UNL A   1      38.629  34.385  39.076  1.00  0.00     0.198 A 
ATOM     79  C   UNL A   1      40.050  36.019  38.042  1.00  0.00     0.198 A 
ATOM     80  F   UNL A   1      40.931  35.622  35.896  1.00  0.00    -0.203 F 
ATOM     81  F   UNL A   1      37.854  34.000  40.098  1.00  0.00    -0.200 F 
ATOM     82  C   UNL A   1      39.271  35.614  39.114  1.00  0.00     0.200 A 
ATOM     83  F   UNL A   1      40.683  37.199  38.083  1.00  0.00    -0.200 F 
ATOM     84  F   UNL A   1      39.130  36.410  40.183  1.00  0.00    -0.200 F 
ENDBRANCH  50  74
BRANCH  62  85
ATOM     85  C   UNL A   1      43.942  28.803  35.220  1.00  0.00     0.064 A 
ATOM     86  C   UNL A   1      45.245  29.285  35.032  1.00  0.00     0.173 A 
ATOM     87  C   UNL A   1      43.753  27.753  36.133  1.00  0.00     0.173 A 
ATOM     88  F   UNL A   1      45.479  30.275  34.158  1.00  0.00    -0.203 F 
ATOM     89  C   UNL A   1      46.322  28.720  35.712  1.00  0.00     0.198 A 
ATOM     90  C   UNL A   1      44.828  27.210  36.831  1.00  0.00     0.198 A 
ATOM     91  F   UNL A   1      42.525  27.260  36.352  1.00  0.00    -0.203 F 
ATOM     92  F   UNL A   1      47.565  29.164  35.480  1.00  0.00    -0.200 F 
ATOM     93  C   UNL A   1      46.112  27.688  36.614  1.00  0.00     0.200 A 
ATOM     94  F   UNL A   1      44.622  26.221  37.711  1.00  0.00    -0.200 F 
ATOM     95  F   UNL A   1      47.148  27.148  37.270  1.00  0.00    -0.200 F 
ENDBRANCH  62  85
ENDBRANCH  36  37
ENDBRANCH  28  31
ENDBRANCH  26  27
ENDBRANCH  25  26
ENDBRANCH  24  25
ENDBRANCH   1  24
TORSDOF 19
ENDMDL
