MODEL 1
REMARK VINA RESULT:     -11.9      0.000      0.000
REMARK SMILES O=C(NCCCCCCNC(=O)c1cnccc1-c1cccc(C(F)(F)F)c1)c1ccc(-c2c3nc(c(-c4c(F)c(F)c(F)c(F)c4F)c4ccc([nH]4)c(-c4c(F)c(F)c(F)c(F)c4F)c4nc(c(-c5c(F)c(F)c(F)c(F)c5F)c5ccc2[nH]5)C=C4)C=C3)cc1
REMARK SMILES IDX 6 1 5 2 4 3 3 4 1 5 2 6 29 8 30 9 91 10 31 11 90 12 32 13
REMARK SMILES IDX 33 14 34 15 84 16 35 17 89 18 83 19 85 20 36 21 88 22 82 23
REMARK SMILES IDX 81 24 37 26 69 27 49 28 68 29 50 30 53 31 67 32 86 33 51 34
REMARK SMILES IDX 52 35 66 37 87 38 54 39 38 40 39 41 47 42 40 43 41 44 45 45
REMARK SMILES IDX 48 46 42 47 43 48 46 49 44 50 70 51 71 52 79 53 72 54 73 55
REMARK SMILES IDX 77 56 80 57 74 58 75 59 78 60 76 61 55 62 56 63 64 64 57 65
REMARK SMILES IDX 58 66 62 67 65 68 59 69 60 70 63 71 61 72 7 73 8 74 9 75
REMARK SMILES IDX 10 76 11 77 12 79 13 80 14 81 18 82 15 83 17 84 16 85 19 86
REMARK SMILES IDX 20 87 28 88 21 89 23 90 22 91 24 92 25 93 26 94 27 95
REMARK H PARENT 3 7 85 25 53 36 10 78
REMARK Flexibility Score: inf
ROOT
ATOM      1  C   UNL A   1      30.606  31.603  25.352  1.00  0.00     0.002 C 
ENDROOT
BRANCH   1   2
ATOM      2  C   UNL A   1      31.104  31.940  26.757  1.00  0.00     0.021 C 
BRANCH   2   3
ATOM      3  C   UNL A   1      32.407  32.724  26.831  1.00  0.00     0.116 C 
BRANCH   3   4
ATOM      4  N   UNL A   1      32.274  34.015  27.483  1.00  0.00    -0.352 N 
ATOM      5  O   UNL A   1      32.721  35.652  28.973  1.00  0.00    -0.269 OA
ATOM      6  C   UNL A   1      33.043  34.577  28.476  1.00  0.00     0.251 C 
ATOM      7  H   UNL A   1      31.525  34.570  27.169  1.00  0.00     0.163 HD
BRANCH   6   8
ATOM      8  C   UNL A   1      34.239  33.865  28.981  1.00  0.00     0.039 A 
ATOM      9  C   UNL A   1      34.118  32.744  29.805  1.00  0.00     0.014 A 
ATOM     10  C   UNL A   1      35.507  34.340  28.631  1.00  0.00     0.014 A 
ATOM     11  C   UNL A   1      35.250  32.207  30.410  1.00  0.00     0.010 A 
ATOM     12  C   UNL A   1      36.650  33.742  29.172  1.00  0.00     0.010 A 
ATOM     13  C   UNL A   1      36.530  32.700  30.103  1.00  0.00    -0.014 A 
BRANCH  13  14
ATOM     14  C   UNL A   1      37.718  32.093  30.757  1.00  0.00     0.031 A 
ATOM     15  C   UNL A   1      38.097  32.446  32.170  1.00  0.00     0.074 A 
ATOM     16  C   UNL A   1      38.436  31.176  30.079  1.00  0.00     0.049 A 
ATOM     17  N   UNL A   1      39.064  31.963  32.911  1.00  0.00    -0.248 NA
ATOM     18  C   UNL A   1      37.292  33.479  32.839  1.00  0.00     0.031 C 
ATOM     19  C   UNL A   1      38.180  30.763  28.698  1.00  0.00     0.029 A 
ATOM     20  N   UNL A   1      39.506  30.408  30.463  1.00  0.00    -0.354 N 
ATOM     21  C   UNL A   1      39.001  32.650  34.117  1.00  0.00     0.074 A 
ATOM     22  C   UNL A   1      37.915  33.599  34.003  1.00  0.00     0.031 C 
ATOM     23  C   UNL A   1      39.029  29.778  28.370  1.00  0.00     0.029 A 
ATOM     24  C   UNL A   1      39.923  29.528  29.494  1.00  0.00     0.049 A 
ATOM     25  H   UNL A   1      39.934  30.481  31.347  1.00  0.00     0.167 HD
ATOM     26  C   UNL A   1      39.774  32.495  35.220  1.00  0.00     0.037 A 
ATOM     27  C   UNL A   1      40.917  28.621  29.509  1.00  0.00     0.037 A 
ATOM     28  C   UNL A   1      40.837  31.531  35.341  1.00  0.00     0.049 A 
ATOM     29  C   UNL A   1      41.753  28.469  30.747  1.00  0.00     0.074 A 
ATOM     30  C   UNL A   1      41.643  31.266  36.436  1.00  0.00     0.029 A 
ATOM     31  N   UNL A   1      41.245  30.672  34.330  1.00  0.00    -0.354 N 
ATOM     32  N   UNL A   1      41.651  29.092  31.896  1.00  0.00    -0.248 NA
ATOM     33  C   UNL A   1      42.843  27.487  30.689  1.00  0.00     0.031 C 
ATOM     34  C   UNL A   1      42.565  30.278  36.074  1.00  0.00     0.029 A 
ATOM     35  C   UNL A   1      42.303  29.892  34.769  1.00  0.00     0.049 A 
ATOM     36  H   UNL A   1      40.841  30.624  33.433  1.00  0.00     0.167 HD
ATOM     37  C   UNL A   1      42.647  28.564  32.704  1.00  0.00     0.074 A 
ATOM     38  C   UNL A   1      43.331  27.555  31.920  1.00  0.00     0.031 C 
ATOM     39  C   UNL A   1      42.969  28.887  33.979  1.00  0.00     0.037 A 
BRANCH  26  40
ATOM     40  C   UNL A   1      39.512  33.403  36.388  1.00  0.00     0.064 A 
ATOM     41  C   UNL A   1      38.658  33.031  37.437  1.00  0.00     0.173 A 
ATOM     42  C   UNL A   1      40.164  34.642  36.483  1.00  0.00     0.173 A 
ATOM     43  F   UNL A   1      38.001  31.862  37.391  1.00  0.00    -0.203 F 
ATOM     44  C   UNL A   1      38.449  33.875  38.525  1.00  0.00     0.198 A 
ATOM     45  C   UNL A   1      39.974  35.473  37.585  1.00  0.00     0.198 A 
ATOM     46  F   UNL A   1      40.998  35.043  35.511  1.00  0.00    -0.203 F 
ATOM     47  F   UNL A   1      37.596  33.517  39.495  1.00  0.00    -0.200 F 
ATOM     48  C   UNL A   1      39.112  35.092  38.602  1.00  0.00     0.200 A 
ATOM     49  F   UNL A   1      40.625  36.642  37.662  1.00  0.00    -0.200 F 
ATOM     50  F   UNL A   1      38.915  35.899  39.653  1.00  0.00    -0.200 F 
ENDBRANCH  26  40
BRANCH  27  51
ATOM     51  C   UNL A   1      41.157  27.772  28.314  1.00  0.00     0.064 A 
ATOM     52  C   UNL A   1      42.016  28.194  27.292  1.00  0.00     0.173 A 
ATOM     53  C   UNL A   1      40.541  26.519  28.176  1.00  0.00     0.173 A 
ATOM     54  F   UNL A   1      42.614  29.392  27.371  1.00  0.00    -0.203 F 
ATOM     55  C   UNL A   1      42.242  27.400  26.169  1.00  0.00     0.198 A 
ATOM     56  C   UNL A   1      40.789  25.714  27.068  1.00  0.00     0.198 A 
ATOM     57  F   UNL A   1      39.714  26.069  29.131  1.00  0.00    -0.203 F 
ATOM     58  F   UNL A   1      43.039  27.844  25.188  1.00  0.00    -0.200 F 
ATOM     59  C   UNL A   1      41.634  26.158  26.061  1.00  0.00     0.200 A 
ATOM     60  F   UNL A   1      40.214  24.508  26.976  1.00  0.00    -0.200 F 
ATOM     61  F   UNL A   1      41.858  25.392  24.986  1.00  0.00    -0.200 F 
ENDBRANCH  27  51
BRANCH  39  62
ATOM     62  C   UNL A   1      44.087  28.116  34.617  1.00  0.00     0.064 A 
ATOM     63  C   UNL A   1      43.851  26.930  35.327  1.00  0.00     0.173 A 
ATOM     64  C   UNL A   1      45.411  28.563  34.504  1.00  0.00     0.173 A 
ATOM     65  F   UNL A   1      42.600  26.470  35.477  1.00  0.00    -0.203 F 
ATOM     66  C   UNL A   1      44.898  26.236  35.926  1.00  0.00     0.198 A 
ATOM     67  C   UNL A   1      46.459  27.851  35.080  1.00  0.00     0.198 A 
ATOM     68  F   UNL A   1      45.689  29.691  33.832  1.00  0.00    -0.203 F 
ATOM     69  F   UNL A   1      44.645  25.133  36.644  1.00  0.00    -0.200 F 
ATOM     70  C   UNL A   1      46.201  26.694  35.798  1.00  0.00     0.200 A 
ATOM     71  F   UNL A   1      47.718  28.291  34.947  1.00  0.00    -0.200 F 
ATOM     72  F   UNL A   1      47.208  26.025  36.375  1.00  0.00    -0.200 F 
ENDBRANCH  39  62
ENDBRANCH  13  14
ENDBRANCH   6   8
ENDBRANCH   3   4
ENDBRANCH   2   3
ENDBRANCH   1   2
BRANCH   1  73
ATOM     73  C   UNL A   1      31.117  30.292  24.747  1.00  0.00     0.002 C 
BRANCH  73  74
ATOM     74  C   UNL A   1      30.184  29.580  23.761  1.00  0.00     0.021 C 
BRANCH  74  75
ATOM     75  C   UNL A   1      30.868  28.894  22.582  1.00  0.00     0.116 C 
BRANCH  75  76
ATOM     76  N   UNL A   1      32.275  29.215  22.475  1.00  0.00    -0.352 N 
ATOM     77  C   UNL A   1      33.354  28.371  22.547  1.00  0.00     0.253 C 
ATOM     78  H   UNL A   1      32.487  30.166  22.331  1.00  0.00     0.163 HD
ATOM     79  O   UNL A   1      34.493  28.812  22.431  1.00  0.00    -0.269 OA
BRANCH  77  80
ATOM     80  C   UNL A   1      33.170  26.934  22.809  1.00  0.00     0.065 A 
ATOM     81  C   UNL A   1      33.210  26.102  21.696  1.00  0.00     0.125 A 
ATOM     82  C   UNL A   1      32.926  26.372  24.076  1.00  0.00    -0.003 A 
ATOM     83  N   UNL A   1      33.076  24.756  21.751  1.00  0.00    -0.264 NA
ATOM     84  C   UNL A   1      32.774  24.975  24.134  1.00  0.00     0.029 A 
ATOM     85  C   UNL A   1      32.858  24.224  22.970  1.00  0.00     0.111 A 
BRANCH  82  86
ATOM     86  C   UNL A   1      32.825  27.166  25.315  1.00  0.00    -0.017 A 
ATOM     87  C   UNL A   1      31.666  27.106  26.109  1.00  0.00     0.009 A 
ATOM     88  C   UNL A   1      33.887  27.975  25.756  1.00  0.00     0.021 A 
ATOM     89  C   UNL A   1      31.583  27.794  27.321  1.00  0.00     0.001 A 
ATOM     90  C   UNL A   1      33.816  28.675  26.973  1.00  0.00     0.056 A 
ATOM     91  C   UNL A   1      32.656  28.569  27.753  1.00  0.00     0.013 A 
BRANCH  90  92
ATOM     92  C   UNL A   1      34.967  29.524  27.454  1.00  0.00     0.416 C 
ATOM     93  F   UNL A   1      36.119  29.268  26.775  1.00  0.00    -0.166 F 
ATOM     94  F   UNL A   1      34.726  30.856  27.291  1.00  0.00    -0.166 F 
ATOM     95  F   UNL A   1      35.264  29.356  28.772  1.00  0.00    -0.166 F 
ENDBRANCH  90  92
ENDBRANCH  82  86
ENDBRANCH  77  80
ENDBRANCH  75  76
ENDBRANCH  74  75
ENDBRANCH  73  74
ENDBRANCH   1  73
TORSDOF 15
ENDMDL
MODEL 2
REMARK VINA RESULT:     -11.6      2.031      3.219
REMARK SMILES O=C(NCCCCCCNC(=O)c1cnccc1-c1cccc(C(F)(F)F)c1)c1ccc(-c2c3nc(c(-c4c(F)c(F)c(F)c(F)c4F)c4ccc([nH]4)c(-c4c(F)c(F)c(F)c(F)c4F)c4nc(c(-c5c(F)c(F)c(F)c(F)c5F)c5ccc2[nH]5)C=C4)C=C3)cc1
REMARK SMILES IDX 6 1 5 2 4 3 3 4 1 5 2 6 29 8 30 9 91 10 31 11 90 12 32 13
REMARK SMILES IDX 33 14 34 15 84 16 35 17 89 18 83 19 85 20 36 21 88 22 82 23
REMARK SMILES IDX 81 24 37 26 69 27 49 28 68 29 50 30 53 31 67 32 86 33 51 34
REMARK SMILES IDX 52 35 66 37 87 38 54 39 38 40 39 41 47 42 40 43 41 44 45 45
REMARK SMILES IDX 48 46 42 47 43 48 46 49 44 50 70 51 71 52 79 53 72 54 73 55
REMARK SMILES IDX 77 56 80 57 74 58 75 59 78 60 76 61 55 62 56 63 64 64 57 65
REMARK SMILES IDX 58 66 62 67 65 68 59 69 60 70 63 71 61 72 7 73 8 74 9 75
REMARK SMILES IDX 10 76 11 77 12 79 13 80 14 81 18 82 15 83 17 84 16 85 19 86
REMARK SMILES IDX 20 87 28 88 21 89 23 90 22 91 24 92 25 93 26 94 27 95
REMARK H PARENT 3 7 85 25 53 36 10 78
REMARK Flexibility Score: inf
ROOT
ATOM      1  C   UNL A   1      31.693  30.508  25.843  1.00  0.00     0.002 C 
ENDROOT
BRANCH   1   2
ATOM      2  C   UNL A   1      31.403  31.852  26.510  1.00  0.00     0.021 C 
BRANCH   2   3
ATOM      3  C   UNL A   1      32.579  32.511  27.219  1.00  0.00     0.116 C 
BRANCH   3   4
ATOM      4  N   UNL A   1      32.335  33.893  27.592  1.00  0.00    -0.352 N 
ATOM      5  O   UNL A   1      32.590  35.814  28.751  1.00  0.00    -0.269 OA
ATOM      6  C   UNL A   1      33.001  34.685  28.498  1.00  0.00     0.251 C 
ATOM      7  H   UNL A   1      31.584  34.327  27.128  1.00  0.00     0.163 HD
BRANCH   6   8
ATOM      8  C   UNL A   1      34.191  34.162  29.207  1.00  0.00     0.039 A 
ATOM      9  C   UNL A   1      35.482  34.444  28.756  1.00  0.00     0.014 A 
ATOM     10  C   UNL A   1      34.007  33.362  30.340  1.00  0.00     0.014 A 
ATOM     11  C   UNL A   1      36.571  33.794  29.329  1.00  0.00     0.010 A 
ATOM     12  C   UNL A   1      35.112  32.780  30.970  1.00  0.00     0.010 A 
ATOM     13  C   UNL A   1      36.400  32.953  30.441  1.00  0.00    -0.014 A 
BRANCH  13  14
ATOM     14  C   UNL A   1      37.587  32.287  31.038  1.00  0.00     0.031 A 
ATOM     15  C   UNL A   1      38.043  32.611  32.435  1.00  0.00     0.074 A 
ATOM     16  C   UNL A   1      38.232  31.344  30.323  1.00  0.00     0.049 A 
ATOM     17  N   UNL A   1      39.019  32.079  33.129  1.00  0.00    -0.248 NA
ATOM     18  C   UNL A   1      37.317  33.675  33.145  1.00  0.00     0.031 C 
ATOM     19  C   UNL A   1      37.896  30.955  28.952  1.00  0.00     0.029 A 
ATOM     20  N   UNL A   1      39.281  30.525  30.655  1.00  0.00    -0.354 N 
ATOM     21  C   UNL A   1      39.040  32.758  34.341  1.00  0.00     0.074 A 
ATOM     22  C   UNL A   1      37.994  33.757  34.282  1.00  0.00     0.031 C 
ATOM     23  C   UNL A   1      38.684  29.935  28.580  1.00  0.00     0.029 A 
ATOM     24  C   UNL A   1      39.615  29.635  29.663  1.00  0.00     0.049 A 
ATOM     25  H   UNL A   1      39.750  30.572  31.519  1.00  0.00     0.167 HD
ATOM     26  C   UNL A   1      39.853  32.559  35.409  1.00  0.00     0.037 A 
ATOM     27  C   UNL A   1      40.566  28.684  29.628  1.00  0.00     0.037 A 
ATOM     28  C   UNL A   1      40.874  31.546  35.477  1.00  0.00     0.049 A 
ATOM     29  C   UNL A   1      41.447  28.484  30.828  1.00  0.00     0.074 A 
ATOM     30  C   UNL A   1      41.715  31.236  36.533  1.00  0.00     0.029 A 
ATOM     31  N   UNL A   1      41.198  30.679  34.443  1.00  0.00    -0.354 N 
ATOM     32  N   UNL A   1      41.424  29.101  31.983  1.00  0.00    -0.248 NA
ATOM     33  C   UNL A   1      42.487  27.453  30.715  1.00  0.00     0.031 C 
ATOM     34  C   UNL A   1      42.574  30.210  36.124  1.00  0.00     0.029 A 
ATOM     35  C   UNL A   1      42.237  29.847  34.830  1.00  0.00     0.049 A 
ATOM     36  H   UNL A   1      40.753  30.656  33.565  1.00  0.00     0.167 HD
ATOM     37  C   UNL A   1      42.430  28.522  32.744  1.00  0.00     0.074 A 
ATOM     38  C   UNL A   1      43.031  27.489  31.924  1.00  0.00     0.031 C 
ATOM     39  C   UNL A   1      42.821  28.820  34.006  1.00  0.00     0.037 A 
BRANCH  26  40
ATOM     40  C   UNL A   1      39.684  33.468  36.592  1.00  0.00     0.064 A 
ATOM     41  C   UNL A   1      40.343  34.704  36.676  1.00  0.00     0.173 A 
ATOM     42  C   UNL A   1      38.812  33.119  37.636  1.00  0.00     0.173 A 
ATOM     43  F   UNL A   1      41.197  35.080  35.711  1.00  0.00    -0.203 F 
ATOM     44  C   UNL A   1      40.153  35.544  37.770  1.00  0.00     0.198 A 
ATOM     45  C   UNL A   1      38.604  33.975  38.715  1.00  0.00     0.198 A 
ATOM     46  F   UNL A   1      38.151  31.953  37.602  1.00  0.00    -0.203 F 
ATOM     47  F   UNL A   1      40.826  36.702  37.848  1.00  0.00    -0.200 F 
ATOM     48  C   UNL A   1      39.279  35.184  38.785  1.00  0.00     0.200 A 
ATOM     49  F   UNL A   1      37.749  33.629  39.688  1.00  0.00    -0.200 F 
ATOM     50  F   UNL A   1      39.092  35.998  39.832  1.00  0.00    -0.200 F 
ENDBRANCH  26  40
BRANCH  27  51
ATOM     51  C   UNL A   1      40.713  27.835  28.419  1.00  0.00     0.064 A 
ATOM     52  C   UNL A   1      41.518  28.243  27.347  1.00  0.00     0.173 A 
ATOM     53  C   UNL A   1      40.064  26.595  28.316  1.00  0.00     0.173 A 
ATOM     54  F   UNL A   1      42.143  29.428  27.392  1.00  0.00    -0.203 F 
ATOM     55  C   UNL A   1      41.658  27.449  26.211  1.00  0.00     0.198 A 
ATOM     56  C   UNL A   1      40.227  25.790  27.192  1.00  0.00     0.198 A 
ATOM     57  F   UNL A   1      39.288  26.159  29.319  1.00  0.00    -0.203 F 
ATOM     58  F   UNL A   1      42.402  27.880  25.183  1.00  0.00    -0.200 F 
ATOM     59  C   UNL A   1      41.018  26.220  26.137  1.00  0.00     0.200 A 
ATOM     60  F   UNL A   1      39.622  24.596  27.133  1.00  0.00    -0.200 F 
ATOM     61  F   UNL A   1      41.160  25.454  25.048  1.00  0.00    -0.200 F 
ENDBRANCH  27  51
BRANCH  39  62
ATOM     62  C   UNL A   1      43.929  27.993  34.589  1.00  0.00     0.064 A 
ATOM     63  C   UNL A   1      45.270  28.394  34.502  1.00  0.00     0.173 A 
ATOM     64  C   UNL A   1      43.643  26.793  35.256  1.00  0.00     0.173 A 
ATOM     65  F   UNL A   1      45.596  29.525  33.859  1.00  0.00    -0.203 F 
ATOM     66  C   UNL A   1      46.287  27.607  35.034  1.00  0.00     0.198 A 
ATOM     67  C   UNL A   1      44.660  26.023  35.813  1.00  0.00     0.198 A 
ATOM     68  F   UNL A   1      42.375  26.369  35.370  1.00  0.00    -0.203 F 
ATOM     69  F   UNL A   1      47.566  27.982  34.894  1.00  0.00    -0.200 F 
ATOM     70  C   UNL A   1      45.981  26.426  35.694  1.00  0.00     0.200 A 
ATOM     71  F   UNL A   1      44.361  24.887  36.457  1.00  0.00    -0.200 F 
ATOM     72  F   UNL A   1      46.961  25.669  36.206  1.00  0.00    -0.200 F 
ENDBRANCH  39  62
ENDBRANCH  13  14
ENDBRANCH   6   8
ENDBRANCH   3   4
ENDBRANCH   2   3
ENDBRANCH   1   2
BRANCH   1  73
ATOM     73  C   UNL A   1      31.832  29.303  26.776  1.00  0.00     0.002 C 
BRANCH  73  74
ATOM     74  C   UNL A   1      33.023  28.370  26.525  1.00  0.00     0.021 C 
BRANCH  74  75
ATOM     75  C   UNL A   1      32.707  26.879  26.531  1.00  0.00     0.116 C 
BRANCH  75  76
ATOM     76  N   UNL A   1      31.311  26.593  26.788  1.00  0.00    -0.352 N 
ATOM     77  C   UNL A   1      30.489  25.699  26.150  1.00  0.00     0.253 C 
ATOM     78  H   UNL A   1      30.897  27.108  27.517  1.00  0.00     0.163 HD
ATOM     79  O   UNL A   1      29.318  25.578  26.500  1.00  0.00    -0.269 OA
BRANCH  77  80
ATOM     80  C   UNL A   1      30.978  24.905  25.012  1.00  0.00     0.065 A 
ATOM     81  C   UNL A   1      31.271  23.572  25.280  1.00  0.00     0.125 A 
ATOM     82  C   UNL A   1      31.196  25.408  23.716  1.00  0.00    -0.003 A 
ATOM     83  N   UNL A   1      31.715  22.694  24.350  1.00  0.00    -0.264 NA
ATOM     84  C   UNL A   1      31.669  24.499  22.752  1.00  0.00     0.029 A 
ATOM     85  C   UNL A   1      31.906  23.179  23.108  1.00  0.00     0.111 A 
BRANCH  82  86
ATOM     86  C   UNL A   1      30.955  26.812  23.334  1.00  0.00    -0.017 A 
ATOM     87  C   UNL A   1      32.027  27.645  22.966  1.00  0.00     0.009 A 
ATOM     88  C   UNL A   1      29.657  27.348  23.292  1.00  0.00     0.021 A 
ATOM     89  C   UNL A   1      31.810  28.954  22.533  1.00  0.00     0.001 A 
ATOM     90  C   UNL A   1      29.423  28.666  22.860  1.00  0.00     0.056 A 
ATOM     91  C   UNL A   1      30.513  29.459  22.474  1.00  0.00     0.013 A 
BRANCH  90  92
ATOM     92  C   UNL A   1      28.025  29.231  22.795  1.00  0.00     0.416 C 
ATOM     93  F   UNL A   1      27.857  30.295  23.628  1.00  0.00    -0.166 F 
ATOM     94  F   UNL A   1      27.710  29.680  21.548  1.00  0.00    -0.166 F 
ATOM     95  F   UNL A   1      27.054  28.337  23.127  1.00  0.00    -0.166 F 
ENDBRANCH  90  92
ENDBRANCH  82  86
ENDBRANCH  77  80
ENDBRANCH  75  76
ENDBRANCH  74  75
ENDBRANCH  73  74
ENDBRANCH   1  73
TORSDOF 15
ENDMDL
MODEL 3
REMARK VINA RESULT:     -11.5      2.004      3.009
REMARK SMILES O=C(NCCCCCCNC(=O)c1cnccc1-c1cccc(C(F)(F)F)c1)c1ccc(-c2c3nc(c(-c4c(F)c(F)c(F)c(F)c4F)c4ccc([nH]4)c(-c4c(F)c(F)c(F)c(F)c4F)c4nc(c(-c5c(F)c(F)c(F)c(F)c5F)c5ccc2[nH]5)C=C4)C=C3)cc1
REMARK SMILES IDX 6 1 5 2 4 3 3 4 1 5 2 6 29 8 30 9 91 10 31 11 90 12 32 13
REMARK SMILES IDX 33 14 34 15 84 16 35 17 89 18 83 19 85 20 36 21 88 22 82 23
REMARK SMILES IDX 81 24 37 26 69 27 49 28 68 29 50 30 53 31 67 32 86 33 51 34
REMARK SMILES IDX 52 35 66 37 87 38 54 39 38 40 39 41 47 42 40 43 41 44 45 45
REMARK SMILES IDX 48 46 42 47 43 48 46 49 44 50 70 51 71 52 79 53 72 54 73 55
REMARK SMILES IDX 77 56 80 57 74 58 75 59 78 60 76 61 55 62 56 63 64 64 57 65
REMARK SMILES IDX 58 66 62 67 65 68 59 69 60 70 63 71 61 72 7 73 8 74 9 75
REMARK SMILES IDX 10 76 11 77 12 79 13 80 14 81 18 82 15 83 17 84 16 85 19 86
REMARK SMILES IDX 20 87 28 88 21 89 23 90 22 91 24 92 25 93 26 94 27 95
REMARK H PARENT 3 7 85 25 53 36 10 78
REMARK Flexibility Score: inf
ROOT
ATOM      1  C   UNL A   1      31.682  30.448  25.880  1.00  0.00     0.002 C 
ENDROOT
BRANCH   1   2
ATOM      2  C   UNL A   1      31.404  31.808  26.519  1.00  0.00     0.021 C 
BRANCH   2   3
ATOM      3  C   UNL A   1      32.591  32.480  27.196  1.00  0.00     0.116 C 
BRANCH   3   4
ATOM      4  N   UNL A   1      32.341  33.860  27.574  1.00  0.00    -0.352 N 
ATOM      5  O   UNL A   1      32.588  35.776  28.742  1.00  0.00    -0.269 OA
ATOM      6  C   UNL A   1      33.003  34.650  28.486  1.00  0.00     0.251 C 
ATOM      7  H   UNL A   1      31.591  34.294  27.109  1.00  0.00     0.163 HD
BRANCH   6   8
ATOM      8  C   UNL A   1      34.192  34.128  29.196  1.00  0.00     0.039 A 
ATOM      9  C   UNL A   1      35.484  34.446  28.773  1.00  0.00     0.014 A 
ATOM     10  C   UNL A   1      34.007  33.291  30.302  1.00  0.00     0.014 A 
ATOM     11  C   UNL A   1      36.576  33.798  29.342  1.00  0.00     0.010 A 
ATOM     12  C   UNL A   1      35.113  32.711  30.931  1.00  0.00     0.010 A 
ATOM     13  C   UNL A   1      36.405  32.922  30.426  1.00  0.00    -0.014 A 
BRANCH  13  14
ATOM     14  C   UNL A   1      37.595  32.260  31.021  1.00  0.00     0.031 A 
ATOM     15  C   UNL A   1      38.050  32.581  32.419  1.00  0.00     0.074 A 
ATOM     16  C   UNL A   1      38.244  31.322  30.303  1.00  0.00     0.049 A 
ATOM     17  N   UNL A   1      39.028  32.052  33.111  1.00  0.00    -0.248 NA
ATOM     18  C   UNL A   1      37.319  33.639  33.133  1.00  0.00     0.031 C 
ATOM     19  C   UNL A   1      37.910  30.936  28.931  1.00  0.00     0.029 A 
ATOM     20  N   UNL A   1      39.297  30.507  30.631  1.00  0.00    -0.354 N 
ATOM     21  C   UNL A   1      39.046  32.727  34.326  1.00  0.00     0.074 A 
ATOM     22  C   UNL A   1      37.996  33.720  34.269  1.00  0.00     0.031 C 
ATOM     23  C   UNL A   1      38.703  29.921  28.555  1.00  0.00     0.029 A 
ATOM     24  C   UNL A   1      39.635  29.622  29.637  1.00  0.00     0.049 A 
ATOM     25  H   UNL A   1      39.766  30.553  31.496  1.00  0.00     0.167 HD
ATOM     26  C   UNL A   1      39.860  32.528  35.392  1.00  0.00     0.037 A 
ATOM     27  C   UNL A   1      40.591  28.676  29.598  1.00  0.00     0.037 A 
ATOM     28  C   UNL A   1      40.887  31.520  35.456  1.00  0.00     0.049 A 
ATOM     29  C   UNL A   1      41.474  28.476  30.797  1.00  0.00     0.074 A 
ATOM     30  C   UNL A   1      41.729  31.210  36.511  1.00  0.00     0.029 A 
ATOM     31  N   UNL A   1      41.215  30.657  34.420  1.00  0.00    -0.354 N 
ATOM     32  N   UNL A   1      41.448  29.089  31.955  1.00  0.00    -0.248 NA
ATOM     33  C   UNL A   1      42.518  27.451  30.681  1.00  0.00     0.031 C 
ATOM     34  C   UNL A   1      42.593  30.190  36.099  1.00  0.00     0.029 A 
ATOM     35  C   UNL A   1      42.258  29.829  34.804  1.00  0.00     0.049 A 
ATOM     36  H   UNL A   1      40.770  30.636  33.541  1.00  0.00     0.167 HD
ATOM     37  C   UNL A   1      42.456  28.512  32.713  1.00  0.00     0.074 A 
ATOM     38  C   UNL A   1      43.062  27.485  31.889  1.00  0.00     0.031 C 
ATOM     39  C   UNL A   1      42.846  28.808  33.976  1.00  0.00     0.037 A 
BRANCH  26  40
ATOM     40  C   UNL A   1      39.688  33.432  36.578  1.00  0.00     0.064 A 
ATOM     41  C   UNL A   1      40.338  34.672  36.665  1.00  0.00     0.173 A 
ATOM     42  C   UNL A   1      38.820  33.074  37.622  1.00  0.00     0.173 A 
ATOM     43  F   UNL A   1      41.187  35.058  35.700  1.00  0.00    -0.203 F 
ATOM     44  C   UNL A   1      40.144  35.508  37.761  1.00  0.00     0.198 A 
ATOM     45  C   UNL A   1      38.608  33.925  38.705  1.00  0.00     0.198 A 
ATOM     46  F   UNL A   1      38.167  31.903  37.587  1.00  0.00    -0.203 F 
ATOM     47  F   UNL A   1      40.809  36.670  37.842  1.00  0.00    -0.200 F 
ATOM     48  C   UNL A   1      39.275  35.138  38.777  1.00  0.00     0.200 A 
ATOM     49  F   UNL A   1      37.758  33.569  39.679  1.00  0.00    -0.200 F 
ATOM     50  F   UNL A   1      39.084  35.948  39.827  1.00  0.00    -0.200 F 
ENDBRANCH  26  40
BRANCH  27  51
ATOM     51  C   UNL A   1      40.742  27.831  28.386  1.00  0.00     0.064 A 
ATOM     52  C   UNL A   1      41.545  28.246  27.316  1.00  0.00     0.173 A 
ATOM     53  C   UNL A   1      40.098  26.589  28.279  1.00  0.00     0.173 A 
ATOM     54  F   UNL A   1      42.167  29.433  27.366  1.00  0.00    -0.203 F 
ATOM     55  C   UNL A   1      41.689  27.456  26.177  1.00  0.00     0.198 A 
ATOM     56  C   UNL A   1      40.264  25.789  27.152  1.00  0.00     0.198 A 
ATOM     57  F   UNL A   1      39.322  26.147  29.279  1.00  0.00    -0.203 F 
ATOM     58  F   UNL A   1      42.432  27.893  25.152  1.00  0.00    -0.200 F 
ATOM     59  C   UNL A   1      41.054  26.225  26.098  1.00  0.00     0.200 A 
ATOM     60  F   UNL A   1      39.663  24.593  27.088  1.00  0.00    -0.200 F 
ATOM     61  F   UNL A   1      41.199  25.464  25.007  1.00  0.00    -0.200 F 
ENDBRANCH  27  51
BRANCH  39  62
ATOM     62  C   UNL A   1      43.959  27.985  34.556  1.00  0.00     0.064 A 
ATOM     63  C   UNL A   1      43.710  26.772  35.215  1.00  0.00     0.173 A 
ATOM     64  C   UNL A   1      45.290  28.408  34.437  1.00  0.00     0.173 A 
ATOM     65  F   UNL A   1      42.452  26.333  35.369  1.00  0.00    -0.203 F 
ATOM     66  C   UNL A   1      44.753  26.029  35.762  1.00  0.00     0.198 A 
ATOM     67  C   UNL A   1      46.333  27.649  34.959  1.00  0.00     0.198 A 
ATOM     68  F   UNL A   1      45.581  29.559  33.811  1.00  0.00    -0.203 F 
ATOM     69  F   UNL A   1      44.489  24.901  36.434  1.00  0.00    -0.200 F 
ATOM     70  C   UNL A   1      46.063  26.465  35.629  1.00  0.00     0.200 A 
ATOM     71  F   UNL A   1      47.599  28.067  34.822  1.00  0.00    -0.200 F 
ATOM     72  F   UNL A   1      47.066  25.749  36.155  1.00  0.00    -0.200 F 
ENDBRANCH  39  62
ENDBRANCH  13  14
ENDBRANCH   6   8
ENDBRANCH   3   4
ENDBRANCH   2   3
ENDBRANCH   1   2
BRANCH   1  73
ATOM     73  C   UNL A   1      32.066  29.315  26.836  1.00  0.00     0.002 C 
BRANCH  73  74
ATOM     74  C   UNL A   1      33.171  28.361  26.364  1.00  0.00     0.021 C 
BRANCH  74  75
ATOM     75  C   UNL A   1      32.863  26.874  26.503  1.00  0.00     0.116 C 
BRANCH  75  76
ATOM     76  N   UNL A   1      31.466  26.604  26.771  1.00  0.00    -0.352 N 
ATOM     77  C   UNL A   1      30.629  25.717  26.143  1.00  0.00     0.253 C 
ATOM     78  H   UNL A   1      31.063  27.126  27.502  1.00  0.00     0.163 HD
ATOM     79  O   UNL A   1      29.460  25.610  26.502  1.00  0.00    -0.269 OA
BRANCH  77  80
ATOM     80  C   UNL A   1      31.100  24.914  25.003  1.00  0.00     0.065 A 
ATOM     81  C   UNL A   1      31.398  23.584  25.276  1.00  0.00     0.125 A 
ATOM     82  C   UNL A   1      31.298  25.407  23.700  1.00  0.00    -0.003 A 
ATOM     83  N   UNL A   1      31.828  22.698  24.347  1.00  0.00    -0.264 NA
ATOM     84  C   UNL A   1      31.756  24.491  22.735  1.00  0.00     0.029 A 
ATOM     85  C   UNL A   1      31.999  23.174  23.098  1.00  0.00     0.111 A 
BRANCH  82  86
ATOM     86  C   UNL A   1      31.052  26.808  23.311  1.00  0.00    -0.017 A 
ATOM     87  C   UNL A   1      32.120  27.645  22.938  1.00  0.00     0.009 A 
ATOM     88  C   UNL A   1      29.751  27.339  23.267  1.00  0.00     0.021 A 
ATOM     89  C   UNL A   1      31.896  28.950  22.499  1.00  0.00     0.001 A 
ATOM     90  C   UNL A   1      29.511  28.653  22.828  1.00  0.00     0.056 A 
ATOM     91  C   UNL A   1      30.597  29.449  22.438  1.00  0.00     0.013 A 
BRANCH  90  92
ATOM     92  C   UNL A   1      28.111  29.212  22.761  1.00  0.00     0.416 C 
ATOM     93  F   UNL A   1      27.169  28.292  23.109  1.00  0.00    -0.166 F 
ATOM     94  F   UNL A   1      27.936  30.264  23.609  1.00  0.00    -0.166 F 
ATOM     95  F   UNL A   1      27.756  29.663  21.527  1.00  0.00    -0.166 F 
ENDBRANCH  90  92
ENDBRANCH  82  86
ENDBRANCH  77  80
ENDBRANCH  75  76
ENDBRANCH  74  75
ENDBRANCH  73  74
ENDBRANCH   1  73
TORSDOF 15
ENDMDL
