MODEL 1
REMARK VINA RESULT:     -12.3      0.000      0.000
REMARK SMILES O=C(NCCCCCCNC(=O)c1cc(=O)[nH]c2c(Br)cccc12)c1ccc(-c2c3nc(c(-c4c(F)c(F)c(F)c(F)c4F)c4ccc([nH]4)c(-c4c(F)c(F)c(F)c(F)c4F)c4nc(c(-c5c(F)c(F)c(F)c(F)c5F)c5ccc2[nH]5)C=C4)C=C3)cc1
REMARK SMILES IDX 5 1 4 2 3 3 1 4 2 5 25 7 26 8 87 9 27 10 86 11 28 12 29 13
REMARK SMILES IDX 30 14 80 15 31 16 85 17 79 18 81 19 32 20 84 21 78 22 77 23
REMARK SMILES IDX 33 25 65 26 45 27 64 28 46 29 49 30 63 31 82 32 47 33 48 34
REMARK SMILES IDX 62 36 83 37 50 38 34 39 35 40 43 41 36 42 37 43 41 44 44 45
REMARK SMILES IDX 38 46 39 47 42 48 40 49 66 50 67 51 75 52 68 53 69 54 73 55
REMARK SMILES IDX 76 56 70 57 71 58 74 59 72 60 51 61 52 62 60 63 53 64 54 65
REMARK SMILES IDX 58 66 61 67 55 68 56 69 59 70 57 71 6 72 7 73 8 74 9 75
REMARK SMILES IDX 10 76 11 77 12 79 13 80 14 81 24 82 15 83 18 84 23 85 16 86
REMARK SMILES IDX 17 87 19 88 22 89 20 91 21 92
REMARK H PARENT 3 6 81 24 49 35 10 78 17 90
REMARK Flexibility Score: inf
ROOT
ATOM      1  C   UNL A   1      31.766  28.773  26.128  1.00  0.00     0.021 C 
ENDROOT
BRANCH   1   2
ATOM      2  C   UNL A   1      32.871  29.764  25.797  1.00  0.00     0.116 C 
BRANCH   2   3
ATOM      3  N   UNL A   1      32.584  31.097  26.291  1.00  0.00    -0.352 N 
ATOM      4  O   UNL A   1      32.726  32.875  27.661  1.00  0.00    -0.269 OA
ATOM      5  C   UNL A   1      33.233  31.837  27.245  1.00  0.00     0.251 C 
ATOM      6  H   UNL A   1      31.805  31.537  25.878  1.00  0.00     0.163 HD
BRANCH   5   7
ATOM      7  C   UNL A   1      34.538  31.393  27.781  1.00  0.00     0.039 A 
ATOM      8  C   UNL A   1      34.698  30.050  28.132  1.00  0.00     0.014 A 
ATOM      9  C   UNL A   1      35.583  32.298  28.000  1.00  0.00     0.014 A 
ATOM     10  C   UNL A   1      35.897  29.619  28.700  1.00  0.00     0.010 A 
ATOM     11  C   UNL A   1      36.814  31.845  28.462  1.00  0.00     0.010 A 
ATOM     12  C   UNL A   1      36.965  30.515  28.872  1.00  0.00    -0.014 A 
BRANCH  12  13
ATOM     13  C   UNL A   1      38.196  30.099  29.591  1.00  0.00     0.031 A 
ATOM     14  C   UNL A   1      38.427  30.576  31.001  1.00  0.00     0.074 A 
ATOM     15  C   UNL A   1      39.094  29.295  28.993  1.00  0.00     0.049 A 
ATOM     16  N   UNL A   1      39.420  30.313  31.813  1.00  0.00    -0.248 NA
ATOM     17  C   UNL A   1      37.425  31.493  31.569  1.00  0.00     0.031 C 
ATOM     18  C   UNL A   1      39.000  28.799  27.622  1.00  0.00     0.029 A 
ATOM     19  N   UNL A   1      40.257  28.743  29.469  1.00  0.00    -0.354 N 
ATOM     20  C   UNL A   1      39.162  31.036  32.970  1.00  0.00     0.074 A 
ATOM     21  C   UNL A   1      37.970  31.815  32.730  1.00  0.00     0.031 C 
ATOM     22  C   UNL A   1      40.034  27.975  27.382  1.00  0.00     0.029 A 
ATOM     23  C   UNL A   1      40.881  27.913  28.571  1.00  0.00     0.049 A 
ATOM     24  H   UNL A   1      40.611  28.926  30.370  1.00  0.00     0.167 HD
ATOM     25  C   UNL A   1      39.829  31.018  34.147  1.00  0.00     0.037 A 
ATOM     26  C   UNL A   1      42.002  27.177  28.697  1.00  0.00     0.037 A 
ATOM     27  C   UNL A   1      40.987  30.206  34.396  1.00  0.00     0.049 A 
ATOM     28  C   UNL A   1      42.750  27.194  30.004  1.00  0.00     0.074 A 
ATOM     29  C   UNL A   1      41.696  30.060  35.574  1.00  0.00     0.029 A 
ATOM     30  N   UNL A   1      41.606  29.403  33.449  1.00  0.00    -0.354 N 
ATOM     31  N   UNL A   1      42.450  27.818  31.117  1.00  0.00    -0.248 NA
ATOM     32  C   UNL A   1      43.990  26.408  30.073  1.00  0.00     0.031 C 
ATOM     33  C   UNL A   1      42.780  29.213  35.325  1.00  0.00     0.029 A 
ATOM     34  C   UNL A   1      42.715  28.791  34.006  1.00  0.00     0.049 A 
ATOM     35  H   UNL A   1      41.300  29.286  32.521  1.00  0.00     0.167 HD
ATOM     36  C   UNL A   1      43.454  27.493  32.020  1.00  0.00     0.074 A 
ATOM     37  C   UNL A   1      44.363  26.600  31.332  1.00  0.00     0.031 C 
ATOM     38  C   UNL A   1      43.609  27.904  33.303  1.00  0.00     0.037 A 
BRANCH  25  39
ATOM     39  C   UNL A   1      39.312  31.888  35.256  1.00  0.00     0.064 A 
ATOM     40  C   UNL A   1      38.500  31.371  36.278  1.00  0.00     0.173 A 
ATOM     41  C   UNL A   1      39.658  33.245  35.318  1.00  0.00     0.173 A 
ATOM     42  F   UNL A   1      38.129  30.082  36.260  1.00  0.00    -0.203 F 
ATOM     43  C   UNL A   1      38.025  32.188  37.300  1.00  0.00     0.198 A 
ATOM     44  C   UNL A   1      39.212  34.052  36.361  1.00  0.00     0.198 A 
ATOM     45  F   UNL A   1      40.438  33.789  34.372  1.00  0.00    -0.203 F 
ATOM     46  F   UNL A   1      37.204  31.686  38.231  1.00  0.00    -0.200 F 
ATOM     47  C   UNL A   1      38.389  33.526  37.346  1.00  0.00     0.200 A 
ATOM     48  F   UNL A   1      39.576  35.341  36.413  1.00  0.00    -0.200 F 
ATOM     49  F   UNL A   1      37.938  34.311  38.334  1.00  0.00    -0.200 F 
ENDBRANCH  25  39
BRANCH  26  50
ATOM     50  C   UNL A   1      42.448  26.330  27.560  1.00  0.00     0.064 A 
ATOM     51  C   UNL A   1      43.417  26.791  26.659  1.00  0.00     0.173 A 
ATOM     52  C   UNL A   1      41.959  25.027  27.382  1.00  0.00     0.173 A 
ATOM     53  F   UNL A   1      43.901  28.037  26.776  1.00  0.00    -0.203 F 
ATOM     54  C   UNL A   1      43.883  25.982  25.626  1.00  0.00     0.198 A 
ATOM     55  C   UNL A   1      42.445  24.209  26.364  1.00  0.00     0.198 A 
ATOM     56  F   UNL A   1      41.034  24.537  28.219  1.00  0.00    -0.203 F 
ATOM     57  F   UNL A   1      44.796  26.454  24.765  1.00  0.00    -0.200 F 
ATOM     58  C   UNL A   1      43.405  24.687  25.486  1.00  0.00     0.200 A 
ATOM     59  F   UNL A   1      41.992  22.953  26.243  1.00  0.00    -0.200 F 
ATOM     60  F   UNL A   1      43.870  23.901  24.505  1.00  0.00    -0.200 F 
ENDBRANCH  26  50
BRANCH  38  61
ATOM     61  C   UNL A   1      44.809  27.417  34.060  1.00  0.00     0.064 A 
ATOM     62  C   UNL A   1      45.987  28.176  34.115  1.00  0.00     0.173 A 
ATOM     63  C   UNL A   1      44.733  26.259  34.850  1.00  0.00     0.173 A 
ATOM     64  F   UNL A   1      46.110  29.285  33.371  1.00  0.00    -0.203 F 
ATOM     65  C   UNL A   1      47.043  27.796  34.938  1.00  0.00     0.198 A 
ATOM     66  C   UNL A   1      45.780  25.898  35.693  1.00  0.00     0.198 A 
ATOM     67  F   UNL A   1      43.622  25.507  34.840  1.00  0.00    -0.203 F 
ATOM     68  F   UNL A   1      48.164  28.530  34.967  1.00  0.00    -0.200 F 
ATOM     69  C   UNL A   1      46.933  26.668  35.738  1.00  0.00     0.200 A 
ATOM     70  F   UNL A   1      45.663  24.821  36.481  1.00  0.00    -0.200 F 
ATOM     71  F   UNL A   1      47.937  26.325  36.556  1.00  0.00    -0.200 F 
ENDBRANCH  38  61
ENDBRANCH  12  13
ENDBRANCH   5   7
ENDBRANCH   2   3
ENDBRANCH   1   2
BRANCH   1  72
ATOM     72  C   UNL A   1      32.254  27.376  26.509  1.00  0.00     0.002 C 
BRANCH  72  73
ATOM     73  C   UNL A   1      33.664  27.023  26.028  1.00  0.00     0.002 C 
BRANCH  73  74
ATOM     74  C   UNL A   1      33.965  25.524  25.913  1.00  0.00     0.021 C 
BRANCH  74  75
ATOM     75  C   UNL A   1      32.735  24.628  25.810  1.00  0.00     0.116 C 
BRANCH  75  76
ATOM     76  N   UNL A   1      32.772  23.785  24.627  1.00  0.00    -0.352 N 
ATOM     77  C   UNL A   1      32.559  24.115  23.322  1.00  0.00     0.252 C 
ATOM     78  H   UNL A   1      32.981  22.837  24.793  1.00  0.00     0.163 HD
ATOM     79  O   UNL A   1      32.528  23.240  22.462  1.00  0.00    -0.269 OA
BRANCH  77  80
ATOM     80  C   UNL A   1      32.341  25.542  22.978  1.00  0.00     0.054 A 
ATOM     81  C   UNL A   1      33.374  26.178  22.403  1.00  0.00     0.086 A 
ATOM     82  C   UNL A   1      31.056  26.231  23.175  1.00  0.00     0.012 A 
ATOM     83  C   UNL A   1      33.290  27.608  22.061  1.00  0.00     0.249 A 
ATOM     84  C   UNL A   1      30.959  27.582  22.801  1.00  0.00     0.063 A 
ATOM     85  C   UNL A   1      29.930  25.599  23.722  1.00  0.00     0.011 A 
ATOM     86  O   UNL A   1      34.273  28.202  21.626  1.00  0.00    -0.270 OA
ATOM     87  N   UNL A   1      32.093  28.223  22.270  1.00  0.00    -0.321 N 
ATOM     88  C   UNL A   1      29.753  28.278  22.963  1.00  0.00     0.042 A 
ATOM     89  C   UNL A   1      28.730  26.295  23.881  1.00  0.00     0.002 A 
ATOM     90  H   UNL A   1      32.016  29.176  22.034  1.00  0.00     0.170 HD
ATOM     91  Br  UNL A   1      29.584  30.099  22.458  1.00  0.00    -0.049 Br
ATOM     92  C   UNL A   1      28.639  27.633  23.500  1.00  0.00     0.018 A 
ENDBRANCH  77  80
ENDBRANCH  75  76
ENDBRANCH  74  75
ENDBRANCH  73  74
ENDBRANCH  72  73
ENDBRANCH   1  72
TORSDOF 13
ENDMDL
MODEL 2
REMARK VINA RESULT:     -12.0      4.846      9.834
REMARK SMILES O=C(NCCCCCCNC(=O)c1cc(=O)[nH]c2c(Br)cccc12)c1ccc(-c2c3nc(c(-c4c(F)c(F)c(F)c(F)c4F)c4ccc([nH]4)c(-c4c(F)c(F)c(F)c(F)c4F)c4nc(c(-c5c(F)c(F)c(F)c(F)c5F)c5ccc2[nH]5)C=C4)C=C3)cc1
REMARK SMILES IDX 5 1 4 2 3 3 1 4 2 5 25 7 26 8 87 9 27 10 86 11 28 12 29 13
REMARK SMILES IDX 30 14 80 15 31 16 85 17 79 18 81 19 32 20 84 21 78 22 77 23
REMARK SMILES IDX 33 25 65 26 45 27 64 28 46 29 49 30 63 31 82 32 47 33 48 34
REMARK SMILES IDX 62 36 83 37 50 38 34 39 35 40 43 41 36 42 37 43 41 44 44 45
REMARK SMILES IDX 38 46 39 47 42 48 40 49 66 50 67 51 75 52 68 53 69 54 73 55
REMARK SMILES IDX 76 56 70 57 71 58 74 59 72 60 51 61 52 62 60 63 53 64 54 65
REMARK SMILES IDX 58 66 61 67 55 68 56 69 59 70 57 71 6 72 7 73 8 74 9 75
REMARK SMILES IDX 10 76 11 77 12 79 13 80 14 81 24 82 15 83 18 84 23 85 16 86
REMARK SMILES IDX 17 87 19 88 22 89 20 91 21 92
REMARK H PARENT 3 6 81 24 49 35 10 78 17 90
REMARK Flexibility Score: inf
ROOT
ATOM      1  C   UNL A   1      38.116  19.521  25.025  1.00  0.00     0.021 C 
ENDROOT
BRANCH   1   2
ATOM      2  C   UNL A   1      39.308  20.034  25.820  1.00  0.00     0.116 C 
BRANCH   2   3
ATOM      3  N   UNL A   1      40.387  19.065  25.881  1.00  0.00    -0.352 N 
ATOM      4  O   UNL A   1      42.512  18.328  25.908  1.00  0.00    -0.269 OA
ATOM      5  C   UNL A   1      41.730  19.260  26.075  1.00  0.00     0.251 C 
ATOM      6  H   UNL A   1      40.113  18.126  25.769  1.00  0.00     0.163 HD
BRANCH   5   7
ATOM      7  C   UNL A   1      42.247  20.586  26.478  1.00  0.00     0.039 A 
ATOM      8  C   UNL A   1      42.257  20.918  27.835  1.00  0.00     0.014 A 
ATOM      9  C   UNL A   1      42.662  21.527  25.529  1.00  0.00     0.014 A 
ATOM     10  C   UNL A   1      42.679  22.187  28.236  1.00  0.00     0.010 A 
ATOM     11  C   UNL A   1      43.186  22.748  25.938  1.00  0.00     0.010 A 
ATOM     12  C   UNL A   1      43.146  23.113  27.290  1.00  0.00    -0.014 A 
BRANCH  12  13
ATOM     13  C   UNL A   1      43.474  24.505  27.689  1.00  0.00     0.031 A 
ATOM     14  C   UNL A   1      44.910  24.960  27.678  1.00  0.00     0.074 A 
ATOM     15  C   UNL A   1      42.497  25.358  28.047  1.00  0.00     0.049 A 
ATOM     16  N   UNL A   1      45.410  26.135  27.967  1.00  0.00    -0.248 NA
ATOM     17  C   UNL A   1      45.926  23.955  27.323  1.00  0.00     0.031 C 
ATOM     18  C   UNL A   1      41.077  25.025  28.132  1.00  0.00     0.029 A 
ATOM     19  N   UNL A   1      42.551  26.685  28.395  1.00  0.00    -0.354 N 
ATOM     20  C   UNL A   1      46.786  26.001  27.838  1.00  0.00     0.074 A 
ATOM     21  C   UNL A   1      47.053  24.616  27.529  1.00  0.00     0.031 C 
ATOM     22  C   UNL A   1      40.386  26.131  28.457  1.00  0.00     0.029 A 
ATOM     23  C   UNL A   1      41.319  27.241  28.638  1.00  0.00     0.049 A 
ATOM     24  H   UNL A   1      43.394  27.190  28.463  1.00  0.00     0.167 HD
ATOM     25  C   UNL A   1      47.741  26.956  27.919  1.00  0.00     0.037 A 
ATOM     26  C   UNL A   1      40.982  28.504  28.960  1.00  0.00     0.037 A 
ATOM     27  C   UNL A   1      47.466  28.341  28.181  1.00  0.00     0.049 A 
ATOM     28  C   UNL A   1      42.061  29.547  29.078  1.00  0.00     0.074 A 
ATOM     29  C   UNL A   1      48.353  29.401  28.214  1.00  0.00     0.029 A 
ATOM     30  N   UNL A   1      46.208  28.857  28.453  1.00  0.00    -0.354 N 
ATOM     31  N   UNL A   1      43.351  29.426  28.872  1.00  0.00    -0.248 NA
ATOM     32  C   UNL A   1      41.643  30.900  29.474  1.00  0.00     0.031 C 
ATOM     33  C   UNL A   1      47.640  30.550  28.565  1.00  0.00     0.029 A 
ATOM     34  C   UNL A   1      46.301  30.216  28.698  1.00  0.00     0.049 A 
ATOM     35  H   UNL A   1      45.374  28.335  28.469  1.00  0.00     0.167 HD
ATOM     36  C   UNL A   1      43.895  30.683  29.101  1.00  0.00     0.074 A 
ATOM     37  C   UNL A   1      42.794  31.559  29.444  1.00  0.00     0.031 C 
ATOM     38  C   UNL A   1      45.192  31.072  29.039  1.00  0.00     0.037 A 
BRANCH  25  39
ATOM     39  C   UNL A   1      49.167  26.536  27.707  1.00  0.00     0.064 A 
ATOM     40  C   UNL A   1      49.694  26.348  26.419  1.00  0.00     0.173 A 
ATOM     41  C   UNL A   1      50.027  26.353  28.799  1.00  0.00     0.173 A 
ATOM     42  F   UNL A   1      48.912  26.498  25.340  1.00  0.00    -0.203 F 
ATOM     43  C   UNL A   1      51.017  25.957  26.236  1.00  0.00     0.198 A 
ATOM     44  C   UNL A   1      51.360  25.998  28.611  1.00  0.00     0.198 A 
ATOM     45  F   UNL A   1      49.577  26.527  30.051  1.00  0.00    -0.203 F 
ATOM     46  F   UNL A   1      51.481  25.726  25.001  1.00  0.00    -0.200 F 
ATOM     47  C   UNL A   1      51.852  25.791  27.331  1.00  0.00     0.200 A 
ATOM     48  F   UNL A   1      52.169  25.852  29.670  1.00  0.00    -0.200 F 
ATOM     49  F   UNL A   1      53.128  25.423  27.153  1.00  0.00    -0.200 F 
ENDBRANCH  25  39
BRANCH  26  50
ATOM     50  C   UNL A   1      39.548  28.850  29.144  1.00  0.00     0.064 A 
ATOM     51  C   UNL A   1      38.942  28.749  30.403  1.00  0.00     0.173 A 
ATOM     52  C   UNL A   1      38.770  29.338  28.083  1.00  0.00     0.173 A 
ATOM     53  F   UNL A   1      39.638  28.270  31.445  1.00  0.00    -0.203 F 
ATOM     54  C   UNL A   1      37.615  29.127  30.596  1.00  0.00     0.198 A 
ATOM     55  C   UNL A   1      37.451  29.740  28.282  1.00  0.00     0.198 A 
ATOM     56  F   UNL A   1      39.304  29.457  26.859  1.00  0.00    -0.203 F 
ATOM     57  F   UNL A   1      37.053  29.002  31.807  1.00  0.00    -0.200 F 
ATOM     58  C   UNL A   1      36.874  29.632  29.538  1.00  0.00     0.200 A 
ATOM     59  F   UNL A   1      36.745  30.244  27.261  1.00  0.00    -0.200 F 
ATOM     60  F   UNL A   1      35.603  30.016  29.729  1.00  0.00    -0.200 F 
ENDBRANCH  26  50
BRANCH  38  61
ATOM     61  C   UNL A   1      45.517  32.501  29.359  1.00  0.00     0.064 A 
ATOM     62  C   UNL A   1      45.866  32.889  30.660  1.00  0.00     0.173 A 
ATOM     63  C   UNL A   1      45.618  33.457  28.337  1.00  0.00     0.173 A 
ATOM     64  F   UNL A   1      45.776  32.014  31.673  1.00  0.00    -0.203 F 
ATOM     65  C   UNL A   1      46.311  34.181  30.925  1.00  0.00     0.198 A 
ATOM     66  C   UNL A   1      46.091  34.739  28.600  1.00  0.00     0.198 A 
ATOM     67  F   UNL A   1      45.307  33.130  27.073  1.00  0.00    -0.203 F 
ATOM     68  F   UNL A   1      46.630  34.534  32.178  1.00  0.00    -0.200 F 
ATOM     69  C   UNL A   1      46.439  35.099  29.894  1.00  0.00     0.200 A 
ATOM     70  F   UNL A   1      46.235  35.618  27.599  1.00  0.00    -0.200 F 
ATOM     71  F   UNL A   1      46.903  36.331  30.145  1.00  0.00    -0.200 F 
ENDBRANCH  38  61
ENDBRANCH  12  13
ENDBRANCH   5   7
ENDBRANCH   2   3
ENDBRANCH   1   2
BRANCH   1  72
ATOM     72  C   UNL A   1      37.105  20.596  24.628  1.00  0.00     0.002 C 
BRANCH  72  73
ATOM     73  C   UNL A   1      36.973  21.764  25.609  1.00  0.00     0.002 C 
BRANCH  73  74
ATOM     74  C   UNL A   1      35.564  22.349  25.751  1.00  0.00     0.021 C 
BRANCH  74  75
ATOM     75  C   UNL A   1      34.435  21.323  25.721  1.00  0.00     0.116 C 
BRANCH  75  76
ATOM     76  N   UNL A   1      33.738  21.317  24.447  1.00  0.00    -0.352 N 
ATOM     77  C   UNL A   1      32.642  22.027  24.057  1.00  0.00     0.252 C 
ATOM     78  H   UNL A   1      34.111  20.710  23.767  1.00  0.00     0.163 HD
ATOM     79  O   UNL A   1      32.123  21.811  22.965  1.00  0.00    -0.269 OA
BRANCH  77  80
ATOM     80  C   UNL A   1      32.084  23.038  24.988  1.00  0.00     0.054 A 
ATOM     81  C   UNL A   1      31.167  22.596  25.864  1.00  0.00     0.086 A 
ATOM     82  C   UNL A   1      32.541  24.437  25.028  1.00  0.00     0.012 A 
ATOM     83  C   UNL A   1      30.510  23.519  26.806  1.00  0.00     0.249 A 
ATOM     84  C   UNL A   1      31.952  25.305  25.961  1.00  0.00     0.063 A 
ATOM     85  C   UNL A   1      33.534  24.936  24.172  1.00  0.00     0.011 A 
ATOM     86  O   UNL A   1      29.605  23.122  27.534  1.00  0.00    -0.270 OA
ATOM     87  N   UNL A   1      30.943  24.810  26.807  1.00  0.00    -0.321 N 
ATOM     88  C   UNL A   1      32.360  26.644  26.041  1.00  0.00     0.042 A 
ATOM     89  C   UNL A   1      33.939  26.271  24.255  1.00  0.00     0.002 A 
ATOM     90  H   UNL A   1      30.524  25.437  27.441  1.00  0.00     0.170 HD
ATOM     91  Br  UNL A   1      31.594  27.841  27.298  1.00  0.00    -0.049 Br
ATOM     92  C   UNL A   1      33.354  27.125  25.190  1.00  0.00     0.018 A 
ENDBRANCH  77  80
ENDBRANCH  75  76
ENDBRANCH  74  75
ENDBRANCH  73  74
ENDBRANCH  72  73
ENDBRANCH   1  72
TORSDOF 13
ENDMDL
MODEL 3
REMARK VINA RESULT:     -11.9      2.231      7.979
REMARK SMILES O=C(NCCCCCCNC(=O)c1cc(=O)[nH]c2c(Br)cccc12)c1ccc(-c2c3nc(c(-c4c(F)c(F)c(F)c(F)c4F)c4ccc([nH]4)c(-c4c(F)c(F)c(F)c(F)c4F)c4nc(c(-c5c(F)c(F)c(F)c(F)c5F)c5ccc2[nH]5)C=C4)C=C3)cc1
REMARK SMILES IDX 5 1 4 2 3 3 1 4 2 5 25 7 26 8 87 9 27 10 86 11 28 12 29 13
REMARK SMILES IDX 30 14 80 15 31 16 85 17 79 18 81 19 32 20 84 21 78 22 77 23
REMARK SMILES IDX 33 25 65 26 45 27 64 28 46 29 49 30 63 31 82 32 47 33 48 34
REMARK SMILES IDX 62 36 83 37 50 38 34 39 35 40 43 41 36 42 37 43 41 44 44 45
REMARK SMILES IDX 38 46 39 47 42 48 40 49 66 50 67 51 75 52 68 53 69 54 73 55
REMARK SMILES IDX 76 56 70 57 71 58 74 59 72 60 51 61 52 62 60 63 53 64 54 65
REMARK SMILES IDX 58 66 61 67 55 68 56 69 59 70 57 71 6 72 7 73 8 74 9 75
REMARK SMILES IDX 10 76 11 77 12 79 13 80 14 81 24 82 15 83 18 84 23 85 16 86
REMARK SMILES IDX 17 87 19 88 22 89 20 91 21 92
REMARK H PARENT 3 6 81 24 49 35 10 78 17 90
REMARK Flexibility Score: inf
ROOT
ATOM      1  C   UNL A   1      31.441  32.191  26.722  1.00  0.00     0.021 C 
ENDROOT
BRANCH   1   2
ATOM      2  C   UNL A   1      32.705  32.841  27.263  1.00  0.00     0.116 C 
BRANCH   2   3
ATOM      3  N   UNL A   1      32.500  34.232  27.624  1.00  0.00    -0.352 N 
ATOM      4  O   UNL A   1      32.601  36.077  28.905  1.00  0.00    -0.269 OA
ATOM      5  C   UNL A   1      33.043  34.960  28.650  1.00  0.00     0.251 C 
ATOM      6  H   UNL A   1      31.878  34.727  27.043  1.00  0.00     0.163 HD
BRANCH   5   7
ATOM      7  C   UNL A   1      34.154  34.410  29.458  1.00  0.00     0.039 A 
ATOM      8  C   UNL A   1      35.451  34.472  28.943  1.00  0.00     0.014 A 
ATOM      9  C   UNL A   1      33.922  33.781  30.685  1.00  0.00     0.014 A 
ATOM     10  C   UNL A   1      36.508  33.903  29.655  1.00  0.00     0.010 A 
ATOM     11  C   UNL A   1      34.989  33.314  31.444  1.00  0.00     0.010 A 
ATOM     12  C   UNL A   1      36.285  33.317  30.912  1.00  0.00    -0.014 A 
BRANCH  12  13
ATOM     13  C   UNL A   1      37.374  32.596  31.618  1.00  0.00     0.031 A 
ATOM     14  C   UNL A   1      38.080  31.459  30.926  1.00  0.00     0.074 A 
ATOM     15  C   UNL A   1      37.737  32.962  32.860  1.00  0.00     0.049 A 
ATOM     16  N   UNL A   1      39.069  30.715  31.354  1.00  0.00    -0.248 NA
ATOM     17  C   UNL A   1      37.592  31.085  29.589  1.00  0.00     0.031 C 
ATOM     18  C   UNL A   1      37.107  34.022  33.645  1.00  0.00     0.029 A 
ATOM     19  N   UNL A   1      38.736  32.490  33.676  1.00  0.00    -0.354 N 
ATOM     20  C   UNL A   1      39.307  29.791  30.345  1.00  0.00     0.074 A 
ATOM     21  C   UNL A   1      38.311  30.006  29.324  1.00  0.00     0.031 C 
ATOM     22  C   UNL A   1      37.765  34.155  34.809  1.00  0.00     0.029 A 
ATOM     23  C   UNL A   1      38.840  33.168  34.866  1.00  0.00     0.049 A 
ATOM     24  H   UNL A   1      39.321  31.737  33.431  1.00  0.00     0.167 HD
ATOM     25  C   UNL A   1      40.299  28.875  30.253  1.00  0.00     0.037 A 
ATOM     26  C   UNL A   1      39.712  33.015  35.882  1.00  0.00     0.037 A 
ATOM     27  C   UNL A   1      41.316  28.695  31.251  1.00  0.00     0.049 A 
ATOM     28  C   UNL A   1      40.789  31.969  35.776  1.00  0.00     0.074 A 
ATOM     29  C   UNL A   1      42.406  27.845  31.223  1.00  0.00     0.029 A 
ATOM     30  N   UNL A   1      41.368  29.380  32.456  1.00  0.00    -0.354 N 
ATOM     31  N   UNL A   1      41.055  31.157  34.782  1.00  0.00    -0.248 NA
ATOM     32  C   UNL A   1      41.686  31.815  36.931  1.00  0.00     0.031 C 
ATOM     33  C   UNL A   1      43.085  27.972  32.438  1.00  0.00     0.029 A 
ATOM     34  C   UNL A   1      42.449  28.940  33.200  1.00  0.00     0.049 A 
ATOM     35  H   UNL A   1      40.731  30.075  32.739  1.00  0.00     0.167 HD
ATOM     36  C   UNL A   1      42.152  30.406  35.184  1.00  0.00     0.074 A 
ATOM     37  C   UNL A   1      42.516  30.871  36.506  1.00  0.00     0.031 C 
ATOM     38  C   UNL A   1      42.794  29.416  34.516  1.00  0.00     0.037 A 
BRANCH  25  39
ATOM     39  C   UNL A   1      40.340  28.012  29.025  1.00  0.00     0.064 A 
ATOM     40  C   UNL A   1      41.073  28.385  27.888  1.00  0.00     0.173 A 
ATOM     41  C   UNL A   1      39.667  26.782  28.996  1.00  0.00     0.173 A 
ATOM     42  F   UNL A   1      41.725  29.556  27.858  1.00  0.00    -0.203 F 
ATOM     43  C   UNL A   1      41.101  27.576  26.755  1.00  0.00     0.198 A 
ATOM     44  C   UNL A   1      39.727  25.958  27.875  1.00  0.00     0.198 A 
ATOM     45  F   UNL A   1      38.957  26.372  30.059  1.00  0.00    -0.203 F 
ATOM     46  F   UNL A   1      41.759  27.981  25.661  1.00  0.00    -0.200 F 
ATOM     47  C   UNL A   1      40.435  26.359  26.753  1.00  0.00     0.200 A 
ATOM     48  F   UNL A   1      39.095  24.776  27.880  1.00  0.00    -0.200 F 
ATOM     49  F   UNL A   1      40.470  25.578  25.665  1.00  0.00    -0.200 F 
ENDBRANCH  25  39
BRANCH  26  50
ATOM     50  C   UNL A   1      39.619  33.914  37.062  1.00  0.00     0.064 A 
ATOM     51  C   UNL A   1      40.241  35.169  37.058  1.00  0.00     0.173 A 
ATOM     52  C   UNL A   1      38.865  33.563  38.192  1.00  0.00     0.173 A 
ATOM     53  F   UNL A   1      40.989  35.542  36.009  1.00  0.00    -0.203 F 
ATOM     54  C   UNL A   1      40.110  36.042  38.136  1.00  0.00     0.198 A 
ATOM     55  C   UNL A   1      38.713  34.447  39.259  1.00  0.00     0.198 A 
ATOM     56  F   UNL A   1      38.246  32.375  38.244  1.00  0.00    -0.203 F 
ATOM     57  F   UNL A   1      40.732  37.229  38.116  1.00  0.00    -0.200 F 
ATOM     58  C   UNL A   1      39.337  35.684  39.231  1.00  0.00     0.200 A 
ATOM     59  F   UNL A   1      37.951  34.104  40.307  1.00  0.00    -0.200 F 
ATOM     60  F   UNL A   1      39.193  36.533  40.259  1.00  0.00    -0.200 F 
ENDBRANCH  26  50
BRANCH  38  61
ATOM     61  C   UNL A   1      43.951  28.743  35.194  1.00  0.00     0.064 A 
ATOM     62  C   UNL A   1      45.251  29.255  35.085  1.00  0.00     0.173 A 
ATOM     63  C   UNL A   1      43.739  27.666  36.069  1.00  0.00     0.173 A 
ATOM     64  F   UNL A   1      45.506  30.278  34.254  1.00  0.00    -0.203 F 
ATOM     65  C   UNL A   1      46.296  28.719  35.832  1.00  0.00     0.198 A 
ATOM     66  C   UNL A   1      44.779  27.151  36.836  1.00  0.00     0.198 A 
ATOM     67  F   UNL A   1      42.510  27.148  36.217  1.00  0.00    -0.203 F 
ATOM     68  F   UNL A   1      47.533  29.218  35.705  1.00  0.00    -0.200 F 
ATOM     69  C   UNL A   1      46.056  27.680  36.719  1.00  0.00     0.200 A 
ATOM     70  F   UNL A   1      44.542  26.161  37.708  1.00  0.00    -0.200 F 
ATOM     71  F   UNL A   1      47.056  27.190  37.465  1.00  0.00    -0.200 F 
ENDBRANCH  38  61
ENDBRANCH  12  13
ENDBRANCH   5   7
ENDBRANCH   2   3
ENDBRANCH   1   2
BRANCH   1  72
ATOM     72  C   UNL A   1      31.543  30.682  26.502  1.00  0.00     0.002 C 
BRANCH  72  73
ATOM     73  C   UNL A   1      32.931  30.173  26.105  1.00  0.00     0.002 C 
BRANCH  73  74
ATOM     74  C   UNL A   1      32.947  28.886  25.273  1.00  0.00     0.021 C 
BRANCH  74  75
ATOM     75  C   UNL A   1      33.006  29.096  23.763  1.00  0.00     0.116 C 
BRANCH  75  76
ATOM     76  N   UNL A   1      31.683  29.235  23.180  1.00  0.00    -0.352 N 
ATOM     77  C   UNL A   1      30.910  28.301  22.556  1.00  0.00     0.252 C 
ATOM     78  H   UNL A   1      31.287  30.134  23.244  1.00  0.00     0.163 HD
ATOM     79  O   UNL A   1      29.852  28.630  22.027  1.00  0.00    -0.269 OA
BRANCH  77  80
ATOM     80  C   UNL A   1      31.391  26.898  22.511  1.00  0.00     0.054 A 
ATOM     81  C   UNL A   1      32.127  26.557  21.441  1.00  0.00     0.086 A 
ATOM     82  C   UNL A   1      31.157  25.930  23.595  1.00  0.00     0.012 A 
ATOM     83  C   UNL A   1      32.620  25.180  21.266  1.00  0.00     0.249 A 
ATOM     84  C   UNL A   1      31.671  24.631  23.452  1.00  0.00     0.063 A 
ATOM     85  C   UNL A   1      30.441  26.251  24.758  1.00  0.00     0.011 A 
ATOM     86  O   UNL A   1      33.208  24.857  20.238  1.00  0.00    -0.270 OA
ATOM     87  N   UNL A   1      32.373  24.303  22.279  1.00  0.00    -0.321 N 
ATOM     88  C   UNL A   1      31.479  23.678  24.462  1.00  0.00     0.042 A 
ATOM     89  C   UNL A   1      30.252  25.298  25.762  1.00  0.00     0.002 A 
ATOM     90  H   UNL A   1      32.707  23.382  22.183  1.00  0.00     0.170 HD
ATOM     91  Br  UNL A   1      32.170  21.917  24.307  1.00  0.00    -0.049 Br
ATOM     92  C   UNL A   1      30.773  24.013  25.617  1.00  0.00     0.018 A 
ENDBRANCH  77  80
ENDBRANCH  75  76
ENDBRANCH  74  75
ENDBRANCH  73  74
ENDBRANCH  72  73
ENDBRANCH   1  72
TORSDOF 13
ENDMDL
