MODEL 1
REMARK VINA RESULT:     -12.0      0.000      0.000
REMARK SMILES CS(=O)(=O)c1ccc(C2=NN(c3ccc(C(=O)NCCCCCCNC(=O)c4ccc(-c5c6nc(c(-c7c(F)c(F)c(F)c(F)c7F)c7ccc([nH]7)c(-c7c(F)c(F)c(F)c(F)c7F)c7nc(c(-c8c(F)c(F)c(F)c(F)c8F)c8ccc5[nH]8)C=C7)C=C6)cc4)cc3)[C@H](c3cccs3)C2)cc1
REMARK SMILES IDX 21 1 20 2 19 3 18 4 16 5 17 6 15 8 12 9 13 10 92 11 14 12
REMARK SMILES IDX 91 13 11 14 9 15 10 16 99 17 93 18 8 19 5 20 6 21 101 22
REMARK SMILES IDX 7 23 100 24 2 25 1 26 3 27 4 28 94 29 95 30 98 31 96 32
REMARK SMILES IDX 97 33 22 34 23 35 24 36 25 37 26 38 27 40 28 41 29 42 90 43
REMARK SMILES IDX 30 44 89 45 31 46 32 47 33 48 83 49 34 50 88 51 82 52 84 53
REMARK SMILES IDX 35 54 87 55 81 56 80 57 36 59 68 60 48 61 67 62 49 63 52 64
REMARK SMILES IDX 66 65 85 66 50 67 51 68 65 70 86 71 53 72 37 73 38 74 46 75
REMARK SMILES IDX 39 76 40 77 44 78 47 79 41 80 42 81 45 82 43 83 69 84 70 85
REMARK SMILES IDX 78 86 71 87 72 88 76 89 79 90 73 91 74 92 77 93 75 94 54 95
REMARK SMILES IDX 55 96 63 97 56 98 57 99 61 100 64 101 58 102 59 103 62 104
REMARK SMILES IDX 60 105
REMARK H PARENT 18 7 25 39 84 58 52 69
REMARK Flexibility Score: inf
ROOT
ATOM      1  C   UNL A   1      37.249  30.061  29.891  1.00  0.00     0.002 C 
ENDROOT
BRANCH   1   2
ATOM      2  C   UNL A   1      36.713  29.343  28.645  1.00  0.00     0.021 C 
BRANCH   2   3
ATOM      3  C   UNL A   1      36.512  30.283  27.454  1.00  0.00     0.116 C 
BRANCH   3   4
ATOM      4  N   UNL A   1      35.329  31.096  27.659  1.00  0.00    -0.352 N 
ATOM      5  C   UNL A   1      34.018  30.905  27.305  1.00  0.00     0.251 C 
ATOM      6  O   UNL A   1      33.200  31.766  27.621  1.00  0.00    -0.269 OA
ATOM      7  H   UNL A   1      35.498  31.939  28.140  1.00  0.00     0.163 HD
BRANCH   5   8
ATOM      8  C   UNL A   1      33.553  29.669  26.624  1.00  0.00     0.039 A 
ATOM      9  C   UNL A   1      32.543  27.449  25.213  1.00  0.00     0.060 A 
ATOM     10  C   UNL A   1      32.948  28.599  24.530  1.00  0.00     0.029 A 
ATOM     11  C   UNL A   1      32.717  27.399  26.597  1.00  0.00     0.029 A 
ATOM     12  C   UNL A   1      33.441  29.705  25.229  1.00  0.00     0.016 A 
ATOM     13  C   UNL A   1      33.249  28.482  27.294  1.00  0.00     0.016 A 
BRANCH   9  14
ATOM     14  N   UNL A   1      32.025  26.353  24.552  1.00  0.00    -0.257 N 
ATOM     15  C   UNL A   1      32.065  24.326  23.952  1.00  0.00     0.071 C 
ATOM     16  N   UNL A   1      32.443  25.119  24.902  1.00  0.00    -0.176 NA
ATOM     17  C   UNL A   1      31.399  24.972  22.769  1.00  0.00     0.091 C 
ATOM     18  C   UNL A   1      31.328  26.428  23.264  1.00  0.00     0.154 C 
BRANCH  15  19
ATOM     19  C   UNL A   1      32.261  22.877  24.045  1.00  0.00    -0.002 A 
ATOM     20  C   UNL A   1      32.778  20.161  24.268  1.00  0.00     0.067 A 
ATOM     21  C   UNL A   1      33.139  21.014  25.314  1.00  0.00     0.021 A 
ATOM     22  C   UNL A   1      32.168  20.666  23.109  1.00  0.00     0.021 A 
ATOM     23  C   UNL A   1      32.889  22.379  25.192  1.00  0.00     0.011 A 
ATOM     24  C   UNL A   1      31.896  22.030  23.000  1.00  0.00     0.011 A 
BRANCH  20  25
ATOM     25  S   UNL A   1      33.094  18.414  24.341  1.00  0.00     0.175 S 
ATOM     26  C   UNL A   1      32.683  17.737  22.757  1.00  0.00     0.163 C 
ATOM     27  O   UNL A   1      32.155  17.865  25.297  1.00  0.00    -0.224 OA
ATOM     28  O   UNL A   1      34.528  18.272  24.529  1.00  0.00    -0.224 OA
ENDBRANCH  20  25
ENDBRANCH  15  19
BRANCH  18  29
ATOM     29  C   UNL A   1      29.946  27.062  23.333  1.00  0.00     0.030 A 
ATOM     30  C   UNL A   1      28.803  26.472  23.855  1.00  0.00     0.017 A 
ATOM     31  S   UNL A   1      29.576  28.608  22.685  1.00  0.00    -0.147 S 
ATOM     32  C   UNL A   1      27.644  27.288  23.727  1.00  0.00     0.012 A 
ATOM     33  C   UNL A   1      27.931  28.493  23.132  1.00  0.00     0.065 A 
ENDBRANCH  18  29
ENDBRANCH   9  14
ENDBRANCH   5   8
ENDBRANCH   3   4
ENDBRANCH   2   3
ENDBRANCH   1   2
BRANCH   1  34
ATOM     34  C   UNL A   1      36.276  30.094  31.074  1.00  0.00     0.002 C 
BRANCH  34  35
ATOM     35  C   UNL A   1      35.695  31.474  31.387  1.00  0.00     0.021 C 
BRANCH  35  36
ATOM     36  C   UNL A   1      35.853  31.898  32.843  1.00  0.00     0.116 C 
BRANCH  36  37
ATOM     37  N   UNL A   1      36.163  33.315  32.958  1.00  0.00    -0.352 N 
ATOM     38  C   UNL A   1      37.347  33.966  32.723  1.00  0.00     0.251 C 
ATOM     39  H   UNL A   1      35.416  33.887  33.245  1.00  0.00     0.163 HD
ATOM     40  O   UNL A   1      37.505  35.121  33.101  1.00  0.00    -0.269 OA
BRANCH  38  41
ATOM     41  C   UNL A   1      38.440  33.265  32.018  1.00  0.00     0.039 A 
ATOM     42  C   UNL A   1      38.589  33.452  30.642  1.00  0.00     0.014 A 
ATOM     43  C   UNL A   1      39.303  32.410  32.711  1.00  0.00     0.014 A 
ATOM     44  C   UNL A   1      39.635  32.820  29.969  1.00  0.00     0.010 A 
ATOM     45  C   UNL A   1      40.389  31.843  32.055  1.00  0.00     0.010 A 
ATOM     46  C   UNL A   1      40.561  32.033  30.676  1.00  0.00    -0.014 A 
BRANCH  46  47
ATOM     47  C   UNL A   1      41.708  31.393  29.986  1.00  0.00     0.031 A 
ATOM     48  C   UNL A   1      42.958  32.182  29.712  1.00  0.00     0.074 A 
ATOM     49  C   UNL A   1      41.600  30.122  29.553  1.00  0.00     0.049 A 
ATOM     50  N   UNL A   1      44.039  31.823  29.067  1.00  0.00    -0.248 NA
ATOM     51  C   UNL A   1      42.986  33.569  30.203  1.00  0.00     0.031 C 
ATOM     52  C   UNL A   1      40.421  29.271  29.718  1.00  0.00     0.029 A 
ATOM     53  N   UNL A   1      42.491  29.328  28.877  1.00  0.00    -0.354 N 
ATOM     54  C   UNL A   1      44.865  32.940  29.063  1.00  0.00     0.074 A 
ATOM     55  C   UNL A   1      44.139  34.006  29.719  1.00  0.00     0.031 C 
ATOM     56  C   UNL A   1      40.670  28.067  29.178  1.00  0.00     0.029 A 
ATOM     57  C   UNL A   1      42.006  28.074  28.594  1.00  0.00     0.049 A 
ATOM     58  H   UNL A   1      43.393  29.628  28.619  1.00  0.00     0.167 HD
ATOM     59  C   UNL A   1      46.124  33.058  28.576  1.00  0.00     0.037 A 
ATOM     60  C   UNL A   1      42.575  27.050  27.929  1.00  0.00     0.037 A 
ATOM     61  C   UNL A   1      46.849  31.987  27.946  1.00  0.00     0.049 A 
ATOM     62  C   UNL A   1      43.972  27.210  27.394  1.00  0.00     0.074 A 
ATOM     63  C   UNL A   1      48.150  31.986  27.475  1.00  0.00     0.029 A 
ATOM     64  N   UNL A   1      46.332  30.724  27.693  1.00  0.00    -0.354 N 
ATOM     65  N   UNL A   1      44.770  28.247  27.459  1.00  0.00    -0.248 NA
ATOM     66  C   UNL A   1      44.551  26.050  26.701  1.00  0.00     0.031 C 
ATOM     67  C   UNL A   1      48.403  30.742  26.888  1.00  0.00     0.029 A 
ATOM     68  C   UNL A   1      47.280  29.945  27.049  1.00  0.00     0.049 A 
ATOM     69  H   UNL A   1      45.425  30.426  27.936  1.00  0.00     0.167 HD
ATOM     70  C   UNL A   1      45.954  27.858  26.846  1.00  0.00     0.074 A 
ATOM     71  C   UNL A   1      45.773  26.483  26.428  1.00  0.00     0.031 C 
ATOM     72  C   UNL A   1      47.087  28.575  26.647  1.00  0.00     0.037 A 
BRANCH  59  73
ATOM     73  C   UNL A   1      46.798  34.394  28.707  1.00  0.00     0.064 A 
ATOM     74  C   UNL A   1      47.572  34.726  29.830  1.00  0.00     0.173 A 
ATOM     75  C   UNL A   1      46.703  35.342  27.676  1.00  0.00     0.173 A 
ATOM     76  F   UNL A   1      47.687  33.861  30.849  1.00  0.00    -0.203 F 
ATOM     77  C   UNL A   1      48.197  35.966  29.930  1.00  0.00     0.198 A 
ATOM     78  C   UNL A   1      47.358  36.568  27.765  1.00  0.00     0.198 A 
ATOM     79  F   UNL A   1      45.982  35.076  26.577  1.00  0.00    -0.203 F 
ATOM     80  F   UNL A   1      48.887  36.278  31.037  1.00  0.00    -0.200 F 
ATOM     81  C   UNL A   1      48.097  36.882  28.895  1.00  0.00     0.200 A 
ATOM     82  F   UNL A   1      47.272  37.446  26.756  1.00  0.00    -0.200 F 
ATOM     83  F   UNL A   1      48.707  38.071  28.989  1.00  0.00    -0.200 F 
ENDBRANCH  59  73
BRANCH  60  84
ATOM     84  C   UNL A   1      41.828  25.776  27.750  1.00  0.00     0.064 A 
ATOM     85  C   UNL A   1      40.766  25.685  26.839  1.00  0.00     0.173 A 
ATOM     86  C   UNL A   1      42.155  24.629  28.487  1.00  0.00     0.173 A 
ATOM     87  F   UNL A   1      40.403  26.761  26.125  1.00  0.00    -0.203 F 
ATOM     88  C   UNL A   1      40.045  24.503  26.689  1.00  0.00     0.198 A 
ATOM     89  C   UNL A   1      41.453  23.438  28.314  1.00  0.00     0.198 A 
ATOM     90  F   UNL A   1      43.167  24.660  29.366  1.00  0.00    -0.203 F 
ATOM     91  F   UNL A   1      39.003  24.458  25.849  1.00  0.00    -0.200 F 
ATOM     92  C   UNL A   1      40.393  23.378  27.422  1.00  0.00     0.200 A 
ATOM     93  F   UNL A   1      41.804  22.349  29.011  1.00  0.00    -0.200 F 
ATOM     94  F   UNL A   1      39.702  22.240  27.275  1.00  0.00    -0.200 F 
ENDBRANCH  60  84
BRANCH  72  95
ATOM     95  C   UNL A   1      48.239  27.874  25.983  1.00  0.00     0.064 A 
ATOM     96  C   UNL A   1      48.298  27.703  24.592  1.00  0.00     0.173 A 
ATOM     97  C   UNL A   1      49.317  27.404  26.750  1.00  0.00     0.173 A 
ATOM     98  F   UNL A   1      47.287  28.121  23.817  1.00  0.00    -0.203 F 
ATOM     99  C   UNL A   1      49.381  27.061  23.996  1.00  0.00     0.198 A 
ATOM    100  C   UNL A   1      50.413  26.794  26.147  1.00  0.00     0.198 A 
ATOM    101  F   UNL A   1      49.313  27.550  28.084  1.00  0.00    -0.203 F 
ATOM    102  F   UNL A   1      49.392  26.861  22.672  1.00  0.00    -0.200 F 
ATOM    103  C   UNL A   1      50.441  26.615  24.773  1.00  0.00     0.200 A 
ATOM    104  F   UNL A   1      51.443  26.379  26.898  1.00  0.00    -0.200 F 
ATOM    105  F   UNL A   1      51.486  26.006  24.196  1.00  0.00    -0.200 F 
ENDBRANCH  72  95
ENDBRANCH  46  47
ENDBRANCH  38  41
ENDBRANCH  36  37
ENDBRANCH  35  36
ENDBRANCH  34  35
ENDBRANCH   1  34
TORSDOF 17
ENDMDL
MODEL 2
REMARK VINA RESULT:     -11.5      0.682      6.979
REMARK SMILES CS(=O)(=O)c1ccc(C2=NN(c3ccc(C(=O)NCCCCCCNC(=O)c4ccc(-c5c6nc(c(-c7c(F)c(F)c(F)c(F)c7F)c7ccc([nH]7)c(-c7c(F)c(F)c(F)c(F)c7F)c7nc(c(-c8c(F)c(F)c(F)c(F)c8F)c8ccc5[nH]8)C=C7)C=C6)cc4)cc3)[C@H](c3cccs3)C2)cc1
REMARK SMILES IDX 21 1 20 2 19 3 18 4 16 5 17 6 15 8 12 9 13 10 92 11 14 12
REMARK SMILES IDX 91 13 11 14 9 15 10 16 99 17 93 18 8 19 5 20 6 21 101 22
REMARK SMILES IDX 7 23 100 24 2 25 1 26 3 27 4 28 94 29 95 30 98 31 96 32
REMARK SMILES IDX 97 33 22 34 23 35 24 36 25 37 26 38 27 40 28 41 29 42 90 43
REMARK SMILES IDX 30 44 89 45 31 46 32 47 33 48 83 49 34 50 88 51 82 52 84 53
REMARK SMILES IDX 35 54 87 55 81 56 80 57 36 59 68 60 48 61 67 62 49 63 52 64
REMARK SMILES IDX 66 65 85 66 50 67 51 68 65 70 86 71 53 72 37 73 38 74 46 75
REMARK SMILES IDX 39 76 40 77 44 78 47 79 41 80 42 81 45 82 43 83 69 84 70 85
REMARK SMILES IDX 78 86 71 87 72 88 76 89 79 90 73 91 74 92 77 93 75 94 54 95
REMARK SMILES IDX 55 96 63 97 56 98 57 99 61 100 64 101 58 102 59 103 62 104
REMARK SMILES IDX 60 105
REMARK H PARENT 18 7 25 39 84 58 52 69
REMARK Flexibility Score: inf
ROOT
ATOM      1  C   UNL A   1      37.516  29.704  29.640  1.00  0.00     0.002 C 
ENDROOT
BRANCH   1   2
ATOM      2  C   UNL A   1      36.297  29.392  28.762  1.00  0.00     0.021 C 
BRANCH   2   3
ATOM      3  C   UNL A   1      36.143  30.361  27.587  1.00  0.00     0.116 C 
BRANCH   3   4
ATOM      4  N   UNL A   1      34.965  31.185  27.775  1.00  0.00    -0.352 N 
ATOM      5  C   UNL A   1      33.658  31.005  27.402  1.00  0.00     0.251 C 
ATOM      6  O   UNL A   1      32.842  31.873  27.706  1.00  0.00    -0.269 OA
ATOM      7  H   UNL A   1      35.135  32.026  28.258  1.00  0.00     0.163 HD
BRANCH   5   8
ATOM      8  C   UNL A   1      33.192  29.773  26.715  1.00  0.00     0.039 A 
ATOM      9  C   UNL A   1      32.221  27.563  25.260  1.00  0.00     0.060 A 
ATOM     10  C   UNL A   1      32.884  28.607  24.607  1.00  0.00     0.029 A 
ATOM     11  C   UNL A   1      32.117  27.607  26.651  1.00  0.00     0.029 A 
ATOM     12  C   UNL A   1      33.358  29.709  25.326  1.00  0.00     0.016 A 
ATOM     13  C   UNL A   1      32.627  28.682  27.377  1.00  0.00     0.016 A 
BRANCH   9  14
ATOM     14  N   UNL A   1      31.717  26.477  24.573  1.00  0.00    -0.257 N 
ATOM     15  C   UNL A   1      31.780  24.465  23.928  1.00  0.00     0.071 C 
ATOM     16  N   UNL A   1      32.147  25.240  24.896  1.00  0.00    -0.176 NA
ATOM     17  C   UNL A   1      31.111  25.130  22.757  1.00  0.00     0.091 C 
ATOM     18  C   UNL A   1      31.023  26.575  23.285  1.00  0.00     0.154 C 
BRANCH  15  19
ATOM     19  C   UNL A   1      31.990  23.016  23.988  1.00  0.00    -0.002 A 
ATOM     20  C   UNL A   1      32.496  20.298  24.214  1.00  0.00     0.067 A 
ATOM     21  C   UNL A   1      32.300  21.056  25.371  1.00  0.00     0.021 A 
ATOM     22  C   UNL A   1      32.447  20.899  22.947  1.00  0.00     0.021 A 
ATOM     23  C   UNL A   1      32.060  22.423  25.254  1.00  0.00     0.011 A 
ATOM     24  C   UNL A   1      32.180  22.265  22.830  1.00  0.00     0.011 A 
BRANCH  20  25
ATOM     25  S   UNL A   1      32.838  18.556  24.289  1.00  0.00     0.175 S 
ATOM     26  C   UNL A   1      32.556  17.894  22.672  1.00  0.00     0.163 C 
ATOM     27  O   UNL A   1      31.841  17.979  25.167  1.00  0.00    -0.224 OA
ATOM     28  O   UNL A   1      34.256  18.437  24.580  1.00  0.00    -0.224 OA
ENDBRANCH  20  25
ENDBRANCH  15  19
BRANCH  18  29
ATOM     29  C   UNL A   1      29.634  27.193  23.363  1.00  0.00     0.030 A 
ATOM     30  C   UNL A   1      28.499  26.584  23.879  1.00  0.00     0.017 A 
ATOM     31  S   UNL A   1      29.247  28.743  22.736  1.00  0.00    -0.147 S 
ATOM     32  C   UNL A   1      27.330  27.388  23.763  1.00  0.00     0.012 A 
ATOM     33  C   UNL A   1      27.604  28.604  23.183  1.00  0.00     0.065 A 
ENDBRANCH  18  29
ENDBRANCH   9  14
ENDBRANCH   5   8
ENDBRANCH   3   4
ENDBRANCH   2   3
ENDBRANCH   1   2
BRANCH   1  34
ATOM     34  C   UNL A   1      37.272  29.548  31.145  1.00  0.00     0.002 C 
BRANCH  34  35
ATOM     35  C   UNL A   1      36.266  30.537  31.737  1.00  0.00     0.021 C 
BRANCH  35  36
ATOM     36  C   UNL A   1      36.653  31.064  33.114  1.00  0.00     0.116 C 
BRANCH  36  37
ATOM     37  N   UNL A   1      36.691  32.518  33.140  1.00  0.00    -0.352 N 
ATOM     38  C   UNL A   1      37.712  33.366  32.797  1.00  0.00     0.251 C 
ATOM     39  H   UNL A   1      35.864  32.955  33.447  1.00  0.00     0.163 HD
ATOM     40  O   UNL A   1      37.665  34.551  33.108  1.00  0.00    -0.269 OA
BRANCH  38  41
ATOM     41  C   UNL A   1      38.880  32.843  32.059  1.00  0.00     0.039 A 
ATOM     42  C   UNL A   1      39.851  32.118  32.752  1.00  0.00     0.014 A 
ATOM     43  C   UNL A   1      39.024  33.084  30.689  1.00  0.00     0.014 A 
ATOM     44  C   UNL A   1      40.944  31.591  32.061  1.00  0.00     0.010 A 
ATOM     45  C   UNL A   1      40.071  32.496  29.989  1.00  0.00     0.010 A 
ATOM     46  C   UNL A   1      41.047  31.752  30.669  1.00  0.00    -0.014 A 
BRANCH  46  47
ATOM     47  C   UNL A   1      42.175  31.159  29.910  1.00  0.00     0.031 A 
ATOM     48  C   UNL A   1      42.057  29.769  29.349  1.00  0.00     0.074 A 
ATOM     49  C   UNL A   1      43.326  31.847  29.780  1.00  0.00     0.049 A 
ATOM     50  N   UNL A   1      42.952  29.053  28.715  1.00  0.00    -0.248 NA
ATOM     51  C   UNL A   1      40.772  29.080  29.551  1.00  0.00     0.031 C 
ATOM     52  C   UNL A   1      43.577  33.183  30.322  1.00  0.00     0.029 A 
ATOM     53  N   UNL A   1      44.504  31.513  29.161  1.00  0.00    -0.354 N 
ATOM     54  C   UNL A   1      42.344  27.831  28.458  1.00  0.00     0.074 A 
ATOM     55  C   UNL A   1      41.026  27.880  29.052  1.00  0.00     0.031 C 
ATOM     56  C   UNL A   1      44.821  33.564  29.993  1.00  0.00     0.029 A 
ATOM     57  C   UNL A   1      45.469  32.485  29.255  1.00  0.00     0.049 A 
ATOM     58  H   UNL A   1      44.644  30.657  28.695  1.00  0.00     0.167 HD
ATOM     59  C   UNL A   1      42.833  26.772  27.768  1.00  0.00     0.037 A 
ATOM     60  C   UNL A   1      46.738  32.499  28.802  1.00  0.00     0.037 A 
ATOM     61  C   UNL A   1      44.137  26.740  27.159  1.00  0.00     0.049 A 
ATOM     62  C   UNL A   1      47.258  31.309  28.044  1.00  0.00     0.074 A 
ATOM     63  C   UNL A   1      44.703  25.741  26.387  1.00  0.00     0.029 A 
ATOM     64  N   UNL A   1      45.081  27.752  27.258  1.00  0.00    -0.354 N 
ATOM     65  N   UNL A   1      46.650  30.187  27.745  1.00  0.00    -0.248 NA
ATOM     66  C   UNL A   1      48.641  31.391  27.551  1.00  0.00     0.031 C 
ATOM     67  C   UNL A   1      46.009  26.124  26.065  1.00  0.00     0.029 A 
ATOM     68  C   UNL A   1      46.236  27.388  26.583  1.00  0.00     0.049 A 
ATOM     69  H   UNL A   1      44.950  28.602  27.737  1.00  0.00     0.167 HD
ATOM     70  C   UNL A   1      47.560  29.444  27.004  1.00  0.00     0.074 A 
ATOM     71  C   UNL A   1      48.758  30.250  26.888  1.00  0.00     0.031 C 
ATOM     72  C   UNL A   1      47.417  28.207  26.470  1.00  0.00     0.037 A 
BRANCH  59  73
ATOM     73  C   UNL A   1      41.954  25.561  27.635  1.00  0.00     0.064 A 
ATOM     74  C   UNL A   1      40.858  25.536  26.759  1.00  0.00     0.173 A 
ATOM     75  C   UNL A   1      42.236  24.395  28.364  1.00  0.00     0.173 A 
ATOM     76  F   UNL A   1      40.538  26.627  26.047  1.00  0.00    -0.203 F 
ATOM     77  C   UNL A   1      40.059  24.402  26.642  1.00  0.00     0.198 A 
ATOM     78  C   UNL A   1      41.454  23.251  28.218  1.00  0.00     0.198 A 
ATOM     79  F   UNL A   1      43.275  24.361  29.211  1.00  0.00    -0.203 F 
ATOM     80  F   UNL A   1      38.987  24.421  25.838  1.00  0.00    -0.200 F 
ATOM     81  C   UNL A   1      40.363  23.258  27.365  1.00  0.00     0.200 A 
ATOM     82  F   UNL A   1      41.759  22.142  28.907  1.00  0.00    -0.200 F 
ATOM     83  F   UNL A   1      39.598  22.164  27.243  1.00  0.00    -0.200 F 
ENDBRANCH  59  73
BRANCH  60  84
ATOM     84  C   UNL A   1      47.596  33.691  29.039  1.00  0.00     0.064 A 
ATOM     85  C   UNL A   1      48.418  33.774  30.172  1.00  0.00     0.173 A 
ATOM     86  C   UNL A   1      47.610  34.770  28.143  1.00  0.00     0.173 A 
ATOM     87  F   UNL A   1      48.425  32.776  31.068  1.00  0.00    -0.203 F 
ATOM     88  C   UNL A   1      49.201  34.899  30.413  1.00  0.00     0.198 A 
ATOM     89  C   UNL A   1      48.418  35.882  28.369  1.00  0.00     0.198 A 
ATOM     90  F   UNL A   1      46.849  34.737  27.040  1.00  0.00    -0.203 F 
ATOM     91  F   UNL A   1      49.938  34.974  31.529  1.00  0.00    -0.200 F 
ATOM     92  C   UNL A   1      49.206  35.951  29.507  1.00  0.00     0.200 A 
ATOM     93  F   UNL A   1      48.432  36.887  27.483  1.00  0.00    -0.200 F 
ATOM     94  F   UNL A   1      49.963  37.032  29.737  1.00  0.00    -0.200 F 
ENDBRANCH  60  84
BRANCH  72  95
ATOM     95  C   UNL A   1      48.568  27.662  25.672  1.00  0.00     0.064 A 
ATOM     96  C   UNL A   1      48.570  27.679  24.269  1.00  0.00     0.173 A 
ATOM     97  C   UNL A   1      49.702  27.151  26.324  1.00  0.00     0.173 A 
ATOM     98  F   UNL A   1      47.505  28.142  23.599  1.00  0.00    -0.203 F 
ATOM     99  C   UNL A   1      49.652  27.180  23.549  1.00  0.00     0.198 A 
ATOM    100  C   UNL A   1      50.796  26.686  25.601  1.00  0.00     0.198 A 
ATOM    101  F   UNL A   1      49.754  27.119  27.664  1.00  0.00    -0.203 F 
ATOM    102  F   UNL A   1      49.609  27.158  22.211  1.00  0.00    -0.200 F 
ATOM    103  C   UNL A   1      50.766  26.692  24.216  1.00  0.00     0.200 A 
ATOM    104  F   UNL A   1      51.878  26.229  26.246  1.00  0.00    -0.200 F 
ATOM    105  F   UNL A   1      51.811  26.220  23.520  1.00  0.00    -0.200 F 
ENDBRANCH  72  95
ENDBRANCH  46  47
ENDBRANCH  38  41
ENDBRANCH  36  37
ENDBRANCH  35  36
ENDBRANCH  34  35
ENDBRANCH   1  34
TORSDOF 17
ENDMDL
MODEL 3
REMARK VINA RESULT:     -11.3      3.943      9.244
REMARK SMILES CS(=O)(=O)c1ccc(C2=NN(c3ccc(C(=O)NCCCCCCNC(=O)c4ccc(-c5c6nc(c(-c7c(F)c(F)c(F)c(F)c7F)c7ccc([nH]7)c(-c7c(F)c(F)c(F)c(F)c7F)c7nc(c(-c8c(F)c(F)c(F)c(F)c8F)c8ccc5[nH]8)C=C7)C=C6)cc4)cc3)[C@H](c3cccs3)C2)cc1
REMARK SMILES IDX 21 1 20 2 19 3 18 4 16 5 17 6 15 8 12 9 13 10 92 11 14 12
REMARK SMILES IDX 91 13 11 14 9 15 10 16 99 17 93 18 8 19 5 20 6 21 101 22
REMARK SMILES IDX 7 23 100 24 2 25 1 26 3 27 4 28 94 29 95 30 98 31 96 32
REMARK SMILES IDX 97 33 22 34 23 35 24 36 25 37 26 38 27 40 28 41 29 42 90 43
REMARK SMILES IDX 30 44 89 45 31 46 32 47 33 48 83 49 34 50 88 51 82 52 84 53
REMARK SMILES IDX 35 54 87 55 81 56 80 57 36 59 68 60 48 61 67 62 49 63 52 64
REMARK SMILES IDX 66 65 85 66 50 67 51 68 65 70 86 71 53 72 37 73 38 74 46 75
REMARK SMILES IDX 39 76 40 77 44 78 47 79 41 80 42 81 45 82 43 83 69 84 70 85
REMARK SMILES IDX 78 86 71 87 72 88 76 89 79 90 73 91 74 92 77 93 75 94 54 95
REMARK SMILES IDX 55 96 63 97 56 98 57 99 61 100 64 101 58 102 59 103 62 104
REMARK SMILES IDX 60 105
REMARK H PARENT 18 7 25 39 84 58 52 69
REMARK Flexibility Score: inf
ROOT
ATOM      1  C   UNL A   1      40.843  27.438  28.069  1.00  0.00     0.002 C 
ENDROOT
BRANCH   1   2
ATOM      2  C   UNL A   1      41.899  28.011  29.023  1.00  0.00     0.021 C 
BRANCH   2   3
ATOM      3  C   UNL A   1      41.788  27.450  30.443  1.00  0.00     0.116 C 
BRANCH   3   4
ATOM      4  N   UNL A   1      41.887  28.527  31.410  1.00  0.00    -0.352 N 
ATOM      5  C   UNL A   1      41.058  29.583  31.686  1.00  0.00     0.251 C 
ATOM      6  O   UNL A   1      41.382  30.356  32.585  1.00  0.00    -0.269 OA
ATOM      7  H   UNL A   1      42.697  28.492  31.969  1.00  0.00     0.163 HD
BRANCH   5   8
ATOM      8  C   UNL A   1      39.760  29.775  30.989  1.00  0.00     0.039 A 
ATOM      9  C   UNL A   1      37.320  30.352  29.703  1.00  0.00     0.060 A 
ATOM     10  C   UNL A   1      38.465  31.103  29.421  1.00  0.00     0.029 A 
ATOM     11  C   UNL A   1      37.430  29.270  30.578  1.00  0.00     0.029 A 
ATOM     12  C   UNL A   1      39.675  30.824  30.065  1.00  0.00     0.016 A 
ATOM     13  C   UNL A   1      38.644  28.961  31.189  1.00  0.00     0.016 A 
BRANCH   9  14
ATOM     14  N   UNL A   1      36.105  30.623  29.105  1.00  0.00    -0.257 N 
ATOM     15  C   UNL A   1      34.582  30.249  27.688  1.00  0.00     0.071 C 
ATOM     16  N   UNL A   1      35.504  29.660  28.376  1.00  0.00    -0.176 NA
ATOM     17  C   UNL A   1      34.509  31.745  27.813  1.00  0.00     0.091 C 
ATOM     18  C   UNL A   1      35.581  31.976  28.894  1.00  0.00     0.154 C 
BRANCH  15  19
ATOM     19  C   UNL A   1      33.650  29.488  26.851  1.00  0.00    -0.002 A 
ATOM     20  C   UNL A   1      32.005  28.019  25.169  1.00  0.00     0.067 A 
ATOM     21  C   UNL A   1      33.250  27.500  25.532  1.00  0.00     0.021 A 
ATOM     22  C   UNL A   1      31.587  29.273  25.639  1.00  0.00     0.021 A 
ATOM     23  C   UNL A   1      34.079  28.247  26.367  1.00  0.00     0.011 A 
ATOM     24  C   UNL A   1      32.408  30.009  26.495  1.00  0.00     0.011 A 
BRANCH  20  25
ATOM     25  S   UNL A   1      30.910  27.135  24.083  1.00  0.00     0.175 S 
ATOM     26  C   UNL A   1      29.963  26.023  25.083  1.00  0.00     0.163 C 
ATOM     27  O   UNL A   1      31.748  26.328  23.221  1.00  0.00    -0.224 OA
ATOM     28  O   UNL A   1      30.002  28.127  23.535  1.00  0.00    -0.224 OA
ENDBRANCH  20  25
ENDBRANCH  15  19
BRANCH  18  29
ATOM     29  C   UNL A   1      35.132  32.683  30.165  1.00  0.00     0.030 A 
ATOM     30  C   UNL A   1      35.155  32.148  31.446  1.00  0.00     0.017 A 
ATOM     31  S   UNL A   1      34.443  34.254  30.187  1.00  0.00    -0.147 S 
ATOM     32  C   UNL A   1      34.617  33.026  32.428  1.00  0.00     0.012 A 
ATOM     33  C   UNL A   1      34.217  34.221  31.879  1.00  0.00     0.065 A 
ENDBRANCH  18  29
ENDBRANCH   9  14
ENDBRANCH   5   8
ENDBRANCH   3   4
ENDBRANCH   2   3
ENDBRANCH   1   2
BRANCH   1  34
ATOM     34  C   UNL A   1      39.860  26.460  28.722  1.00  0.00     0.002 C 
BRANCH  34  35
ATOM     35  C   UNL A   1      39.323  25.374  27.788  1.00  0.00     0.021 C 
BRANCH  35  36
ATOM     36  C   UNL A   1      40.131  25.202  26.507  1.00  0.00     0.116 C 
BRANCH  36  37
ATOM     37  N   UNL A   1      40.815  23.918  26.474  1.00  0.00    -0.352 N 
ATOM     38  C   UNL A   1      42.140  23.646  26.249  1.00  0.00     0.251 C 
ATOM     39  H   UNL A   1      40.244  23.133  26.637  1.00  0.00     0.163 HD
ATOM     40  O   UNL A   1      42.506  22.500  26.013  1.00  0.00    -0.269 OA
BRANCH  38  41
ATOM     41  C   UNL A   1      43.127  24.744  26.282  1.00  0.00     0.039 A 
ATOM     42  C   UNL A   1      43.396  25.449  25.106  1.00  0.00     0.014 A 
ATOM     43  C   UNL A   1      43.799  25.064  27.465  1.00  0.00     0.014 A 
ATOM     44  C   UNL A   1      44.304  26.508  25.129  1.00  0.00     0.010 A 
ATOM     45  C   UNL A   1      44.645  26.167  27.505  1.00  0.00     0.010 A 
ATOM     46  C   UNL A   1      44.914  26.894  26.335  1.00  0.00    -0.014 A 
BRANCH  46  47
ATOM     47  C   UNL A   1      45.845  28.049  26.390  1.00  0.00     0.031 A 
ATOM     48  C   UNL A   1      47.321  27.835  26.205  1.00  0.00     0.074 A 
ATOM     49  C   UNL A   1      45.366  29.277  26.666  1.00  0.00     0.049 A 
ATOM     50  N   UNL A   1      48.300  28.702  26.283  1.00  0.00    -0.248 NA
ATOM     51  C   UNL A   1      47.762  26.459  25.925  1.00  0.00     0.031 C 
ATOM     52  C   UNL A   1      43.960  29.601  26.910  1.00  0.00     0.029 A 
ATOM     53  N   UNL A   1      46.012  30.481  26.797  1.00  0.00    -0.354 N 
ATOM     54  C   UNL A   1      49.465  27.976  26.076  1.00  0.00     0.074 A 
ATOM     55  C   UNL A   1      49.080  26.589  25.926  1.00  0.00     0.031 C 
ATOM     56  C   UNL A   1      43.846  30.918  27.140  1.00  0.00     0.029 A 
ATOM     57  C   UNL A   1      45.173  31.525  27.100  1.00  0.00     0.049 A 
ATOM     58  H   UNL A   1      46.985  30.585  26.684  1.00  0.00     0.167 HD
ATOM     59  C   UNL A   1      50.740  28.429  25.995  1.00  0.00     0.037 A 
ATOM     60  C   UNL A   1      45.446  32.824  27.329  1.00  0.00     0.037 A 
ATOM     61  C   UNL A   1      51.113  29.813  26.120  1.00  0.00     0.049 A 
ATOM     62  C   UNL A   1      46.871  33.299  27.238  1.00  0.00     0.074 A 
ATOM     63  C   UNL A   1      52.367  30.382  25.993  1.00  0.00     0.029 A 
ATOM     64  N   UNL A   1      50.233  30.846  26.409  1.00  0.00    -0.354 N 
ATOM     65  N   UNL A   1      47.957  32.615  26.972  1.00  0.00    -0.248 NA
ATOM     66  C   UNL A   1      47.106  34.731  27.472  1.00  0.00     0.031 C 
ATOM     67  C   UNL A   1      52.256  31.751  26.258  1.00  0.00     0.029 A 
ATOM     68  C   UNL A   1      50.922  32.046  26.489  1.00  0.00     0.049 A 
ATOM     69  H   UNL A   1      49.262  30.742  26.537  1.00  0.00     0.167 HD
ATOM     70  C   UNL A   1      48.997  33.535  26.973  1.00  0.00     0.074 A 
ATOM     71  C   UNL A   1      48.409  34.828  27.254  1.00  0.00     0.031 C 
ATOM     72  C   UNL A   1      50.320  33.326  26.762  1.00  0.00     0.037 A 
BRANCH  59  73
ATOM     73  C   UNL A   1      51.824  27.416  25.759  1.00  0.00     0.064 A 
ATOM     74  C   UNL A   1      52.528  26.826  26.819  1.00  0.00     0.173 A 
ATOM     75  C   UNL A   1      52.137  27.001  24.455  1.00  0.00     0.173 A 
ATOM     76  F   UNL A   1      52.276  27.195  28.084  1.00  0.00    -0.203 F 
ATOM     77  C   UNL A   1      53.524  25.882  26.583  1.00  0.00     0.198 A 
ATOM     78  C   UNL A   1      53.110  26.031  24.224  1.00  0.00     0.198 A 
ATOM     79  F   UNL A   1      51.491  27.527  23.403  1.00  0.00    -0.203 F 
ATOM     80  F   UNL A   1      54.218  25.372  27.610  1.00  0.00    -0.200 F 
ATOM     81  C   UNL A   1      53.808  25.480  25.286  1.00  0.00     0.200 A 
ATOM     82  F   UNL A   1      53.372  25.633  22.971  1.00  0.00    -0.200 F 
ATOM     83  F   UNL A   1      54.761  24.564  25.061  1.00  0.00    -0.200 F 
ENDBRANCH  59  73
BRANCH  60  84
ATOM     84  C   UNL A   1      44.343  33.769  27.647  1.00  0.00     0.064 A 
ATOM     85  C   UNL A   1      43.794  33.829  28.936  1.00  0.00     0.173 A 
ATOM     86  C   UNL A   1      43.812  34.626  26.672  1.00  0.00     0.173 A 
ATOM     87  F   UNL A   1      44.255  33.016  29.899  1.00  0.00    -0.203 F 
ATOM     88  C   UNL A   1      42.741  34.692  29.231  1.00  0.00     0.198 A 
ATOM     89  C   UNL A   1      42.780  35.510  26.976  1.00  0.00     0.198 A 
ATOM     90  F   UNL A   1      44.306  34.613  25.425  1.00  0.00    -0.203 F 
ATOM     91  F   UNL A   1      42.202  34.693  30.457  1.00  0.00    -0.200 F 
ATOM     92  C   UNL A   1      42.238  35.537  28.252  1.00  0.00     0.200 A 
ATOM     93  F   UNL A   1      42.309  36.337  26.032  1.00  0.00    -0.200 F 
ATOM     94  F   UNL A   1      41.229  36.369  28.537  1.00  0.00    -0.200 F 
ENDBRANCH  60  84
BRANCH  72  95
ATOM     95  C   UNL A   1      51.220  34.529  26.783  1.00  0.00     0.064 A 
ATOM     96  C   UNL A   1      51.905  34.921  27.943  1.00  0.00     0.173 A 
ATOM     97  C   UNL A   1      51.430  35.276  25.613  1.00  0.00     0.173 A 
ATOM     98  F   UNL A   1      51.727  34.249  29.091  1.00  0.00    -0.203 F 
ATOM     99  C   UNL A   1      52.744  36.032  27.939  1.00  0.00     0.198 A 
ATOM    100  C   UNL A   1      52.297  36.365  25.603  1.00  0.00     0.198 A 
ATOM    101  F   UNL A   1      50.806  34.940  24.474  1.00  0.00    -0.203 F 
ATOM    102  F   UNL A   1      53.346  36.419  29.071  1.00  0.00    -0.200 F 
ATOM    103  C   UNL A   1      52.945  36.748  26.767  1.00  0.00     0.200 A 
ATOM    104  F   UNL A   1      52.503  37.046  24.467  1.00  0.00    -0.200 F 
ATOM    105  F   UNL A   1      53.760  37.812  26.763  1.00  0.00    -0.200 F 
ENDBRANCH  72  95
ENDBRANCH  46  47
ENDBRANCH  38  41
ENDBRANCH  36  37
ENDBRANCH  35  36
ENDBRANCH  34  35
ENDBRANCH   1  34
TORSDOF 17
ENDMDL
