MODEL 1
REMARK VINA RESULT:     -11.8      0.000      0.000
REMARK SMILES CC(C)(C)C(=O)N1CCCC[C@@H]1C(=O)NCCCCCCNC(=O)c1ccc(-c2c3nc(c(-c4c(F)c(F)c(F)c(F)c4F)c4ccc([nH]4)c(-c4c(F)c(F)c(F)c(F)c4F)c4nc(c(-c5c(F)c(F)c(F)c(F)c5F)c5ccc2[nH]5)C=C4)C=C3)cc1
REMARK SMILES IDX 18 1 17 2 16 3 15 4 13 5 14 6 12 8 7 9 8 10 9 11 11 12 10 13
REMARK SMILES IDX 5 14 6 15 2 16 1 17 3 18 4 19 19 20 20 21 21 22 22 23 23 24
REMARK SMILES IDX 24 26 25 27 26 28 87 29 27 30 86 31 28 32 29 33 30 34 80 35
REMARK SMILES IDX 31 36 85 37 79 38 81 39 32 40 84 41 78 42 77 43 33 45 65 46
REMARK SMILES IDX 45 47 64 48 46 49 49 50 63 51 82 52 47 53 48 54 62 56 83 57
REMARK SMILES IDX 50 58 34 59 35 60 43 61 36 62 37 63 41 64 44 65 38 66 39 67
REMARK SMILES IDX 42 68 40 69 66 70 67 71 75 72 68 73 69 74 73 75 76 76 70 77
REMARK SMILES IDX 71 78 74 79 72 80 51 81 52 82 60 83 53 84 54 85 58 86 61 87
REMARK SMILES IDX 55 88 56 89 59 90 57 91
REMARK H PARENT 15 7 22 25 81 44 49 55
REMARK Flexibility Score: inf
ROOT
ATOM      1  C   UNL A   1      32.690  29.554  27.179  1.00  0.00     0.002 C 
ENDROOT
BRANCH   1   2
ATOM      2  C   UNL A   1      31.935  28.279  27.571  1.00  0.00     0.021 C 
BRANCH   2   3
ATOM      3  C   UNL A   1      31.503  27.430  26.381  1.00  0.00     0.116 C 
BRANCH   3   4
ATOM      4  N   UNL A   1      31.043  26.128  26.823  1.00  0.00    -0.354 N 
ATOM      5  C   UNL A   1      31.607  24.900  26.665  1.00  0.00     0.242 C 
ATOM      6  O   UNL A   1      30.944  23.925  27.037  1.00  0.00    -0.273 OA
ATOM      7  H   UNL A   1      30.190  26.133  27.316  1.00  0.00     0.163 HD
BRANCH   5   8
ATOM      8  C   UNL A   1      32.919  24.694  25.883  1.00  0.00     0.174 C 
ATOM      9  N   UNL A   1      32.839  24.454  24.422  1.00  0.00    -0.330 N 
ATOM     10  C   UNL A   1      34.038  23.861  23.822  1.00  0.00     0.120 C 
ATOM     11  C   UNL A   1      34.436  22.559  24.485  1.00  0.00     0.022 C 
ATOM     12  C   UNL A   1      33.548  23.473  26.633  1.00  0.00     0.035 C 
ATOM     13  C   UNL A   1      34.734  22.811  25.951  1.00  0.00     0.004 C 
BRANCH   9  14
ATOM     14  C   UNL A   1      31.967  25.000  23.491  1.00  0.00     0.228 C 
ATOM     15  O   UNL A   1      30.933  24.357  23.251  1.00  0.00    -0.274 OA
BRANCH  14  16
ATOM     16  C   UNL A   1      32.276  26.263  22.635  1.00  0.00     0.041 C 
ATOM     17  C   UNL A   1      30.969  27.099  22.571  1.00  0.00     0.021 C 
ATOM     18  C   UNL A   1      32.630  25.828  21.207  1.00  0.00     0.021 C 
ATOM     19  C   UNL A   1      33.350  27.216  23.153  1.00  0.00     0.021 C 
ENDBRANCH  14  16
ENDBRANCH   9  14
ENDBRANCH   5   8
ENDBRANCH   3   4
ENDBRANCH   2   3
ENDBRANCH   1   2
BRANCH   1  20
ATOM     20  C   UNL A   1      31.939  30.486  26.223  1.00  0.00     0.002 C 
BRANCH  20  21
ATOM     21  C   UNL A   1      31.568  31.851  26.804  1.00  0.00     0.021 C 
BRANCH  21  22
ATOM     22  C   UNL A   1      32.745  32.658  27.336  1.00  0.00     0.116 C 
BRANCH  22  23
ATOM     23  N   UNL A   1      32.406  34.049  27.597  1.00  0.00    -0.352 N 
ATOM     24  C   UNL A   1      32.974  34.908  28.508  1.00  0.00     0.251 C 
ATOM     25  H   UNL A   1      31.676  34.423  27.051  1.00  0.00     0.163 HD
ATOM     26  O   UNL A   1      32.512  36.015  28.710  1.00  0.00    -0.269 OA
BRANCH  24  27
ATOM     27  C   UNL A   1      34.154  34.441  29.269  1.00  0.00     0.039 A 
ATOM     28  C   UNL A   1      33.958  33.782  30.485  1.00  0.00     0.014 A 
ATOM     29  C   UNL A   1      35.439  34.614  28.748  1.00  0.00     0.014 A 
ATOM     30  C   UNL A   1      35.055  33.240  31.155  1.00  0.00     0.010 A 
ATOM     31  C   UNL A   1      36.521  34.021  29.386  1.00  0.00     0.010 A 
ATOM     32  C   UNL A   1      36.339  33.328  30.595  1.00  0.00    -0.014 A 
BRANCH  32  33
ATOM     33  C   UNL A   1      37.521  32.721  31.255  1.00  0.00     0.031 A 
ATOM     34  C   UNL A   1      38.241  31.588  30.583  1.00  0.00     0.074 A 
ATOM     35  C   UNL A   1      37.885  33.125  32.486  1.00  0.00     0.049 A 
ATOM     36  N   UNL A   1      39.192  30.818  31.046  1.00  0.00    -0.248 NA
ATOM     37  C   UNL A   1      37.808  31.254  29.216  1.00  0.00     0.031 C 
ATOM     38  C   UNL A   1      37.244  34.195  33.253  1.00  0.00     0.029 A 
ATOM     39  N   UNL A   1      38.873  32.665  33.321  1.00  0.00    -0.354 N 
ATOM     40  C   UNL A   1      39.452  29.898  30.040  1.00  0.00     0.074 A 
ATOM     41  C   UNL A   1      38.533  30.175  28.959  1.00  0.00     0.031 C 
ATOM     42  C   UNL A   1      37.861  34.315  34.440  1.00  0.00     0.029 A 
ATOM     43  C   UNL A   1      38.910  33.305  34.535  1.00  0.00     0.049 A 
ATOM     44  H   UNL A   1      39.497  31.945  33.071  1.00  0.00     0.167 HD
ATOM     45  C   UNL A   1      40.390  28.921  30.015  1.00  0.00     0.037 A 
ATOM     46  C   UNL A   1      39.691  33.086  35.610  1.00  0.00     0.037 A 
ATOM     47  C   UNL A   1      41.326  28.673  31.078  1.00  0.00     0.049 A 
ATOM     48  C   UNL A   1      40.722  31.990  35.558  1.00  0.00     0.074 A 
ATOM     49  C   UNL A   1      42.348  27.743  31.127  1.00  0.00     0.029 A 
ATOM     50  N   UNL A   1      41.354  29.365  32.279  1.00  0.00    -0.354 N 
ATOM     51  N   UNL A   1      40.994  31.156  34.584  1.00  0.00    -0.248 NA
ATOM     52  C   UNL A   1      41.558  31.806  36.753  1.00  0.00     0.031 C 
ATOM     53  C   UNL A   1      42.974  27.848  32.374  1.00  0.00     0.029 A 
ATOM     54  C   UNL A   1      42.368  28.873  33.083  1.00  0.00     0.049 A 
ATOM     55  H   UNL A   1      40.744  30.097  32.524  1.00  0.00     0.167 HD
ATOM     56  C   UNL A   1      42.049  30.374  35.033  1.00  0.00     0.074 A 
ATOM     57  C   UNL A   1      42.373  30.834  36.367  1.00  0.00     0.031 C 
ATOM     58  C   UNL A   1      42.691  29.364  34.398  1.00  0.00     0.037 A 
BRANCH  45  59
ATOM     59  C   UNL A   1      40.452  28.051  28.794  1.00  0.00     0.064 A 
ATOM     60  C   UNL A   1      39.745  26.842  28.716  1.00  0.00     0.173 A 
ATOM     61  C   UNL A   1      41.199  28.447  27.675  1.00  0.00     0.173 A 
ATOM     62  F   UNL A   1      39.025  26.412  29.764  1.00  0.00    -0.203 F 
ATOM     63  C   UNL A   1      39.806  26.048  27.574  1.00  0.00     0.198 A 
ATOM     64  C   UNL A   1      41.235  27.665  26.523  1.00  0.00     0.198 A 
ATOM     65  F   UNL A   1      41.891  29.597  27.696  1.00  0.00    -0.203 F 
ATOM     66  F   UNL A   1      39.161  24.873  27.542  1.00  0.00    -0.200 F 
ATOM     67  C   UNL A   1      40.544  26.464  26.476  1.00  0.00     0.200 A 
ATOM     68  F   UNL A   1      41.940  28.074  25.459  1.00  0.00    -0.200 F 
ATOM     69  F   UNL A   1      40.597  25.702  25.375  1.00  0.00    -0.200 F 
ENDBRANCH  45  59
BRANCH  46  70
ATOM     70  C   UNL A   1      39.544  33.933  36.823  1.00  0.00     0.064 A 
ATOM     71  C   UNL A   1      38.750  33.512  37.898  1.00  0.00     0.173 A 
ATOM     72  C   UNL A   1      40.182  35.177  36.928  1.00  0.00     0.173 A 
ATOM     73  F   UNL A   1      38.103  32.339  37.833  1.00  0.00    -0.203 F 
ATOM     74  C   UNL A   1      38.583  34.312  39.026  1.00  0.00     0.198 A 
ATOM     75  C   UNL A   1      40.035  35.965  38.068  1.00  0.00     0.198 A 
ATOM     76  F   UNL A   1      40.955  35.624  35.928  1.00  0.00    -0.203 F 
ATOM     77  F   UNL A   1      37.781  33.907  40.020  1.00  0.00    -0.200 F 
ATOM     78  C   UNL A   1      39.230  35.537  39.113  1.00  0.00     0.200 A 
ATOM     79  F   UNL A   1      40.670  37.143  38.153  1.00  0.00    -0.200 F 
ATOM     80  F   UNL A   1      39.069  36.307  40.197  1.00  0.00    -0.200 F 
ENDBRANCH  46  70
BRANCH  58  81
ATOM     81  C   UNL A   1      43.845  28.722  35.109  1.00  0.00     0.064 A 
ATOM     82  C   UNL A   1      45.149  29.223  34.999  1.00  0.00     0.173 A 
ATOM     83  C   UNL A   1      43.626  27.633  35.968  1.00  0.00     0.173 A 
ATOM     84  F   UNL A   1      45.410  30.253  34.180  1.00  0.00    -0.203 F 
ATOM     85  C   UNL A   1      46.197  28.648  35.711  1.00  0.00     0.198 A 
ATOM     86  C   UNL A   1      44.671  27.078  36.699  1.00  0.00     0.198 A 
ATOM     87  F   UNL A   1      42.394  27.123  36.112  1.00  0.00    -0.203 F 
ATOM     88  F   UNL A   1      47.442  29.121  35.567  1.00  0.00    -0.200 F 
ATOM     89  C   UNL A   1      45.956  27.582  36.568  1.00  0.00     0.200 A 
ATOM     90  F   UNL A   1      44.434  26.057  37.535  1.00  0.00    -0.200 F 
ATOM     91  F   UNL A   1      46.964  27.040  37.264  1.00  0.00    -0.200 F 
ENDBRANCH  58  81
ENDBRANCH  32  33
ENDBRANCH  24  27
ENDBRANCH  22  23
ENDBRANCH  21  22
ENDBRANCH  20  21
ENDBRANCH   1  20
TORSDOF 15
ENDMDL
MODEL 2
REMARK VINA RESULT:     -11.7      1.047      1.863
REMARK SMILES CC(C)(C)C(=O)N1CCCC[C@@H]1C(=O)NCCCCCCNC(=O)c1ccc(-c2c3nc(c(-c4c(F)c(F)c(F)c(F)c4F)c4ccc([nH]4)c(-c4c(F)c(F)c(F)c(F)c4F)c4nc(c(-c5c(F)c(F)c(F)c(F)c5F)c5ccc2[nH]5)C=C4)C=C3)cc1
REMARK SMILES IDX 18 1 17 2 16 3 15 4 13 5 14 6 12 8 7 9 8 10 9 11 11 12 10 13
REMARK SMILES IDX 5 14 6 15 2 16 1 17 3 18 4 19 19 20 20 21 21 22 22 23 23 24
REMARK SMILES IDX 24 26 25 27 26 28 87 29 27 30 86 31 28 32 29 33 30 34 80 35
REMARK SMILES IDX 31 36 85 37 79 38 81 39 32 40 84 41 78 42 77 43 33 45 65 46
REMARK SMILES IDX 45 47 64 48 46 49 49 50 63 51 82 52 47 53 48 54 62 56 83 57
REMARK SMILES IDX 50 58 34 59 35 60 43 61 36 62 37 63 41 64 44 65 38 66 39 67
REMARK SMILES IDX 42 68 40 69 66 70 67 71 75 72 68 73 69 74 73 75 76 76 70 77
REMARK SMILES IDX 71 78 74 79 72 80 51 81 52 82 60 83 53 84 54 85 58 86 61 87
REMARK SMILES IDX 55 88 56 89 59 90 57 91
REMARK H PARENT 15 7 22 25 81 44 49 55
REMARK Flexibility Score: inf
ROOT
ATOM      1  C   UNL A   1      32.730  29.522  25.497  1.00  0.00     0.002 C 
ENDROOT
BRANCH   1   2
ATOM      2  C   UNL A   1      33.657  28.346  25.827  1.00  0.00     0.021 C 
BRANCH   2   3
ATOM      3  C   UNL A   1      33.424  27.117  24.957  1.00  0.00     0.116 C 
BRANCH   3   4
ATOM      4  N   UNL A   1      33.211  25.942  25.780  1.00  0.00    -0.354 N 
ATOM      5  C   UNL A   1      33.892  24.766  25.820  1.00  0.00     0.242 C 
ATOM      6  O   UNL A   1      33.428  23.870  26.536  1.00  0.00    -0.273 OA
ATOM      7  H   UNL A   1      32.457  26.006  26.410  1.00  0.00     0.163 HD
BRANCH   5   8
ATOM      8  C   UNL A   1      35.075  24.470  24.877  1.00  0.00     0.174 C 
ATOM      9  N   UNL A   1      34.865  23.517  23.760  1.00  0.00    -0.330 N 
ATOM     10  C   UNL A   1      36.090  22.964  23.174  1.00  0.00     0.120 C 
ATOM     11  C   UNL A   1      36.971  22.286  24.202  1.00  0.00     0.022 C 
ATOM     12  C   UNL A   1      36.159  23.951  25.878  1.00  0.00     0.035 C 
ATOM     13  C   UNL A   1      37.383  23.297  25.257  1.00  0.00     0.004 C 
BRANCH   9  14
ATOM     14  C   UNL A   1      33.739  23.328  22.970  1.00  0.00     0.228 C 
ATOM     15  O   UNL A   1      33.610  24.083  21.993  1.00  0.00    -0.274 OA
BRANCH  14  16
ATOM     16  C   UNL A   1      32.578  22.351  23.317  1.00  0.00     0.041 C 
ATOM     17  C   UNL A   1      33.147  21.309  24.319  1.00  0.00     0.021 C 
ATOM     18  C   UNL A   1      32.153  21.603  22.046  1.00  0.00     0.021 C 
ATOM     19  C   UNL A   1      31.344  22.942  23.994  1.00  0.00     0.021 C 
ENDBRANCH  14  16
ENDBRANCH   9  14
ENDBRANCH   5   8
ENDBRANCH   3   4
ENDBRANCH   2   3
ENDBRANCH   1   2
BRANCH   1  20
ATOM     20  C   UNL A   1      31.996  30.127  26.698  1.00  0.00     0.002 C 
BRANCH  20  21
ATOM     21  C   UNL A   1      31.789  31.642  26.638  1.00  0.00     0.021 C 
BRANCH  21  22
ATOM     22  C   UNL A   1      32.918  32.463  27.248  1.00  0.00     0.116 C 
BRANCH  22  23
ATOM     23  N   UNL A   1      32.520  33.828  27.556  1.00  0.00    -0.352 N 
ATOM     24  C   UNL A   1      33.034  34.669  28.517  1.00  0.00     0.251 C 
ATOM     25  H   UNL A   1      31.791  34.198  27.007  1.00  0.00     0.163 HD
ATOM     26  O   UNL A   1      32.526  35.749  28.750  1.00  0.00    -0.269 OA
BRANCH  24  27
ATOM     27  C   UNL A   1      34.210  34.214  29.288  1.00  0.00     0.039 A 
ATOM     28  C   UNL A   1      34.009  33.543  30.497  1.00  0.00     0.014 A 
ATOM     29  C   UNL A   1      35.499  34.410  28.785  1.00  0.00     0.014 A 
ATOM     30  C   UNL A   1      35.106  33.012  31.177  1.00  0.00     0.010 A 
ATOM     31  C   UNL A   1      36.582  33.827  29.432  1.00  0.00     0.010 A 
ATOM     32  C   UNL A   1      36.395  33.124  30.633  1.00  0.00    -0.014 A 
BRANCH  32  33
ATOM     33  C   UNL A   1      37.578  32.529  31.304  1.00  0.00     0.031 A 
ATOM     34  C   UNL A   1      38.300  31.386  30.651  1.00  0.00     0.074 A 
ATOM     35  C   UNL A   1      37.941  32.953  32.528  1.00  0.00     0.049 A 
ATOM     36  N   UNL A   1      39.252  30.626  31.126  1.00  0.00    -0.248 NA
ATOM     37  C   UNL A   1      37.869  31.030  29.289  1.00  0.00     0.031 C 
ATOM     38  C   UNL A   1      37.297  34.034  33.277  1.00  0.00     0.029 A 
ATOM     39  N   UNL A   1      38.929  32.508  33.371  1.00  0.00    -0.354 N 
ATOM     40  C   UNL A   1      39.514  29.690  30.135  1.00  0.00     0.074 A 
ATOM     41  C   UNL A   1      38.595  29.948  29.050  1.00  0.00     0.031 C 
ATOM     42  C   UNL A   1      37.913  34.174  34.463  1.00  0.00     0.029 A 
ATOM     43  C   UNL A   1      38.964  33.167  34.575  1.00  0.00     0.049 A 
ATOM     44  H   UNL A   1      39.554  31.785  33.133  1.00  0.00     0.167 HD
ATOM     45  C   UNL A   1      40.454  28.714  30.126  1.00  0.00     0.037 A 
ATOM     46  C   UNL A   1      39.745  32.967  35.654  1.00  0.00     0.037 A 
ATOM     47  C   UNL A   1      41.389  28.484  31.194  1.00  0.00     0.049 A 
ATOM     48  C   UNL A   1      40.778  31.872  35.620  1.00  0.00     0.074 A 
ATOM     49  C   UNL A   1      42.413  27.557  31.259  1.00  0.00     0.029 A 
ATOM     50  N   UNL A   1      41.415  29.196  32.384  1.00  0.00    -0.354 N 
ATOM     51  N   UNL A   1      41.051  31.023  34.659  1.00  0.00    -0.248 NA
ATOM     52  C   UNL A   1      41.613  31.708  36.818  1.00  0.00     0.031 C 
ATOM     53  C   UNL A   1      43.038  27.683  32.504  1.00  0.00     0.029 A 
ATOM     54  C   UNL A   1      42.430  28.718  33.196  1.00  0.00     0.049 A 
ATOM     55  H   UNL A   1      40.804  29.931  32.617  1.00  0.00     0.167 HD
ATOM     56  C   UNL A   1      42.107  30.250  35.122  1.00  0.00     0.074 A 
ATOM     57  C   UNL A   1      42.430  30.732  36.448  1.00  0.00     0.031 C 
ATOM     58  C   UNL A   1      42.752  29.231  34.503  1.00  0.00     0.037 A 
BRANCH  45  59
ATOM     59  C   UNL A   1      40.517  27.825  28.920  1.00  0.00     0.064 A 
ATOM     60  C   UNL A   1      41.356  28.116  27.835  1.00  0.00     0.173 A 
ATOM     61  C   UNL A   1      39.756  26.647  28.863  1.00  0.00     0.173 A 
ATOM     62  F   UNL A   1      42.095  29.237  27.834  1.00  0.00    -0.203 F 
ATOM     63  C   UNL A   1      41.410  27.278  26.724  1.00  0.00     0.198 A 
ATOM     64  C   UNL A   1      39.834  25.796  27.763  1.00  0.00     0.198 A 
ATOM     65  F   UNL A   1      38.940  26.319  29.876  1.00  0.00    -0.203 F 
ATOM     66  F   UNL A   1      42.182  27.604  25.678  1.00  0.00    -0.200 F 
ATOM     67  C   UNL A   1      40.655  26.115  26.693  1.00  0.00     0.200 A 
ATOM     68  F   UNL A   1      39.113  24.666  27.740  1.00  0.00    -0.200 F 
ATOM     69  F   UNL A   1      40.714  25.306  25.627  1.00  0.00    -0.200 F 
ENDBRANCH  45  59
BRANCH  46  70
ATOM     70  C   UNL A   1      39.596  33.833  36.853  1.00  0.00     0.064 A 
ATOM     71  C   UNL A   1      38.794  33.433  37.930  1.00  0.00     0.173 A 
ATOM     72  C   UNL A   1      40.240  35.076  36.942  1.00  0.00     0.173 A 
ATOM     73  F   UNL A   1      38.141  32.263  37.879  1.00  0.00    -0.203 F 
ATOM     74  C   UNL A   1      38.625  34.251  39.045  1.00  0.00     0.198 A 
ATOM     75  C   UNL A   1      40.090  35.882  38.070  1.00  0.00     0.198 A 
ATOM     76  F   UNL A   1      41.020  35.503  35.940  1.00  0.00    -0.203 F 
ATOM     77  F   UNL A   1      37.815  33.865  40.040  1.00  0.00    -0.200 F 
ATOM     78  C   UNL A   1      39.277  35.473  39.116  1.00  0.00     0.200 A 
ATOM     79  F   UNL A   1      40.731  37.057  38.140  1.00  0.00    -0.200 F 
ATOM     80  F   UNL A   1      39.115  36.261  40.188  1.00  0.00    -0.200 F 
ENDBRANCH  46  70
BRANCH  58  81
ATOM     81  C   UNL A   1      43.906  28.602  35.225  1.00  0.00     0.064 A 
ATOM     82  C   UNL A   1      45.195  29.149  35.170  1.00  0.00     0.173 A 
ATOM     83  C   UNL A   1      43.700  27.477  36.040  1.00  0.00     0.173 A 
ATOM     84  F   UNL A   1      45.444  30.214  34.394  1.00  0.00    -0.203 F 
ATOM     85  C   UNL A   1      46.242  28.583  35.892  1.00  0.00     0.198 A 
ATOM     86  C   UNL A   1      44.742  26.931  36.782  1.00  0.00     0.198 A 
ATOM     87  F   UNL A   1      42.482  26.923  36.131  1.00  0.00    -0.203 F 
ATOM     88  F   UNL A   1      47.474  29.101  35.800  1.00  0.00    -0.200 F 
ATOM     89  C   UNL A   1      46.013  27.481  36.705  1.00  0.00     0.200 A 
ATOM     90  F   UNL A   1      44.516  25.875  37.575  1.00  0.00    -0.200 F 
ATOM     91  F   UNL A   1      47.018  26.948  37.411  1.00  0.00    -0.200 F 
ENDBRANCH  58  81
ENDBRANCH  32  33
ENDBRANCH  24  27
ENDBRANCH  22  23
ENDBRANCH  21  22
ENDBRANCH  20  21
ENDBRANCH   1  20
TORSDOF 15
ENDMDL
MODEL 3
REMARK VINA RESULT:     -11.7      5.611     11.085
REMARK SMILES CC(C)(C)C(=O)N1CCCC[C@@H]1C(=O)NCCCCCCNC(=O)c1ccc(-c2c3nc(c(-c4c(F)c(F)c(F)c(F)c4F)c4ccc([nH]4)c(-c4c(F)c(F)c(F)c(F)c4F)c4nc(c(-c5c(F)c(F)c(F)c(F)c5F)c5ccc2[nH]5)C=C4)C=C3)cc1
REMARK SMILES IDX 18 1 17 2 16 3 15 4 13 5 14 6 12 8 7 9 8 10 9 11 11 12 10 13
REMARK SMILES IDX 5 14 6 15 2 16 1 17 3 18 4 19 19 20 20 21 21 22 22 23 23 24
REMARK SMILES IDX 24 26 25 27 26 28 87 29 27 30 86 31 28 32 29 33 30 34 80 35
REMARK SMILES IDX 31 36 85 37 79 38 81 39 32 40 84 41 78 42 77 43 33 45 65 46
REMARK SMILES IDX 45 47 64 48 46 49 49 50 63 51 82 52 47 53 48 54 62 56 83 57
REMARK SMILES IDX 50 58 34 59 35 60 43 61 36 62 37 63 41 64 44 65 38 66 39 67
REMARK SMILES IDX 42 68 40 69 66 70 67 71 75 72 68 73 69 74 73 75 76 76 70 77
REMARK SMILES IDX 71 78 74 79 72 80 51 81 52 82 60 83 53 84 54 85 58 86 61 87
REMARK SMILES IDX 55 88 56 89 59 90 57 91
REMARK H PARENT 15 7 22 25 81 44 49 55
REMARK Flexibility Score: inf
ROOT
ATOM      1  C   UNL A   1      36.049  21.711  25.412  1.00  0.00     0.002 C 
ENDROOT
BRANCH   1   2
ATOM      2  C   UNL A   1      36.068  23.116  26.025  1.00  0.00     0.021 C 
BRANCH   2   3
ATOM      3  C   UNL A   1      34.697  23.779  26.087  1.00  0.00     0.116 C 
BRANCH   3   4
ATOM      4  N   UNL A   1      34.508  24.666  24.956  1.00  0.00    -0.354 N 
ATOM      5  C   UNL A   1      33.933  25.897  24.894  1.00  0.00     0.242 C 
ATOM      6  O   UNL A   1      33.788  26.395  23.771  1.00  0.00    -0.273 OA
ATOM      7  H   UNL A   1      34.848  24.323  24.097  1.00  0.00     0.163 HD
BRANCH   5   8
ATOM      8  C   UNL A   1      33.306  26.573  26.129  1.00  0.00     0.174 C 
ATOM      9  N   UNL A   1      31.854  26.872  26.108  1.00  0.00    -0.330 N 
ATOM     10  C   UNL A   1      31.409  27.864  27.093  1.00  0.00     0.120 C 
ATOM     11  C   UNL A   1      32.155  29.177  26.974  1.00  0.00     0.022 C 
ATOM     12  C   UNL A   1      34.161  27.878  26.246  1.00  0.00     0.035 C 
ATOM     13  C   UNL A   1      33.636  28.936  27.203  1.00  0.00     0.004 C 
BRANCH   9  14
ATOM     14  C   UNL A   1      30.815  26.136  25.556  1.00  0.00     0.228 C 
ATOM     15  O   UNL A   1      30.416  25.159  26.208  1.00  0.00    -0.274 OA
BRANCH  14  16
ATOM     16  C   UNL A   1      30.241  26.366  24.127  1.00  0.00     0.041 C 
ATOM     17  C   UNL A   1      28.693  26.327  24.249  1.00  0.00     0.021 C 
ATOM     18  C   UNL A   1      30.674  25.207  23.219  1.00  0.00     0.021 C 
ATOM     19  C   UNL A   1      30.568  27.692  23.445  1.00  0.00     0.021 C 
ENDBRANCH  14  16
ENDBRANCH   9  14
ENDBRANCH   5   8
ENDBRANCH   3   4
ENDBRANCH   2   3
ENDBRANCH   1   2
BRANCH   1  20
ATOM     20  C   UNL A   1      37.271  21.357  24.560  1.00  0.00     0.002 C 
BRANCH  20  21
ATOM     21  C   UNL A   1      38.031  20.105  25.002  1.00  0.00     0.021 C 
BRANCH  21  22
ATOM     22  C   UNL A   1      39.244  20.374  25.884  1.00  0.00     0.116 C 
BRANCH  22  23
ATOM     23  N   UNL A   1      40.166  19.250  25.935  1.00  0.00    -0.352 N 
ATOM     24  C   UNL A   1      41.528  19.274  26.125  1.00  0.00     0.251 C 
ATOM     25  H   UNL A   1      39.764  18.359  25.819  1.00  0.00     0.163 HD
ATOM     26  O   UNL A   1      42.200  18.265  26.024  1.00  0.00    -0.269 OA
BRANCH  24  27
ATOM     27  C   UNL A   1      42.170  20.572  26.426  1.00  0.00     0.039 A 
ATOM     28  C   UNL A   1      42.623  21.365  25.370  1.00  0.00     0.014 A 
ATOM     29  C   UNL A   1      42.273  21.014  27.748  1.00  0.00     0.014 A 
ATOM     30  C   UNL A   1      43.128  22.639  25.636  1.00  0.00     0.010 A 
ATOM     31  C   UNL A   1      42.719  22.305  28.004  1.00  0.00     0.010 A 
ATOM     32  C   UNL A   1      43.150  23.128  26.951  1.00  0.00    -0.014 A 
BRANCH  32  33
ATOM     33  C   UNL A   1      43.634  24.495  27.266  1.00  0.00     0.031 A 
ATOM     34  C   UNL A   1      42.661  25.530  27.753  1.00  0.00     0.074 A 
ATOM     35  C   UNL A   1      44.917  24.825  27.029  1.00  0.00     0.049 A 
ATOM     36  N   UNL A   1      42.837  26.812  27.939  1.00  0.00    -0.248 NA
ATOM     37  C   UNL A   1      41.294  25.062  28.038  1.00  0.00     0.031 C 
ATOM     38  C   UNL A   1      45.949  23.916  26.527  1.00  0.00     0.029 A 
ATOM     39  N   UNL A   1      45.568  26.027  27.158  1.00  0.00    -0.354 N 
ATOM     40  C   UNL A   1      41.602  27.306  28.337  1.00  0.00     0.074 A 
ATOM     41  C   UNL A   1      40.675  26.197  28.325  1.00  0.00     0.031 C 
ATOM     42  C   UNL A   1      47.104  24.590  26.399  1.00  0.00     0.029 A 
ATOM     43  C   UNL A   1      46.885  25.985  26.769  1.00  0.00     0.049 A 
ATOM     44  H   UNL A   1      45.132  26.842  27.497  1.00  0.00     0.167 HD
ATOM     45  C   UNL A   1      41.278  28.571  28.698  1.00  0.00     0.037 A 
ATOM     46  C   UNL A   1      47.804  26.967  26.701  1.00  0.00     0.037 A 
ATOM     47  C   UNL A   1      42.213  29.662  28.743  1.00  0.00     0.049 A 
ATOM     48  C   UNL A   1      47.416  28.365  27.103  1.00  0.00     0.074 A 
ATOM     49  C   UNL A   1      41.997  30.968  29.146  1.00  0.00     0.029 A 
ATOM     50  N   UNL A   1      43.547  29.571  28.374  1.00  0.00    -0.354 N 
ATOM     51  N   UNL A   1      46.258  28.813  27.524  1.00  0.00    -0.248 NA
ATOM     52  C   UNL A   1      48.462  29.394  27.024  1.00  0.00     0.031 C 
ATOM     53  C   UNL A   1      43.191  31.677  28.987  1.00  0.00     0.029 A 
ATOM     54  C   UNL A   1      44.163  30.802  28.527  1.00  0.00     0.049 A 
ATOM     55  H   UNL A   1      43.990  28.754  28.051  1.00  0.00     0.167 HD
ATOM     56  C   UNL A   1      46.445  30.162  27.791  1.00  0.00     0.074 A 
ATOM     57  C   UNL A   1      47.829  30.461  27.489  1.00  0.00     0.031 C 
ATOM     58  C   UNL A   1      45.549  31.072  28.246  1.00  0.00     0.037 A 
BRANCH  45  59
ATOM     59  C   UNL A   1      39.852  28.838  29.080  1.00  0.00     0.064 A 
ATOM     60  C   UNL A   1      38.907  29.267  28.137  1.00  0.00     0.173 A 
ATOM     61  C   UNL A   1      39.417  28.630  30.397  1.00  0.00     0.173 A 
ATOM     62  F   UNL A   1      39.275  29.494  26.866  1.00  0.00    -0.203 F 
ATOM     63  C   UNL A   1      37.584  29.506  28.504  1.00  0.00     0.198 A 
ATOM     64  C   UNL A   1      38.088  28.842  30.755  1.00  0.00     0.198 A 
ATOM     65  F   UNL A   1      40.280  28.216  31.338  1.00  0.00    -0.203 F 
ATOM     66  F   UNL A   1      36.711  29.962  27.596  1.00  0.00    -0.200 F 
ATOM     67  C   UNL A   1      37.175  29.285  29.810  1.00  0.00     0.200 A 
ATOM     68  F   UNL A   1      37.691  28.616  32.015  1.00  0.00    -0.200 F 
ATOM     69  F   UNL A   1      35.901  29.507  30.160  1.00  0.00    -0.200 F 
ENDBRANCH  45  59
BRANCH  46  70
ATOM     70  C   UNL A   1      49.187  26.663  26.250  1.00  0.00     0.064 A 
ATOM     71  C   UNL A   1      50.154  26.212  27.159  1.00  0.00     0.173 A 
ATOM     72  C   UNL A   1      49.572  26.823  24.911  1.00  0.00     0.173 A 
ATOM     73  F   UNL A   1      49.837  26.065  28.454  1.00  0.00    -0.203 F 
ATOM     74  C   UNL A   1      51.460  25.953  26.751  1.00  0.00     0.198 A 
ATOM     75  C   UNL A   1      50.873  26.539  24.500  1.00  0.00     0.198 A 
ATOM     76  F   UNL A   1      48.684  27.249  24.002  1.00  0.00    -0.203 F 
ATOM     77  F   UNL A   1      52.377  25.569  27.649  1.00  0.00    -0.200 F 
ATOM     78  C   UNL A   1      51.818  26.112  25.420  1.00  0.00     0.200 A 
ATOM     79  F   UNL A   1      51.212  26.683  23.210  1.00  0.00    -0.200 F 
ATOM     80  F   UNL A   1      53.075  25.863  25.027  1.00  0.00    -0.200 F 
ENDBRANCH  46  70
BRANCH  58  81
ATOM     81  C   UNL A   1      46.045  32.464  28.498  1.00  0.00     0.064 A 
ATOM     82  C   UNL A   1      45.981  33.459  27.513  1.00  0.00     0.173 A 
ATOM     83  C   UNL A   1      46.528  32.822  29.767  1.00  0.00     0.173 A 
ATOM     84  F   UNL A   1      45.541  33.162  26.281  1.00  0.00    -0.203 F 
ATOM     85  C   UNL A   1      46.395  34.760  27.785  1.00  0.00     0.198 A 
ATOM     86  C   UNL A   1      46.915  34.129  30.043  1.00  0.00     0.198 A 
ATOM     87  F   UNL A   1      46.601  31.906  30.744  1.00  0.00    -0.203 F 
ATOM     88  F   UNL A   1      46.355  35.689  26.820  1.00  0.00    -0.200 F 
ATOM     89  C   UNL A   1      46.852  35.097  29.052  1.00  0.00     0.200 A 
ATOM     90  F   UNL A   1      47.344  34.455  31.271  1.00  0.00    -0.200 F 
ATOM     91  F   UNL A   1      47.235  36.353  29.314  1.00  0.00    -0.200 F 
ENDBRANCH  58  81
ENDBRANCH  32  33
ENDBRANCH  24  27
ENDBRANCH  22  23
ENDBRANCH  21  22
ENDBRANCH  20  21
ENDBRANCH   1  20
TORSDOF 15
ENDMDL
