MODEL 1
REMARK VINA RESULT:     -11.9      0.000      0.000
REMARK SMILES O=C(NCCCCCCNC(=O)c1cc(Cl)c2c(c1)[C@H]1C=CC[C@H]1[C@H](c1ccc(S(=O)(=O)N3CCOCC3)cc1)N2)c1ccc(-c2c3nc(c(-c4c(F)c(F)c(F)c(F)c4F)c4ccc([nH]4)c(-c4c(F)c(F)c(F)c(F)c4F)c4nc(c(-c5c(F)c(F)c(F)c(F)c5F)c5ccc2[nH]5)C=C4)C=C3)cc1
REMARK SMILES IDX 7 1 6 2 5 3 4 4 3 5 1 6 2 7 42 9 43 10 104 11 44 12 103 13
REMARK SMILES IDX 45 14 46 15 47 16 97 17 48 18 102 19 96 20 98 21 49 22
REMARK SMILES IDX 101 23 95 24 94 25 50 27 82 28 62 29 81 30 63 31 66 32 80 33
REMARK SMILES IDX 99 34 64 35 65 36 79 38 100 39 67 40 51 41 52 42 60 43 53 44
REMARK SMILES IDX 54 45 58 46 61 47 55 48 56 49 59 50 57 51 83 52 84 53 92 54
REMARK SMILES IDX 85 55 86 56 90 57 93 58 87 59 88 60 91 61 89 62 68 63 69 64
REMARK SMILES IDX 77 65 70 66 71 67 75 68 78 69 72 70 73 71 76 72 74 73 8 74
REMARK SMILES IDX 9 75 10 76 11 77 12 79 13 80 14 81 19 82 15 83 18 84 16 85
REMARK SMILES IDX 17 86 20 87 41 88 21 89 24 90 25 91 22 93 23 94 26 95 27 96
REMARK SMILES IDX 40 97 28 98 39 99 29 100 30 101 31 102 32 103 33 104 34 105
REMARK SMILES IDX 38 106 35 107 37 108 36 109
REMARK H PARENT 3 8 98 26 66 37 10 78 41 92
REMARK Flexibility Score: inf
ROOT
ATOM      1  C   UNL A   1      33.228  24.832  26.303  1.00  0.00     0.002 C 
ENDROOT
BRANCH   1   2
ATOM      2  C   UNL A   1      34.317  24.123  25.493  1.00  0.00     0.002 C 
BRANCH   2   3
ATOM      3  C   UNL A   1      35.231  23.194  26.297  1.00  0.00     0.021 C 
BRANCH   3   4
ATOM      4  C   UNL A   1      36.724  23.490  26.170  1.00  0.00     0.116 C 
BRANCH   4   5
ATOM      5  N   UNL A   1      37.519  22.277  26.097  1.00  0.00    -0.352 N 
ATOM      6  O   UNL A   1      39.411  21.051  25.965  1.00  0.00    -0.269 OA
ATOM      7  C   UNL A   1      38.875  22.123  26.229  1.00  0.00     0.251 C 
ATOM      8  H   UNL A   1      37.013  21.449  25.929  1.00  0.00     0.163 HD
BRANCH   7   9
ATOM      9  C   UNL A   1      39.699  23.262  26.678  1.00  0.00     0.039 A 
ATOM     10  C   UNL A   1      39.506  24.536  26.136  1.00  0.00     0.014 A 
ATOM     11  C   UNL A   1      40.659  23.053  27.671  1.00  0.00     0.014 A 
ATOM     12  C   UNL A   1      40.339  25.584  26.522  1.00  0.00     0.010 A 
ATOM     13  C   UNL A   1      41.468  24.113  28.086  1.00  0.00     0.010 A 
ATOM     14  C   UNL A   1      41.330  25.378  27.495  1.00  0.00    -0.014 A 
BRANCH  14  15
ATOM     15  C   UNL A   1      42.210  26.503  27.892  1.00  0.00     0.031 A 
ATOM     16  C   UNL A   1      43.557  26.677  27.252  1.00  0.00     0.074 A 
ATOM     17  C   UNL A   1      41.776  27.382  28.813  1.00  0.00     0.049 A 
ATOM     18  N   UNL A   1      44.436  27.630  27.430  1.00  0.00    -0.248 NA
ATOM     19  C   UNL A   1      43.974  25.648  26.286  1.00  0.00     0.031 C 
ATOM     20  C   UNL A   1      40.493  27.304  29.511  1.00  0.00     0.029 A 
ATOM     21  N   UNL A   1      42.364  28.513  29.319  1.00  0.00    -0.354 N 
ATOM     22  C   UNL A   1      45.503  27.323  26.598  1.00  0.00     0.074 A 
ATOM     23  C   UNL A   1      45.182  26.075  25.938  1.00  0.00     0.031 C 
ATOM     24  C   UNL A   1      40.384  28.350  30.346  1.00  0.00     0.029 A 
ATOM     25  C   UNL A   1      41.599  29.156  30.260  1.00  0.00     0.049 A 
ATOM     26  H   UNL A   1      43.250  28.834  29.034  1.00  0.00     0.167 HD
ATOM     27  C   UNL A   1      46.637  28.031  26.392  1.00  0.00     0.037 A 
ATOM     28  C   UNL A   1      41.852  30.267  30.978  1.00  0.00     0.037 A 
ATOM     29  C   UNL A   1      46.946  29.278  27.039  1.00  0.00     0.049 A 
ATOM     30  C   UNL A   1      43.144  31.006  30.758  1.00  0.00     0.074 A 
ATOM     31  C   UNL A   1      48.043  30.101  26.841  1.00  0.00     0.029 A 
ATOM     32  N   UNL A   1      46.168  29.876  28.016  1.00  0.00    -0.354 N 
ATOM     33  N   UNL A   1      44.109  30.747  29.911  1.00  0.00    -0.248 NA
ATOM     34  C   UNL A   1      43.381  32.191  31.595  1.00  0.00     0.031 C 
ATOM     35  C   UNL A   1      47.949  31.174  27.733  1.00  0.00     0.029 A 
ATOM     36  C   UNL A   1      46.776  31.040  28.457  1.00  0.00     0.049 A 
ATOM     37  H   UNL A   1      45.308  29.526  28.348  1.00  0.00     0.167 HD
ATOM     38  C   UNL A   1      45.061  31.739  30.104  1.00  0.00     0.074 A 
ATOM     39  C   UNL A   1      44.548  32.619  31.133  1.00  0.00     0.031 C 
ATOM     40  C   UNL A   1      46.256  31.901  29.487  1.00  0.00     0.037 A 
BRANCH  27  41
ATOM     41  C   UNL A   1      47.636  27.494  25.413  1.00  0.00     0.064 A 
ATOM     42  C   UNL A   1      47.503  27.725  24.037  1.00  0.00     0.173 A 
ATOM     43  C   UNL A   1      48.791  26.837  25.863  1.00  0.00     0.173 A 
ATOM     44  F   UNL A   1      46.412  28.343  23.558  1.00  0.00    -0.203 F 
ATOM     45  C   UNL A   1      48.490  27.316  23.144  1.00  0.00     0.198 A 
ATOM     46  C   UNL A   1      49.785  26.447  24.969  1.00  0.00     0.198 A 
ATOM     47  F   UNL A   1      48.966  26.600  27.171  1.00  0.00    -0.203 F 
ATOM     48  F   UNL A   1      48.336  27.536  21.831  1.00  0.00    -0.200 F 
ATOM     49  C   UNL A   1      49.634  26.688  23.612  1.00  0.00     0.200 A 
ATOM     50  F   UNL A   1      50.895  25.849  25.424  1.00  0.00    -0.200 F 
ATOM     51  F   UNL A   1      50.594  26.315  22.754  1.00  0.00    -0.200 F 
ENDBRANCH  27  41
BRANCH  28  52
ATOM     52  C   UNL A   1      40.860  30.746  31.971  1.00  0.00     0.064 A 
ATOM     53  C   UNL A   1      40.764  30.156  33.239  1.00  0.00     0.173 A 
ATOM     54  C   UNL A   1      39.986  31.802  31.673  1.00  0.00     0.173 A 
ATOM     55  F   UNL A   1      41.564  29.130  33.561  1.00  0.00    -0.203 F 
ATOM     56  C   UNL A   1      39.820  30.595  34.165  1.00  0.00     0.198 A 
ATOM     57  C   UNL A   1      39.060  32.255  32.609  1.00  0.00     0.198 A 
ATOM     58  F   UNL A   1      40.040  32.398  30.473  1.00  0.00    -0.203 F 
ATOM     59  F   UNL A   1      39.721  29.987  35.355  1.00  0.00    -0.200 F 
ATOM     60  C   UNL A   1      38.973  31.647  33.851  1.00  0.00     0.200 A 
ATOM     61  F   UNL A   1      38.250  33.279  32.305  1.00  0.00    -0.200 F 
ATOM     62  F   UNL A   1      38.067  32.069  34.744  1.00  0.00    -0.200 F 
ENDBRANCH  28  52
BRANCH  40  63
ATOM     63  C   UNL A   1      47.100  33.067  29.905  1.00  0.00     0.064 A 
ATOM     64  C   UNL A   1      46.972  34.316  29.281  1.00  0.00     0.173 A 
ATOM     65  C   UNL A   1      47.988  32.957  30.986  1.00  0.00     0.173 A 
ATOM     66  F   UNL A   1      46.147  34.464  28.233  1.00  0.00    -0.203 F 
ATOM     67  C   UNL A   1      47.707  35.413  29.719  1.00  0.00     0.198 A 
ATOM     68  C   UNL A   1      48.703  34.062  31.438  1.00  0.00     0.198 A 
ATOM     69  F   UNL A   1      48.139  31.785  31.619  1.00  0.00    -0.203 F 
ATOM     70  F   UNL A   1      47.590  36.590  29.090  1.00  0.00    -0.200 F 
ATOM     71  C   UNL A   1      48.564  35.287  30.803  1.00  0.00     0.200 A 
ATOM     72  F   UNL A   1      49.520  33.943  32.494  1.00  0.00    -0.200 F 
ATOM     73  F   UNL A   1      49.259  36.349  31.234  1.00  0.00    -0.200 F 
ENDBRANCH  40  63
ENDBRANCH  14  15
ENDBRANCH   7   9
ENDBRANCH   4   5
ENDBRANCH   3   4
ENDBRANCH   2   3
ENDBRANCH   1   2
BRANCH   1  74
ATOM     74  C   UNL A   1      31.821  24.769  25.703  1.00  0.00     0.021 C 
BRANCH  74  75
ATOM     75  C   UNL A   1      31.276  26.102  25.199  1.00  0.00     0.116 C 
BRANCH  75  76
ATOM     76  N   UNL A   1      31.931  26.540  23.978  1.00  0.00    -0.352 N 
ATOM     77  C   UNL A   1      32.659  27.682  23.765  1.00  0.00     0.251 C 
ATOM     78  H   UNL A   1      31.839  25.940  23.203  1.00  0.00     0.163 HD
ATOM     79  O   UNL A   1      33.043  27.993  22.645  1.00  0.00    -0.269 OA
BRANCH  77  80
ATOM     80  C   UNL A   1      32.944  28.557  24.913  1.00  0.00     0.041 A 
ATOM     81  C   UNL A   1      32.074  29.594  25.245  1.00  0.00     0.036 A 
ATOM     82  C   UNL A   1      34.111  28.344  25.640  1.00  0.00     0.020 A 
ATOM     83  C   UNL A   1      32.436  30.479  26.256  1.00  0.00     0.065 A 
ATOM     84  C   UNL A   1      34.463  29.223  26.677  1.00  0.00    -0.015 A 
ATOM     85  Cl  UNL A   1      31.371  31.799  26.600  1.00  0.00    -0.082 Cl
ATOM     86  C   UNL A   1      33.650  30.332  26.959  1.00  0.00     0.057 A 
ATOM     87  C   UNL A   1      35.688  28.931  27.492  1.00  0.00     0.049 C 
ATOM     88  N   UNL A   1      34.000  31.221  27.965  1.00  0.00    -0.376 N 
ATOM     89  C   UNL A   1      36.999  29.177  26.790  1.00  0.00    -0.023 C 
ATOM     90  C   UNL A   1      35.844  29.785  28.768  1.00  0.00     0.031 C 
ATOM     91  C   UNL A   1      35.352  31.233  28.506  1.00  0.00     0.114 C 
ATOM     92  H   UNL A   1      33.329  31.849  28.316  1.00  0.00     0.161 HD
ATOM     93  C   UNL A   1      37.932  29.579  27.660  1.00  0.00    -0.030 C 
ATOM     94  C   UNL A   1      37.359  29.668  29.040  1.00  0.00     0.034 C 
BRANCH  91  95
ATOM     95  C   UNL A   1      35.378  32.098  29.761  1.00  0.00    -0.025 A 
ATOM     96  C   UNL A   1      35.386  33.506  29.737  1.00  0.00     0.007 A 
ATOM     97  C   UNL A   1      35.378  31.459  31.004  1.00  0.00     0.007 A 
ATOM     98  C   UNL A   1      35.376  34.248  30.926  1.00  0.00     0.022 A 
ATOM     99  C   UNL A   1      35.316  32.194  32.180  1.00  0.00     0.022 A 
ATOM    100  C   UNL A   1      35.322  33.582  32.151  1.00  0.00     0.082 A 
BRANCH 100 101
ATOM    101  S   UNL A   1      35.246  34.528  33.657  1.00  0.00     0.243 S 
ATOM    102  O   UNL A   1      34.781  33.612  34.683  1.00  0.00    -0.207 OA
ATOM    103  O   UNL A   1      36.506  35.222  33.768  1.00  0.00    -0.207 OA
BRANCH 101 104
ATOM    104  N   UNL A   1      34.047  35.670  33.397  1.00  0.00    -0.193 NA
ATOM    105  C   UNL A   1      32.751  35.333  32.772  1.00  0.00     0.131 C 
ATOM    106  C   UNL A   1      34.232  37.088  33.752  1.00  0.00     0.131 C 
ATOM    107  C   UNL A   1      32.352  36.361  31.697  1.00  0.00     0.177 C 
ATOM    108  C   UNL A   1      33.846  37.981  32.572  1.00  0.00     0.177 C 
ATOM    109  O   UNL A   1      32.505  37.715  32.136  1.00  0.00    -0.379 OA
ENDBRANCH 101 104
ENDBRANCH 100 101
ENDBRANCH  91  95
ENDBRANCH  77  80
ENDBRANCH  75  76
ENDBRANCH  74  75
ENDBRANCH   1  74
TORSDOF 16
ENDMDL
MODEL 2
REMARK VINA RESULT:     -11.9      4.501      8.892
REMARK SMILES O=C(NCCCCCCNC(=O)c1cc(Cl)c2c(c1)[C@H]1C=CC[C@H]1[C@H](c1ccc(S(=O)(=O)N3CCOCC3)cc1)N2)c1ccc(-c2c3nc(c(-c4c(F)c(F)c(F)c(F)c4F)c4ccc([nH]4)c(-c4c(F)c(F)c(F)c(F)c4F)c4nc(c(-c5c(F)c(F)c(F)c(F)c5F)c5ccc2[nH]5)C=C4)C=C3)cc1
REMARK SMILES IDX 7 1 6 2 5 3 4 4 3 5 1 6 2 7 42 9 43 10 104 11 44 12 103 13
REMARK SMILES IDX 45 14 46 15 47 16 97 17 48 18 102 19 96 20 98 21 49 22
REMARK SMILES IDX 101 23 95 24 94 25 50 27 82 28 62 29 81 30 63 31 66 32 80 33
REMARK SMILES IDX 99 34 64 35 65 36 79 38 100 39 67 40 51 41 52 42 60 43 53 44
REMARK SMILES IDX 54 45 58 46 61 47 55 48 56 49 59 50 57 51 83 52 84 53 92 54
REMARK SMILES IDX 85 55 86 56 90 57 93 58 87 59 88 60 91 61 89 62 68 63 69 64
REMARK SMILES IDX 77 65 70 66 71 67 75 68 78 69 72 70 73 71 76 72 74 73 8 74
REMARK SMILES IDX 9 75 10 76 11 77 12 79 13 80 14 81 19 82 15 83 18 84 16 85
REMARK SMILES IDX 17 86 20 87 41 88 21 89 24 90 25 91 22 93 23 94 26 95 27 96
REMARK SMILES IDX 40 97 28 98 39 99 29 100 30 101 31 102 32 103 33 104 34 105
REMARK SMILES IDX 38 106 35 107 37 108 36 109
REMARK H PARENT 3 8 98 26 66 37 10 78 41 92
REMARK Flexibility Score: inf
ROOT
ATOM      1  C   UNL A   1      37.371  33.098  29.129  1.00  0.00     0.002 C 
ENDROOT
BRANCH   1   2
ATOM      2  C   UNL A   1      36.405  33.477  28.003  1.00  0.00     0.002 C 
BRANCH   2   3
ATOM      3  C   UNL A   1      34.918  33.355  28.347  1.00  0.00     0.021 C 
BRANCH   3   4
ATOM      4  C   UNL A   1      34.549  32.138  29.192  1.00  0.00     0.116 C 
BRANCH   4   5
ATOM      5  N   UNL A   1      34.016  31.053  28.387  1.00  0.00    -0.352 N 
ATOM      6  O   UNL A   1      34.105  29.272  27.002  1.00  0.00    -0.269 OA
ATOM      7  C   UNL A   1      34.680  30.007  27.798  1.00  0.00     0.251 C 
ATOM      8  H   UNL A   1      33.043  31.072  28.243  1.00  0.00     0.163 HD
BRANCH   7   9
ATOM      9  C   UNL A   1      36.103  29.774  28.116  1.00  0.00     0.039 A 
ATOM     10  C   UNL A   1      37.093  30.017  27.159  1.00  0.00     0.014 A 
ATOM     11  C   UNL A   1      36.447  29.328  29.394  1.00  0.00     0.014 A 
ATOM     12  C   UNL A   1      38.423  29.727  27.454  1.00  0.00     0.010 A 
ATOM     13  C   UNL A   1      37.785  29.073  29.701  1.00  0.00     0.010 A 
ATOM     14  C   UNL A   1      38.778  29.246  28.725  1.00  0.00    -0.014 A 
BRANCH  14  15
ATOM     15  C   UNL A   1      40.197  28.938  29.020  1.00  0.00     0.031 A 
ATOM     16  C   UNL A   1      40.806  27.645  28.559  1.00  0.00     0.074 A 
ATOM     17  C   UNL A   1      40.940  29.842  29.683  1.00  0.00     0.049 A 
ATOM     18  N   UNL A   1      42.042  27.231  28.675  1.00  0.00    -0.248 NA
ATOM     19  C   UNL A   1      39.914  26.693  27.879  1.00  0.00     0.031 C 
ATOM     20  C   UNL A   1      40.450  31.123  30.191  1.00  0.00     0.029 A 
ATOM     21  N   UNL A   1      42.265  29.824  30.041  1.00  0.00    -0.354 N 
ATOM     22  C   UNL A   1      42.080  25.978  28.080  1.00  0.00     0.074 A 
ATOM     23  C   UNL A   1      40.735  25.679  27.633  1.00  0.00     0.031 C 
ATOM     24  C   UNL A   1      41.463  31.775  30.785  1.00  0.00     0.029 A 
ATOM     25  C   UNL A   1      42.664  30.947  30.721  1.00  0.00     0.049 A 
ATOM     26  H   UNL A   1      42.870  29.077  29.830  1.00  0.00     0.167 HD
ATOM     27  C   UNL A   1      43.145  25.163  27.907  1.00  0.00     0.037 A 
ATOM     28  C   UNL A   1      43.864  31.269  31.241  1.00  0.00     0.037 A 
ATOM     29  C   UNL A   1      44.483  25.469  28.340  1.00  0.00     0.049 A 
ATOM     30  C   UNL A   1      45.018  30.320  31.071  1.00  0.00     0.074 A 
ATOM     31  C   UNL A   1      45.639  24.731  28.147  1.00  0.00     0.029 A 
ATOM     32  N   UNL A   1      44.841  26.596  29.061  1.00  0.00    -0.354 N 
ATOM     33  N   UNL A   1      45.058  29.173  30.437  1.00  0.00    -0.248 NA
ATOM     34  C   UNL A   1      46.295  30.708  31.690  1.00  0.00     0.031 C 
ATOM     35  C   UNL A   1      46.689  25.391  28.793  1.00  0.00     0.029 A 
ATOM     36  C   UNL A   1      46.195  26.557  29.353  1.00  0.00     0.049 A 
ATOM     37  H   UNL A   1      44.225  27.317  29.327  1.00  0.00     0.167 HD
ATOM     38  C   UNL A   1      46.360  28.709  30.571  1.00  0.00     0.074 A 
ATOM     39  C   UNL A   1      47.086  29.708  31.327  1.00  0.00     0.031 C 
ATOM     40  C   UNL A   1      46.901  27.555  30.112  1.00  0.00     0.037 A 
BRANCH  27  41
ATOM     41  C   UNL A   1      42.928  23.857  27.203  1.00  0.00     0.064 A 
ATOM     42  C   UNL A   1      43.234  23.704  25.844  1.00  0.00     0.173 A 
ATOM     43  C   UNL A   1      42.515  22.724  27.919  1.00  0.00     0.173 A 
ATOM     44  F   UNL A   1      43.626  24.762  25.116  1.00  0.00    -0.203 F 
ATOM     45  C   UNL A   1      43.132  22.462  25.223  1.00  0.00     0.198 A 
ATOM     46  C   UNL A   1      42.433  21.479  27.300  1.00  0.00     0.198 A 
ATOM     47  F   UNL A   1      42.218  22.819  29.223  1.00  0.00    -0.203 F 
ATOM     48  F   UNL A   1      43.417  22.340  23.919  1.00  0.00    -0.200 F 
ATOM     49  C   UNL A   1      42.742  21.350  25.955  1.00  0.00     0.200 A 
ATOM     50  F   UNL A   1      42.066  20.403  28.009  1.00  0.00    -0.200 F 
ATOM     51  F   UNL A   1      42.666  20.150  25.361  1.00  0.00    -0.200 F 
ENDBRANCH  27  41
BRANCH  28  52
ATOM     52  C   UNL A   1      44.033  32.550  31.970  1.00  0.00     0.064 A 
ATOM     53  C   UNL A   1      44.131  33.767  31.281  1.00  0.00     0.173 A 
ATOM     54  C   UNL A   1      44.101  32.584  33.371  1.00  0.00     0.173 A 
ATOM     55  F   UNL A   1      44.093  33.780  29.941  1.00  0.00    -0.203 F 
ATOM     56  C   UNL A   1      44.307  34.967  31.966  1.00  0.00     0.198 A 
ATOM     57  C   UNL A   1      44.252  33.788  34.055  1.00  0.00     0.198 A 
ATOM     58  F   UNL A   1      44.012  31.445  34.074  1.00  0.00    -0.203 F 
ATOM     59  F   UNL A   1      44.439  36.112  31.282  1.00  0.00    -0.200 F 
ATOM     60  C   UNL A   1      44.362  34.977  33.352  1.00  0.00     0.200 A 
ATOM     61  F   UNL A   1      44.294  33.794  35.394  1.00  0.00    -0.200 F 
ATOM     62  F   UNL A   1      44.529  36.133  34.009  1.00  0.00    -0.200 F 
ENDBRANCH  28  52
BRANCH  40  63
ATOM     63  C   UNL A   1      48.346  27.299  30.416  1.00  0.00     0.064 A 
ATOM     64  C   UNL A   1      48.734  26.636  31.589  1.00  0.00     0.173 A 
ATOM     65  C   UNL A   1      49.345  27.650  29.495  1.00  0.00     0.173 A 
ATOM     66  F   UNL A   1      47.815  26.295  32.506  1.00  0.00    -0.203 F 
ATOM     67  C   UNL A   1      50.071  26.339  31.834  1.00  0.00     0.198 A 
ATOM     68  C   UNL A   1      50.679  27.329  29.731  1.00  0.00     0.198 A 
ATOM     69  F   UNL A   1      49.023  28.279  28.356  1.00  0.00    -0.203 F 
ATOM     70  F   UNL A   1      50.423  25.729  32.974  1.00  0.00    -0.200 F 
ATOM     71  C   UNL A   1      51.041  26.676  30.900  1.00  0.00     0.200 A 
ATOM     72  F   UNL A   1      51.612  27.643  28.822  1.00  0.00    -0.200 F 
ATOM     73  F   UNL A   1      52.326  26.374  31.130  1.00  0.00    -0.200 F 
ENDBRANCH  40  63
ENDBRANCH  14  15
ENDBRANCH   7   9
ENDBRANCH   4   5
ENDBRANCH   3   4
ENDBRANCH   2   3
ENDBRANCH   1   2
BRANCH   1  74
ATOM     74  C   UNL A   1      38.391  34.175  29.505  1.00  0.00     0.021 C 
BRANCH  74  75
ATOM     75  C   UNL A   1      38.412  34.555  30.983  1.00  0.00     0.116 C 
BRANCH  75  76
ATOM     76  N   UNL A   1      37.096  34.468  31.594  1.00  0.00    -0.352 N 
ATOM     77  C   UNL A   1      36.627  33.525  32.472  1.00  0.00     0.251 C 
ATOM     78  H   UNL A   1      36.459  35.175  31.344  1.00  0.00     0.163 HD
ATOM     79  O   UNL A   1      35.449  33.496  32.805  1.00  0.00    -0.269 OA
BRANCH  77  80
ATOM     80  C   UNL A   1      37.565  32.515  32.986  1.00  0.00     0.041 A 
ATOM     81  C   UNL A   1      37.424  31.175  32.633  1.00  0.00     0.036 A 
ATOM     82  C   UNL A   1      38.575  32.924  33.851  1.00  0.00     0.020 A 
ATOM     83  C   UNL A   1      38.249  30.230  33.235  1.00  0.00     0.065 A 
ATOM     84  C   UNL A   1      39.423  31.971  34.438  1.00  0.00    -0.015 A 
ATOM     85  Cl  UNL A   1      38.005  28.564  32.831  1.00  0.00    -0.082 Cl
ATOM     86  C   UNL A   1      39.232  30.606  34.173  1.00  0.00     0.057 A 
ATOM     87  C   UNL A   1      40.549  32.442  35.311  1.00  0.00     0.049 C 
ATOM     88  N   UNL A   1      40.049  29.654  34.767  1.00  0.00    -0.376 N 
ATOM     89  C   UNL A   1      40.138  32.962  36.664  1.00  0.00    -0.023 C 
ATOM     90  C   UNL A   1      41.583  31.359  35.686  1.00  0.00     0.031 C 
ATOM     91  C   UNL A   1      40.873  29.999  35.916  1.00  0.00     0.114 C 
ATOM     92  H   UNL A   1      40.070  28.739  34.408  1.00  0.00     0.161 HD
ATOM     93  C   UNL A   1      41.080  32.702  37.577  1.00  0.00    -0.030 C 
ATOM     94  C   UNL A   1      42.224  31.964  36.954  1.00  0.00     0.034 C 
BRANCH  91  95
ATOM     95  C   UNL A   1      41.854  28.862  36.184  1.00  0.00    -0.025 A 
ATOM     96  C   UNL A   1      41.524  27.500  36.053  1.00  0.00     0.007 A 
ATOM     97  C   UNL A   1      43.158  29.192  36.565  1.00  0.00     0.007 A 
ATOM     98  C   UNL A   1      42.480  26.501  36.279  1.00  0.00     0.022 A 
ATOM     99  C   UNL A   1      44.117  28.204  36.740  1.00  0.00     0.022 A 
ATOM    100  C   UNL A   1      43.787  26.861  36.607  1.00  0.00     0.082 A 
BRANCH 100 101
ATOM    101  S   UNL A   1      45.014  25.592  36.833  1.00  0.00     0.243 S 
ATOM    102  O   UNL A   1      46.301  26.260  36.769  1.00  0.00    -0.207 OA
ATOM    103  O   UNL A   1      44.606  24.831  37.989  1.00  0.00    -0.207 OA
BRANCH 101 104
ATOM    104  N   UNL A   1      44.873  24.603  35.487  1.00  0.00    -0.193 NA
ATOM    105  C   UNL A   1      45.438  24.967  34.171  1.00  0.00     0.131 C 
ATOM    106  C   UNL A   1      44.148  23.321  35.535  1.00  0.00     0.131 C 
ATOM    107  C   UNL A   1      44.437  24.708  33.030  1.00  0.00     0.177 C 
ATOM    108  C   UNL A   1      43.157  23.232  34.374  1.00  0.00     0.177 C 
ATOM    109  O   UNL A   1      43.816  23.421  33.113  1.00  0.00    -0.379 OA
ENDBRANCH 101 104
ENDBRANCH 100 101
ENDBRANCH  91  95
ENDBRANCH  77  80
ENDBRANCH  75  76
ENDBRANCH  74  75
ENDBRANCH   1  74
TORSDOF 16
ENDMDL
MODEL 3
REMARK VINA RESULT:     -11.9      4.206      8.721
REMARK SMILES O=C(NCCCCCCNC(=O)c1cc(Cl)c2c(c1)[C@H]1C=CC[C@H]1[C@H](c1ccc(S(=O)(=O)N3CCOCC3)cc1)N2)c1ccc(-c2c3nc(c(-c4c(F)c(F)c(F)c(F)c4F)c4ccc([nH]4)c(-c4c(F)c(F)c(F)c(F)c4F)c4nc(c(-c5c(F)c(F)c(F)c(F)c5F)c5ccc2[nH]5)C=C4)C=C3)cc1
REMARK SMILES IDX 7 1 6 2 5 3 4 4 3 5 1 6 2 7 42 9 43 10 104 11 44 12 103 13
REMARK SMILES IDX 45 14 46 15 47 16 97 17 48 18 102 19 96 20 98 21 49 22
REMARK SMILES IDX 101 23 95 24 94 25 50 27 82 28 62 29 81 30 63 31 66 32 80 33
REMARK SMILES IDX 99 34 64 35 65 36 79 38 100 39 67 40 51 41 52 42 60 43 53 44
REMARK SMILES IDX 54 45 58 46 61 47 55 48 56 49 59 50 57 51 83 52 84 53 92 54
REMARK SMILES IDX 85 55 86 56 90 57 93 58 87 59 88 60 91 61 89 62 68 63 69 64
REMARK SMILES IDX 77 65 70 66 71 67 75 68 78 69 72 70 73 71 76 72 74 73 8 74
REMARK SMILES IDX 9 75 10 76 11 77 12 79 13 80 14 81 19 82 15 83 18 84 16 85
REMARK SMILES IDX 17 86 20 87 41 88 21 89 24 90 25 91 22 93 23 94 26 95 27 96
REMARK SMILES IDX 40 97 28 98 39 99 29 100 30 101 31 102 32 103 33 104 34 105
REMARK SMILES IDX 38 106 35 107 37 108 36 109
REMARK H PARENT 3 8 98 26 66 37 10 78 41 92
REMARK Flexibility Score: inf
ROOT
ATOM      1  C   UNL A   1      36.946  32.797  29.732  1.00  0.00     0.002 C 
ENDROOT
BRANCH   1   2
ATOM      2  C   UNL A   1      35.551  32.664  30.352  1.00  0.00     0.002 C 
BRANCH   2   3
ATOM      3  C   UNL A   1      34.384  32.968  29.408  1.00  0.00     0.021 C 
BRANCH   3   4
ATOM      4  C   UNL A   1      34.494  32.336  28.023  1.00  0.00     0.116 C 
BRANCH   4   5
ATOM      5  N   UNL A   1      33.878  31.021  27.970  1.00  0.00    -0.352 N 
ATOM      6  O   UNL A   1      33.818  28.776  27.732  1.00  0.00    -0.269 OA
ATOM      7  C   UNL A   1      34.476  29.787  27.956  1.00  0.00     0.251 C 
ATOM      8  H   UNL A   1      32.895  31.015  27.940  1.00  0.00     0.163 HD
BRANCH   7   9
ATOM      9  C   UNL A   1      35.928  29.676  28.199  1.00  0.00     0.039 A 
ATOM     10  C   UNL A   1      36.844  29.995  27.191  1.00  0.00     0.014 A 
ATOM     11  C   UNL A   1      36.375  29.270  29.459  1.00  0.00     0.014 A 
ATOM     12  C   UNL A   1      38.207  29.819  27.416  1.00  0.00     0.010 A 
ATOM     13  C   UNL A   1      37.744  29.131  29.695  1.00  0.00     0.010 A 
ATOM     14  C   UNL A   1      38.667  29.379  28.668  1.00  0.00    -0.014 A 
BRANCH  14  15
ATOM     15  C   UNL A   1      40.120  29.193  28.888  1.00  0.00     0.031 A 
ATOM     16  C   UNL A   1      40.807  27.943  28.419  1.00  0.00     0.074 A 
ATOM     17  C   UNL A   1      40.822  30.170  29.491  1.00  0.00     0.049 A 
ATOM     18  N   UNL A   1      42.077  27.632  28.473  1.00  0.00    -0.248 NA
ATOM     19  C   UNL A   1      39.960  26.906  27.809  1.00  0.00     0.031 C 
ATOM     20  C   UNL A   1      40.258  31.419  30.001  1.00  0.00     0.029 A 
ATOM     21  N   UNL A   1      42.161  30.266  29.775  1.00  0.00    -0.354 N 
ATOM     22  C   UNL A   1      42.184  26.373  27.901  1.00  0.00     0.074 A 
ATOM     23  C   UNL A   1      40.846  25.956  27.536  1.00  0.00     0.031 C 
ATOM     24  C   UNL A   1      41.245  32.164  30.524  1.00  0.00     0.029 A 
ATOM     25  C   UNL A   1      42.504  31.434  30.409  1.00  0.00     0.049 A 
ATOM     26  H   UNL A   1      42.813  29.566  29.544  1.00  0.00     0.167 HD
ATOM     27  C   UNL A   1      43.302  25.642  27.684  1.00  0.00     0.037 A 
ATOM     28  C   UNL A   1      43.701  31.864  30.854  1.00  0.00     0.037 A 
ATOM     29  C   UNL A   1      44.631  26.065  28.035  1.00  0.00     0.049 A 
ATOM     30  C   UNL A   1      44.917  31.006  30.639  1.00  0.00     0.074 A 
ATOM     31  C   UNL A   1      45.832  25.418  27.791  1.00  0.00     0.029 A 
ATOM     32  N   UNL A   1      44.936  27.234  28.714  1.00  0.00    -0.354 N 
ATOM     33  N   UNL A   1      45.016  29.852  30.026  1.00  0.00    -0.248 NA
ATOM     34  C   UNL A   1      46.189  31.511  31.177  1.00  0.00     0.031 C 
ATOM     35  C   UNL A   1      46.858  26.176  28.365  1.00  0.00     0.029 A 
ATOM     36  C   UNL A   1      46.302  27.311  28.929  1.00  0.00     0.049 A 
ATOM     37  H   UNL A   1      44.278  27.909  28.999  1.00  0.00     0.167 HD
ATOM     38  C   UNL A   1      46.356  29.498  30.095  1.00  0.00     0.074 A 
ATOM     39  C   UNL A   1      47.039  30.570  30.789  1.00  0.00     0.031 C 
ATOM     40  C   UNL A   1      46.964  28.381  29.628  1.00  0.00     0.037 A 
BRANCH  27  41
ATOM     41  C   UNL A   1      43.154  24.307  27.019  1.00  0.00     0.064 A 
ATOM     42  C   UNL A   1      43.476  24.129  25.666  1.00  0.00     0.173 A 
ATOM     43  C   UNL A   1      42.793  23.177  27.766  1.00  0.00     0.173 A 
ATOM     44  F   UNL A   1      43.820  25.182  24.909  1.00  0.00    -0.203 F 
ATOM     45  C   UNL A   1      43.439  22.865  25.083  1.00  0.00     0.198 A 
ATOM     46  C   UNL A   1      42.776  21.911  27.184  1.00  0.00     0.198 A 
ATOM     47  F   UNL A   1      42.483  23.296  29.065  1.00  0.00    -0.203 F 
ATOM     48  F   UNL A   1      43.738  22.719  23.784  1.00  0.00    -0.200 F 
ATOM     49  C   UNL A   1      43.100  21.757  25.845  1.00  0.00     0.200 A 
ATOM     50  F   UNL A   1      42.458  20.840  27.924  1.00  0.00    -0.200 F 
ATOM     51  F   UNL A   1      43.087  20.538  25.288  1.00  0.00    -0.200 F 
ENDBRANCH  27  41
BRANCH  28  52
ATOM     52  C   UNL A   1      43.803  33.171  31.549  1.00  0.00     0.064 A 
ATOM     53  C   UNL A   1      43.972  33.240  32.938  1.00  0.00     0.173 A 
ATOM     54  C   UNL A   1      43.733  34.378  30.837  1.00  0.00     0.173 A 
ATOM     55  F   UNL A   1      44.023  32.112  33.662  1.00  0.00    -0.203 F 
ATOM     56  C   UNL A   1      44.050  34.468  33.591  1.00  0.00     0.198 A 
ATOM     57  C   UNL A   1      43.837  35.604  31.489  1.00  0.00     0.198 A 
ATOM     58  F   UNL A   1      43.572  34.363  29.506  1.00  0.00    -0.203 F 
ATOM     59  F   UNL A   1      44.171  34.507  34.926  1.00  0.00    -0.200 F 
ATOM     60  C   UNL A   1      43.988  35.648  32.866  1.00  0.00     0.200 A 
ATOM     61  F   UNL A   1      43.787  36.743  30.783  1.00  0.00    -0.200 F 
ATOM     62  F   UNL A   1      44.066  36.829  33.496  1.00  0.00    -0.200 F 
ENDBRANCH  28  52
BRANCH  40  63
ATOM     63  C   UNL A   1      48.440  28.249  29.855  1.00  0.00     0.064 A 
ATOM     64  C   UNL A   1      49.362  28.657  28.881  1.00  0.00     0.173 A 
ATOM     65  C   UNL A   1      48.938  27.784  31.082  1.00  0.00     0.173 A 
ATOM     66  F   UNL A   1      48.933  29.095  27.687  1.00  0.00    -0.203 F 
ATOM     67  C   UNL A   1      50.732  28.598  29.123  1.00  0.00     0.198 A 
ATOM     68  C   UNL A   1      50.307  27.749  31.330  1.00  0.00     0.198 A 
ATOM     69  F   UNL A   1      48.095  27.389  32.046  1.00  0.00    -0.203 F 
ATOM     70  F   UNL A   1      51.596  28.967  28.168  1.00  0.00    -0.200 F 
ATOM     71  C   UNL A   1      51.202  28.153  30.351  1.00  0.00     0.200 A 
ATOM     72  F   UNL A   1      50.759  27.333  32.521  1.00  0.00    -0.200 F 
ATOM     73  F   UNL A   1      52.520  28.113  30.589  1.00  0.00    -0.200 F 
ENDBRANCH  40  63
ENDBRANCH  14  15
ENDBRANCH   7   9
ENDBRANCH   4   5
ENDBRANCH   3   4
ENDBRANCH   2   3
ENDBRANCH   1   2
BRANCH   1  74
ATOM     74  C   UNL A   1      37.540  34.208  29.757  1.00  0.00     0.021 C 
BRANCH  74  75
ATOM     75  C   UNL A   1      38.350  34.543  31.006  1.00  0.00     0.116 C 
BRANCH  75  76
ATOM     76  N   UNL A   1      37.506  34.926  32.126  1.00  0.00    -0.352 N 
ATOM     77  C   UNL A   1      37.283  34.246  33.295  1.00  0.00     0.251 C 
ATOM     78  H   UNL A   1      37.033  35.784  32.032  1.00  0.00     0.163 HD
ATOM     79  O   UNL A   1      36.439  34.621  34.099  1.00  0.00    -0.269 OA
BRANCH  77  80
ATOM     80  C   UNL A   1      38.057  33.021  33.554  1.00  0.00     0.041 A 
ATOM     81  C   UNL A   1      37.587  31.783  33.123  1.00  0.00     0.036 A 
ATOM     82  C   UNL A   1      39.252  33.126  34.260  1.00  0.00     0.020 A 
ATOM     83  C   UNL A   1      38.279  30.634  33.494  1.00  0.00     0.065 A 
ATOM     84  C   UNL A   1      39.962  31.967  34.612  1.00  0.00    -0.015 A 
ATOM     85  Cl  UNL A   1      37.633  29.103  33.005  1.00  0.00    -0.082 Cl
ATOM     86  C   UNL A   1      39.451  30.704  34.274  1.00  0.00     0.057 A 
ATOM     87  C   UNL A   1      41.282  32.109  35.310  1.00  0.00     0.049 C 
ATOM     88  N   UNL A   1      40.132  29.551  34.638  1.00  0.00    -0.376 N 
ATOM     89  C   UNL A   1      41.202  32.540  36.752  1.00  0.00    -0.023 C 
ATOM     90  C   UNL A   1      42.112  30.811  35.411  1.00  0.00     0.031 C 
ATOM     91  C   UNL A   1      41.178  29.596  35.650  1.00  0.00     0.114 C 
ATOM     92  H   UNL A   1      39.907  28.695  34.207  1.00  0.00     0.161 HD
ATOM     93  C   UNL A   1      42.198  32.001  37.463  1.00  0.00    -0.030 C 
ATOM     94  C   UNL A   1      43.053  31.133  36.593  1.00  0.00     0.034 C 
BRANCH  91  95
ATOM     95  C   UNL A   1      41.928  28.269  35.651  1.00  0.00    -0.025 A 
ATOM     96  C   UNL A   1      41.633  27.206  34.776  1.00  0.00     0.007 A 
ATOM     97  C   UNL A   1      42.979  28.105  36.557  1.00  0.00     0.007 A 
ATOM     98  C   UNL A   1      42.383  26.022  34.801  1.00  0.00     0.022 A 
ATOM     99  C   UNL A   1      43.753  26.953  36.547  1.00  0.00     0.022 A 
ATOM    100  C   UNL A   1      43.459  25.908  35.681  1.00  0.00     0.082 A 
BRANCH 100 101
ATOM    101  S   UNL A   1      44.448  24.428  35.667  1.00  0.00     0.243 S 
ATOM    102  O   UNL A   1      45.580  24.692  36.535  1.00  0.00    -0.207 OA
ATOM    103  O   UNL A   1      43.543  23.329  35.906  1.00  0.00    -0.207 OA
BRANCH 101 104
ATOM    104  N   UNL A   1      45.015  24.296  34.095  1.00  0.00    -0.193 NA
ATOM    105  C   UNL A   1      45.823  25.353  33.451  1.00  0.00     0.131 C 
ATOM    106  C   UNL A   1      44.714  23.124  33.253  1.00  0.00     0.131 C 
ATOM    107  C   UNL A   1      45.336  25.650  32.021  1.00  0.00     0.177 C 
ATOM    108  C   UNL A   1      44.193  23.576  31.888  1.00  0.00     0.177 C 
ATOM    109  O   UNL A   1      45.119  24.465  31.247  1.00  0.00    -0.379 OA
ENDBRANCH 101 104
ENDBRANCH 100 101
ENDBRANCH  91  95
ENDBRANCH  77  80
ENDBRANCH  75  76
ENDBRANCH  74  75
ENDBRANCH   1  74
TORSDOF 16
ENDMDL
