MODEL 1
REMARK VINA RESULT:     -12.0      0.000      0.000
REMARK SMILES CC[C@@](C)(NC(=O)Nc1cccc(C[NH2+]C)c1)C(=O)NCCCCCCNC(=O)c1ccc(-c2c3nc(c(-c4c(F)c(F)c(F)c(F)c4F)c4ccc([nH]4)c(-c4c(F)c(F)c(F)c(F)c4F)c4nc(c(-c5c(F)c(F)c(F)c(F)c5F)c5ccc2[nH]5)C=C4)C=C3)cc1
REMARK SMILES IDX 22 1 21 2 20 3 18 4 19 5 3 7 4 8 2 9 1 10 5 11 6 12 7 14
REMARK SMILES IDX 8 15 9 17 10 18 17 19 11 20 13 21 12 22 14 23 15 24 16 25
REMARK SMILES IDX 23 28 24 29 25 30 26 31 27 32 28 33 29 35 30 36 31 37 92 38
REMARK SMILES IDX 32 39 91 40 33 41 34 42 35 43 85 44 36 45 90 46 84 47 86 48
REMARK SMILES IDX 37 49 89 50 83 51 82 52 38 54 70 55 50 56 69 57 51 58 54 59
REMARK SMILES IDX 68 60 87 61 52 62 53 63 67 65 88 66 55 67 39 68 40 69 48 70
REMARK SMILES IDX 41 71 42 72 46 73 49 74 43 75 44 76 47 77 45 78 71 79 72 80
REMARK SMILES IDX 80 81 73 82 74 83 78 84 81 85 75 86 76 87 79 88 77 89 56 90
REMARK SMILES IDX 57 91 65 92 58 93 59 94 63 95 66 96 60 97 61 98 64 99 62 100
REMARK H PARENT 20 6 5 13 8 16 15 26 15 27 27 34 86 53 54 64
REMARK Flexibility Score: inf
ROOT
ATOM      1  C   UNL A   1      31.729  28.393  27.343  1.00  0.00     0.021 C 
ENDROOT
BRANCH   1   2
ATOM      2  C   UNL A   1      31.801  27.178  26.390  1.00  0.00     0.116 C 
BRANCH   2   3
ATOM      3  N   UNL A   1      33.181  26.878  26.103  1.00  0.00    -0.354 N 
ATOM      4  C   UNL A   1      33.750  26.373  24.948  1.00  0.00     0.245 C 
ATOM      5  O   UNL A   1      34.037  27.059  23.976  1.00  0.00    -0.272 OA
ATOM      6  H   UNL A   1      33.811  27.059  26.838  1.00  0.00     0.163 HD
BRANCH   4   7
ATOM      7  C   UNL A   1      33.777  24.823  24.970  1.00  0.00     0.117 C 
ATOM      8  C   UNL A   1      35.075  24.648  25.827  1.00  0.00     0.045 C 
BRANCH   7   9
ATOM      9  C   UNL A   1      32.702  23.935  25.625  1.00  0.00     0.035 C 
ATOM     10  C   UNL A   1      33.080  23.101  26.828  1.00  0.00     0.007 C 
ENDBRANCH   7   9
BRANCH   7  11
ATOM     11  N   UNL A   1      33.984  24.334  23.569  1.00  0.00    -0.324 N 
ATOM     12  C   UNL A   1      33.264  24.221  22.443  1.00  0.00     0.320 C 
ATOM     13  H   UNL A   1      34.901  24.002  23.440  1.00  0.00     0.166 HD
ATOM     14  O   UNL A   1      33.782  23.520  21.565  1.00  0.00    -0.248 OA
ATOM     15  N   UNL A   1      32.059  24.746  22.150  1.00  0.00    -0.308 N 
ATOM     16  H   UNL A   1      31.735  24.341  21.313  1.00  0.00     0.171 HD
BRANCH  15  17
ATOM     17  C   UNL A   1      31.088  25.667  22.611  1.00  0.00     0.043 A 
ATOM     18  C   UNL A   1      30.112  25.168  23.474  1.00  0.00     0.026 A 
ATOM     19  C   UNL A   1      30.925  26.995  22.233  1.00  0.00     0.035 A 
ATOM     20  C   UNL A   1      29.169  26.019  24.073  1.00  0.00     0.003 A 
ATOM     21  C   UNL A   1      30.132  27.908  22.949  1.00  0.00     0.008 A 
ATOM     22  C   UNL A   1      29.217  27.400  23.859  1.00  0.00     0.010 A 
BRANCH  21  23
ATOM     23  C   UNL A   1      30.547  29.367  22.906  1.00  0.00     0.297 C 
BRANCH  23  24
ATOM     24  N   UNL A   1      30.522  30.080  21.630  1.00  0.00    -0.345 N 
ATOM     25  C   UNL A   1      29.139  30.563  21.448  1.00  0.00     0.331 C 
ATOM     26  H   UNL A   1      30.778  29.450  20.870  1.00  0.00     0.346 HD
ATOM     27  H   UNL A   1      31.187  30.853  21.625  1.00  0.00     0.346 HD
ENDBRANCH  23  24
ENDBRANCH  21  23
ENDBRANCH  15  17
ENDBRANCH   7  11
ENDBRANCH   4   7
ENDBRANCH   2   3
ENDBRANCH   1   2
BRANCH   1  28
ATOM     28  C   UNL A   1      32.524  29.650  26.935  1.00  0.00     0.002 C 
BRANCH  28  29
ATOM     29  C   UNL A   1      31.757  30.682  26.109  1.00  0.00     0.002 C 
BRANCH  29  30
ATOM     30  C   UNL A   1      31.467  31.984  26.846  1.00  0.00     0.021 C 
BRANCH  30  31
ATOM     31  C   UNL A   1      32.706  32.776  27.243  1.00  0.00     0.116 C 
BRANCH  31  32
ATOM     32  N   UNL A   1      32.408  34.153  27.597  1.00  0.00    -0.352 N 
ATOM     33  C   UNL A   1      33.006  34.930  28.568  1.00  0.00     0.251 C 
ATOM     34  H   UNL A   1      31.690  34.585  27.081  1.00  0.00     0.163 HD
ATOM     35  O   UNL A   1      32.563  36.025  28.857  1.00  0.00    -0.269 OA
BRANCH  33  36
ATOM     36  C   UNL A   1      34.183  34.387  29.285  1.00  0.00     0.039 A 
ATOM     37  C   UNL A   1      33.978  33.659  30.458  1.00  0.00     0.014 A 
ATOM     38  C   UNL A   1      35.472  34.549  28.771  1.00  0.00     0.014 A 
ATOM     39  C   UNL A   1      35.061  33.035  31.080  1.00  0.00     0.010 A 
ATOM     40  C   UNL A   1      36.536  33.858  29.343  1.00  0.00     0.010 A 
ATOM     41  C   UNL A   1      36.343  33.094  30.506  1.00  0.00    -0.014 A 
BRANCH  41  42
ATOM     42  C   UNL A   1      37.488  32.361  31.106  1.00  0.00     0.031 A 
ATOM     43  C   UNL A   1      37.987  32.731  32.475  1.00  0.00     0.074 A 
ATOM     44  C   UNL A   1      38.113  31.401  30.396  1.00  0.00     0.049 A 
ATOM     45  N   UNL A   1      38.999  32.241  33.148  1.00  0.00    -0.248 NA
ATOM     46  C   UNL A   1      37.273  33.812  33.171  1.00  0.00     0.031 C 
ATOM     47  C   UNL A   1      37.756  30.985  29.039  1.00  0.00     0.029 A 
ATOM     48  N   UNL A   1      39.185  30.604  30.716  1.00  0.00    -0.354 N 
ATOM     49  C   UNL A   1      39.045  32.958  34.336  1.00  0.00     0.074 A 
ATOM     50  C   UNL A   1      38.001  33.958  34.268  1.00  0.00     0.031 C 
ATOM     51  C   UNL A   1      38.574  29.992  28.653  1.00  0.00     0.029 A 
ATOM     52  C   UNL A   1      39.540  29.731  29.716  1.00  0.00     0.049 A 
ATOM     53  H   UNL A   1      39.656  30.655  31.579  1.00  0.00     0.167 HD
ATOM     54  C   UNL A   1      39.865  32.782  35.400  1.00  0.00     0.037 A 
ATOM     55  C   UNL A   1      40.536  28.825  29.661  1.00  0.00     0.037 A 
ATOM     56  C   UNL A   1      40.892  31.774  35.471  1.00  0.00     0.049 A 
ATOM     57  C   UNL A   1      41.448  28.664  30.849  1.00  0.00     0.074 A 
ATOM     58  C   UNL A   1      41.737  31.478  36.525  1.00  0.00     0.029 A 
ATOM     59  N   UNL A   1      41.217  30.903  34.441  1.00  0.00    -0.354 N 
ATOM     60  N   UNL A   1      41.432  29.296  31.997  1.00  0.00    -0.248 NA
ATOM     61  C   UNL A   1      42.510  27.655  30.735  1.00  0.00     0.031 C 
ATOM     62  C   UNL A   1      42.613  30.470  36.114  1.00  0.00     0.029 A 
ATOM     63  C   UNL A   1      42.271  30.090  34.825  1.00  0.00     0.049 A 
ATOM     64  H   UNL A   1      40.766  30.869  33.567  1.00  0.00     0.167 HD
ATOM     65  C   UNL A   1      42.459  28.743  32.751  1.00  0.00     0.074 A 
ATOM     66  C   UNL A   1      43.066  27.712  31.936  1.00  0.00     0.031 C 
ATOM     67  C   UNL A   1      42.862  29.062  34.007  1.00  0.00     0.037 A 
BRANCH  54  68
ATOM     68  C   UNL A   1      39.686  33.699  36.576  1.00  0.00     0.064 A 
ATOM     69  C   UNL A   1      40.315  34.953  36.637  1.00  0.00     0.173 A 
ATOM     70  C   UNL A   1      38.845  33.337  37.640  1.00  0.00     0.173 A 
ATOM     71  F   UNL A   1      41.138  35.344  35.652  1.00  0.00    -0.203 F 
ATOM     72  C   UNL A   1      40.134  35.794  37.732  1.00  0.00     0.198 A 
ATOM     73  C   UNL A   1      38.638  34.197  38.716  1.00  0.00     0.198 A 
ATOM     74  F   UNL A   1      38.213  32.154  37.631  1.00  0.00    -0.203 F 
ATOM     75  F   UNL A   1      40.788  36.963  37.792  1.00  0.00    -0.200 F 
ATOM     76  C   UNL A   1      39.290  35.419  38.765  1.00  0.00     0.200 A 
ATOM     77  F   UNL A   1      37.811  33.840  39.707  1.00  0.00    -0.200 F 
ATOM     78  F   UNL A   1      39.110  36.235  39.814  1.00  0.00    -0.200 F 
ENDBRANCH  54  68
BRANCH  55  79
ATOM     79  C   UNL A   1      40.714  27.987  28.445  1.00  0.00     0.064 A 
ATOM     80  C   UNL A   1      40.106  26.729  28.340  1.00  0.00     0.173 A 
ATOM     81  C   UNL A   1      41.505  28.419  27.370  1.00  0.00     0.173 A 
ATOM     82  F   UNL A   1      39.358  26.260  29.350  1.00  0.00    -0.203 F 
ATOM     83  C   UNL A   1      40.302  25.924  27.219  1.00  0.00     0.198 A 
ATOM     84  C   UNL A   1      41.674  27.627  26.235  1.00  0.00     0.198 A 
ATOM     85  F   UNL A   1      42.106  29.617  27.416  1.00  0.00    -0.203 F 
ATOM     86  F   UNL A   1      39.752  24.702  27.170  1.00  0.00    -0.200 F 
ATOM     87  C   UNL A   1      41.080  26.376  26.166  1.00  0.00     0.200 A 
ATOM     88  F   UNL A   1      42.413  28.076  25.212  1.00  0.00    -0.200 F 
ATOM     89  F   UNL A   1      41.266  25.604  25.086  1.00  0.00    -0.200 F 
ENDBRANCH  55  79
BRANCH  67  90
ATOM     90  C   UNL A   1      43.988  28.260  34.595  1.00  0.00     0.064 A 
ATOM     91  C   UNL A   1      45.322  28.685  34.513  1.00  0.00     0.173 A 
ATOM     92  C   UNL A   1      43.723  27.065  35.284  1.00  0.00     0.173 A 
ATOM     93  F   UNL A   1      45.632  29.812  33.852  1.00  0.00    -0.203 F 
ATOM     94  C   UNL A   1      46.350  27.933  35.073  1.00  0.00     0.198 A 
ATOM     95  C   UNL A   1      44.749  26.334  35.874  1.00  0.00     0.198 A 
ATOM     96  F   UNL A   1      42.464  26.616  35.399  1.00  0.00    -0.203 F 
ATOM     97  F   UNL A   1      47.623  28.332  34.936  1.00  0.00    -0.200 F 
ATOM     98  C   UNL A   1      46.062  26.763  35.761  1.00  0.00     0.200 A 
ATOM     99  F   UNL A   1      44.467  25.214  36.553  1.00  0.00    -0.200 F 
ATOM    100  F   UNL A   1      47.053  26.044  36.308  1.00  0.00    -0.200 F 
ENDBRANCH  67  90
ENDBRANCH  41  42
ENDBRANCH  33  36
ENDBRANCH  31  32
ENDBRANCH  30  31
ENDBRANCH  29  30
ENDBRANCH  28  29
ENDBRANCH   1  28
TORSDOF 18
ENDMDL
MODEL 2
REMARK VINA RESULT:     -12.0      0.484      7.207
REMARK SMILES CC[C@@](C)(NC(=O)Nc1cccc(C[NH2+]C)c1)C(=O)NCCCCCCNC(=O)c1ccc(-c2c3nc(c(-c4c(F)c(F)c(F)c(F)c4F)c4ccc([nH]4)c(-c4c(F)c(F)c(F)c(F)c4F)c4nc(c(-c5c(F)c(F)c(F)c(F)c5F)c5ccc2[nH]5)C=C4)C=C3)cc1
REMARK SMILES IDX 22 1 21 2 20 3 18 4 19 5 3 7 4 8 2 9 1 10 5 11 6 12 7 14
REMARK SMILES IDX 8 15 9 17 10 18 17 19 11 20 13 21 12 22 14 23 15 24 16 25
REMARK SMILES IDX 23 28 24 29 25 30 26 31 27 32 28 33 29 35 30 36 31 37 92 38
REMARK SMILES IDX 32 39 91 40 33 41 34 42 35 43 85 44 36 45 90 46 84 47 86 48
REMARK SMILES IDX 37 49 89 50 83 51 82 52 38 54 70 55 50 56 69 57 51 58 54 59
REMARK SMILES IDX 68 60 87 61 52 62 53 63 67 65 88 66 55 67 39 68 40 69 48 70
REMARK SMILES IDX 41 71 42 72 46 73 49 74 43 75 44 76 47 77 45 78 71 79 72 80
REMARK SMILES IDX 80 81 73 82 74 83 78 84 81 85 75 86 76 87 79 88 77 89 56 90
REMARK SMILES IDX 57 91 65 92 58 93 59 94 63 95 66 96 60 97 61 98 64 99 62 100
REMARK H PARENT 20 6 5 13 8 16 15 26 15 27 27 34 86 53 54 64
REMARK Flexibility Score: inf
ROOT
ATOM      1  C   UNL A   1      31.763  28.253  27.502  1.00  0.00     0.021 C 
ENDROOT
BRANCH   1   2
ATOM      2  C   UNL A   1      31.817  27.104  26.469  1.00  0.00     0.116 C 
BRANCH   2   3
ATOM      3  N   UNL A   1      33.193  26.815  26.150  1.00  0.00    -0.354 N 
ATOM      4  C   UNL A   1      33.735  26.287  24.992  1.00  0.00     0.245 C 
ATOM      5  O   UNL A   1      33.985  26.951  23.994  1.00  0.00    -0.272 OA
ATOM      6  H   UNL A   1      33.842  27.023  26.861  1.00  0.00     0.163 HD
BRANCH   4   7
ATOM      7  C   UNL A   1      33.785  24.739  25.053  1.00  0.00     0.117 C 
ATOM      8  C   UNL A   1      35.086  24.604  25.914  1.00  0.00     0.045 C 
BRANCH   7   9
ATOM      9  C   UNL A   1      32.723  23.853  25.729  1.00  0.00     0.035 C 
ATOM     10  C   UNL A   1      33.176  22.633  26.501  1.00  0.00     0.007 C 
ENDBRANCH   7   9
BRANCH   7  11
ATOM     11  N   UNL A   1      33.999  24.218  23.665  1.00  0.00    -0.324 N 
ATOM     12  C   UNL A   1      33.296  24.111  22.527  1.00  0.00     0.320 C 
ATOM     13  H   UNL A   1      34.906  23.852  23.558  1.00  0.00     0.166 HD
ATOM     14  O   UNL A   1      33.804  23.376  21.671  1.00  0.00    -0.248 OA
ATOM     15  N   UNL A   1      32.116  24.674  22.203  1.00  0.00    -0.308 N 
ATOM     16  H   UNL A   1      31.793  24.266  21.367  1.00  0.00     0.171 HD
BRANCH  15  17
ATOM     17  C   UNL A   1      31.171  25.637  22.630  1.00  0.00     0.043 A 
ATOM     18  C   UNL A   1      30.184  25.197  23.512  1.00  0.00     0.026 A 
ATOM     19  C   UNL A   1      31.042  26.953  22.202  1.00  0.00     0.035 A 
ATOM     20  C   UNL A   1      29.265  26.095  24.079  1.00  0.00     0.003 A 
ATOM     21  C   UNL A   1      30.275  27.914  22.884  1.00  0.00     0.008 A 
ATOM     22  C   UNL A   1      29.349  27.465  23.814  1.00  0.00     0.010 A 
BRANCH  21  23
ATOM     23  C   UNL A   1      30.729  29.358  22.785  1.00  0.00     0.297 C 
BRANCH  23  24
ATOM     24  N   UNL A   1      30.555  30.077  21.525  1.00  0.00    -0.345 N 
ATOM     25  C   UNL A   1      29.180  30.613  21.534  1.00  0.00     0.331 C 
ATOM     26  H   UNL A   1      30.681  29.442  20.737  1.00  0.00     0.346 HD
ATOM     27  H   UNL A   1      31.242  30.825  21.428  1.00  0.00     0.346 HD
ENDBRANCH  23  24
ENDBRANCH  21  23
ENDBRANCH  15  17
ENDBRANCH   7  11
ENDBRANCH   4   7
ENDBRANCH   2   3
ENDBRANCH   1   2
BRANCH   1  28
ATOM     28  C   UNL A   1      32.592  29.515  27.188  1.00  0.00     0.002 C 
BRANCH  28  29
ATOM     29  C   UNL A   1      31.952  30.505  26.216  1.00  0.00     0.002 C 
BRANCH  29  30
ATOM     30  C   UNL A   1      31.575  31.843  26.841  1.00  0.00     0.021 C 
BRANCH  30  31
ATOM     31  C   UNL A   1      32.755  32.654  27.361  1.00  0.00     0.116 C 
BRANCH  31  32
ATOM     32  N   UNL A   1      32.419  34.045  27.612  1.00  0.00    -0.352 N 
ATOM     33  C   UNL A   1      32.979  34.902  28.536  1.00  0.00     0.251 C 
ATOM     34  H   UNL A   1      31.702  34.422  27.053  1.00  0.00     0.163 HD
ATOM     35  O   UNL A   1      32.506  36.003  28.739  1.00  0.00    -0.269 OA
BRANCH  33  36
ATOM     36  C   UNL A   1      34.154  34.438  29.311  1.00  0.00     0.039 A 
ATOM     37  C   UNL A   1      33.942  33.805  30.537  1.00  0.00     0.014 A 
ATOM     38  C   UNL A   1      35.448  34.580  28.804  1.00  0.00     0.014 A 
ATOM     39  C   UNL A   1      35.025  33.252  31.223  1.00  0.00     0.010 A 
ATOM     40  C   UNL A   1      36.514  33.955  29.445  1.00  0.00     0.010 A 
ATOM     41  C   UNL A   1      36.314  33.285  30.663  1.00  0.00    -0.014 A 
BRANCH  41  42
ATOM     42  C   UNL A   1      37.461  32.623  31.337  1.00  0.00     0.031 A 
ATOM     43  C   UNL A   1      38.180  31.487  30.664  1.00  0.00     0.074 A 
ATOM     44  C   UNL A   1      37.820  33.008  32.578  1.00  0.00     0.049 A 
ATOM     45  N   UNL A   1      39.171  30.754  31.108  1.00  0.00    -0.248 NA
ATOM     46  C   UNL A   1      37.707  31.104  29.325  1.00  0.00     0.031 C 
ATOM     47  C   UNL A   1      37.170  34.063  33.357  1.00  0.00     0.029 A 
ATOM     48  N   UNL A   1      38.817  32.551  33.405  1.00  0.00    -0.354 N 
ATOM     49  C   UNL A   1      39.431  29.824  30.110  1.00  0.00     0.074 A 
ATOM     50  C   UNL A   1      38.455  30.043  29.065  1.00  0.00     0.031 C 
ATOM     51  C   UNL A   1      37.802  34.193  34.535  1.00  0.00     0.029 A 
ATOM     52  C   UNL A   1      38.872  33.202  34.614  1.00  0.00     0.049 A 
ATOM     53  H   UNL A   1      39.433  31.825  33.156  1.00  0.00     0.167 HD
ATOM     54  C   UNL A   1      40.411  28.891  30.057  1.00  0.00     0.037 A 
ATOM     55  C   UNL A   1      39.689  33.017  35.669  1.00  0.00     0.037 A 
ATOM     56  C   UNL A   1      41.391  28.688  31.093  1.00  0.00     0.049 A 
ATOM     57  C   UNL A   1      40.757  31.959  35.593  1.00  0.00     0.074 A 
ATOM     58  C   UNL A   1      42.458  27.808  31.109  1.00  0.00     0.029 A 
ATOM     59  N   UNL A   1      41.418  29.373  32.300  1.00  0.00    -0.354 N 
ATOM     60  N   UNL A   1      41.041  31.137  34.612  1.00  0.00    -0.248 NA
ATOM     61  C   UNL A   1      41.624  31.808  36.770  1.00  0.00     0.031 C 
ATOM     62  C   UNL A   1      43.095  27.916  32.349  1.00  0.00     0.029 A 
ATOM     63  C   UNL A   1      42.466  28.911  33.081  1.00  0.00     0.049 A 
ATOM     64  H   UNL A   1      40.787  30.080  32.563  1.00  0.00     0.167 HD
ATOM     65  C   UNL A   1      42.135  30.395  35.040  1.00  0.00     0.074 A 
ATOM     66  C   UNL A   1      42.473  30.877  36.362  1.00  0.00     0.031 C 
ATOM     67  C   UNL A   1      42.798  29.404  34.393  1.00  0.00     0.037 A 
BRANCH  54  68
ATOM     68  C   UNL A   1      40.473  28.015  28.838  1.00  0.00     0.064 A 
ATOM     69  C   UNL A   1      39.767  26.805  28.762  1.00  0.00     0.173 A 
ATOM     70  C   UNL A   1      41.218  28.409  27.716  1.00  0.00     0.173 A 
ATOM     71  F   UNL A   1      39.048  26.375  29.810  1.00  0.00    -0.203 F 
ATOM     72  C   UNL A   1      39.830  26.007  27.623  1.00  0.00     0.198 A 
ATOM     73  C   UNL A   1      41.250  27.627  26.565  1.00  0.00     0.198 A 
ATOM     74  F   UNL A   1      41.907  29.560  27.731  1.00  0.00    -0.203 F 
ATOM     75  F   UNL A   1      39.190  24.830  27.595  1.00  0.00    -0.200 F 
ATOM     76  C   UNL A   1      40.564  26.422  26.522  1.00  0.00     0.200 A 
ATOM     77  F   UNL A   1      41.947  28.037  25.497  1.00  0.00    -0.200 F 
ATOM     78  F   UNL A   1      40.616  25.658  25.422  1.00  0.00    -0.200 F 
ENDBRANCH  54  68
BRANCH  55  79
ATOM     79  C   UNL A   1      39.543  33.866  36.882  1.00  0.00     0.064 A 
ATOM     80  C   UNL A   1      38.786  33.431  37.980  1.00  0.00     0.173 A 
ATOM     81  C   UNL A   1      40.141  35.131  36.966  1.00  0.00     0.173 A 
ATOM     82  F   UNL A   1      38.175  32.238  37.941  1.00  0.00    -0.203 F 
ATOM     83  C   UNL A   1      38.614  34.239  39.102  1.00  0.00     0.198 A 
ATOM     84  C   UNL A   1      39.995  35.925  38.102  1.00  0.00     0.198 A 
ATOM     85  F   UNL A   1      40.880  35.594  35.946  1.00  0.00    -0.203 F 
ATOM     86  F   UNL A   1      37.840  33.820  40.114  1.00  0.00    -0.200 F 
ATOM     87  C   UNL A   1      39.223  35.482  39.165  1.00  0.00     0.200 A 
ATOM     88  F   UNL A   1      40.601  37.119  38.165  1.00  0.00    -0.200 F 
ATOM     89  F   UNL A   1      39.059  36.258  40.246  1.00  0.00    -0.200 F 
ENDBRANCH  55  79
BRANCH  67  90
ATOM     90  C   UNL A   1      43.984  28.799  35.090  1.00  0.00     0.064 A 
ATOM     91  C   UNL A   1      45.266  29.359  34.990  1.00  0.00     0.173 A 
ATOM     92  C   UNL A   1      43.827  27.663  35.901  1.00  0.00     0.173 A 
ATOM     93  F   UNL A   1      45.474  30.436  34.217  1.00  0.00    -0.203 F 
ATOM     94  C   UNL A   1      46.350  28.789  35.651  1.00  0.00     0.198 A 
ATOM     95  C   UNL A   1      44.906  27.118  36.589  1.00  0.00     0.198 A 
ATOM     96  F   UNL A   1      42.620  27.092  36.037  1.00  0.00    -0.203 F 
ATOM     97  F   UNL A   1      47.576  29.311  35.497  1.00  0.00    -0.200 F 
ATOM     98  C   UNL A   1      46.168  27.675  36.457  1.00  0.00     0.200 A 
ATOM     99  F   UNL A   1      44.723  26.052  37.380  1.00  0.00    -0.200 F 
ATOM    100  F   UNL A   1      47.211  27.133  37.100  1.00  0.00    -0.200 F 
ENDBRANCH  67  90
ENDBRANCH  41  42
ENDBRANCH  33  36
ENDBRANCH  31  32
ENDBRANCH  30  31
ENDBRANCH  29  30
ENDBRANCH  28  29
ENDBRANCH   1  28
TORSDOF 18
ENDMDL
MODEL 3
REMARK VINA RESULT:     -11.7      1.410      7.819
REMARK SMILES CC[C@@](C)(NC(=O)Nc1cccc(C[NH2+]C)c1)C(=O)NCCCCCCNC(=O)c1ccc(-c2c3nc(c(-c4c(F)c(F)c(F)c(F)c4F)c4ccc([nH]4)c(-c4c(F)c(F)c(F)c(F)c4F)c4nc(c(-c5c(F)c(F)c(F)c(F)c5F)c5ccc2[nH]5)C=C4)C=C3)cc1
REMARK SMILES IDX 22 1 21 2 20 3 18 4 19 5 3 7 4 8 2 9 1 10 5 11 6 12 7 14
REMARK SMILES IDX 8 15 9 17 10 18 17 19 11 20 13 21 12 22 14 23 15 24 16 25
REMARK SMILES IDX 23 28 24 29 25 30 26 31 27 32 28 33 29 35 30 36 31 37 92 38
REMARK SMILES IDX 32 39 91 40 33 41 34 42 35 43 85 44 36 45 90 46 84 47 86 48
REMARK SMILES IDX 37 49 89 50 83 51 82 52 38 54 70 55 50 56 69 57 51 58 54 59
REMARK SMILES IDX 68 60 87 61 52 62 53 63 67 65 88 66 55 67 39 68 40 69 48 70
REMARK SMILES IDX 41 71 42 72 46 73 49 74 43 75 44 76 47 77 45 78 71 79 72 80
REMARK SMILES IDX 80 81 73 82 74 83 78 84 81 85 75 86 76 87 79 88 77 89 56 90
REMARK SMILES IDX 57 91 65 92 58 93 59 94 63 95 66 96 60 97 61 98 64 99 62 100
REMARK H PARENT 20 6 5 13 8 16 15 26 15 27 27 34 86 53 54 64
REMARK Flexibility Score: inf
ROOT
ATOM      1  C   UNL A   1      31.041  29.304  24.474  1.00  0.00     0.021 C 
ENDROOT
BRANCH   1   2
ATOM      2  C   UNL A   1      31.424  28.569  23.170  1.00  0.00     0.116 C 
BRANCH   2   3
ATOM      3  N   UNL A   1      30.626  27.376  23.043  1.00  0.00    -0.354 N 
ATOM      4  C   UNL A   1      30.232  26.473  24.015  1.00  0.00     0.245 C 
ATOM      5  O   UNL A   1      29.270  26.645  24.752  1.00  0.00    -0.272 OA
ATOM      6  H   UNL A   1      30.315  27.173  22.131  1.00  0.00     0.163 HD
BRANCH   4   7
ATOM      7  C   UNL A   1      31.276  25.340  24.181  1.00  0.00     0.117 C 
ATOM      8  C   UNL A   1      31.907  25.831  25.527  1.00  0.00     0.045 C 
BRANCH   7   9
ATOM      9  C   UNL A   1      30.932  23.852  24.381  1.00  0.00     0.035 C 
ATOM     10  C   UNL A   1      30.823  23.312  25.789  1.00  0.00     0.007 C 
ENDBRANCH   7   9
BRANCH   7  11
ATOM     11  N   UNL A   1      32.261  25.435  23.056  1.00  0.00    -0.324 N 
ATOM     12  C   UNL A   1      33.525  25.059  22.812  1.00  0.00     0.320 C 
ATOM     13  H   UNL A   1      31.873  25.903  22.282  1.00  0.00     0.166 HD
ATOM     14  O   UNL A   1      34.032  25.570  21.805  1.00  0.00    -0.248 OA
ATOM     15  N   UNL A   1      34.314  24.226  23.517  1.00  0.00    -0.308 N 
ATOM     16  H   UNL A   1      35.232  24.292  23.167  1.00  0.00     0.171 HD
BRANCH  15  17
ATOM     17  C   UNL A   1      34.302  23.293  24.580  1.00  0.00     0.043 A 
ATOM     18  C   UNL A   1      34.625  23.782  25.846  1.00  0.00     0.026 A 
ATOM     19  C   UNL A   1      34.104  21.919  24.508  1.00  0.00     0.035 A 
ATOM     20  C   UNL A   1      34.538  22.965  26.985  1.00  0.00     0.003 A 
ATOM     21  C   UNL A   1      33.818  21.120  25.629  1.00  0.00     0.008 A 
ATOM     22  C   UNL A   1      34.073  21.650  26.885  1.00  0.00     0.010 A 
BRANCH  21  23
ATOM     23  C   UNL A   1      32.971  19.883  25.399  1.00  0.00     0.297 C 
BRANCH  23  24
ATOM     24  N   UNL A   1      32.981  18.815  26.396  1.00  0.00    -0.345 N 
ATOM     25  C   UNL A   1      32.613  17.575  25.684  1.00  0.00     0.331 C 
ATOM     26  H   UNL A   1      32.303  19.013  27.131  1.00  0.00     0.346 HD
ATOM     27  H   UNL A   1      33.896  18.729  26.837  1.00  0.00     0.346 HD
ENDBRANCH  23  24
ENDBRANCH  21  23
ENDBRANCH  15  17
ENDBRANCH   7  11
ENDBRANCH   4   7
ENDBRANCH   2   3
ENDBRANCH   1   2
BRANCH   1  28
ATOM     28  C   UNL A   1      32.198  29.752  25.391  1.00  0.00     0.002 C 
BRANCH  28  29
ATOM     29  C   UNL A   1      31.786  30.362  26.730  1.00  0.00     0.002 C 
BRANCH  29  30
ATOM     30  C   UNL A   1      31.600  31.874  26.700  1.00  0.00     0.021 C 
BRANCH  30  31
ATOM     31  C   UNL A   1      32.746  32.666  27.315  1.00  0.00     0.116 C 
BRANCH  31  32
ATOM     32  N   UNL A   1      32.398  34.050  27.583  1.00  0.00    -0.352 N 
ATOM     33  C   UNL A   1      32.949  34.900  28.520  1.00  0.00     0.251 C 
ATOM     34  H   UNL A   1      31.679  34.429  27.028  1.00  0.00     0.163 HD
ATOM     35  O   UNL A   1      32.466  35.994  28.737  1.00  0.00    -0.269 OA
BRANCH  33  36
ATOM     36  C   UNL A   1      34.126  34.436  29.292  1.00  0.00     0.039 A 
ATOM     37  C   UNL A   1      33.917  33.788  30.510  1.00  0.00     0.014 A 
ATOM     38  C   UNL A   1      35.419  34.593  28.787  1.00  0.00     0.014 A 
ATOM     39  C   UNL A   1      35.003  33.235  31.191  1.00  0.00     0.010 A 
ATOM     40  C   UNL A   1      36.489  33.968  29.423  1.00  0.00     0.010 A 
ATOM     41  C   UNL A   1      36.293  33.283  30.633  1.00  0.00    -0.014 A 
BRANCH  41  42
ATOM     42  C   UNL A   1      37.444  32.622  31.301  1.00  0.00     0.031 A 
ATOM     43  C   UNL A   1      38.163  31.489  30.623  1.00  0.00     0.074 A 
ATOM     44  C   UNL A   1      37.806  33.005  32.542  1.00  0.00     0.049 A 
ATOM     45  N   UNL A   1      39.157  30.758  31.062  1.00  0.00    -0.248 NA
ATOM     46  C   UNL A   1      37.685  31.109  29.285  1.00  0.00     0.031 C 
ATOM     47  C   UNL A   1      37.157  34.056  33.326  1.00  0.00     0.029 A 
ATOM     48  N   UNL A   1      38.807  32.548  33.364  1.00  0.00    -0.354 N 
ATOM     49  C   UNL A   1      39.415  29.831  30.060  1.00  0.00     0.074 A 
ATOM     50  C   UNL A   1      38.434  30.050  29.019  1.00  0.00     0.031 C 
ATOM     51  C   UNL A   1      37.792  34.185  34.502  1.00  0.00     0.029 A 
ATOM     52  C   UNL A   1      38.865  33.196  34.575  1.00  0.00     0.049 A 
ATOM     53  H   UNL A   1      39.424  31.824  33.111  1.00  0.00     0.167 HD
ATOM     54  C   UNL A   1      40.397  28.900  30.001  1.00  0.00     0.037 A 
ATOM     55  C   UNL A   1      39.687  33.011  35.626  1.00  0.00     0.037 A 
ATOM     56  C   UNL A   1      41.381  28.697  31.033  1.00  0.00     0.049 A 
ATOM     57  C   UNL A   1      40.756  31.954  35.544  1.00  0.00     0.074 A 
ATOM     58  C   UNL A   1      42.450  27.819  31.043  1.00  0.00     0.029 A 
ATOM     59  N   UNL A   1      41.411  29.378  32.242  1.00  0.00    -0.354 N 
ATOM     60  N   UNL A   1      41.038  31.135  34.560  1.00  0.00    -0.248 NA
ATOM     61  C   UNL A   1      41.628  31.803  36.717  1.00  0.00     0.031 C 
ATOM     62  C   UNL A   1      43.091  27.925  32.281  1.00  0.00     0.029 A 
ATOM     63  C   UNL A   1      42.463  28.917  33.018  1.00  0.00     0.049 A 
ATOM     64  H   UNL A   1      40.779  30.083  32.508  1.00  0.00     0.167 HD
ATOM     65  C   UNL A   1      42.135  30.395  34.981  1.00  0.00     0.074 A 
ATOM     66  C   UNL A   1      42.478  30.874  36.304  1.00  0.00     0.031 C 
ATOM     67  C   UNL A   1      42.798  29.407  34.330  1.00  0.00     0.037 A 
BRANCH  54  68
ATOM     68  C   UNL A   1      40.456  28.027  28.780  1.00  0.00     0.064 A 
ATOM     69  C   UNL A   1      41.211  28.386  27.652  1.00  0.00     0.173 A 
ATOM     70  C   UNL A   1      39.779  26.798  28.750  1.00  0.00     0.173 A 
ATOM     71  F   UNL A   1      41.869  29.555  27.624  1.00  0.00    -0.203 F 
ATOM     72  C   UNL A   1      41.260  27.563  26.530  1.00  0.00     0.198 A 
ATOM     73  C   UNL A   1      39.859  25.962  27.640  1.00  0.00     0.198 A 
ATOM     74  F   UNL A   1      39.048  26.402  29.802  1.00  0.00    -0.203 F 
ATOM     75  F   UNL A   1      41.944  27.953  25.445  1.00  0.00    -0.200 F 
ATOM     76  C   UNL A   1      40.591  26.349  26.528  1.00  0.00     0.200 A 
ATOM     77  F   UNL A   1      39.225  24.782  27.645  1.00  0.00    -0.200 F 
ATOM     78  F   UNL A   1      40.647  25.553  25.450  1.00  0.00    -0.200 F 
ENDBRANCH  54  68
BRANCH  55  79
ATOM     79  C   UNL A   1      39.542  33.856  36.842  1.00  0.00     0.064 A 
ATOM     80  C   UNL A   1      38.784  33.420  37.938  1.00  0.00     0.173 A 
ATOM     81  C   UNL A   1      40.146  35.118  36.930  1.00  0.00     0.173 A 
ATOM     82  F   UNL A   1      38.168  32.230  37.895  1.00  0.00    -0.203 F 
ATOM     83  C   UNL A   1      38.614  34.225  39.063  1.00  0.00     0.198 A 
ATOM     84  C   UNL A   1      40.002  35.909  38.069  1.00  0.00     0.198 A 
ATOM     85  F   UNL A   1      40.887  35.582  35.912  1.00  0.00    -0.203 F 
ATOM     86  F   UNL A   1      37.838  33.806  40.073  1.00  0.00    -0.200 F 
ATOM     87  C   UNL A   1      39.228  35.465  39.130  1.00  0.00     0.200 A 
ATOM     88  F   UNL A   1      40.612  37.101  38.136  1.00  0.00    -0.200 F 
ATOM     89  F   UNL A   1      39.067  36.238  40.213  1.00  0.00    -0.200 F 
ENDBRANCH  55  79
BRANCH  67  90
ATOM     90  C   UNL A   1      43.988  28.803  35.021  1.00  0.00     0.064 A 
ATOM     91  C   UNL A   1      43.864  27.710  35.891  1.00  0.00     0.173 A 
ATOM     92  C   UNL A   1      45.278  29.303  34.777  1.00  0.00     0.173 A 
ATOM     93  F   UNL A   1      42.653  27.203  36.170  1.00  0.00    -0.203 F 
ATOM     94  C   UNL A   1      44.981  27.159  36.512  1.00  0.00     0.198 A 
ATOM     95  C   UNL A   1      46.395  28.726  35.372  1.00  0.00     0.198 A 
ATOM     96  F   UNL A   1      45.454  30.343  33.947  1.00  0.00    -0.203 F 
ATOM     97  F   UNL A   1      44.831  26.149  37.382  1.00  0.00    -0.200 F 
ATOM     98  C   UNL A   1      46.246  27.661  36.246  1.00  0.00     0.200 A 
ATOM     99  F   UNL A   1      47.618  29.203  35.099  1.00  0.00    -0.200 F 
ATOM    100  F   UNL A   1      47.321  27.123  36.838  1.00  0.00    -0.200 F 
ENDBRANCH  67  90
ENDBRANCH  41  42
ENDBRANCH  33  36
ENDBRANCH  31  32
ENDBRANCH  30  31
ENDBRANCH  29  30
ENDBRANCH  28  29
ENDBRANCH   1  28
TORSDOF 18
ENDMDL
