MODEL 1
REMARK VINA RESULT:     -11.1      0.000      0.000
REMARK SMILES C=CCN(CC(=O)NCCCCCCNC(=O)c1ccc(-c2c3nc(c(-c4c(F)c(F)c(F)c(F)c4F)c4ccc([nH]4)c(-c4c(F)c(F)c(F)c(F)c4F)c4nc(c(-c5c(F)c(F)c(F)c(F)c5F)c5ccc2[nH]5)C=C4)C=C3)cc1)C(=O)NC[C@@H]1CCC(=O)N1
REMARK SMILES IDX 10 1 9 2 8 3 6 4 7 5 5 7 4 8 3 9 2 10 1 11 81 12 82 13 83 14
REMARK SMILES IDX 84 16 85 17 86 18 90 19 87 20 88 21 89 23 11 24 12 25 13 26
REMARK SMILES IDX 14 27 15 28 16 29 17 31 18 32 19 33 80 34 20 35 79 36 21 37
REMARK SMILES IDX 22 38 23 39 73 40 24 41 78 42 72 43 74 44 25 45 77 46 71 47
REMARK SMILES IDX 70 48 26 50 58 51 38 52 57 53 39 54 42 55 56 56 75 57 40 58
REMARK SMILES IDX 41 59 55 61 76 62 43 63 27 64 28 65 36 66 29 67 30 68 34 69
REMARK SMILES IDX 37 70 31 71 32 72 35 73 33 74 59 75 60 76 68 77 61 78 62 79
REMARK SMILES IDX 66 80 69 81 63 82 64 83 67 84 65 85 44 86 45 87 53 88 46 89
REMARK SMILES IDX 47 90 51 91 54 92 48 93 49 94 52 95 50 96
REMARK H PARENT 8 6 83 15 90 22 15 30 74 49 42 60
REMARK Flexibility Score: inf
ROOT
ATOM      1  C   UNL A   1      29.976  25.989  24.033  1.00  0.00     0.021 C 
ENDROOT
BRANCH   1   2
ATOM      2  C   UNL A   1      30.384  25.778  25.490  1.00  0.00     0.116 C 
BRANCH   2   3
ATOM      3  N   UNL A   1      29.885  24.553  26.073  1.00  0.00    -0.355 N 
ATOM      4  C   UNL A   1      30.543  23.639  26.842  1.00  0.00     0.239 C 
ATOM      5  O   UNL A   1      29.866  22.946  27.612  1.00  0.00    -0.273 OA
ATOM      6  H   UNL A   1      28.939  24.351  25.888  1.00  0.00     0.163 HD
BRANCH   4   7
ATOM      7  C   UNL A   1      32.076  23.536  26.887  1.00  0.00     0.221 C 
BRANCH   7   8
ATOM      8  N   UNL A   1      32.749  23.037  25.690  1.00  0.00    -0.312 N 
BRANCH   8   9
ATOM      9  C   UNL A   1      34.147  23.440  25.523  1.00  0.00     0.149 C 
BRANCH   9  10
ATOM     10  C   UNL A   1      34.346  24.237  24.269  1.00  0.00    -0.013 C 
ATOM     11  C   UNL A   1      33.972  25.520  24.157  1.00  0.00     0.006 C 
ENDBRANCH   9  10
ENDBRANCH   8   9
BRANCH   8  12
ATOM     12  C   UNL A   1      32.244  22.176  24.762  1.00  0.00     0.318 C 
ATOM     13  O   UNL A   1      31.518  22.570  23.841  1.00  0.00    -0.249 OA
ATOM     14  N   UNL A   1      32.461  20.854  24.746  1.00  0.00    -0.336 N 
ATOM     15  H   UNL A   1      32.097  20.462  23.920  1.00  0.00     0.165 HD
BRANCH  14  16
ATOM     16  C   UNL A   1      33.066  19.812  25.566  1.00  0.00     0.142 C 
BRANCH  16  17
ATOM     17  C   UNL A   1      33.711  18.654  24.767  1.00  0.00     0.101 C 
ATOM     18  C   UNL A   1      33.054  18.281  23.438  1.00  0.00     0.036 C 
ATOM     19  N   UNL A   1      33.713  17.392  25.458  1.00  0.00    -0.352 N 
ATOM     20  C   UNL A   1      33.506  16.842  23.206  1.00  0.00     0.102 C 
ATOM     21  C   UNL A   1      33.569  16.313  24.613  1.00  0.00     0.220 C 
ATOM     22  H   UNL A   1      33.806  17.308  26.435  1.00  0.00     0.163 HD
ATOM     23  O   UNL A   1      33.504  15.147  24.954  1.00  0.00    -0.275 OA
ENDBRANCH  16  17
ENDBRANCH  14  16
ENDBRANCH   8  12
ENDBRANCH   7   8
ENDBRANCH   4   7
ENDBRANCH   2   3
ENDBRANCH   1   2
BRANCH   1  24
ATOM     24  C   UNL A   1      30.452  27.310  23.418  1.00  0.00     0.002 C 
BRANCH  24  25
ATOM     25  C   UNL A   1      31.027  28.334  24.400  1.00  0.00     0.002 C 
BRANCH  25  26
ATOM     26  C   UNL A   1      32.443  28.820  24.088  1.00  0.00     0.021 C 
BRANCH  26  27
ATOM     27  C   UNL A   1      33.234  29.295  25.302  1.00  0.00     0.116 C 
BRANCH  27  28
ATOM     28  N   UNL A   1      32.726  30.551  25.830  1.00  0.00    -0.352 N 
ATOM     29  C   UNL A   1      33.156  31.286  26.908  1.00  0.00     0.251 C 
ATOM     30  H   UNL A   1      31.960  30.933  25.342  1.00  0.00     0.163 HD
ATOM     31  O   UNL A   1      32.482  32.222  27.326  1.00  0.00    -0.269 OA
BRANCH  29  32
ATOM     32  C   UNL A   1      34.426  30.937  27.581  1.00  0.00     0.039 A 
ATOM     33  C   UNL A   1      35.394  31.929  27.750  1.00  0.00     0.014 A 
ATOM     34  C   UNL A   1      34.665  29.638  28.036  1.00  0.00     0.014 A 
ATOM     35  C   UNL A   1      36.577  31.633  28.429  1.00  0.00     0.010 A 
ATOM     36  C   UNL A   1      35.807  29.364  28.783  1.00  0.00     0.010 A 
ATOM     37  C   UNL A   1      36.778  30.358  28.984  1.00  0.00    -0.014 A 
BRANCH  37  38
ATOM     38  C   UNL A   1      37.994  30.048  29.778  1.00  0.00     0.031 A 
ATOM     39  C   UNL A   1      39.034  29.105  29.237  1.00  0.00     0.074 A 
ATOM     40  C   UNL A   1      38.135  30.570  31.012  1.00  0.00     0.049 A 
ATOM     41  N   UNL A   1      40.129  28.664  29.803  1.00  0.00    -0.248 NA
ATOM     42  C   UNL A   1      38.797  28.563  27.890  1.00  0.00     0.031 C 
ATOM     43  C   UNL A   1      37.176  31.462  31.666  1.00  0.00     0.029 A 
ATOM     44  N   UNL A   1      39.134  30.418  31.941  1.00  0.00    -0.354 N 
ATOM     45  C   UNL A   1      40.703  27.791  28.889  1.00  0.00     0.074 A 
ATOM     46  C   UNL A   1      39.807  27.716  27.756  1.00  0.00     0.031 C 
ATOM     47  C   UNL A   1      37.646  31.799  32.878  1.00  0.00     0.029 A 
ATOM     48  C   UNL A   1      38.913  31.113  33.106  1.00  0.00     0.049 A 
ATOM     49  H   UNL A   1      39.933  29.864  31.788  1.00  0.00     0.167 HD
ATOM     50  C   UNL A   1      41.883  27.132  28.975  1.00  0.00     0.037 A 
ATOM     51  C   UNL A   1      39.645  31.180  34.235  1.00  0.00     0.037 A 
ATOM     52  C   UNL A   1      42.779  27.222  30.099  1.00  0.00     0.049 A 
ATOM     53  C   UNL A   1      40.940  30.416  34.315  1.00  0.00     0.074 A 
ATOM     54  C   UNL A   1      44.023  26.636  30.260  1.00  0.00     0.029 A 
ATOM     55  N   UNL A   1      42.523  27.939  31.260  1.00  0.00    -0.354 N 
ATOM     56  N   UNL A   1      41.508  29.649  33.416  1.00  0.00    -0.248 NA
ATOM     57  C   UNL A   1      41.700  30.532  35.568  1.00  0.00     0.031 C 
ATOM     58  C   UNL A   1      44.491  26.948  31.540  1.00  0.00     0.029 A 
ATOM     59  C   UNL A   1      43.571  27.785  32.152  1.00  0.00     0.049 A 
ATOM     60  H   UNL A   1      41.716  28.478  31.424  1.00  0.00     0.167 HD
ATOM     61  C   UNL A   1      42.702  29.220  33.978  1.00  0.00     0.074 A 
ATOM     62  C   UNL A   1      42.785  29.824  35.291  1.00  0.00     0.031 C 
ATOM     63  C   UNL A   1      43.645  28.399  33.454  1.00  0.00     0.037 A 
BRANCH  50  64
ATOM     64  C   UNL A   1      42.274  26.248  27.824  1.00  0.00     0.064 A 
ATOM     65  C   UNL A   1      41.767  24.947  27.688  1.00  0.00     0.173 A 
ATOM     66  C   UNL A   1      43.137  26.721  26.823  1.00  0.00     0.173 A 
ATOM     67  F   UNL A   1      40.946  24.440  28.619  1.00  0.00    -0.203 F 
ATOM     68  C   UNL A   1      42.134  24.142  26.612  1.00  0.00     0.198 A 
ATOM     69  C   UNL A   1      43.475  25.927  25.731  1.00  0.00     0.198 A 
ATOM     70  F   UNL A   1      43.647  27.960  26.899  1.00  0.00    -0.203 F 
ATOM     71  F   UNL A   1      41.680  22.883  26.533  1.00  0.00    -0.200 F 
ATOM     72  C   UNL A   1      42.981  24.635  25.630  1.00  0.00     0.200 A 
ATOM     73  F   UNL A   1      44.280  26.411  24.775  1.00  0.00    -0.200 F 
ATOM     74  F   UNL A   1      43.326  23.863  24.591  1.00  0.00    -0.200 F 
ENDBRANCH  50  64
BRANCH  51  75
ATOM     75  C   UNL A   1      39.181  32.014  35.375  1.00  0.00     0.064 A 
ATOM     76  C   UNL A   1      38.421  31.458  36.413  1.00  0.00     0.173 A 
ATOM     77  C   UNL A   1      39.477  33.383  35.447  1.00  0.00     0.173 A 
ATOM     78  F   UNL A   1      38.094  30.158  36.381  1.00  0.00    -0.203 F 
ATOM     79  C   UNL A   1      37.951  32.244  37.464  1.00  0.00     0.198 A 
ATOM     80  C   UNL A   1      39.036  34.162  36.515  1.00  0.00     0.198 A 
ATOM     81  F   UNL A   1      40.206  33.966  34.483  1.00  0.00    -0.203 F 
ATOM     82  F   UNL A   1      37.180  31.697  38.414  1.00  0.00    -0.200 F 
ATOM     83  C   UNL A   1      38.263  33.594  37.517  1.00  0.00     0.200 A 
ATOM     84  F   UNL A   1      39.353  35.462  36.571  1.00  0.00    -0.200 F 
ATOM     85  F   UNL A   1      37.814  34.349  38.529  1.00  0.00    -0.200 F 
ENDBRANCH  51  75
BRANCH  63  86
ATOM     86  C   UNL A   1      44.872  28.139  34.282  1.00  0.00     0.064 A 
ATOM     87  C   UNL A   1      45.994  28.979  34.230  1.00  0.00     0.173 A 
ATOM     88  C   UNL A   1      44.908  27.053  35.172  1.00  0.00     0.173 A 
ATOM     89  F   UNL A   1      46.017  30.022  33.386  1.00  0.00    -0.203 F 
ATOM     90  C   UNL A   1      47.116  28.725  35.013  1.00  0.00     0.198 A 
ATOM     91  C   UNL A   1      46.018  26.824  35.981  1.00  0.00     0.198 A 
ATOM     92  F   UNL A   1      43.859  26.222  35.268  1.00  0.00    -0.203 F 
ATOM     93  F   UNL A   1      48.197  29.510  34.906  1.00  0.00    -0.200 F 
ATOM     94  C   UNL A   1      47.124  27.654  35.894  1.00  0.00     0.200 A 
ATOM     95  F   UNL A   1      46.016  25.798  36.844  1.00  0.00    -0.200 F 
ATOM     96  F   UNL A   1      48.202  27.417  36.654  1.00  0.00    -0.200 F 
ENDBRANCH  63  86
ENDBRANCH  37  38
ENDBRANCH  29  32
ENDBRANCH  27  28
ENDBRANCH  26  27
ENDBRANCH  25  26
ENDBRANCH  24  25
ENDBRANCH   1  24
TORSDOF 19
ENDMDL
MODEL 2
REMARK VINA RESULT:     -11.1      1.750      7.504
REMARK SMILES C=CCN(CC(=O)NCCCCCCNC(=O)c1ccc(-c2c3nc(c(-c4c(F)c(F)c(F)c(F)c4F)c4ccc([nH]4)c(-c4c(F)c(F)c(F)c(F)c4F)c4nc(c(-c5c(F)c(F)c(F)c(F)c5F)c5ccc2[nH]5)C=C4)C=C3)cc1)C(=O)NC[C@@H]1CCC(=O)N1
REMARK SMILES IDX 10 1 9 2 8 3 6 4 7 5 5 7 4 8 3 9 2 10 1 11 81 12 82 13 83 14
REMARK SMILES IDX 84 16 85 17 86 18 90 19 87 20 88 21 89 23 11 24 12 25 13 26
REMARK SMILES IDX 14 27 15 28 16 29 17 31 18 32 19 33 80 34 20 35 79 36 21 37
REMARK SMILES IDX 22 38 23 39 73 40 24 41 78 42 72 43 74 44 25 45 77 46 71 47
REMARK SMILES IDX 70 48 26 50 58 51 38 52 57 53 39 54 42 55 56 56 75 57 40 58
REMARK SMILES IDX 41 59 55 61 76 62 43 63 27 64 28 65 36 66 29 67 30 68 34 69
REMARK SMILES IDX 37 70 31 71 32 72 35 73 33 74 59 75 60 76 68 77 61 78 62 79
REMARK SMILES IDX 66 80 69 81 63 82 64 83 67 84 65 85 44 86 45 87 53 88 46 89
REMARK SMILES IDX 47 90 51 91 54 92 48 93 49 94 52 95 50 96
REMARK H PARENT 8 6 83 15 90 22 15 30 74 49 42 60
REMARK Flexibility Score: inf
ROOT
ATOM      1  C   UNL A   1      33.595  28.920  26.467  1.00  0.00     0.021 C 
ENDROOT
BRANCH   1   2
ATOM      2  C   UNL A   1      33.436  27.403  26.532  1.00  0.00     0.116 C 
BRANCH   2   3
ATOM      3  N   UNL A   1      32.063  26.951  26.512  1.00  0.00    -0.355 N 
ATOM      4  C   UNL A   1      31.569  25.722  26.187  1.00  0.00     0.239 C 
ATOM      5  O   UNL A   1      30.478  25.397  26.672  1.00  0.00    -0.273 OA
ATOM      6  H   UNL A   1      31.392  27.625  26.769  1.00  0.00     0.163 HD
BRANCH   4   7
ATOM      7  C   UNL A   1      32.366  24.693  25.370  1.00  0.00     0.221 C 
BRANCH   7   8
ATOM      8  N   UNL A   1      33.030  23.622  26.109  1.00  0.00    -0.312 N 
BRANCH   8   9
ATOM      9  C   UNL A   1      34.494  23.681  26.151  1.00  0.00     0.149 C 
BRANCH   9  10
ATOM     10  C   UNL A   1      35.059  24.260  24.889  1.00  0.00    -0.013 C 
ATOM     11  C   UNL A   1      36.015  23.650  24.174  1.00  0.00     0.006 C 
ENDBRANCH   9  10
ENDBRANCH   8   9
BRANCH   8  12
ATOM     12  C   UNL A   1      32.437  22.628  26.829  1.00  0.00     0.318 C 
ATOM     13  O   UNL A   1      32.134  22.782  28.018  1.00  0.00    -0.249 OA
ATOM     14  N   UNL A   1      32.134  21.413  26.351  1.00  0.00    -0.336 N 
ATOM     15  H   UNL A   1      31.607  20.912  27.014  1.00  0.00     0.165 HD
BRANCH  14  16
ATOM     16  C   UNL A   1      32.339  20.600  25.159  1.00  0.00     0.142 C 
BRANCH  16  17
ATOM     17  C   UNL A   1      33.273  19.382  25.361  1.00  0.00     0.101 C 
ATOM     18  C   UNL A   1      33.804  18.701  24.101  1.00  0.00     0.036 C 
ATOM     19  N   UNL A   1      32.660  18.280  26.055  1.00  0.00    -0.352 N 
ATOM     20  C   UNL A   1      34.165  17.297  24.577  1.00  0.00     0.102 C 
ATOM     21  C   UNL A   1      33.113  17.052  25.626  1.00  0.00     0.220 C 
ATOM     22  H   UNL A   1      31.984  18.392  26.762  1.00  0.00     0.163 HD
ATOM     23  O   UNL A   1      32.725  15.971  26.026  1.00  0.00    -0.275 OA
ENDBRANCH  16  17
ENDBRANCH  14  16
ENDBRANCH   8  12
ENDBRANCH   7   8
ENDBRANCH   4   7
ENDBRANCH   2   3
ENDBRANCH   1   2
BRANCH   1  24
ATOM     24  C   UNL A   1      32.498  29.713  27.188  1.00  0.00     0.002 C 
BRANCH  24  25
ATOM     25  C   UNL A   1      31.552  30.511  26.287  1.00  0.00     0.002 C 
BRANCH  25  26
ATOM     26  C   UNL A   1      31.477  32.011  26.579  1.00  0.00     0.021 C 
BRANCH  26  27
ATOM     27  C   UNL A   1      32.770  32.621  27.106  1.00  0.00     0.116 C 
BRANCH  27  28
ATOM     28  N   UNL A   1      32.579  33.981  27.585  1.00  0.00    -0.352 N 
ATOM     29  C   UNL A   1      33.180  34.632  28.634  1.00  0.00     0.251 C 
ATOM     30  H   UNL A   1      31.921  34.515  27.082  1.00  0.00     0.163 HD
ATOM     31  O   UNL A   1      32.751  35.717  29.017  1.00  0.00    -0.269 OA
BRANCH  29  32
ATOM     32  C   UNL A   1      34.337  34.018  29.321  1.00  0.00     0.039 A 
ATOM     33  C   UNL A   1      34.104  33.057  30.307  1.00  0.00     0.014 A 
ATOM     34  C   UNL A   1      35.645  34.391  29.000  1.00  0.00     0.014 A 
ATOM     35  C   UNL A   1      35.183  32.427  30.929  1.00  0.00     0.010 A 
ATOM     36  C   UNL A   1      36.719  33.706  29.561  1.00  0.00     0.010 A 
ATOM     37  C   UNL A   1      36.500  32.719  30.535  1.00  0.00    -0.014 A 
BRANCH  37  38
ATOM     38  C   UNL A   1      37.657  32.003  31.128  1.00  0.00     0.031 A 
ATOM     39  C   UNL A   1      38.141  32.353  32.509  1.00  0.00     0.074 A 
ATOM     40  C   UNL A   1      38.310  31.075  30.402  1.00  0.00     0.049 A 
ATOM     41  N   UNL A   1      39.167  31.885  33.172  1.00  0.00    -0.248 NA
ATOM     42  C   UNL A   1      37.385  33.389  33.230  1.00  0.00     0.031 C 
ATOM     43  C   UNL A   1      37.966  30.676  29.036  1.00  0.00     0.029 A 
ATOM     44  N   UNL A   1      39.406  30.306  30.705  1.00  0.00    -0.354 N 
ATOM     45  C   UNL A   1      39.186  32.573  34.378  1.00  0.00     0.074 A 
ATOM     46  C   UNL A   1      38.105  33.533  34.332  1.00  0.00     0.031 C 
ATOM     47  C   UNL A   1      38.816  29.720  28.629  1.00  0.00     0.029 A 
ATOM     48  C   UNL A   1      39.791  29.469  29.685  1.00  0.00     0.049 A 
ATOM     49  H   UNL A   1      39.872  30.349  31.571  1.00  0.00     0.167 HD
ATOM     50  C   UNL A   1      40.012  32.401  35.438  1.00  0.00     0.037 A 
ATOM     51  C   UNL A   1      40.821  28.604  29.608  1.00  0.00     0.037 A 
ATOM     52  C   UNL A   1      41.077  31.433  35.484  1.00  0.00     0.049 A 
ATOM     53  C   UNL A   1      41.742  28.452  30.789  1.00  0.00     0.074 A 
ATOM     54  C   UNL A   1      41.936  31.145  36.529  1.00  0.00     0.029 A 
ATOM     55  N   UNL A   1      41.435  30.600  34.432  1.00  0.00    -0.354 N 
ATOM     56  N   UNL A   1      41.706  29.058  31.951  1.00  0.00    -0.248 NA
ATOM     57  C   UNL A   1      42.844  27.490  30.650  1.00  0.00     0.031 C 
ATOM     58  C   UNL A   1      42.851  30.181  36.092  1.00  0.00     0.029 A 
ATOM     59  C   UNL A   1      42.520  29.819  34.796  1.00  0.00     0.049 A 
ATOM     60  H   UNL A   1      40.983  30.568  33.558  1.00  0.00     0.167 HD
ATOM     61  C   UNL A   1      42.754  28.529  32.692  1.00  0.00     0.074 A 
ATOM     62  C   UNL A   1      43.399  27.541  31.851  1.00  0.00     0.031 C 
ATOM     63  C   UNL A   1      43.148  28.834  33.953  1.00  0.00     0.037 A 
BRANCH  50  64
ATOM     64  C   UNL A   1      39.802  33.284  36.636  1.00  0.00     0.064 A 
ATOM     65  C   UNL A   1      38.907  32.937  37.660  1.00  0.00     0.173 A 
ATOM     66  C   UNL A   1      40.532  34.474  36.782  1.00  0.00     0.173 A 
ATOM     67  F   UNL A   1      38.176  31.816  37.567  1.00  0.00    -0.203 F 
ATOM     68  C   UNL A   1      38.727  33.763  38.767  1.00  0.00     0.198 A 
ATOM     69  C   UNL A   1      40.376  35.280  37.906  1.00  0.00     0.198 A 
ATOM     70  F   UNL A   1      41.407  34.851  35.837  1.00  0.00    -0.203 F 
ATOM     71  F   UNL A   1      37.826  33.437  39.704  1.00  0.00    -0.200 F 
ATOM     72  C   UNL A   1      39.467  34.929  38.893  1.00  0.00     0.200 A 
ATOM     73  F   UNL A   1      41.105  36.397  38.035  1.00  0.00    -0.200 F 
ATOM     74  F   UNL A   1      39.300  35.717  39.964  1.00  0.00    -0.200 F 
ENDBRANCH  50  64
BRANCH  51  75
ATOM     75  C   UNL A   1      41.029  27.802  28.372  1.00  0.00     0.064 A 
ATOM     76  C   UNL A   1      40.421  26.549  28.215  1.00  0.00     0.173 A 
ATOM     77  C   UNL A   1      41.847  28.265  27.331  1.00  0.00     0.173 A 
ATOM     78  F   UNL A   1      39.647  26.054  29.191  1.00  0.00    -0.203 F 
ATOM     79  C   UNL A   1      40.645  25.777  27.076  1.00  0.00     0.198 A 
ATOM     80  C   UNL A   1      42.043  27.507  26.177  1.00  0.00     0.198 A 
ATOM     81  F   UNL A   1      42.448  29.460  27.427  1.00  0.00    -0.203 F 
ATOM     82  F   UNL A   1      40.095  24.559  26.977  1.00  0.00    -0.200 F 
ATOM     83  C   UNL A   1      41.451  26.259  26.056  1.00  0.00     0.200 A 
ATOM     84  F   UNL A   1      42.809  27.984  25.187  1.00  0.00    -0.200 F 
ATOM     85  F   UNL A   1      41.663  25.518  24.960  1.00  0.00    -0.200 F 
ENDBRANCH  51  75
BRANCH  63  86
ATOM     86  C   UNL A   1      44.305  28.061  34.520  1.00  0.00     0.064 A 
ATOM     87  C   UNL A   1      45.625  28.527  34.430  1.00  0.00     0.173 A 
ATOM     88  C   UNL A   1      44.083  26.852  35.201  1.00  0.00     0.173 A 
ATOM     89  F   UNL A   1      45.893  29.668  33.778  1.00  0.00    -0.203 F 
ATOM     90  C   UNL A   1      46.681  27.799  34.971  1.00  0.00     0.198 A 
ATOM     91  C   UNL A   1      45.137  26.146  35.774  1.00  0.00     0.198 A 
ATOM     92  F   UNL A   1      42.839  26.364  35.325  1.00  0.00    -0.203 F 
ATOM     93  F   UNL A   1      47.938  28.237  34.824  1.00  0.00    -0.200 F 
ATOM     94  C   UNL A   1      46.435  26.615  35.650  1.00  0.00     0.200 A 
ATOM     95  F   UNL A   1      44.895  25.011  36.444  1.00  0.00    -0.200 F 
ATOM     96  F   UNL A   1      47.452  25.921  36.179  1.00  0.00    -0.200 F 
ENDBRANCH  63  86
ENDBRANCH  37  38
ENDBRANCH  29  32
ENDBRANCH  27  28
ENDBRANCH  26  27
ENDBRANCH  25  26
ENDBRANCH  24  25
ENDBRANCH   1  24
TORSDOF 19
ENDMDL
MODEL 3
REMARK VINA RESULT:     -11.0      5.049      8.648
REMARK SMILES C=CCN(CC(=O)NCCCCCCNC(=O)c1ccc(-c2c3nc(c(-c4c(F)c(F)c(F)c(F)c4F)c4ccc([nH]4)c(-c4c(F)c(F)c(F)c(F)c4F)c4nc(c(-c5c(F)c(F)c(F)c(F)c5F)c5ccc2[nH]5)C=C4)C=C3)cc1)C(=O)NC[C@@H]1CCC(=O)N1
REMARK SMILES IDX 10 1 9 2 8 3 6 4 7 5 5 7 4 8 3 9 2 10 1 11 81 12 82 13 83 14
REMARK SMILES IDX 84 16 85 17 86 18 90 19 87 20 88 21 89 23 11 24 12 25 13 26
REMARK SMILES IDX 14 27 15 28 16 29 17 31 18 32 19 33 80 34 20 35 79 36 21 37
REMARK SMILES IDX 22 38 23 39 73 40 24 41 78 42 72 43 74 44 25 45 77 46 71 47
REMARK SMILES IDX 70 48 26 50 58 51 38 52 57 53 39 54 42 55 56 56 75 57 40 58
REMARK SMILES IDX 41 59 55 61 76 62 43 63 27 64 28 65 36 66 29 67 30 68 34 69
REMARK SMILES IDX 37 70 31 71 32 72 35 73 33 74 59 75 60 76 68 77 61 78 62 79
REMARK SMILES IDX 66 80 69 81 63 82 64 83 67 84 65 85 44 86 45 87 53 88 46 89
REMARK SMILES IDX 47 90 51 91 54 92 48 93 49 94 52 95 50 96
REMARK H PARENT 8 6 83 15 90 22 15 30 74 49 42 60
REMARK Flexibility Score: inf
ROOT
ATOM      1  C   UNL A   1      39.039  23.570  26.592  1.00  0.00     0.021 C 
ENDROOT
BRANCH   1   2
ATOM      2  C   UNL A   1      37.616  23.601  26.037  1.00  0.00     0.116 C 
BRANCH   2   3
ATOM      3  N   UNL A   1      37.522  23.278  24.632  1.00  0.00    -0.355 N 
ATOM      4  C   UNL A   1      36.477  22.734  23.944  1.00  0.00     0.239 C 
ATOM      5  O   UNL A   1      36.405  22.971  22.732  1.00  0.00    -0.273 OA
ATOM      6  H   UNL A   1      38.325  23.478  24.097  1.00  0.00     0.163 HD
BRANCH   4   7
ATOM      7  C   UNL A   1      35.334  21.972  24.632  1.00  0.00     0.221 C 
BRANCH   7   8
ATOM      8  N   UNL A   1      33.977  22.476  24.430  1.00  0.00    -0.312 N 
BRANCH   8   9
ATOM      9  C   UNL A   1      33.712  23.827  24.930  1.00  0.00     0.149 C 
BRANCH   9  10
ATOM     10  C   UNL A   1      32.966  23.798  26.231  1.00  0.00    -0.013 C 
ATOM     11  C   UNL A   1      31.931  24.608  26.492  1.00  0.00     0.006 C 
ENDBRANCH   9  10
ENDBRANCH   8   9
BRANCH   8  12
ATOM     12  C   UNL A   1      32.962  21.862  23.758  1.00  0.00     0.318 C 
ATOM     13  O   UNL A   1      32.355  22.430  22.842  1.00  0.00    -0.249 OA
ATOM     14  N   UNL A   1      32.517  20.624  24.010  1.00  0.00    -0.336 N 
ATOM     15  H   UNL A   1      31.865  20.354  23.323  1.00  0.00     0.165 HD
BRANCH  14  16
ATOM     16  C   UNL A   1      32.693  19.550  24.979  1.00  0.00     0.142 C 
BRANCH  16  17
ATOM     17  C   UNL A   1      33.656  18.425  24.529  1.00  0.00     0.101 C 
ATOM     18  C   UNL A   1      33.322  17.712  23.219  1.00  0.00     0.036 C 
ATOM     19  N   UNL A   1      33.745  17.323  25.449  1.00  0.00    -0.352 N 
ATOM     20  C   UNL A   1      34.044  16.373  23.346  1.00  0.00     0.102 C 
ATOM     21  C   UNL A   1      33.939  16.111  24.825  1.00  0.00     0.220 C 
ATOM     22  H   UNL A   1      33.672  17.425  26.426  1.00  0.00     0.163 HD
ATOM     23  O   UNL A   1      34.009  15.030  25.377  1.00  0.00    -0.275 OA
ENDBRANCH  16  17
ENDBRANCH  14  16
ENDBRANCH   8  12
ENDBRANCH   7   8
ENDBRANCH   4   7
ENDBRANCH   2   3
ENDBRANCH   1   2
BRANCH   1  24
ATOM     24  C   UNL A   1      39.775  22.239  26.399  1.00  0.00     0.002 C 
BRANCH  24  25
ATOM     25  C   UNL A   1      40.635  21.777  27.579  1.00  0.00     0.002 C 
BRANCH  25  26
ATOM     26  C   UNL A   1      41.155  20.341  27.489  1.00  0.00     0.021 C 
BRANCH  26  27
ATOM     27  C   UNL A   1      40.967  19.681  26.128  1.00  0.00     0.116 C 
BRANCH  27  28
ATOM     28  N   UNL A   1      42.157  18.962  25.699  1.00  0.00    -0.352 N 
ATOM     29  C   UNL A   1      43.402  19.443  25.379  1.00  0.00     0.251 C 
ATOM     30  H   UNL A   1      42.054  17.985  25.630  1.00  0.00     0.163 HD
ATOM     31  O   UNL A   1      44.230  18.710  24.846  1.00  0.00    -0.269 OA
BRANCH  29  32
ATOM     32  C   UNL A   1      43.744  20.855  25.657  1.00  0.00     0.039 A 
ATOM     33  C   UNL A   1      43.402  21.830  24.716  1.00  0.00     0.014 A 
ATOM     34  C   UNL A   1      44.404  21.216  26.834  1.00  0.00     0.014 A 
ATOM     35  C   UNL A   1      43.669  23.174  24.984  1.00  0.00     0.010 A 
ATOM     36  C   UNL A   1      44.596  22.562  27.136  1.00  0.00     0.010 A 
ATOM     37  C   UNL A   1      44.234  23.555  26.213  1.00  0.00    -0.014 A 
BRANCH  37  38
ATOM     38  C   UNL A   1      44.452  24.985  26.549  1.00  0.00     0.031 A 
ATOM     39  C   UNL A   1      45.810  25.607  26.375  1.00  0.00     0.074 A 
ATOM     40  C   UNL A   1      43.440  25.709  27.065  1.00  0.00     0.049 A 
ATOM     41  N   UNL A   1      46.212  26.818  26.668  1.00  0.00    -0.248 NA
ATOM     42  C   UNL A   1      46.866  24.744  25.822  1.00  0.00     0.031 C 
ATOM     43  C   UNL A   1      42.089  25.209  27.322  1.00  0.00     0.029 A 
ATOM     44  N   UNL A   1      43.393  27.018  27.476  1.00  0.00    -0.354 N 
ATOM     45  C   UNL A   1      47.562  26.859  26.346  1.00  0.00     0.074 A 
ATOM     46  C   UNL A   1      47.927  25.535  25.892  1.00  0.00     0.031 C 
ATOM     47  C   UNL A   1      41.339  26.205  27.822  1.00  0.00     0.029 A 
ATOM     48  C   UNL A   1      42.165  27.399  27.963  1.00  0.00     0.049 A 
ATOM     49  H   UNL A   1      44.165  27.627  27.427  1.00  0.00     0.167 HD
ATOM     50  C   UNL A   1      48.413  27.911  26.400  1.00  0.00     0.037 A 
ATOM     51  C   UNL A   1      41.757  28.575  28.476  1.00  0.00     0.037 A 
ATOM     52  C   UNL A   1      48.040  29.231  26.839  1.00  0.00     0.049 A 
ATOM     53  C   UNL A   1      42.730  29.721  28.550  1.00  0.00     0.074 A 
ATOM     54  C   UNL A   1      48.815  30.377  26.881  1.00  0.00     0.029 A 
ATOM     55  N   UNL A   1      46.786  29.579  27.322  1.00  0.00    -0.354 N 
ATOM     56  N   UNL A   1      43.986  29.767  28.176  1.00  0.00    -0.248 NA
ATOM     57  C   UNL A   1      42.227  30.982  29.113  1.00  0.00     0.031 C 
ATOM     58  C   UNL A   1      48.049  31.403  27.444  1.00  0.00     0.029 A 
ATOM     59  C   UNL A   1      46.776  30.914  27.692  1.00  0.00     0.049 A 
ATOM     60  H   UNL A   1      46.018  28.967  27.392  1.00  0.00     0.167 HD
ATOM     61  C   UNL A   1      44.412  31.065  28.426  1.00  0.00     0.074 A 
ATOM     62  C   UNL A   1      43.276  31.778  28.970  1.00  0.00     0.031 C 
ATOM     63  C   UNL A   1      45.635  31.615  28.224  1.00  0.00     0.037 A 
BRANCH  50  64
ATOM     64  C   UNL A   1      49.837  27.678  25.978  1.00  0.00     0.064 A 
ATOM     65  C   UNL A   1      50.213  27.670  24.626  1.00  0.00     0.173 A 
ATOM     66  C   UNL A   1      50.844  27.498  26.938  1.00  0.00     0.173 A 
ATOM     67  F   UNL A   1      49.290  27.828  23.666  1.00  0.00    -0.203 F 
ATOM     68  C   UNL A   1      51.538  27.459  24.252  1.00  0.00     0.198 A 
ATOM     69  C   UNL A   1      52.173  27.321  26.561  1.00  0.00     0.198 A 
ATOM     70  F   UNL A   1      50.543  27.503  28.246  1.00  0.00    -0.203 F 
ATOM     71  F   UNL A   1      51.864  27.401  22.952  1.00  0.00    -0.200 F 
ATOM     72  C   UNL A   1      52.518  27.293  25.218  1.00  0.00     0.200 A 
ATOM     73  F   UNL A   1      53.121  27.178  27.498  1.00  0.00    -0.200 F 
ATOM     74  F   UNL A   1      53.793  27.098  24.856  1.00  0.00    -0.200 F 
ENDBRANCH  50  64
BRANCH  51  75
ATOM     75  C   UNL A   1      40.354  28.736  28.946  1.00  0.00     0.064 A 
ATOM     76  C   UNL A   1      40.013  28.518  30.288  1.00  0.00     0.173 A 
ATOM     77  C   UNL A   1      39.326  29.099  28.064  1.00  0.00     0.173 A 
ATOM     78  F   UNL A   1      40.957  28.150  31.166  1.00  0.00    -0.203 F 
ATOM     79  C   UNL A   1      38.695  28.630  30.724  1.00  0.00     0.198 A 
ATOM     80  C   UNL A   1      38.013  29.243  28.508  1.00  0.00     0.198 A 
ATOM     81  F   UNL A   1      39.598  29.325  26.770  1.00  0.00    -0.203 F 
ATOM     82  F   UNL A   1      38.389  28.361  32.001  1.00  0.00    -0.200 F 
ATOM     83  C   UNL A   1      37.696  28.997  29.835  1.00  0.00     0.200 A 
ATOM     84  F   UNL A   1      37.054  29.615  27.649  1.00  0.00    -0.200 F 
ATOM     85  F   UNL A   1      36.429  29.108  30.255  1.00  0.00    -0.200 F 
ENDBRANCH  51  75
BRANCH  63  86
ATOM     86  C   UNL A   1      45.798  33.073  28.550  1.00  0.00     0.064 A 
ATOM     87  C   UNL A   1      45.516  34.079  27.613  1.00  0.00     0.173 A 
ATOM     88  C   UNL A   1      46.204  33.470  29.834  1.00  0.00     0.173 A 
ATOM     89  F   UNL A   1      45.138  33.753  26.368  1.00  0.00    -0.203 F 
ATOM     90  C   UNL A   1      45.665  35.424  27.939  1.00  0.00     0.198 A 
ATOM     91  C   UNL A   1      46.316  34.817  30.168  1.00  0.00     0.198 A 
ATOM     92  F   UNL A   1      46.479  32.550  30.771  1.00  0.00    -0.203 F 
ATOM     93  F   UNL A   1      45.443  36.365  27.011  1.00  0.00    -0.200 F 
ATOM     94  C   UNL A   1      46.056  35.792  29.218  1.00  0.00     0.200 A 
ATOM     95  F   UNL A   1      46.677  35.170  31.409  1.00  0.00    -0.200 F 
ATOM     96  F   UNL A   1      46.189  37.088  29.533  1.00  0.00    -0.200 F 
ENDBRANCH  63  86
ENDBRANCH  37  38
ENDBRANCH  29  32
ENDBRANCH  27  28
ENDBRANCH  26  27
ENDBRANCH  25  26
ENDBRANCH  24  25
ENDBRANCH   1  24
TORSDOF 19
ENDMDL
